MODEL 1
REMARK VINA RESULT:     -11.0      0.000      0.000
REMARK SMILES O=C(NCCCCNC(=O)c1ccc(C[NH+]2CC[NH2+]CC2)c(Br)c1)c1ccc(-c2c3nc(c(-c4ccccc4)c4ccc([nH]4)c(-c4ccccc4)c4nc(c(-c5ccccc5)c5ccc2[nH]5)C=C4)C=C3)cc1
REMARK SMILES IDX 5 1 4 2 3 3 1 4 2 5 25 7 26 8 72 9 27 10 71 11 28 12 29 13
REMARK SMILES IDX 30 14 65 15 31 16 70 17 64 18 66 19 32 20 69 21 63 22 62 23
REMARK SMILES IDX 33 25 55 26 40 27 54 28 41 29 44 30 53 31 67 32 42 33 43 34
REMARK SMILES IDX 52 36 68 37 45 38 34 39 35 40 39 41 36 42 38 43 37 44 56 45
REMARK SMILES IDX 57 46 61 47 58 48 60 49 59 50 46 51 47 52 51 53 48 54 50 55
REMARK SMILES IDX 49 56 6 57 7 58 8 59 9 60 10 62 11 63 12 64 24 65 13 66
REMARK SMILES IDX 22 67 14 68 23 69 15 70 16 71 17 72 21 73 18 75 20 76 19 77
REMARK H PARENT 3 6 66 24 44 35 8 61 16 74 19 78 19 79
REMARK Flexibility Score: inf
ROOT
ATOM      1  C   UNL A   1      33.732  28.104  25.654  1.00  0.00     0.023 C 
ENDROOT
BRANCH   1   2
ATOM      2  C   UNL A   1      33.676  28.386  27.150  1.00  0.00     0.116 C 
BRANCH   2   3
ATOM      3  N   UNL A   1      33.584  29.805  27.450  1.00  0.00    -0.352 N 
ATOM      4  O   UNL A   1      34.176  31.778  28.368  1.00  0.00    -0.269 OA
ATOM      5  C   UNL A   1      34.496  30.634  28.058  1.00  0.00     0.251 C 
ATOM      6  H   UNL A   1      32.742  30.237  27.178  1.00  0.00     0.163 HD
BRANCH   5   7
ATOM      7  C   UNL A   1      35.859  30.148  28.364  1.00  0.00     0.039 A 
ATOM      8  C   UNL A   1      36.179  29.630  29.622  1.00  0.00     0.014 A 
ATOM      9  C   UNL A   1      36.826  30.183  27.355  1.00  0.00     0.014 A 
ATOM     10  C   UNL A   1      37.492  29.265  29.911  1.00  0.00     0.010 A 
ATOM     11  C   UNL A   1      38.124  29.748  27.624  1.00  0.00     0.010 A 
ATOM     12  C   UNL A   1      38.475  29.310  28.911  1.00  0.00    -0.014 A 
BRANCH  12  13
ATOM     13  C   UNL A   1      39.856  28.848  29.193  1.00  0.00     0.031 A 
ATOM     14  C   UNL A   1      40.869  29.773  29.805  1.00  0.00     0.074 A 
ATOM     15  C   UNL A   1      40.210  27.594  28.852  1.00  0.00     0.049 A 
ATOM     16  N   UNL A   1      42.140  29.567  30.036  1.00  0.00    -0.248 NA
ATOM     17  C   UNL A   1      40.392  31.108  30.197  1.00  0.00     0.031 C 
ATOM     18  C   UNL A   1      39.319  26.600  28.251  1.00  0.00     0.029 A 
ATOM     19  N   UNL A   1      41.417  26.949  28.945  1.00  0.00    -0.354 N 
ATOM     20  C   UNL A   1      42.624  30.753  30.576  1.00  0.00     0.074 A 
ATOM     21  C   UNL A   1      41.512  31.680  30.615  1.00  0.00     0.031 C 
ATOM     22  C   UNL A   1      40.007  25.471  28.034  1.00  0.00     0.029 A 
ATOM     23  C   UNL A   1      41.399  25.681  28.419  1.00  0.00     0.049 A 
ATOM     24  H   UNL A   1      42.218  27.355  29.350  1.00  0.00     0.167 HD
ATOM     25  C   UNL A   1      43.879  31.042  30.997  1.00  0.00     0.031 A 
ATOM     26  C   UNL A   1      42.394  24.795  28.227  1.00  0.00     0.031 A 
ATOM     27  C   UNL A   1      44.983  30.119  30.939  1.00  0.00     0.049 A 
ATOM     28  C   UNL A   1      43.788  25.152  28.650  1.00  0.00     0.074 A 
ATOM     29  C   UNL A   1      46.283  30.302  31.381  1.00  0.00     0.029 A 
ATOM     30  N   UNL A   1      44.923  28.846  30.393  1.00  0.00    -0.354 N 
ATOM     31  N   UNL A   1      44.221  26.260  29.203  1.00  0.00    -0.248 NA
ATOM     32  C   UNL A   1      44.830  24.140  28.431  1.00  0.00     0.031 C 
ATOM     33  C   UNL A   1      47.024  29.167  31.039  1.00  0.00     0.029 A 
ATOM     34  C   UNL A   1      46.171  28.246  30.451  1.00  0.00     0.049 A 
ATOM     35  H   UNL A   1      44.113  28.430  30.018  1.00  0.00     0.167 HD
ATOM     36  C   UNL A   1      45.579  26.069  29.421  1.00  0.00     0.074 A 
ATOM     37  C   UNL A   1      45.896  24.737  28.946  1.00  0.00     0.031 C 
ATOM     38  C   UNL A   1      46.476  26.920  29.975  1.00  0.00     0.031 A 
BRANCH  25  39
ATOM     39  C   UNL A   1      44.133  32.435  31.509  1.00  0.00    -0.014 A 
ATOM     40  C   UNL A   1      43.977  32.762  32.865  1.00  0.00     0.009 A 
ATOM     41  C   UNL A   1      44.549  33.435  30.615  1.00  0.00     0.009 A 
ATOM     42  C   UNL A   1      44.181  34.073  33.304  1.00  0.00     0.001 A 
ATOM     43  C   UNL A   1      44.784  34.736  31.063  1.00  0.00     0.001 A 
ATOM     44  C   UNL A   1      44.586  35.058  32.404  1.00  0.00     0.000 A 
ENDBRANCH  25  39
BRANCH  26  45
ATOM     45  C   UNL A   1      42.089  23.497  27.574  1.00  0.00    -0.014 A 
ATOM     46  C   UNL A   1      42.376  23.292  26.217  1.00  0.00     0.009 A 
ATOM     47  C   UNL A   1      41.566  22.433  28.328  1.00  0.00     0.009 A 
ATOM     48  C   UNL A   1      42.137  22.048  25.627  1.00  0.00     0.001 A 
ATOM     49  C   UNL A   1      41.357  21.184  27.742  1.00  0.00     0.001 A 
ATOM     50  C   UNL A   1      41.638  20.994  26.391  1.00  0.00     0.000 A 
ENDBRANCH  26  45
BRANCH  38  51
ATOM     51  C   UNL A   1      47.887  26.431  30.142  1.00  0.00    -0.014 A 
ATOM     52  C   UNL A   1      48.317  25.826  31.332  1.00  0.00     0.009 A 
ATOM     53  C   UNL A   1      48.775  26.506  29.056  1.00  0.00     0.009 A 
ATOM     54  C   UNL A   1      49.615  25.322  31.436  1.00  0.00     0.001 A 
ATOM     55  C   UNL A   1      50.062  25.976  29.154  1.00  0.00     0.001 A 
ATOM     56  C   UNL A   1      50.483  25.388  30.345  1.00  0.00     0.000 A 
ENDBRANCH  38  51
ENDBRANCH  12  13
ENDBRANCH   5   7
ENDBRANCH   2   3
ENDBRANCH   1   2
BRANCH   1  57
ATOM     57  C   UNL A   1      33.266  29.250  24.755  1.00  0.00     0.023 C 
BRANCH  57  58
ATOM     58  C   UNL A   1      33.288  28.957  23.256  1.00  0.00     0.116 C 
BRANCH  58  59
ATOM     59  N   UNL A   1      32.006  29.217  22.616  1.00  0.00    -0.352 N 
ATOM     60  C   UNL A   1      30.936  28.369  22.456  1.00  0.00     0.251 C 
ATOM     61  H   UNL A   1      31.890  30.123  22.249  1.00  0.00     0.163 HD
ATOM     62  O   UNL A   1      29.970  28.690  21.777  1.00  0.00    -0.269 OA
BRANCH  60  63
ATOM     63  C   UNL A   1      30.979  27.045  23.099  1.00  0.00     0.040 A 
ATOM     64  C   UNL A   1      30.287  26.818  24.286  1.00  0.00     0.014 A 
ATOM     65  C   UNL A   1      31.751  26.039  22.520  1.00  0.00     0.030 A 
ATOM     66  C   UNL A   1      30.478  25.617  24.965  1.00  0.00     0.011 A 
ATOM     67  C   UNL A   1      31.940  24.836  23.208  1.00  0.00     0.027 A 
ATOM     68  C   UNL A   1      31.371  24.640  24.481  1.00  0.00     0.020 A 
ATOM     69  Br  UNL A   1      33.005  23.527  22.334  1.00  0.00    -0.050 Br
BRANCH  68  70
ATOM     70  C   UNL A   1      31.694  23.465  25.382  1.00  0.00     0.300 C 
BRANCH  70  71
ATOM     71  N   UNL A   1      32.654  23.693  26.472  1.00  0.00    -0.322 N 
ATOM     72  C   UNL A   1      32.730  22.643  27.494  1.00  0.00     0.324 C 
ATOM     73  C   UNL A   1      33.986  24.180  26.093  1.00  0.00     0.324 C 
ATOM     74  H   UNL A   1      32.202  24.489  26.921  1.00  0.00     0.348 HD
ATOM     75  C   UNL A   1      33.811  21.564  27.254  1.00  0.00     0.322 C 
ATOM     76  C   UNL A   1      35.088  23.104  25.930  1.00  0.00     0.322 C 
ATOM     77  N   UNL A   1      35.152  22.134  27.035  1.00  0.00    -0.337 N 
ATOM     78  H   UNL A   1      35.805  21.388  26.798  1.00  0.00     0.346 HD
ATOM     79  H   UNL A   1      35.469  22.602  27.884  1.00  0.00     0.346 HD
ENDBRANCH  70  71
ENDBRANCH  68  70
ENDBRANCH  60  63
ENDBRANCH  58  59
ENDBRANCH  57  58
ENDBRANCH   1  57
TORSDOF 13
ENDMDL
MODEL 2
REMARK VINA RESULT:     -10.7      2.990      7.906
REMARK SMILES O=C(NCCCCNC(=O)c1ccc(C[NH+]2CC[NH2+]CC2)c(Br)c1)c1ccc(-c2c3nc(c(-c4ccccc4)c4ccc([nH]4)c(-c4ccccc4)c4nc(c(-c5ccccc5)c5ccc2[nH]5)C=C4)C=C3)cc1
REMARK SMILES IDX 5 1 4 2 3 3 1 4 2 5 25 7 26 8 72 9 27 10 71 11 28 12 29 13
REMARK SMILES IDX 30 14 65 15 31 16 70 17 64 18 66 19 32 20 69 21 63 22 62 23
REMARK SMILES IDX 33 25 55 26 40 27 54 28 41 29 44 30 53 31 67 32 42 33 43 34
REMARK SMILES IDX 52 36 68 37 45 38 34 39 35 40 39 41 36 42 38 43 37 44 56 45
REMARK SMILES IDX 57 46 61 47 58 48 60 49 59 50 46 51 47 52 51 53 48 54 50 55
REMARK SMILES IDX 49 56 6 57 7 58 8 59 9 60 10 62 11 63 12 64 24 65 13 66
REMARK SMILES IDX 22 67 14 68 23 69 15 70 16 71 17 72 21 73 18 75 20 76 19 77
REMARK H PARENT 3 6 66 24 44 35 8 61 16 74 19 78 19 79
REMARK Flexibility Score: inf
ROOT
ATOM      1  C   UNL A   1      35.573  23.013  25.695  1.00  0.00     0.023 C 
ENDROOT
BRANCH   1   2
ATOM      2  C   UNL A   1      36.919  23.712  25.548  1.00  0.00     0.116 C 
BRANCH   2   3
ATOM      3  N   UNL A   1      38.042  22.799  25.675  1.00  0.00    -0.352 N 
ATOM      4  O   UNL A   1      40.171  22.162  26.056  1.00  0.00    -0.269 OA
ATOM      5  C   UNL A   1      39.302  23.020  26.176  1.00  0.00     0.251 C 
ATOM      6  H   UNL A   1      37.876  21.883  25.351  1.00  0.00     0.163 HD
BRANCH   5   7
ATOM      7  C   UNL A   1      39.625  24.301  26.842  1.00  0.00     0.039 A 
ATOM      8  C   UNL A   1      40.332  25.307  26.177  1.00  0.00     0.014 A 
ATOM      9  C   UNL A   1      39.180  24.508  28.151  1.00  0.00     0.014 A 
ATOM     10  C   UNL A   1      40.701  26.464  26.857  1.00  0.00     0.010 A 
ATOM     11  C   UNL A   1      39.488  25.700  28.808  1.00  0.00     0.010 A 
ATOM     12  C   UNL A   1      40.274  26.677  28.176  1.00  0.00    -0.014 A 
BRANCH  12  13
ATOM     13  C   UNL A   1      40.600  27.943  28.877  1.00  0.00     0.031 A 
ATOM     14  C   UNL A   1      41.897  28.103  29.615  1.00  0.00     0.074 A 
ATOM     15  C   UNL A   1      39.695  28.941  28.883  1.00  0.00     0.049 A 
ATOM     16  N   UNL A   1      42.307  29.102  30.356  1.00  0.00    -0.248 NA
ATOM     17  C   UNL A   1      42.855  26.991  29.518  1.00  0.00     0.031 C 
ATOM     18  C   UNL A   1      38.398  28.907  28.205  1.00  0.00     0.029 A 
ATOM     19  N   UNL A   1      39.720  30.167  29.496  1.00  0.00    -0.354 N 
ATOM     20  C   UNL A   1      43.558  28.730  30.835  1.00  0.00     0.074 A 
ATOM     21  C   UNL A   1      43.826  27.404  30.319  1.00  0.00     0.031 C 
ATOM     22  C   UNL A   1      37.754  30.060  28.434  1.00  0.00     0.029 A 
ATOM     23  C   UNL A   1      38.562  30.885  29.325  1.00  0.00     0.049 A 
ATOM     24  H   UNL A   1      40.493  30.501  30.008  1.00  0.00     0.167 HD
ATOM     25  C   UNL A   1      44.401  29.429  31.634  1.00  0.00     0.031 A 
ATOM     26  C   UNL A   1      38.170  32.058  29.856  1.00  0.00     0.031 A 
ATOM     27  C   UNL A   1      44.118  30.741  32.156  1.00  0.00     0.049 A 
ATOM     28  C   UNL A   1      39.094  32.793  30.780  1.00  0.00     0.074 A 
ATOM     29  C   UNL A   1      44.926  31.549  32.937  1.00  0.00     0.029 A 
ATOM     30  N   UNL A   1      42.930  31.430  31.963  1.00  0.00    -0.354 N 
ATOM     31  N   UNL A   1      40.294  32.451  31.187  1.00  0.00    -0.248 NA
ATOM     32  C   UNL A   1      38.619  34.076  31.315  1.00  0.00     0.031 C 
ATOM     33  C   UNL A   1      44.200  32.697  33.274  1.00  0.00     0.029 A 
ATOM     34  C   UNL A   1      42.968  32.637  32.642  1.00  0.00     0.049 A 
ATOM     35  H   UNL A   1      42.171  31.108  31.424  1.00  0.00     0.167 HD
ATOM     36  C   UNL A   1      40.727  33.486  32.004  1.00  0.00     0.074 A 
ATOM     37  C   UNL A   1      39.664  34.472  32.031  1.00  0.00     0.031 C 
ATOM     38  C   UNL A   1      41.904  33.610  32.663  1.00  0.00     0.031 A 
BRANCH  25  39
ATOM     39  C   UNL A   1      45.689  28.759  32.032  1.00  0.00    -0.014 A 
ATOM     40  C   UNL A   1      46.859  28.896  31.268  1.00  0.00     0.009 A 
ATOM     41  C   UNL A   1      45.733  27.986  33.203  1.00  0.00     0.009 A 
ATOM     42  C   UNL A   1      48.030  28.231  31.641  1.00  0.00     0.001 A 
ATOM     43  C   UNL A   1      46.913  27.349  33.591  1.00  0.00     0.001 A 
ATOM     44  C   UNL A   1      48.057  27.460  32.803  1.00  0.00     0.000 A 
ENDBRANCH  25  39
BRANCH  26  45
ATOM     45  C   UNL A   1      36.818  32.581  29.533  1.00  0.00    -0.014 A 
ATOM     46  C   UNL A   1      36.597  33.327  28.366  1.00  0.00     0.009 A 
ATOM     47  C   UNL A   1      35.727  32.278  30.364  1.00  0.00     0.009 A 
ATOM     48  C   UNL A   1      35.311  33.766  28.043  1.00  0.00     0.001 A 
ATOM     49  C   UNL A   1      34.438  32.693  30.023  1.00  0.00     0.001 A 
ATOM     50  C   UNL A   1      34.233  33.441  28.866  1.00  0.00     0.000 A 
ENDBRANCH  26  45
BRANCH  38  51
ATOM     51  C   UNL A   1      42.136  34.874  33.441  1.00  0.00    -0.014 A 
ATOM     52  C   UNL A   1      41.695  35.011  34.766  1.00  0.00     0.009 A 
ATOM     53  C   UNL A   1      42.879  35.915  32.860  1.00  0.00     0.009 A 
ATOM     54  C   UNL A   1      41.982  36.172  35.487  1.00  0.00     0.001 A 
ATOM     55  C   UNL A   1      43.188  37.061  33.592  1.00  0.00     0.001 A 
ATOM     56  C   UNL A   1      42.735  37.191  34.904  1.00  0.00     0.000 A 
ENDBRANCH  38  51
ENDBRANCH  12  13
ENDBRANCH   5   7
ENDBRANCH   2   3
ENDBRANCH   1   2
BRANCH   1  57
ATOM     57  C   UNL A   1      35.643  21.541  26.101  1.00  0.00     0.023 C 
BRANCH  57  58
ATOM     58  C   UNL A   1      35.416  20.539  24.970  1.00  0.00     0.116 C 
BRANCH  58  59
ATOM     59  N   UNL A   1      34.406  19.543  25.298  1.00  0.00    -0.352 N 
ATOM     60  C   UNL A   1      33.037  19.652  25.235  1.00  0.00     0.251 C 
ATOM     61  H   UNL A   1      34.751  18.673  25.606  1.00  0.00     0.163 HD
ATOM     62  O   UNL A   1      32.312  18.768  25.671  1.00  0.00    -0.269 OA
BRANCH  60  63
ATOM     63  C   UNL A   1      32.449  20.870  24.654  1.00  0.00     0.040 A 
ATOM     64  C   UNL A   1      32.480  21.076  23.277  1.00  0.00     0.014 A 
ATOM     65  C   UNL A   1      31.897  21.825  25.505  1.00  0.00     0.030 A 
ATOM     66  C   UNL A   1      32.074  22.305  22.764  1.00  0.00     0.011 A 
ATOM     67  C   UNL A   1      31.494  23.059  24.985  1.00  0.00     0.027 A 
ATOM     68  C   UNL A   1      31.653  23.347  23.616  1.00  0.00     0.020 A 
ATOM     69  Br  UNL A   1      30.750  24.292  26.226  1.00  0.00    -0.050 Br
BRANCH  68  70
ATOM     70  C   UNL A   1      31.443  24.719  23.009  1.00  0.00     0.300 C 
BRANCH  70  71
ATOM     71  N   UNL A   1      32.642  25.513  22.700  1.00  0.00    -0.322 N 
ATOM     72  C   UNL A   1      32.405  26.833  22.105  1.00  0.00     0.324 C 
ATOM     73  C   UNL A   1      33.690  25.560  23.727  1.00  0.00     0.324 C 
ATOM     74  H   UNL A   1      33.031  24.935  21.956  1.00  0.00     0.348 HD
ATOM     75  C   UNL A   1      32.329  28.006  23.107  1.00  0.00     0.322 C 
ATOM     76  C   UNL A   1      33.658  26.779  24.683  1.00  0.00     0.322 C 
ATOM     77  N   UNL A   1      33.497  28.074  24.002  1.00  0.00    -0.337 N 
ATOM     78  H   UNL A   1      33.354  28.808  24.695  1.00  0.00     0.346 HD
ATOM     79  H   UNL A   1      34.335  28.282  23.459  1.00  0.00     0.346 HD
ENDBRANCH  70  71
ENDBRANCH  68  70
ENDBRANCH  60  63
ENDBRANCH  58  59
ENDBRANCH  57  58
ENDBRANCH   1  57
TORSDOF 13
ENDMDL
MODEL 3
REMARK VINA RESULT:     -10.7      2.861      7.176
REMARK SMILES O=C(NCCCCNC(=O)c1ccc(C[NH+]2CC[NH2+]CC2)c(Br)c1)c1ccc(-c2c3nc(c(-c4ccccc4)c4ccc([nH]4)c(-c4ccccc4)c4nc(c(-c5ccccc5)c5ccc2[nH]5)C=C4)C=C3)cc1
REMARK SMILES IDX 5 1 4 2 3 3 1 4 2 5 25 7 26 8 72 9 27 10 71 11 28 12 29 13
REMARK SMILES IDX 30 14 65 15 31 16 70 17 64 18 66 19 32 20 69 21 63 22 62 23
REMARK SMILES IDX 33 25 55 26 40 27 54 28 41 29 44 30 53 31 67 32 42 33 43 34
REMARK SMILES IDX 52 36 68 37 45 38 34 39 35 40 39 41 36 42 38 43 37 44 56 45
REMARK SMILES IDX 57 46 61 47 58 48 60 49 59 50 46 51 47 52 51 53 48 54 50 55
REMARK SMILES IDX 49 56 6 57 7 58 8 59 9 60 10 62 11 63 12 64 24 65 13 66
REMARK SMILES IDX 22 67 14 68 23 69 15 70 16 71 17 72 21 73 18 75 20 76 19 77
REMARK H PARENT 3 6 66 24 44 35 8 61 16 74 19 78 19 79
REMARK Flexibility Score: inf
ROOT
ATOM      1  C   UNL A   1      31.167  31.855  26.408  1.00  0.00     0.023 C 
ENDROOT
BRANCH   1   2
ATOM      2  C   UNL A   1      32.475  32.396  26.972  1.00  0.00     0.116 C 
BRANCH   2   3
ATOM      3  N   UNL A   1      32.349  33.753  27.479  1.00  0.00    -0.352 N 
ATOM      4  O   UNL A   1      32.773  35.522  28.811  1.00  0.00    -0.269 OA
ATOM      5  C   UNL A   1      33.130  34.427  28.386  1.00  0.00     0.251 C 
ATOM      6  H   UNL A   1      31.589  34.265  27.119  1.00  0.00     0.163 HD
BRANCH   5   7
ATOM      7  C   UNL A   1      34.392  33.830  28.875  1.00  0.00     0.039 A 
ATOM      8  C   UNL A   1      34.400  32.915  29.931  1.00  0.00     0.014 A 
ATOM      9  C   UNL A   1      35.587  34.171  28.236  1.00  0.00     0.014 A 
ATOM     10  C   UNL A   1      35.610  32.438  30.430  1.00  0.00     0.010 A 
ATOM     11  C   UNL A   1      36.793  33.636  28.690  1.00  0.00     0.010 A 
ATOM     12  C   UNL A   1      36.818  32.785  29.807  1.00  0.00    -0.014 A 
BRANCH  12  13
ATOM     13  C   UNL A   1      38.102  32.218  30.287  1.00  0.00     0.031 A 
ATOM     14  C   UNL A   1      38.626  30.924  29.735  1.00  0.00     0.074 A 
ATOM     15  C   UNL A   1      38.777  32.856  31.261  1.00  0.00     0.049 A 
ATOM     16  N   UNL A   1      39.680  30.238  30.099  1.00  0.00    -0.248 NA
ATOM     17  C   UNL A   1      37.860  30.315  28.637  1.00  0.00     0.031 C 
ATOM     18  C   UNL A   1      38.371  34.120  31.880  1.00  0.00     0.029 A 
ATOM     19  N   UNL A   1      39.935  32.520  31.915  1.00  0.00    -0.354 N 
ATOM     20  C   UNL A   1      39.691  29.104  29.296  1.00  0.00     0.074 A 
ATOM     21  C   UNL A   1      38.525  29.185  28.442  1.00  0.00     0.031 C 
ATOM     22  C   UNL A   1      39.267  34.454  32.818  1.00  0.00     0.029 A 
ATOM     23  C   UNL A   1      40.273  33.401  32.912  1.00  0.00     0.049 A 
ATOM     24  H   UNL A   1      40.473  31.726  31.691  1.00  0.00     0.167 HD
ATOM     25  C   UNL A   1      40.589  28.089  29.276  1.00  0.00     0.031 A 
ATOM     26  C   UNL A   1      41.255  33.353  33.831  1.00  0.00     0.031 A 
ATOM     27  C   UNL A   1      41.737  28.009  30.141  1.00  0.00     0.049 A 
ATOM     28  C   UNL A   1      42.209  32.195  33.828  1.00  0.00     0.074 A 
ATOM     29  C   UNL A   1      42.730  27.043  30.168  1.00  0.00     0.029 A 
ATOM     30  N   UNL A   1      42.039  28.920  31.142  1.00  0.00    -0.354 N 
ATOM     31  N   UNL A   1      42.235  31.153  33.031  1.00  0.00    -0.248 NA
ATOM     32  C   UNL A   1      43.271  32.205  34.843  1.00  0.00     0.031 C 
ATOM     33  C   UNL A   1      43.592  27.334  31.230  1.00  0.00     0.029 A 
ATOM     34  C   UNL A   1      43.181  28.520  31.818  1.00  0.00     0.049 A 
ATOM     35  H   UNL A   1      41.518  29.731  31.344  1.00  0.00     0.167 HD
ATOM     36  C   UNL A   1      43.328  30.398  33.431  1.00  0.00     0.074 A 
ATOM     37  C   UNL A   1      43.943  31.104  34.538  1.00  0.00     0.031 C 
ATOM     38  C   UNL A   1      43.784  29.229  32.919  1.00  0.00     0.031 A 
BRANCH  25  39
ATOM     39  C   UNL A   1      40.330  26.957  28.319  1.00  0.00    -0.014 A 
ATOM     40  C   UNL A   1      39.564  25.839  28.686  1.00  0.00     0.009 A 
ATOM     41  C   UNL A   1      40.856  27.018  27.017  1.00  0.00     0.009 A 
ATOM     42  C   UNL A   1      39.374  24.785  27.788  1.00  0.00     0.001 A 
ATOM     43  C   UNL A   1      40.637  25.979  26.112  1.00  0.00     0.001 A 
ATOM     44  C   UNL A   1      39.908  24.856  26.502  1.00  0.00     0.000 A 
ENDBRANCH  25  39
BRANCH  26  45
ATOM     45  C   UNL A   1      41.352  34.436  34.841  1.00  0.00    -0.014 A 
ATOM     46  C   UNL A   1      40.686  34.332  36.071  1.00  0.00     0.009 A 
ATOM     47  C   UNL A   1      42.168  35.555  34.602  1.00  0.00     0.009 A 
ATOM     48  C   UNL A   1      40.830  35.331  37.037  1.00  0.00     0.001 A 
ATOM     49  C   UNL A   1      42.333  36.536  35.581  1.00  0.00     0.001 A 
ATOM     50  C   UNL A   1      41.660  36.425  36.795  1.00  0.00     0.000 A 
ENDBRANCH  26  45
BRANCH  38  51
ATOM     51  C   UNL A   1      45.035  28.650  33.515  1.00  0.00    -0.014 A 
ATOM     52  C   UNL A   1      46.308  29.025  33.058  1.00  0.00     0.009 A 
ATOM     53  C   UNL A   1      44.935  27.772  34.608  1.00  0.00     0.009 A 
ATOM     54  C   UNL A   1      47.454  28.520  33.674  1.00  0.00     0.001 A 
ATOM     55  C   UNL A   1      46.083  27.292  35.239  1.00  0.00     0.001 A 
ATOM     56  C   UNL A   1      47.342  27.662  34.769  1.00  0.00     0.000 A 
ENDBRANCH  38  51
ENDBRANCH  12  13
ENDBRANCH   5   7
ENDBRANCH   2   3
ENDBRANCH   1   2
BRANCH   1  57
ATOM     57  C   UNL A   1      31.291  30.566  25.596  1.00  0.00     0.023 C 
BRANCH  57  58
ATOM     58  C   UNL A   1      32.591  29.789  25.794  1.00  0.00     0.116 C 
BRANCH  58  59
ATOM     59  N   UNL A   1      33.349  29.642  24.559  1.00  0.00    -0.352 N 
ATOM     60  C   UNL A   1      33.753  28.489  23.929  1.00  0.00     0.251 C 
ATOM     61  H   UNL A   1      33.605  30.483  24.115  1.00  0.00     0.163 HD
ATOM     62  O   UNL A   1      34.501  28.526  22.962  1.00  0.00    -0.269 OA
BRANCH  60  63
ATOM     63  C   UNL A   1      33.290  27.195  24.456  1.00  0.00     0.040 A 
ATOM     64  C   UNL A   1      33.906  26.629  25.569  1.00  0.00     0.014 A 
ATOM     65  C   UNL A   1      32.253  26.533  23.802  1.00  0.00     0.030 A 
ATOM     66  C   UNL A   1      33.568  25.332  25.947  1.00  0.00     0.011 A 
ATOM     67  C   UNL A   1      31.919  25.229  24.184  1.00  0.00     0.027 A 
ATOM     68  C   UNL A   1      32.630  24.579  25.212  1.00  0.00     0.020 A 
ATOM     69  Br  UNL A   1      30.489  24.414  23.234  1.00  0.00    -0.050 Br
BRANCH  68  70
ATOM     70  C   UNL A   1      32.481  23.109  25.546  1.00  0.00     0.300 C 
BRANCH  70  71
ATOM     71  N   UNL A   1      32.979  22.138  24.560  1.00  0.00    -0.322 N 
ATOM     72  C   UNL A   1      34.432  22.113  24.358  1.00  0.00     0.324 C 
ATOM     73  C   UNL A   1      32.415  20.784  24.618  1.00  0.00     0.324 C 
ATOM     74  H   UNL A   1      32.585  22.550  23.715  1.00  0.00     0.348 HD
ATOM     75  C   UNL A   1      35.202  21.087  25.219  1.00  0.00     0.322 C 
ATOM     76  C   UNL A   1      33.229  19.736  25.418  1.00  0.00     0.322 C 
ATOM     77  N   UNL A   1      34.666  19.720  25.100  1.00  0.00    -0.337 N 
ATOM     78  H   UNL A   1      35.153  19.105  25.751  1.00  0.00     0.346 HD
ATOM     79  H   UNL A   1      34.803  19.379  24.149  1.00  0.00     0.346 HD
ENDBRANCH  70  71
ENDBRANCH  68  70
ENDBRANCH  60  63
ENDBRANCH  58  59
ENDBRANCH  57  58
ENDBRANCH   1  57
TORSDOF 13
ENDMDL
