MODEL 1
REMARK VINA RESULT:     -11.9      0.000      0.000
REMARK SMILES CC[NH+]1CCN(c2ccc(NC(=O)C3CCCC3)c(C(=O)NCCCCNC(=O)c3ccc(-c4c5nc(c(-c6ccccc6)c6ccc([nH]6)c(-c6ccccc6)c6nc(c(-c7ccccc7)c7ccc4[nH]7)C=C6)C=C5)cc3)c2)CC1
REMARK SMILES IDX 24 1 23 2 22 3 20 4 21 5 19 7 7 8 8 9 78 10 9 11 10 12 6 13
REMARK SMILES IDX 3 14 4 15 80 16 5 18 79 19 2 20 1 21 11 22 12 23 13 25 14 26
REMARK SMILES IDX 15 27 18 28 16 29 17 30 25 31 26 32 27 33 28 34 29 36 30 37
REMARK SMILES IDX 31 38 77 39 32 40 76 41 33 42 34 43 35 44 70 45 36 46 75 47
REMARK SMILES IDX 69 48 71 49 37 50 74 51 68 52 67 53 38 55 60 56 45 57 59 58
REMARK SMILES IDX 46 59 49 60 58 61 72 62 47 63 48 64 57 66 73 67 50 68 39 69
REMARK SMILES IDX 40 70 44 71 41 72 43 73 42 74 61 75 62 76 66 77 63 78 65 79
REMARK SMILES IDX 64 80 51 81 52 82 56 83 53 84 55 85 54 86
REMARK H PARENT 22 6 3 17 11 24 27 35 71 54 49 65
REMARK Flexibility Score: inf
ROOT
ATOM      1  C   UNL A   1      31.851  30.509  26.208  1.00  0.00     0.023 C 
ENDROOT
BRANCH   1   2
ATOM      2  C   UNL A   1      31.928  29.367  27.211  1.00  0.00     0.116 C 
BRANCH   2   3
ATOM      3  N   UNL A   1      32.999  28.398  26.995  1.00  0.00    -0.352 N 
ATOM      4  C   UNL A   1      33.047  27.259  26.205  1.00  0.00     0.253 C 
ATOM      5  O   UNL A   1      34.082  26.595  26.176  1.00  0.00    -0.269 OA
ATOM      6  H   UNL A   1      33.827  28.585  27.494  1.00  0.00     0.163 HD
BRANCH   4   7
ATOM      7  C   UNL A   1      31.836  26.772  25.484  1.00  0.00     0.065 A 
ATOM      8  C   UNL A   1      30.049  27.408  23.945  1.00  0.00     0.038 A 
ATOM      9  C   UNL A   1      29.247  26.482  24.611  1.00  0.00     0.028 A 
ATOM     10  C   UNL A   1      31.379  27.475  24.362  1.00  0.00     0.042 A 
ATOM     11  C   UNL A   1      29.757  25.638  25.600  1.00  0.00     0.029 A 
ATOM     12  C   UNL A   1      31.088  25.689  25.969  1.00  0.00     0.054 A 
BRANCH   8  13
ATOM     13  N   UNL A   1      29.531  28.261  22.994  1.00  0.00    -0.360 N 
ATOM     14  N   UNL A   1      28.262  30.854  22.363  1.00  0.00    -0.332 N 
ATOM     15  C   UNL A   1      27.541  29.760  23.060  1.00  0.00     0.283 C 
ATOM     16  C   UNL A   1      29.704  30.717  22.680  1.00  0.00     0.283 C 
ATOM     17  H   UNL A   1      27.952  31.773  22.681  1.00  0.00     0.348 HD
ATOM     18  C   UNL A   1      28.073  28.333  22.769  1.00  0.00     0.178 C 
ATOM     19  C   UNL A   1      30.308  29.333  22.346  1.00  0.00     0.178 C 
BRANCH  14  20
ATOM     20  C   UNL A   1      27.971  30.811  20.921  1.00  0.00     0.258 C 
ATOM     21  C   UNL A   1      27.971  32.181  20.256  1.00  0.00     0.071 C 
ENDBRANCH  14  20
ENDBRANCH   8  13
BRANCH  12  22
ATOM     22  N   UNL A   1      31.683  24.706  26.776  1.00  0.00    -0.325 N 
ATOM     23  C   UNL A   1      32.378  23.563  26.522  1.00  0.00     0.227 C 
ATOM     24  H   UNL A   1      31.575  24.882  27.739  1.00  0.00     0.169 HD
ATOM     25  O   UNL A   1      32.717  22.903  27.518  1.00  0.00    -0.274 OA
BRANCH  23  26
ATOM     26  C   UNL A   1      32.791  23.015  25.148  1.00  0.00     0.079 C 
ATOM     27  C   UNL A   1      31.608  22.559  24.296  1.00  0.00     0.013 C 
ATOM     28  C   UNL A   1      33.740  23.789  24.224  1.00  0.00     0.013 C 
ATOM     29  C   UNL A   1      32.130  22.583  22.867  1.00  0.00     0.001 C 
ATOM     30  C   UNL A   1      33.118  23.739  22.826  1.00  0.00     0.001 C 
ENDBRANCH  23  26
ENDBRANCH  12  22
ENDBRANCH   4   7
ENDBRANCH   2   3
ENDBRANCH   1   2
BRANCH   1  31
ATOM     31  C   UNL A   1      31.505  31.882  26.761  1.00  0.00     0.023 C 
BRANCH  31  32
ATOM     32  C   UNL A   1      32.675  32.716  27.264  1.00  0.00     0.116 C 
BRANCH  32  33
ATOM     33  N   UNL A   1      32.325  34.078  27.643  1.00  0.00    -0.352 N 
ATOM     34  C   UNL A   1      32.954  34.930  28.525  1.00  0.00     0.251 C 
ATOM     35  H   UNL A   1      31.522  34.443  27.206  1.00  0.00     0.163 HD
ATOM     36  O   UNL A   1      32.493  36.040  28.750  1.00  0.00    -0.269 OA
BRANCH  34  37
ATOM     37  C   UNL A   1      34.165  34.473  29.241  1.00  0.00     0.039 A 
ATOM     38  C   UNL A   1      34.014  33.846  30.481  1.00  0.00     0.014 A 
ATOM     39  C   UNL A   1      35.430  34.604  28.667  1.00  0.00     0.014 A 
ATOM     40  C   UNL A   1      35.122  33.258  31.095  1.00  0.00     0.010 A 
ATOM     41  C   UNL A   1      36.514  33.943  29.236  1.00  0.00     0.010 A 
ATOM     42  C   UNL A   1      36.369  33.255  30.451  1.00  0.00    -0.014 A 
BRANCH  42  43
ATOM     43  C   UNL A   1      37.533  32.528  31.017  1.00  0.00     0.031 A 
ATOM     44  C   UNL A   1      38.190  33.023  32.275  1.00  0.00     0.074 A 
ATOM     45  C   UNL A   1      38.051  31.474  30.357  1.00  0.00     0.049 A 
ATOM     46  N   UNL A   1      39.267  32.581  32.874  1.00  0.00    -0.248 NA
ATOM     47  C   UNL A   1      37.573  34.188  32.929  1.00  0.00     0.031 C 
ATOM     48  C   UNL A   1      37.535  30.914  29.105  1.00  0.00     0.029 A 
ATOM     49  N   UNL A   1      39.137  30.686  30.647  1.00  0.00    -0.354 N 
ATOM     50  C   UNL A   1      39.464  33.423  33.960  1.00  0.00     0.074 A 
ATOM     51  C   UNL A   1      38.430  34.432  33.908  1.00  0.00     0.031 C 
ATOM     52  C   UNL A   1      38.283  29.855  28.754  1.00  0.00     0.029 A 
ATOM     53  C   UNL A   1      39.356  29.687  29.729  1.00  0.00     0.049 A 
ATOM     54  H   UNL A   1      39.706  30.823  31.439  1.00  0.00     0.167 HD
ATOM     55  C   UNL A   1      40.407  33.352  34.930  1.00  0.00     0.031 A 
ATOM     56  C   UNL A   1      40.315  28.744  29.675  1.00  0.00     0.031 A 
ATOM     57  C   UNL A   1      41.429  32.343  34.992  1.00  0.00     0.049 A 
ATOM     58  C   UNL A   1      41.363  28.698  30.750  1.00  0.00     0.074 A 
ATOM     59  C   UNL A   1      42.399  32.155  35.962  1.00  0.00     0.029 A 
ATOM     60  N   UNL A   1      41.613  31.349  34.043  1.00  0.00    -0.354 N 
ATOM     61  N   UNL A   1      41.502  29.466  31.804  1.00  0.00    -0.248 NA
ATOM     62  C   UNL A   1      42.386  27.647  30.632  1.00  0.00     0.031 C 
ATOM     63  C   UNL A   1      43.197  31.073  35.577  1.00  0.00     0.029 A 
ATOM     64  C   UNL A   1      42.693  30.556  34.394  1.00  0.00     0.049 A 
ATOM     65  H   UNL A   1      41.058  31.225  33.239  1.00  0.00     0.167 HD
ATOM     66  C   UNL A   1      42.605  28.975  32.487  1.00  0.00     0.074 A 
ATOM     67  C   UNL A   1      43.093  27.835  31.737  1.00  0.00     0.031 C 
ATOM     68  C   UNL A   1      43.164  29.425  33.638  1.00  0.00     0.031 A 
BRANCH  55  69
ATOM     69  C   UNL A   1      40.371  34.407  36.000  1.00  0.00    -0.014 A 
ATOM     70  C   UNL A   1      39.607  34.233  37.165  1.00  0.00     0.009 A 
ATOM     71  C   UNL A   1      41.119  35.585  35.847  1.00  0.00     0.009 A 
ATOM     72  C   UNL A   1      39.558  35.236  38.135  1.00  0.00     0.001 A 
ATOM     73  C   UNL A   1      41.091  36.573  36.833  1.00  0.00     0.001 A 
ATOM     74  C   UNL A   1      40.303  36.403  37.970  1.00  0.00     0.000 A 
ENDBRANCH  55  69
BRANCH  56  75
ATOM     75  C   UNL A   1      40.318  27.744  28.575  1.00  0.00    -0.014 A 
ATOM     76  C   UNL A   1      39.677  26.507  28.743  1.00  0.00     0.009 A 
ATOM     77  C   UNL A   1      40.961  28.016  27.358  1.00  0.00     0.009 A 
ATOM     78  C   UNL A   1      39.701  25.552  27.724  1.00  0.00     0.001 A 
ATOM     79  C   UNL A   1      40.961  27.067  26.331  1.00  0.00     0.001 A 
ATOM     80  C   UNL A   1      40.339  25.835  26.518  1.00  0.00     0.000 A 
ENDBRANCH  56  75
BRANCH  68  81
ATOM     81  C   UNL A   1      44.340  28.661  34.175  1.00  0.00    -0.014 A 
ATOM     82  C   UNL A   1      45.655  29.015  33.837  1.00  0.00     0.009 A 
ATOM     83  C   UNL A   1      44.127  27.599  35.069  1.00  0.00     0.009 A 
ATOM     84  C   UNL A   1      46.733  28.298  34.362  1.00  0.00     0.001 A 
ATOM     85  C   UNL A   1      45.207  26.904  35.612  1.00  0.00     0.001 A 
ATOM     86  C   UNL A   1      46.509  27.249  35.252  1.00  0.00     0.000 A 
ENDBRANCH  68  81
ENDBRANCH  42  43
ENDBRANCH  34  37
ENDBRANCH  32  33
ENDBRANCH  31  32
ENDBRANCH   1  31
TORSDOF 15
ENDMDL
MODEL 2
REMARK VINA RESULT:     -11.7      1.446      1.813
REMARK SMILES CC[NH+]1CCN(c2ccc(NC(=O)C3CCCC3)c(C(=O)NCCCCNC(=O)c3ccc(-c4c5nc(c(-c6ccccc6)c6ccc([nH]6)c(-c6ccccc6)c6nc(c(-c7ccccc7)c7ccc4[nH]7)C=C6)C=C5)cc3)c2)CC1
REMARK SMILES IDX 24 1 23 2 22 3 20 4 21 5 19 7 7 8 8 9 78 10 9 11 10 12 6 13
REMARK SMILES IDX 3 14 4 15 80 16 5 18 79 19 2 20 1 21 11 22 12 23 13 25 14 26
REMARK SMILES IDX 15 27 18 28 16 29 17 30 25 31 26 32 27 33 28 34 29 36 30 37
REMARK SMILES IDX 31 38 77 39 32 40 76 41 33 42 34 43 35 44 70 45 36 46 75 47
REMARK SMILES IDX 69 48 71 49 37 50 74 51 68 52 67 53 38 55 60 56 45 57 59 58
REMARK SMILES IDX 46 59 49 60 58 61 72 62 47 63 48 64 57 66 73 67 50 68 39 69
REMARK SMILES IDX 40 70 44 71 41 72 43 73 42 74 61 75 62 76 66 77 63 78 65 79
REMARK SMILES IDX 64 80 51 81 52 82 56 83 53 84 55 85 54 86
REMARK H PARENT 22 6 3 17 11 24 27 35 71 54 49 65
REMARK Flexibility Score: inf
ROOT
ATOM      1  C   UNL A   1      34.646  30.690  27.282  1.00  0.00     0.023 C 
ENDROOT
BRANCH   1   2
ATOM      2  C   UNL A   1      34.104  29.313  26.928  1.00  0.00     0.116 C 
BRANCH   2   3
ATOM      3  N   UNL A   1      33.030  28.810  27.781  1.00  0.00    -0.352 N 
ATOM      4  C   UNL A   1      31.874  28.111  27.467  1.00  0.00     0.253 C 
ATOM      5  O   UNL A   1      31.111  27.780  28.374  1.00  0.00    -0.269 OA
ATOM      6  H   UNL A   1      33.146  29.001  28.740  1.00  0.00     0.163 HD
BRANCH   4   7
ATOM      7  C   UNL A   1      31.492  27.853  26.049  1.00  0.00     0.065 A 
ATOM      8  C   UNL A   1      30.406  28.805  24.079  1.00  0.00     0.038 A 
ATOM      9  C   UNL A   1      30.021  27.504  23.755  1.00  0.00     0.028 A 
ATOM     10  C   UNL A   1      31.216  28.938  25.206  1.00  0.00     0.042 A 
ATOM     11  C   UNL A   1      30.462  26.399  24.485  1.00  0.00     0.029 A 
ATOM     12  C   UNL A   1      31.300  26.548  25.574  1.00  0.00     0.054 A 
BRANCH   8  13
ATOM     13  N   UNL A   1      29.939  29.894  23.374  1.00  0.00    -0.360 N 
ATOM     14  N   UNL A   1      27.640  31.348  22.220  1.00  0.00    -0.332 N 
ATOM     15  C   UNL A   1      28.147  30.074  21.652  1.00  0.00     0.283 C 
ATOM     16  C   UNL A   1      27.951  31.350  23.670  1.00  0.00     0.283 C 
ATOM     17  H   UNL A   1      26.629  31.434  22.111  1.00  0.00     0.348 HD
ATOM     18  C   UNL A   1      29.643  29.779  21.931  1.00  0.00     0.178 C 
ATOM     19  C   UNL A   1      29.444  31.128  24.008  1.00  0.00     0.178 C 
BRANCH  14  20
ATOM     20  C   UNL A   1      28.219  32.489  21.494  1.00  0.00     0.258 C 
ATOM     21  C   UNL A   1      27.910  32.486  20.003  1.00  0.00     0.071 C 
ENDBRANCH  14  20
ENDBRANCH   8  13
BRANCH  12  22
ATOM     22  N   UNL A   1      31.950  25.458  26.178  1.00  0.00    -0.325 N 
ATOM     23  C   UNL A   1      32.827  24.515  25.739  1.00  0.00     0.227 C 
ATOM     24  H   UNL A   1      31.721  25.355  27.130  1.00  0.00     0.169 HD
ATOM     25  O   UNL A   1      33.157  23.654  26.571  1.00  0.00    -0.274 OA
BRANCH  23  26
ATOM     26  C   UNL A   1      33.453  24.409  24.340  1.00  0.00     0.079 C 
ATOM     27  C   UNL A   1      32.599  23.615  23.352  1.00  0.00     0.013 C 
ATOM     28  C   UNL A   1      33.972  25.645  23.595  1.00  0.00     0.013 C 
ATOM     29  C   UNL A   1      33.070  24.074  21.980  1.00  0.00     0.001 C 
ATOM     30  C   UNL A   1      33.448  25.536  22.160  1.00  0.00     0.001 C 
ENDBRANCH  23  26
ENDBRANCH  12  22
ENDBRANCH   4   7
ENDBRANCH   2   3
ENDBRANCH   1   2
BRANCH   1  31
ATOM     31  C   UNL A   1      33.681  31.652  27.957  1.00  0.00     0.023 C 
BRANCH  31  32
ATOM     32  C   UNL A   1      33.343  32.917  27.181  1.00  0.00     0.116 C 
BRANCH  32  33
ATOM     33  N   UNL A   1      32.802  33.996  27.995  1.00  0.00    -0.352 N 
ATOM     34  C   UNL A   1      33.337  34.604  29.110  1.00  0.00     0.251 C 
ATOM     35  H   UNL A   1      31.927  34.344  27.705  1.00  0.00     0.163 HD
ATOM     36  O   UNL A   1      32.719  35.482  29.695  1.00  0.00    -0.269 OA
BRANCH  34  37
ATOM     37  C   UNL A   1      34.645  34.149  29.631  1.00  0.00     0.039 A 
ATOM     38  C   UNL A   1      34.671  33.386  30.801  1.00  0.00     0.014 A 
ATOM     39  C   UNL A   1      35.825  34.417  28.938  1.00  0.00     0.014 A 
ATOM     40  C   UNL A   1      35.872  32.805  31.218  1.00  0.00     0.010 A 
ATOM     41  C   UNL A   1      37.000  33.768  29.304  1.00  0.00     0.010 A 
ATOM     42  C   UNL A   1      37.033  32.947  30.442  1.00  0.00    -0.014 A 
BRANCH  42  43
ATOM     43  C   UNL A   1      38.290  32.238  30.788  1.00  0.00     0.031 A 
ATOM     44  C   UNL A   1      39.253  32.848  31.769  1.00  0.00     0.074 A 
ATOM     45  C   UNL A   1      38.605  31.087  30.162  1.00  0.00     0.049 A 
ATOM     46  N   UNL A   1      40.438  32.429  32.133  1.00  0.00    -0.248 NA
ATOM     47  C   UNL A   1      38.841  34.112  32.401  1.00  0.00     0.031 C 
ATOM     48  C   UNL A   1      37.780  30.407  29.162  1.00  0.00     0.029 A 
ATOM     49  N   UNL A   1      39.716  30.288  30.272  1.00  0.00    -0.354 N 
ATOM     50  C   UNL A   1      40.918  33.385  33.018  1.00  0.00     0.074 A 
ATOM     51  C   UNL A   1      39.922  34.430  33.095  1.00  0.00     0.031 C 
ATOM     52  C   UNL A   1      38.396  29.278  28.775  1.00  0.00     0.029 A 
ATOM     53  C   UNL A   1      39.678  29.176  29.465  1.00  0.00     0.049 A 
ATOM     54  H   UNL A   1      40.469  30.491  30.872  1.00  0.00     0.167 HD
ATOM     55  C   UNL A   1      42.075  33.385  33.723  1.00  0.00     0.031 A 
ATOM     56  C   UNL A   1      40.576  28.187  29.296  1.00  0.00     0.031 A 
ATOM     57  C   UNL A   1      43.061  32.342  33.658  1.00  0.00     0.049 A 
ATOM     58  C   UNL A   1      41.861  28.220  30.073  1.00  0.00     0.074 A 
ATOM     59  C   UNL A   1      44.242  32.225  34.372  1.00  0.00     0.029 A 
ATOM     60  N   UNL A   1      42.983  31.233  32.830  1.00  0.00    -0.354 N 
ATOM     61  N   UNL A   1      42.275  29.102  30.951  1.00  0.00    -0.248 NA
ATOM     62  C   UNL A   1      42.802  27.114  29.841  1.00  0.00     0.031 C 
ATOM     63  C   UNL A   1      44.898  31.066  33.943  1.00  0.00     0.029 A 
ATOM     64  C   UNL A   1      44.102  30.436  33.000  1.00  0.00     0.049 A 
ATOM     65  H   UNL A   1      42.240  31.040  32.213  1.00  0.00     0.167 HD
ATOM     66  C   UNL A   1      43.507  28.642  31.396  1.00  0.00     0.074 A 
ATOM     67  C   UNL A   1      43.769  27.398  30.701  1.00  0.00     0.031 C 
ATOM     68  C   UNL A   1      44.346  29.200  32.303  1.00  0.00     0.031 A 
BRANCH  55  69
ATOM     69  C   UNL A   1      42.329  34.561  34.623  1.00  0.00    -0.014 A 
ATOM     70  C   UNL A   1      41.923  34.549  35.967  1.00  0.00     0.009 A 
ATOM     71  C   UNL A   1      42.993  35.693  34.125  1.00  0.00     0.009 A 
ATOM     72  C   UNL A   1      42.136  35.662  36.781  1.00  0.00     0.001 A 
ATOM     73  C   UNL A   1      43.232  36.794  34.951  1.00  0.00     0.001 A 
ATOM     74  C   UNL A   1      42.794  36.782  36.274  1.00  0.00     0.000 A 
ENDBRANCH  55  69
BRANCH  56  75
ATOM     75  C   UNL A   1      40.283  27.063  28.368  1.00  0.00    -0.014 A 
ATOM     76  C   UNL A   1      39.496  25.983  28.795  1.00  0.00     0.009 A 
ATOM     77  C   UNL A   1      40.788  27.061  27.059  1.00  0.00     0.009 A 
ATOM     78  C   UNL A   1      39.241  24.910  27.938  1.00  0.00     0.001 A 
ATOM     79  C   UNL A   1      40.509  25.997  26.196  1.00  0.00     0.001 A 
ATOM     80  C   UNL A   1      39.745  24.920  26.638  1.00  0.00     0.000 A 
ENDBRANCH  56  75
BRANCH  68  81
ATOM     81  C   UNL A   1      45.607  28.450  32.624  1.00  0.00    -0.014 A 
ATOM     82  C   UNL A   1      45.639  27.477  33.634  1.00  0.00     0.009 A 
ATOM     83  C   UNL A   1      46.769  28.693  31.874  1.00  0.00     0.009 A 
ATOM     84  C   UNL A   1      46.820  26.782  33.905  1.00  0.00     0.001 A 
ATOM     85  C   UNL A   1      47.939  27.978  32.129  1.00  0.00     0.001 A 
ATOM     86  C   UNL A   1      47.966  27.029  33.149  1.00  0.00     0.000 A 
ENDBRANCH  68  81
ENDBRANCH  42  43
ENDBRANCH  34  37
ENDBRANCH  32  33
ENDBRANCH  31  32
ENDBRANCH   1  31
TORSDOF 15
ENDMDL
MODEL 3
REMARK VINA RESULT:     -11.7      0.685      5.762
REMARK SMILES CC[NH+]1CCN(c2ccc(NC(=O)C3CCCC3)c(C(=O)NCCCCNC(=O)c3ccc(-c4c5nc(c(-c6ccccc6)c6ccc([nH]6)c(-c6ccccc6)c6nc(c(-c7ccccc7)c7ccc4[nH]7)C=C6)C=C5)cc3)c2)CC1
REMARK SMILES IDX 24 1 23 2 22 3 20 4 21 5 19 7 7 8 8 9 78 10 9 11 10 12 6 13
REMARK SMILES IDX 3 14 4 15 80 16 5 18 79 19 2 20 1 21 11 22 12 23 13 25 14 26
REMARK SMILES IDX 15 27 18 28 16 29 17 30 25 31 26 32 27 33 28 34 29 36 30 37
REMARK SMILES IDX 31 38 77 39 32 40 76 41 33 42 34 43 35 44 70 45 36 46 75 47
REMARK SMILES IDX 69 48 71 49 37 50 74 51 68 52 67 53 38 55 60 56 45 57 59 58
REMARK SMILES IDX 46 59 49 60 58 61 72 62 47 63 48 64 57 66 73 67 50 68 39 69
REMARK SMILES IDX 40 70 44 71 41 72 43 73 42 74 61 75 62 76 66 77 63 78 65 79
REMARK SMILES IDX 64 80 51 81 52 82 56 83 53 84 55 85 54 86
REMARK H PARENT 22 6 3 17 11 24 27 35 71 54 49 65
REMARK Flexibility Score: inf
ROOT
ATOM      1  C   UNL A   1      32.199  30.218  26.267  1.00  0.00     0.023 C 
ENDROOT
BRANCH   1   2
ATOM      2  C   UNL A   1      32.361  29.082  27.267  1.00  0.00     0.116 C 
BRANCH   2   3
ATOM      3  N   UNL A   1      33.344  28.060  26.918  1.00  0.00    -0.352 N 
ATOM      4  C   UNL A   1      33.245  26.948  26.096  1.00  0.00     0.253 C 
ATOM      5  O   UNL A   1      34.229  26.226  25.946  1.00  0.00    -0.269 OA
ATOM      6  H   UNL A   1      34.226  28.181  27.339  1.00  0.00     0.163 HD
BRANCH   4   7
ATOM      7  C   UNL A   1      31.942  26.557  25.485  1.00  0.00     0.065 A 
ATOM      8  C   UNL A   1      30.108  27.317  24.061  1.00  0.00     0.038 A 
ATOM      9  C   UNL A   1      29.277  26.490  24.817  1.00  0.00     0.028 A 
ATOM     10  C   UNL A   1      31.466  27.269  24.375  1.00  0.00     0.042 A 
ATOM     11  C   UNL A   1      29.782  25.629  25.794  1.00  0.00     0.029 A 
ATOM     12  C   UNL A   1      31.137  25.564  26.061  1.00  0.00     0.054 A 
BRANCH   8  13
ATOM     13  N   UNL A   1      29.599  28.188  23.122  1.00  0.00    -0.360 N 
ATOM     14  N   UNL A   1      28.169  30.709  22.541  1.00  0.00    -0.332 N 
ATOM     15  C   UNL A   1      27.490  29.516  23.105  1.00  0.00     0.283 C 
ATOM     16  C   UNL A   1      29.587  30.666  22.973  1.00  0.00     0.283 C 
ATOM     17  H   UNL A   1      27.757  31.576  22.885  1.00  0.00     0.348 HD
ATOM     18  C   UNL A   1      28.163  28.159  22.776  1.00  0.00     0.178 C 
ATOM     19  C   UNL A   1      30.331  29.360  22.610  1.00  0.00     0.178 C 
BRANCH  14  20
ATOM     20  C   UNL A   1      28.002  30.740  21.079  1.00  0.00     0.258 C 
ATOM     21  C   UNL A   1      28.012  32.145  20.492  1.00  0.00     0.071 C 
ENDBRANCH  14  20
ENDBRANCH   8  13
BRANCH  12  22
ATOM     22  N   UNL A   1      31.700  24.552  26.856  1.00  0.00    -0.325 N 
ATOM     23  C   UNL A   1      31.957  23.229  26.665  1.00  0.00     0.227 C 
ATOM     24  H   UNL A   1      31.969  24.870  27.748  1.00  0.00     0.169 HD
ATOM     25  O   UNL A   1      32.431  22.624  27.640  1.00  0.00    -0.274 OA
BRANCH  23  26
ATOM     26  C   UNL A   1      31.732  22.416  25.381  1.00  0.00     0.079 C 
ATOM     27  C   UNL A   1      32.342  23.064  24.139  1.00  0.00     0.013 C 
ATOM     28  C   UNL A   1      32.052  20.917  25.311  1.00  0.00     0.013 C 
ATOM     29  C   UNL A   1      32.502  21.921  23.147  1.00  0.00     0.001 C 
ATOM     30  C   UNL A   1      32.811  20.699  23.999  1.00  0.00     0.001 C 
ENDBRANCH  23  26
ENDBRANCH  12  22
ENDBRANCH   4   7
ENDBRANCH   2   3
ENDBRANCH   1   2
BRANCH   1  31
ATOM     31  C   UNL A   1      31.762  31.562  26.826  1.00  0.00     0.023 C 
BRANCH  31  32
ATOM     32  C   UNL A   1      32.871  32.465  27.346  1.00  0.00     0.116 C 
BRANCH  32  33
ATOM     33  N   UNL A   1      32.462  33.839  27.600  1.00  0.00    -0.352 N 
ATOM     34  C   UNL A   1      33.023  34.780  28.436  1.00  0.00     0.251 C 
ATOM     35  H   UNL A   1      31.668  34.140  27.102  1.00  0.00     0.163 HD
ATOM     36  O   UNL A   1      32.518  35.887  28.552  1.00  0.00    -0.269 OA
BRANCH  34  37
ATOM     37  C   UNL A   1      34.216  34.424  29.236  1.00  0.00     0.039 A 
ATOM     38  C   UNL A   1      34.030  33.869  30.505  1.00  0.00     0.014 A 
ATOM     39  C   UNL A   1      35.501  34.576  28.715  1.00  0.00     0.014 A 
ATOM     40  C   UNL A   1      35.130  33.371  31.208  1.00  0.00     0.010 A 
ATOM     41  C   UNL A   1      36.582  34.002  29.375  1.00  0.00     0.010 A 
ATOM     42  C   UNL A   1      36.407  33.385  30.624  1.00  0.00    -0.014 A 
BRANCH  42  43
ATOM     43  C   UNL A   1      37.572  32.749  31.289  1.00  0.00     0.031 A 
ATOM     44  C   UNL A   1      38.245  31.563  30.656  1.00  0.00     0.074 A 
ATOM     45  C   UNL A   1      37.972  33.184  32.499  1.00  0.00     0.049 A 
ATOM     46  N   UNL A   1      39.216  30.818  31.121  1.00  0.00    -0.248 NA
ATOM     47  C   UNL A   1      37.741  31.142  29.339  1.00  0.00     0.031 C 
ATOM     48  C   UNL A   1      37.381  34.299  33.243  1.00  0.00     0.029 A 
ATOM     49  N   UNL A   1      38.973  32.731  33.324  1.00  0.00    -0.354 N 
ATOM     50  C   UNL A   1      39.423  29.832  30.166  1.00  0.00     0.074 A 
ATOM     51  C   UNL A   1      38.444  30.041  29.122  1.00  0.00     0.031 C 
ATOM     52  C   UNL A   1      38.051  34.464  34.396  1.00  0.00     0.029 A 
ATOM     53  C   UNL A   1      39.087  33.442  34.494  1.00  0.00     0.049 A 
ATOM     54  H   UNL A   1      39.554  31.970  33.097  1.00  0.00     0.167 HD
ATOM     55  C   UNL A   1      40.358  28.853  30.145  1.00  0.00     0.031 A 
ATOM     56  C   UNL A   1      39.930  33.285  35.533  1.00  0.00     0.031 A 
ATOM     57  C   UNL A   1      41.340  28.650  31.175  1.00  0.00     0.049 A 
ATOM     58  C   UNL A   1      40.945  32.178  35.497  1.00  0.00     0.074 A 
ATOM     59  C   UNL A   1      42.363  27.718  31.221  1.00  0.00     0.029 A 
ATOM     60  N   UNL A   1      41.423  29.394  32.342  1.00  0.00    -0.354 N 
ATOM     61  N   UNL A   1      41.167  31.290  34.558  1.00  0.00    -0.248 NA
ATOM     62  C   UNL A   1      41.833  32.058  36.663  1.00  0.00     0.031 C 
ATOM     63  C   UNL A   1      43.037  27.870  32.437  1.00  0.00     0.029 A 
ATOM     64  C   UNL A   1      42.466  28.929  33.124  1.00  0.00     0.049 A 
ATOM     65  H   UNL A   1      40.828  30.141  32.579  1.00  0.00     0.167 HD
ATOM     66  C   UNL A   1      42.235  30.526  35.007  1.00  0.00     0.074 A 
ATOM     67  C   UNL A   1      42.626  31.062  36.295  1.00  0.00     0.031 C 
ATOM     68  C   UNL A   1      42.842  29.475  34.403  1.00  0.00     0.031 A 
BRANCH  55  69
ATOM     69  C   UNL A   1      40.352  27.925  28.963  1.00  0.00    -0.014 A 
ATOM     70  C   UNL A   1      41.066  28.232  27.794  1.00  0.00     0.009 A 
ATOM     71  C   UNL A   1      39.633  26.721  29.023  1.00  0.00     0.009 A 
ATOM     72  C   UNL A   1      41.024  27.376  26.693  1.00  0.00     0.001 A 
ATOM     73  C   UNL A   1      39.617  25.851  27.930  1.00  0.00     0.001 A 
ATOM     74  C   UNL A   1      40.303  26.184  26.763  1.00  0.00     0.000 A 
ENDBRANCH  55  69
BRANCH  56  75
ATOM     75  C   UNL A   1      39.869  34.217  36.690  1.00  0.00    -0.014 A 
ATOM     76  C   UNL A   1      39.100  33.893  37.817  1.00  0.00     0.009 A 
ATOM     77  C   UNL A   1      40.573  35.431  36.673  1.00  0.00     0.009 A 
ATOM     78  C   UNL A   1      39.016  34.777  38.896  1.00  0.00     0.001 A 
ATOM     79  C   UNL A   1      40.507  36.301  37.765  1.00  0.00     0.001 A 
ATOM     80  C   UNL A   1      39.722  35.978  38.870  1.00  0.00     0.000 A 
ENDBRANCH  56  75
BRANCH  68  81
ATOM     81  C   UNL A   1      44.017  28.860  35.110  1.00  0.00    -0.014 A 
ATOM     82  C   UNL A   1      45.320  29.339  34.911  1.00  0.00     0.009 A 
ATOM     83  C   UNL A   1      43.806  27.814  36.022  1.00  0.00     0.009 A 
ATOM     84  C   UNL A   1      46.394  28.761  35.591  1.00  0.00     0.001 A 
ATOM     85  C   UNL A   1      44.878  27.258  36.721  1.00  0.00     0.001 A 
ATOM     86  C   UNL A   1      46.171  27.726  36.498  1.00  0.00     0.000 A 
ENDBRANCH  68  81
ENDBRANCH  42  43
ENDBRANCH  34  37
ENDBRANCH  32  33
ENDBRANCH  31  32
ENDBRANCH   1  31
TORSDOF 15
ENDMDL
