MODEL 1
REMARK VINA RESULT:      -9.1      0.000      0.000
REMARK SMILES NS(=O)(=O)c1ccc(-n2nc(NC(=O)NCCCCCCCCCCC(=O)NCCCCNC(=O)c3ccc(-c4c5nc(c(-c6ccccc6)c6ccc([nH]6)c(-c6ccccc6)c6nc(c(-c7ccccc7)c7ccc4[nH]7)C=C6)C=C5)cc3)cc2-c2ccccc2)cc1
REMARK SMILES IDX 22 1 21 2 20 3 19 4 18 5 17 6 16 7 15 8 12 9 13 10 14 12
REMARK SMILES IDX 11 14 9 15 10 16 85 17 84 18 8 19 5 20 6 21 93 22 7 23 92 24
REMARK SMILES IDX 2 25 3 26 4 27 1 28 86 31 87 32 91 33 88 34 90 35 89 36
REMARK SMILES IDX 23 37 24 38 25 39 26 40 27 41 28 42 29 44 30 45 31 46 32 47
REMARK SMILES IDX 33 48 34 49 35 51 36 52 37 53 83 54 38 55 82 56 39 57 40 58
REMARK SMILES IDX 41 59 76 60 42 61 81 62 75 63 77 64 43 65 80 66 74 67 73 68
REMARK SMILES IDX 44 70 66 71 51 72 65 73 52 74 55 75 64 76 78 77 53 78 54 79
REMARK SMILES IDX 63 81 79 82 56 83 45 84 46 85 50 86 47 87 49 88 48 89 67 90
REMARK SMILES IDX 68 91 72 92 69 93 71 94 70 95 57 96 58 97 62 98 59 99 61 100
REMARK SMILES IDX 60 101
REMARK H PARENT 12 11 15 13 1 29 1 30 28 43 33 50 77 69 55 80
REMARK Flexibility Score: inf
ROOT
ATOM      1  C   UNL A   1      39.219  33.227  31.910  1.00  0.00     0.000 C 
ENDROOT
BRANCH   1   2
ATOM      2  C   UNL A   1      38.066  34.205  31.842  1.00  0.00     0.000 C 
BRANCH   2   3
ATOM      3  C   UNL A   1      37.408  34.459  33.193  1.00  0.00     0.000 C 
BRANCH   3   4
ATOM      4  C   UNL A   1      36.774  33.249  33.885  1.00  0.00     0.000 C 
BRANCH   4   5
ATOM      5  C   UNL A   1      35.541  32.651  33.198  1.00  0.00     0.002 C 
BRANCH   5   6
ATOM      6  C   UNL A   1      34.441  33.635  32.808  1.00  0.00     0.021 C 
BRANCH   6   7
ATOM      7  C   UNL A   1      34.052  33.655  31.340  1.00  0.00     0.117 C 
BRANCH   7   8
ATOM      8  N   UNL A   1      33.440  34.861  30.849  1.00  0.00    -0.338 N 
ATOM      9  N   UNL A   1      34.317  34.897  28.632  1.00  0.00    -0.291 N 
ATOM     10  C   UNL A   1      33.566  35.429  29.626  1.00  0.00     0.320 C 
ATOM     11  H   UNL A   1      34.604  35.553  27.956  1.00  0.00     0.173 HD
ATOM     12  O   UNL A   1      33.068  36.546  29.457  1.00  0.00    -0.248 OA
ATOM     13  H   UNL A   1      32.854  35.334  31.483  1.00  0.00     0.165 HD
BRANCH   9  14
ATOM     14  C   UNL A   1      34.755  33.613  28.384  1.00  0.00     0.157 A 
ATOM     15  N   UNL A   1      34.734  31.580  27.786  1.00  0.00    -0.231 N 
ATOM     16  N   UNL A   1      34.305  32.806  27.419  1.00  0.00    -0.149 NA
ATOM     17  C   UNL A   1      35.808  31.667  28.660  1.00  0.00     0.076 A 
ATOM     18  C   UNL A   1      35.797  32.977  29.103  1.00  0.00     0.078 A 
BRANCH  15  19
ATOM     19  C   UNL A   1      34.063  30.408  27.337  1.00  0.00     0.065 A 
ATOM     20  C   UNL A   1      32.754  28.137  26.383  1.00  0.00     0.082 A 
ATOM     21  C   UNL A   1      34.147  28.143  26.461  1.00  0.00     0.024 A 
ATOM     22  C   UNL A   1      32.011  29.248  26.800  1.00  0.00     0.024 A 
ATOM     23  C   UNL A   1      34.803  29.285  26.929  1.00  0.00     0.030 A 
ATOM     24  C   UNL A   1      32.666  30.378  27.304  1.00  0.00     0.030 A 
BRANCH  20  25
ATOM     25  S   UNL A   1      31.902  26.739  25.712  1.00  0.00     0.238 S 
ATOM     26  O   UNL A   1      32.778  25.586  25.789  1.00  0.00    -0.207 OA
ATOM     27  O   UNL A   1      31.241  27.139  24.501  1.00  0.00    -0.207 OA
BRANCH  25  28
ATOM     28  N   UNL A   1      30.683  26.428  26.828  1.00  0.00    -0.225 NA
ATOM     29  H   UNL A   1      31.090  26.030  27.674  1.00  0.00     0.137 HD
ATOM     30  H   UNL A   1      30.017  25.768  26.428  1.00  0.00     0.137 HD
ENDBRANCH  25  28
ENDBRANCH  20  25
ENDBRANCH  15  19
BRANCH  17  31
ATOM     31  C   UNL A   1      36.710  30.551  28.927  1.00  0.00     0.000 A 
ATOM     32  C   UNL A   1      36.582  29.851  30.140  1.00  0.00     0.010 A 
ATOM     33  C   UNL A   1      37.735  30.207  28.045  1.00  0.00     0.010 A 
ATOM     34  C   UNL A   1      37.491  28.858  30.488  1.00  0.00     0.001 A 
ATOM     35  C   UNL A   1      38.643  29.202  28.393  1.00  0.00     0.001 A 
ATOM     36  C   UNL A   1      38.526  28.537  29.615  1.00  0.00     0.000 A 
ENDBRANCH  17  31
ENDBRANCH   9  14
ENDBRANCH   7   8
ENDBRANCH   6   7
ENDBRANCH   5   6
ENDBRANCH   4   5
ENDBRANCH   3   4
ENDBRANCH   2   3
ENDBRANCH   1   2
BRANCH   1  37
ATOM     37  C   UNL A   1      39.365  32.389  30.637  1.00  0.00     0.001 C 
BRANCH  37  38
ATOM     38  C   UNL A   1      40.510  31.386  30.653  1.00  0.00     0.010 C 
BRANCH  38  39
ATOM     39  C   UNL A   1      41.842  31.868  30.079  1.00  0.00     0.100 C 
BRANCH  39  40
ATOM     40  C   UNL A   1      42.589  32.879  30.930  1.00  0.00     0.219 C 
ATOM     41  O   UNL A   1      43.289  32.500  31.873  1.00  0.00    -0.275 OA
ATOM     42  N   UNL A   1      42.558  34.218  30.678  1.00  0.00    -0.356 N 
ATOM     43  H   UNL A   1      43.082  34.759  31.312  1.00  0.00     0.163 HD
BRANCH  42  44
ATOM     44  C   UNL A   1      41.890  34.994  29.648  1.00  0.00     0.116 C 
BRANCH  44  45
ATOM     45  C   UNL A   1      42.622  36.311  29.335  1.00  0.00     0.023 C 
BRANCH  45  46
ATOM     46  C   UNL A   1      42.219  37.042  28.053  1.00  0.00     0.023 C 
BRANCH  46  47
ATOM     47  C   UNL A   1      42.630  36.349  26.765  1.00  0.00     0.116 C 
BRANCH  47  48
ATOM     48  N   UNL A   1      44.009  36.629  26.362  1.00  0.00    -0.352 N 
ATOM     49  C   UNL A   1      45.116  35.846  26.634  1.00  0.00     0.251 C 
ATOM     50  H   UNL A   1      44.164  37.454  25.847  1.00  0.00     0.163 HD
ATOM     51  O   UNL A   1      46.247  36.311  26.662  1.00  0.00    -0.269 OA
BRANCH  49  52
ATOM     52  C   UNL A   1      44.889  34.413  26.877  1.00  0.00     0.039 A 
ATOM     53  C   UNL A   1      44.587  33.534  25.836  1.00  0.00     0.014 A 
ATOM     54  C   UNL A   1      45.087  33.953  28.179  1.00  0.00     0.014 A 
ATOM     55  C   UNL A   1      44.583  32.168  26.104  1.00  0.00     0.010 A 
ATOM     56  C   UNL A   1      45.221  32.606  28.410  1.00  0.00     0.010 A 
ATOM     57  C   UNL A   1      44.937  31.708  27.387  1.00  0.00    -0.014 A 
BRANCH  57  58
ATOM     58  C   UNL A   1      45.181  30.288  27.619  1.00  0.00     0.031 A 
ATOM     59  C   UNL A   1      43.948  29.456  27.609  1.00  0.00     0.074 A 
ATOM     60  C   UNL A   1      46.408  29.723  27.663  1.00  0.00     0.049 A 
ATOM     61  N   UNL A   1      43.387  28.912  28.635  1.00  0.00    -0.248 NA
ATOM     62  C   UNL A   1      43.161  29.344  26.370  1.00  0.00     0.031 C 
ATOM     63  C   UNL A   1      47.711  30.345  27.410  1.00  0.00     0.029 A 
ATOM     64  N   UNL A   1      46.740  28.416  27.852  1.00  0.00    -0.354 N 
ATOM     65  C   UNL A   1      42.301  28.196  28.147  1.00  0.00     0.074 A 
ATOM     66  C   UNL A   1      42.101  28.649  26.793  1.00  0.00     0.031 C 
ATOM     67  C   UNL A   1      48.643  29.384  27.217  1.00  0.00     0.029 A 
ATOM     68  C   UNL A   1      48.045  28.092  27.499  1.00  0.00     0.049 A 
ATOM     69  H   UNL A   1      46.105  27.753  28.210  1.00  0.00     0.167 HD
ATOM     70  C   UNL A   1      41.846  27.097  28.811  1.00  0.00     0.031 A 
ATOM     71  C   UNL A   1      48.590  26.849  27.425  1.00  0.00     0.031 A 
ATOM     72  C   UNL A   1      42.377  27.037  30.153  1.00  0.00     0.049 A 
ATOM     73  C   UNL A   1      47.754  25.954  28.257  1.00  0.00     0.074 A 
ATOM     74  C   UNL A   1      42.373  27.894  31.238  1.00  0.00     0.029 A 
ATOM     75  N   UNL A   1      43.405  26.150  30.379  1.00  0.00    -0.354 N 
ATOM     76  N   UNL A   1      47.697  26.045  29.555  1.00  0.00    -0.248 NA
ATOM     77  C   UNL A   1      46.623  25.293  27.625  1.00  0.00     0.031 C 
ATOM     78  C   UNL A   1      43.691  27.800  31.778  1.00  0.00     0.029 A 
ATOM     79  C   UNL A   1      44.384  26.821  31.065  1.00  0.00     0.049 A 
ATOM     80  H   UNL A   1      43.433  25.208  30.100  1.00  0.00     0.167 HD
ATOM     81  C   UNL A   1      46.348  25.908  29.849  1.00  0.00     0.074 A 
ATOM     82  C   UNL A   1      45.750  25.349  28.635  1.00  0.00     0.031 C 
ATOM     83  C   UNL A   1      45.794  26.536  30.928  1.00  0.00     0.031 A 
BRANCH  70  84
ATOM     84  C   UNL A   1      41.331  25.859  28.113  1.00  0.00    -0.014 A 
ATOM     85  C   UNL A   1      40.017  25.879  27.608  1.00  0.00     0.009 A 
ATOM     86  C   UNL A   1      41.949  24.599  28.215  1.00  0.00     0.009 A 
ATOM     87  C   UNL A   1      39.324  24.695  27.333  1.00  0.00     0.001 A 
ATOM     88  C   UNL A   1      41.273  23.417  27.899  1.00  0.00     0.001 A 
ATOM     89  C   UNL A   1      39.948  23.463  27.493  1.00  0.00     0.000 A 
ENDBRANCH  70  84
BRANCH  71  90
ATOM     90  C   UNL A   1      49.630  26.327  26.508  1.00  0.00    -0.014 A 
ATOM     91  C   UNL A   1      49.751  26.822  25.198  1.00  0.00     0.009 A 
ATOM     92  C   UNL A   1      50.688  25.546  27.006  1.00  0.00     0.009 A 
ATOM     93  C   UNL A   1      50.907  26.586  24.437  1.00  0.00     0.001 A 
ATOM     94  C   UNL A   1      51.841  25.307  26.246  1.00  0.00     0.001 A 
ATOM     95  C   UNL A   1      51.957  25.843  24.969  1.00  0.00     0.000 A 
ENDBRANCH  71  90
BRANCH  83  96
ATOM     96  C   UNL A   1      46.711  27.194  31.932  1.00  0.00    -0.014 A 
ATOM     97  C   UNL A   1      47.235  28.489  31.778  1.00  0.00     0.009 A 
ATOM     98  C   UNL A   1      46.925  26.534  33.151  1.00  0.00     0.009 A 
ATOM     99  C   UNL A   1      47.974  29.091  32.805  1.00  0.00     0.001 A 
ATOM    100  C   UNL A   1      47.640  27.142  34.184  1.00  0.00     0.001 A 
ATOM    101  C   UNL A   1      48.171  28.418  34.008  1.00  0.00     0.000 A 
ENDBRANCH  83  96
ENDBRANCH  57  58
ENDBRANCH  49  52
ENDBRANCH  47  48
ENDBRANCH  46  47
ENDBRANCH  45  46
ENDBRANCH  44  45
ENDBRANCH  42  44
ENDBRANCH  39  40
ENDBRANCH  38  39
ENDBRANCH  37  38
ENDBRANCH   1  37
TORSDOF 26
ENDMDL
MODEL 2
REMARK VINA RESULT:      -9.1      4.040     10.767
REMARK SMILES NS(=O)(=O)c1ccc(-n2nc(NC(=O)NCCCCCCCCCCC(=O)NCCCCNC(=O)c3ccc(-c4c5nc(c(-c6ccccc6)c6ccc([nH]6)c(-c6ccccc6)c6nc(c(-c7ccccc7)c7ccc4[nH]7)C=C6)C=C5)cc3)cc2-c2ccccc2)cc1
REMARK SMILES IDX 22 1 21 2 20 3 19 4 18 5 17 6 16 7 15 8 12 9 13 10 14 12
REMARK SMILES IDX 11 14 9 15 10 16 85 17 84 18 8 19 5 20 6 21 93 22 7 23 92 24
REMARK SMILES IDX 2 25 3 26 4 27 1 28 86 31 87 32 91 33 88 34 90 35 89 36
REMARK SMILES IDX 23 37 24 38 25 39 26 40 27 41 28 42 29 44 30 45 31 46 32 47
REMARK SMILES IDX 33 48 34 49 35 51 36 52 37 53 83 54 38 55 82 56 39 57 40 58
REMARK SMILES IDX 41 59 76 60 42 61 81 62 75 63 77 64 43 65 80 66 74 67 73 68
REMARK SMILES IDX 44 70 66 71 51 72 65 73 52 74 55 75 64 76 78 77 53 78 54 79
REMARK SMILES IDX 63 81 79 82 56 83 45 84 46 85 50 86 47 87 49 88 48 89 67 90
REMARK SMILES IDX 68 91 72 92 69 93 71 94 70 95 57 96 58 97 62 98 59 99 61 100
REMARK SMILES IDX 60 101
REMARK H PARENT 12 11 15 13 1 29 1 30 28 43 33 50 77 69 55 80
REMARK Flexibility Score: inf
ROOT
ATOM      1  C   UNL A   1      40.461  19.447  26.125  1.00  0.00     0.000 C 
ENDROOT
BRANCH   1   2
ATOM      2  C   UNL A   1      39.827  20.816  26.009  1.00  0.00     0.000 C 
BRANCH   2   3
ATOM      3  C   UNL A   1      38.488  20.802  25.282  1.00  0.00     0.000 C 
BRANCH   3   4
ATOM      4  C   UNL A   1      37.659  22.089  25.345  1.00  0.00     0.000 C 
BRANCH   4   5
ATOM      5  C   UNL A   1      36.139  21.915  25.265  1.00  0.00     0.002 C 
BRANCH   5   6
ATOM      6  C   UNL A   1      35.360  23.063  24.626  1.00  0.00     0.021 C 
BRANCH   6   7
ATOM      7  C   UNL A   1      33.873  22.831  24.423  1.00  0.00     0.117 C 
BRANCH   7   8
ATOM      8  N   UNL A   1      33.496  21.930  23.367  1.00  0.00    -0.338 N 
ATOM      9  N   UNL A   1      31.229  22.593  23.047  1.00  0.00    -0.291 N 
ATOM     10  C   UNL A   1      32.297  21.815  22.749  1.00  0.00     0.320 C 
ATOM     11  H   UNL A   1      30.363  22.192  22.802  1.00  0.00     0.173 HD
ATOM     12  O   UNL A   1      32.142  20.875  21.965  1.00  0.00    -0.248 OA
ATOM     13  H   UNL A   1      34.200  21.318  23.053  1.00  0.00     0.165 HD
BRANCH   9  14
ATOM     14  C   UNL A   1      31.120  23.840  23.626  1.00  0.00     0.157 A 
ATOM     15  N   UNL A   1      30.612  25.881  23.883  1.00  0.00    -0.231 N 
ATOM     16  N   UNL A   1      30.121  24.707  23.434  1.00  0.00    -0.149 NA
ATOM     17  C   UNL A   1      31.667  25.680  24.761  1.00  0.00     0.076 A 
ATOM     18  C   UNL A   1      32.046  24.365  24.560  1.00  0.00     0.078 A 
BRANCH  15  19
ATOM     19  C   UNL A   1      30.093  27.118  23.406  1.00  0.00     0.065 A 
ATOM     20  C   UNL A   1      29.102  29.576  22.536  1.00  0.00     0.082 A 
ATOM     21  C   UNL A   1      30.430  29.241  22.272  1.00  0.00     0.024 A 
ATOM     22  C   UNL A   1      28.260  28.682  23.210  1.00  0.00     0.024 A 
ATOM     23  C   UNL A   1      30.930  28.014  22.718  1.00  0.00     0.030 A 
ATOM     24  C   UNL A   1      28.750  27.437  23.622  1.00  0.00     0.030 A 
BRANCH  20  25
ATOM     25  S   UNL A   1      28.467  31.158  22.063  1.00  0.00     0.238 S 
ATOM     26  O   UNL A   1      27.892  31.045  20.737  1.00  0.00    -0.207 OA
ATOM     27  O   UNL A   1      29.428  32.166  22.416  1.00  0.00    -0.207 OA
BRANCH  25  28
ATOM     28  N   UNL A   1      27.149  31.392  23.082  1.00  0.00    -0.225 NA
ATOM     29  H   UNL A   1      27.360  32.136  23.747  1.00  0.00     0.137 HD
ATOM     30  H   UNL A   1      26.955  30.529  23.590  1.00  0.00     0.137 HD
ENDBRANCH  25  28
ENDBRANCH  20  25
ENDBRANCH  15  19
BRANCH  17  31
ATOM     31  C   UNL A   1      32.144  26.706  25.682  1.00  0.00     0.000 A 
ATOM     32  C   UNL A   1      31.225  27.322  26.548  1.00  0.00     0.010 A 
ATOM     33  C   UNL A   1      33.471  27.138  25.677  1.00  0.00     0.010 A 
ATOM     34  C   UNL A   1      31.610  28.384  27.360  1.00  0.00     0.001 A 
ATOM     35  C   UNL A   1      33.860  28.199  26.500  1.00  0.00     0.001 A 
ATOM     36  C   UNL A   1      32.929  28.825  27.331  1.00  0.00     0.000 A 
ENDBRANCH  17  31
ENDBRANCH   9  14
ENDBRANCH   7   8
ENDBRANCH   6   7
ENDBRANCH   5   6
ENDBRANCH   4   5
ENDBRANCH   3   4
ENDBRANCH   2   3
ENDBRANCH   1   2
BRANCH   1  37
ATOM     37  C   UNL A   1      41.915  19.503  26.603  1.00  0.00     0.001 C 
BRANCH  37  38
ATOM     38  C   UNL A   1      42.866  20.257  25.685  1.00  0.00     0.010 C 
BRANCH  38  39
ATOM     39  C   UNL A   1      43.945  19.424  24.993  1.00  0.00     0.100 C 
BRANCH  39  40
ATOM     40  C   UNL A   1      45.355  19.977  25.089  1.00  0.00     0.219 C 
ATOM     41  O   UNL A   1      46.262  19.285  25.561  1.00  0.00    -0.275 OA
ATOM     42  N   UNL A   1      45.692  21.216  24.634  1.00  0.00    -0.356 N 
ATOM     43  H   UNL A   1      46.639  21.449  24.764  1.00  0.00     0.163 HD
BRANCH  42  44
ATOM     44  C   UNL A   1      44.908  22.258  23.994  1.00  0.00     0.116 C 
BRANCH  44  45
ATOM     45  C   UNL A   1      45.312  23.668  24.458  1.00  0.00     0.023 C 
BRANCH  45  46
ATOM     46  C   UNL A   1      44.888  24.083  25.868  1.00  0.00     0.023 C 
BRANCH  46  47
ATOM     47  C   UNL A   1      43.414  24.420  26.021  1.00  0.00     0.116 C 
BRANCH  47  48
ATOM     48  N   UNL A   1      42.620  23.333  26.593  1.00  0.00    -0.352 N 
ATOM     49  C   UNL A   1      42.022  23.325  27.841  1.00  0.00     0.251 C 
ATOM     50  H   UNL A   1      42.498  22.529  26.037  1.00  0.00     0.163 HD
ATOM     51  O   UNL A   1      41.756  22.282  28.424  1.00  0.00    -0.269 OA
BRANCH  49  52
ATOM     52  C   UNL A   1      41.698  24.626  28.445  1.00  0.00     0.039 A 
ATOM     53  C   UNL A   1      42.644  25.351  29.171  1.00  0.00     0.014 A 
ATOM     54  C   UNL A   1      40.435  25.151  28.175  1.00  0.00     0.014 A 
ATOM     55  C   UNL A   1      42.336  26.656  29.540  1.00  0.00     0.010 A 
ATOM     56  C   UNL A   1      40.187  26.480  28.416  1.00  0.00     0.010 A 
ATOM     57  C   UNL A   1      41.117  27.229  29.128  1.00  0.00    -0.014 A 
BRANCH  57  58
ATOM     58  C   UNL A   1      40.885  28.661  29.288  1.00  0.00     0.031 A 
ATOM     59  C   UNL A   1      41.936  29.514  28.672  1.00  0.00     0.074 A 
ATOM     60  C   UNL A   1      39.749  29.197  29.783  1.00  0.00     0.049 A 
ATOM     61  N   UNL A   1      42.830  30.198  29.301  1.00  0.00    -0.248 NA
ATOM     62  C   UNL A   1      42.128  29.485  27.212  1.00  0.00     0.031 C 
ATOM     63  C   UNL A   1      38.509  28.516  30.171  1.00  0.00     0.029 A 
ATOM     64  N   UNL A   1      39.427  30.509  29.955  1.00  0.00    -0.354 N 
ATOM     65  C   UNL A   1      43.557  30.872  28.328  1.00  0.00     0.074 A 
ATOM     66  C   UNL A   1      43.212  30.253  27.073  1.00  0.00     0.031 C 
ATOM     67  C   UNL A   1      37.511  29.422  30.287  1.00  0.00     0.029 A 
ATOM     68  C   UNL A   1      38.072  30.754  30.151  1.00  0.00     0.049 A 
ATOM     69  H   UNL A   1      40.101  31.227  29.939  1.00  0.00     0.167 HD
ATOM     70  C   UNL A   1      44.162  32.057  28.618  1.00  0.00     0.031 A 
ATOM     71  C   UNL A   1      37.454  31.963  30.181  1.00  0.00     0.031 A 
ATOM     72  C   UNL A   1      44.233  32.277  30.044  1.00  0.00     0.049 A 
ATOM     73  C   UNL A   1      38.489  32.978  30.484  1.00  0.00     0.074 A 
ATOM     74  C   UNL A   1      44.751  31.566  31.111  1.00  0.00     0.029 A 
ATOM     75  N   UNL A   1      43.328  33.160  30.586  1.00  0.00    -0.354 N 
ATOM     76  N   UNL A   1      39.086  33.056  31.639  1.00  0.00    -0.248 NA
ATOM     77  C   UNL A   1      39.203  33.579  29.367  1.00  0.00     0.031 C 
ATOM     78  C   UNL A   1      43.774  31.698  32.142  1.00  0.00     0.029 A 
ATOM     79  C   UNL A   1      42.775  32.559  31.687  1.00  0.00     0.049 A 
ATOM     80  H   UNL A   1      43.115  34.058  30.246  1.00  0.00     0.167 HD
ATOM     81  C   UNL A   1      40.421  33.262  31.321  1.00  0.00     0.074 A 
ATOM     82  C   UNL A   1      40.417  33.675  29.916  1.00  0.00     0.031 C 
ATOM     83  C   UNL A   1      41.418  32.791  32.127  1.00  0.00     0.031 A 
BRANCH  70  84
ATOM     84  C   UNL A   1      44.247  33.207  27.641  1.00  0.00    -0.014 A 
ATOM     85  C   UNL A   1      43.408  34.319  27.849  1.00  0.00     0.009 A 
ATOM     86  C   UNL A   1      44.864  33.110  26.380  1.00  0.00     0.009 A 
ATOM     87  C   UNL A   1      43.113  35.213  26.814  1.00  0.00     0.001 A 
ATOM     88  C   UNL A   1      44.605  34.026  25.357  1.00  0.00     0.001 A 
ATOM     89  C   UNL A   1      43.701  35.057  25.563  1.00  0.00     0.000 A 
ENDBRANCH  70  84
BRANCH  71  90
ATOM     90  C   UNL A   1      36.091  32.339  29.738  1.00  0.00    -0.014 A 
ATOM     91  C   UNL A   1      35.501  33.544  30.161  1.00  0.00     0.009 A 
ATOM     92  C   UNL A   1      35.477  31.657  28.672  1.00  0.00     0.009 A 
ATOM     93  C   UNL A   1      34.373  34.067  29.511  1.00  0.00     0.001 A 
ATOM     94  C   UNL A   1      34.349  32.177  28.025  1.00  0.00     0.001 A 
ATOM     95  C   UNL A   1      33.808  33.392  28.433  1.00  0.00     0.000 A 
ENDBRANCH  71  90
BRANCH  83  96
ATOM     96  C   UNL A   1      41.052  32.246  33.487  1.00  0.00    -0.014 A 
ATOM     97  C   UNL A   1      40.535  30.956  33.697  1.00  0.00     0.009 A 
ATOM     98  C   UNL A   1      41.392  33.014  34.611  1.00  0.00     0.009 A 
ATOM     99  C   UNL A   1      40.339  30.464  34.994  1.00  0.00     0.001 A 
ATOM    100  C   UNL A   1      41.219  32.516  35.903  1.00  0.00     0.001 A 
ATOM    101  C   UNL A   1      40.686  31.243  36.095  1.00  0.00     0.000 A 
ENDBRANCH  83  96
ENDBRANCH  57  58
ENDBRANCH  49  52
ENDBRANCH  47  48
ENDBRANCH  46  47
ENDBRANCH  45  46
ENDBRANCH  44  45
ENDBRANCH  42  44
ENDBRANCH  39  40
ENDBRANCH  38  39
ENDBRANCH  37  38
ENDBRANCH   1  37
TORSDOF 26
ENDMDL
MODEL 3
REMARK VINA RESULT:      -8.5      3.560      9.057
REMARK SMILES NS(=O)(=O)c1ccc(-n2nc(NC(=O)NCCCCCCCCCCC(=O)NCCCCNC(=O)c3ccc(-c4c5nc(c(-c6ccccc6)c6ccc([nH]6)c(-c6ccccc6)c6nc(c(-c7ccccc7)c7ccc4[nH]7)C=C6)C=C5)cc3)cc2-c2ccccc2)cc1
REMARK SMILES IDX 22 1 21 2 20 3 19 4 18 5 17 6 16 7 15 8 12 9 13 10 14 12
REMARK SMILES IDX 11 14 9 15 10 16 85 17 84 18 8 19 5 20 6 21 93 22 7 23 92 24
REMARK SMILES IDX 2 25 3 26 4 27 1 28 86 31 87 32 91 33 88 34 90 35 89 36
REMARK SMILES IDX 23 37 24 38 25 39 26 40 27 41 28 42 29 44 30 45 31 46 32 47
REMARK SMILES IDX 33 48 34 49 35 51 36 52 37 53 83 54 38 55 82 56 39 57 40 58
REMARK SMILES IDX 41 59 76 60 42 61 81 62 75 63 77 64 43 65 80 66 74 67 73 68
REMARK SMILES IDX 44 70 66 71 51 72 65 73 52 74 55 75 64 76 78 77 53 78 54 79
REMARK SMILES IDX 63 81 79 82 56 83 45 84 46 85 50 86 47 87 49 88 48 89 67 90
REMARK SMILES IDX 68 91 72 92 69 93 71 94 70 95 57 96 58 97 62 98 59 99 61 100
REMARK SMILES IDX 60 101
REMARK H PARENT 12 11 15 13 1 29 1 30 28 43 33 50 77 69 55 80
REMARK Flexibility Score: inf
ROOT
ATOM      1  C   UNL A   1      30.847  26.083  26.241  1.00  0.00     0.000 C 
ENDROOT
BRANCH   1   2
ATOM      2  C   UNL A   1      29.827  25.699  25.192  1.00  0.00     0.000 C 
BRANCH   2   3
ATOM      3  C   UNL A   1      30.445  25.373  23.837  1.00  0.00     0.000 C 
BRANCH   3   4
ATOM      4  C   UNL A   1      30.326  23.922  23.361  1.00  0.00     0.000 C 
BRANCH   4   5
ATOM      5  C   UNL A   1      31.645  23.201  23.064  1.00  0.00     0.002 C 
BRANCH   5   6
ATOM      6  C   UNL A   1      31.531  21.804  22.458  1.00  0.00     0.021 C 
BRANCH   6   7
ATOM      7  C   UNL A   1      32.549  20.783  22.936  1.00  0.00     0.117 C 
BRANCH   7   8
ATOM      8  N   UNL A   1      32.029  19.559  23.485  1.00  0.00    -0.338 N 
ATOM      9  N   UNL A   1      33.681  19.117  25.146  1.00  0.00    -0.291 N 
ATOM     10  C   UNL A   1      32.546  18.799  24.479  1.00  0.00     0.320 C 
ATOM     11  H   UNL A   1      34.124  18.346  25.569  1.00  0.00     0.173 HD
ATOM     12  O   UNL A   1      32.018  17.706  24.701  1.00  0.00    -0.248 OA
ATOM     13  H   UNL A   1      31.191  19.231  23.086  1.00  0.00     0.165 HD
BRANCH   9  14
ATOM     14  C   UNL A   1      34.336  20.314  25.348  1.00  0.00     0.157 A 
ATOM     15  N   UNL A   1      34.779  22.385  25.255  1.00  0.00    -0.231 N 
ATOM     16  N   UNL A   1      33.760  21.517  25.428  1.00  0.00    -0.149 NA
ATOM     17  C   UNL A   1      35.998  21.788  25.542  1.00  0.00     0.076 A 
ATOM     18  C   UNL A   1      35.733  20.431  25.547  1.00  0.00     0.078 A 
BRANCH  15  19
ATOM     19  C   UNL A   1      34.540  23.701  24.769  1.00  0.00     0.065 A 
ATOM     20  C   UNL A   1      33.996  26.264  23.812  1.00  0.00     0.082 A 
ATOM     21  C   UNL A   1      33.898  26.009  25.180  1.00  0.00     0.024 A 
ATOM     22  C   UNL A   1      34.388  25.255  22.923  1.00  0.00     0.024 A 
ATOM     23  C   UNL A   1      34.160  24.722  25.658  1.00  0.00     0.030 A 
ATOM     24  C   UNL A   1      34.687  23.975  23.406  1.00  0.00     0.030 A 
BRANCH  20  25
ATOM     25  S   UNL A   1      33.585  27.860  23.167  1.00  0.00     0.238 S 
ATOM     26  O   UNL A   1      34.658  28.778  23.494  1.00  0.00    -0.207 OA
ATOM     27  O   UNL A   1      32.205  28.134  23.459  1.00  0.00    -0.207 OA
BRANCH  25  28
ATOM     28  N   UNL A   1      33.680  27.665  21.500  1.00  0.00    -0.225 NA
ATOM     29  H   UNL A   1      33.889  26.691  21.282  1.00  0.00     0.137 HD
ATOM     30  H   UNL A   1      34.420  28.262  21.130  1.00  0.00     0.137 HD
ENDBRANCH  25  28
ENDBRANCH  20  25
ENDBRANCH  15  19
BRANCH  17  31
ATOM     31  C   UNL A   1      37.214  22.550  25.809  1.00  0.00     0.000 A 
ATOM     32  C   UNL A   1      38.453  21.886  25.770  1.00  0.00     0.010 A 
ATOM     33  C   UNL A   1      37.173  23.898  26.168  1.00  0.00     0.010 A 
ATOM     34  C   UNL A   1      39.625  22.543  26.132  1.00  0.00     0.001 A 
ATOM     35  C   UNL A   1      38.353  24.559  26.522  1.00  0.00     0.001 A 
ATOM     36  C   UNL A   1      39.573  23.880  26.512  1.00  0.00     0.000 A 
ENDBRANCH  17  31
ENDBRANCH   9  14
ENDBRANCH   7   8
ENDBRANCH   6   7
ENDBRANCH   5   6
ENDBRANCH   4   5
ENDBRANCH   3   4
ENDBRANCH   2   3
ENDBRANCH   1   2
BRANCH   1  37
ATOM     37  C   UNL A   1      30.791  27.567  26.612  1.00  0.00     0.001 C 
BRANCH  37  38
ATOM     38  C   UNL A   1      31.903  28.044  27.535  1.00  0.00     0.010 C 
BRANCH  38  39
ATOM     39  C   UNL A   1      33.045  28.819  26.877  1.00  0.00     0.100 C 
BRANCH  39  40
ATOM     40  C   UNL A   1      33.002  30.324  27.068  1.00  0.00     0.219 C 
ATOM     41  O   UNL A   1      31.957  30.947  26.858  1.00  0.00    -0.275 OA
ATOM     42  N   UNL A   1      34.075  31.041  27.507  1.00  0.00    -0.356 N 
ATOM     43  H   UNL A   1      33.910  32.008  27.579  1.00  0.00     0.163 HD
BRANCH  42  44
ATOM     44  C   UNL A   1      35.419  30.638  27.885  1.00  0.00     0.116 C 
BRANCH  44  45
ATOM     45  C   UNL A   1      35.992  31.498  29.024  1.00  0.00     0.023 C 
BRANCH  45  46
ATOM     46  C   UNL A   1      37.515  31.641  29.088  1.00  0.00     0.023 C 
BRANCH  46  47
ATOM     47  C   UNL A   1      38.020  32.670  30.084  1.00  0.00     0.116 C 
BRANCH  47  48
ATOM     48  N   UNL A   1      37.266  32.695  31.337  1.00  0.00    -0.352 N 
ATOM     49  C   UNL A   1      37.197  31.676  32.271  1.00  0.00     0.251 C 
ATOM     50  H   UNL A   1      36.758  33.515  31.536  1.00  0.00     0.163 HD
ATOM     51  O   UNL A   1      36.255  31.571  33.045  1.00  0.00    -0.269 OA
BRANCH  49  52
ATOM     52  C   UNL A   1      38.314  30.720  32.314  1.00  0.00     0.039 A 
ATOM     53  C   UNL A   1      38.129  29.367  32.026  1.00  0.00     0.014 A 
ATOM     54  C   UNL A   1      39.584  31.242  32.556  1.00  0.00     0.014 A 
ATOM     55  C   UNL A   1      39.255  28.561  31.888  1.00  0.00     0.010 A 
ATOM     56  C   UNL A   1      40.694  30.482  32.282  1.00  0.00     0.010 A 
ATOM     57  C   UNL A   1      40.538  29.133  31.982  1.00  0.00    -0.014 A 
BRANCH  57  58
ATOM     58  C   UNL A   1      41.718  28.364  31.596  1.00  0.00     0.031 A 
ATOM     59  C   UNL A   1      42.676  28.132  32.710  1.00  0.00     0.074 A 
ATOM     60  C   UNL A   1      41.872  27.755  30.401  1.00  0.00     0.049 A 
ATOM     61  N   UNL A   1      43.828  28.693  32.855  1.00  0.00    -0.248 NA
ATOM     62  C   UNL A   1      42.257  27.326  33.869  1.00  0.00     0.031 C 
ATOM     63  C   UNL A   1      40.910  27.644  29.300  1.00  0.00     0.029 A 
ATOM     64  N   UNL A   1      42.916  27.004  29.954  1.00  0.00    -0.354 N 
ATOM     65  C   UNL A   1      44.386  28.141  34.001  1.00  0.00     0.074 A 
ATOM     66  C   UNL A   1      43.311  27.461  34.679  1.00  0.00     0.031 C 
ATOM     67  C   UNL A   1      41.313  26.680  28.440  1.00  0.00     0.029 A 
ATOM     68  C   UNL A   1      42.635  26.228  28.834  1.00  0.00     0.049 A 
ATOM     69  H   UNL A   1      43.799  27.009  30.390  1.00  0.00     0.167 HD
ATOM     70  C   UNL A   1      45.739  28.061  34.140  1.00  0.00     0.031 A 
ATOM     71  C   UNL A   1      43.425  25.271  28.281  1.00  0.00     0.031 A 
ATOM     72  C   UNL A   1      46.416  28.899  33.177  1.00  0.00     0.049 A 
ATOM     73  C   UNL A   1      44.811  25.533  28.730  1.00  0.00     0.074 A 
ATOM     74  C   UNL A   1      46.366  30.242  32.854  1.00  0.00     0.029 A 
ATOM     75  N   UNL A   1      46.975  28.271  32.087  1.00  0.00    -0.354 N 
ATOM     76  N   UNL A   1      45.495  26.572  28.342  1.00  0.00    -0.248 NA
ATOM     77  C   UNL A   1      45.255  24.919  29.972  1.00  0.00     0.031 C 
ATOM     78  C   UNL A   1      46.413  30.273  31.428  1.00  0.00     0.029 A 
ATOM     79  C   UNL A   1      46.593  28.968  30.970  1.00  0.00     0.049 A 
ATOM     80  H   UNL A   1      47.546  27.470  32.106  1.00  0.00     0.167 HD
ATOM     81  C   UNL A   1      46.113  27.026  29.497  1.00  0.00     0.074 A 
ATOM     82  C   UNL A   1      46.010  25.914  30.445  1.00  0.00     0.031 C 
ATOM     83  C   UNL A   1      46.379  28.353  29.680  1.00  0.00     0.031 A 
BRANCH  70  84
ATOM     84  C   UNL A   1      46.439  26.893  34.795  1.00  0.00    -0.014 A 
ATOM     85  C   UNL A   1      46.446  25.657  34.119  1.00  0.00     0.009 A 
ATOM     86  C   UNL A   1      46.802  26.870  36.154  1.00  0.00     0.009 A 
ATOM     87  C   UNL A   1      46.687  24.457  34.797  1.00  0.00     0.001 A 
ATOM     88  C   UNL A   1      47.086  25.677  36.824  1.00  0.00     0.001 A 
ATOM     89  C   UNL A   1      46.992  24.467  36.153  1.00  0.00     0.000 A 
ENDBRANCH  70  84
BRANCH  71  90
ATOM     90  C   UNL A   1      43.046  24.015  27.593  1.00  0.00    -0.014 A 
ATOM     91  C   UNL A   1      43.341  23.821  26.231  1.00  0.00     0.009 A 
ATOM     92  C   UNL A   1      42.650  22.888  28.336  1.00  0.00     0.009 A 
ATOM     93  C   UNL A   1      43.290  22.544  25.652  1.00  0.00     0.001 A 
ATOM     94  C   UNL A   1      42.595  21.614  27.758  1.00  0.00     0.001 A 
ATOM     95  C   UNL A   1      42.933  21.439  26.420  1.00  0.00     0.000 A 
ENDBRANCH  71  90
BRANCH  83  96
ATOM     96  C   UNL A   1      46.205  29.293  28.510  1.00  0.00    -0.014 A 
ATOM     97  C   UNL A   1      44.976  29.876  28.155  1.00  0.00     0.009 A 
ATOM     98  C   UNL A   1      47.360  29.725  27.842  1.00  0.00     0.009 A 
ATOM     99  C   UNL A   1      44.905  30.840  27.141  1.00  0.00     0.001 A 
ATOM    100  C   UNL A   1      47.294  30.702  26.847  1.00  0.00     0.001 A 
ATOM    101  C   UNL A   1      46.065  31.255  26.492  1.00  0.00     0.000 A 
ENDBRANCH  83  96
ENDBRANCH  57  58
ENDBRANCH  49  52
ENDBRANCH  47  48
ENDBRANCH  46  47
ENDBRANCH  45  46
ENDBRANCH  44  45
ENDBRANCH  42  44
ENDBRANCH  39  40
ENDBRANCH  38  39
ENDBRANCH  37  38
ENDBRANCH   1  37
TORSDOF 26
ENDMDL
