MODEL 1
REMARK VINA RESULT:     -13.0      0.000      0.000
REMARK SMILES COc1ccc(-c2[nH]nc3nc(-c4ccc(C(F)(F)F)cc4)cc(C(=O)NCCCCNC(=O)c4ccc(-c5c6nc(c(-c7ccccc7)c7ccc([nH]7)c(-c7ccccc7)c7nc(c(-c8ccccc8)c8ccc5[nH]8)C=C7)C=C6)cc4)c23)cc1
REMARK SMILES IDX 29 1 28 2 27 3 25 4 26 5 24 7 7 8 8 9 83 10 9 11 10 13 11 14
REMARK SMILES IDX 23 15 12 16 6 17 3 18 4 19 85 20 5 21 84 22 2 23 1 24 13 25
REMARK SMILES IDX 14 26 22 27 15 28 21 29 16 30 17 31 18 32 19 33 20 34 30 35
REMARK SMILES IDX 31 36 32 37 33 38 34 40 35 41 36 42 82 43 37 44 81 45 38 46
REMARK SMILES IDX 39 47 40 48 75 49 41 50 80 51 74 52 76 53 42 54 79 55 73 56
REMARK SMILES IDX 72 57 43 59 65 60 50 61 64 62 51 63 54 64 63 65 77 66 52 67
REMARK SMILES IDX 53 68 62 70 78 71 55 72 44 73 45 74 49 75 46 76 48 77 47 78
REMARK SMILES IDX 66 79 67 80 71 81 68 82 70 83 69 84 56 85 57 86 61 87 58 88
REMARK SMILES IDX 60 89 59 90
REMARK H PARENT 27 6 8 12 32 39 76 58 54 69
REMARK Flexibility Score: inf
ROOT
ATOM      1  C   UNL A   1      37.302  22.593  24.982  1.00  0.00     0.023 C 
ENDROOT
BRANCH   1   2
ATOM      2  C   UNL A   1      35.812  22.868  25.177  1.00  0.00     0.116 C 
BRANCH   2   3
ATOM      3  N   UNL A   1      35.217  23.531  24.037  1.00  0.00    -0.352 N 
ATOM      4  C   UNL A   1      34.296  24.529  23.844  1.00  0.00     0.252 C 
ATOM      5  O   UNL A   1      34.262  24.943  22.689  1.00  0.00    -0.269 OA
ATOM      6  H   UNL A   1      35.560  23.177  23.183  1.00  0.00     0.163 HD
BRANCH   4   7
ATOM      7  C   UNL A   1      33.458  25.146  24.904  1.00  0.00     0.055 A 
ATOM      8  C   UNL A   1      31.565  23.469  25.199  1.00  0.00     0.075 A 
ATOM      9  N   UNL A   1      30.369  23.599  25.863  1.00  0.00    -0.275 N 
ATOM     10  C   UNL A   1      32.208  24.687  25.374  1.00  0.00     0.059 A 
ATOM     11  N   UNL A   1      30.198  24.765  26.501  1.00  0.00    -0.154 NA
ATOM     12  H   UNL A   1      29.687  22.889  25.871  1.00  0.00     0.190 HD
ATOM     13  C   UNL A   1      31.318  25.435  26.235  1.00  0.00     0.182 A 
ATOM     14  N   UNL A   1      31.608  26.678  26.695  1.00  0.00    -0.226 NA
ATOM     15  C   UNL A   1      33.755  26.365  25.522  1.00  0.00     0.043 A 
ATOM     16  C   UNL A   1      32.834  27.101  26.311  1.00  0.00     0.074 A 
BRANCH   8  17
ATOM     17  C   UNL A   1      31.922  22.195  24.587  1.00  0.00     0.001 A 
ATOM     18  C   UNL A   1      32.434  19.695  23.408  1.00  0.00     0.118 A 
ATOM     19  C   UNL A   1      32.575  19.873  24.787  1.00  0.00     0.047 A 
ATOM     20  C   UNL A   1      32.067  20.780  22.614  1.00  0.00     0.047 A 
ATOM     21  C   UNL A   1      32.331  21.117  25.376  1.00  0.00     0.014 A 
ATOM     22  C   UNL A   1      31.821  22.027  23.199  1.00  0.00     0.014 A 
BRANCH  18  23
ATOM     23  O   UNL A   1      32.645  18.415  22.974  1.00  0.00    -0.497 OA
ATOM     24  C   UNL A   1      32.690  17.400  23.969  1.00  0.00     0.278 C 
ENDBRANCH  18  23
ENDBRANCH   8  17
BRANCH  16  25
ATOM     25  C   UNL A   1      33.197  28.484  26.662  1.00  0.00     0.000 A 
ATOM     26  C   UNL A   1      32.252  29.515  26.694  1.00  0.00     0.011 A 
ATOM     27  C   UNL A   1      34.515  28.774  27.066  1.00  0.00     0.011 A 
ATOM     28  C   UNL A   1      32.603  30.785  27.169  1.00  0.00     0.014 A 
ATOM     29  C   UNL A   1      34.868  30.039  27.538  1.00  0.00     0.014 A 
ATOM     30  C   UNL A   1      33.909  31.055  27.610  1.00  0.00     0.056 A 
BRANCH  30  31
ATOM     31  C   UNL A   1      34.264  32.416  28.158  1.00  0.00     0.416 C 
ATOM     32  F   UNL A   1      35.510  32.821  27.793  1.00  0.00    -0.166 F 
ATOM     33  F   UNL A   1      33.411  33.386  27.729  1.00  0.00    -0.166 F 
ATOM     34  F   UNL A   1      34.236  32.476  29.520  1.00  0.00    -0.166 F 
ENDBRANCH  30  31
ENDBRANCH  16  25
ENDBRANCH   4   7
ENDBRANCH   2   3
ENDBRANCH   1   2
BRANCH   1  35
ATOM     35  C   UNL A   1      38.154  22.764  26.250  1.00  0.00     0.023 C 
BRANCH  35  36
ATOM     36  C   UNL A   1      38.658  24.184  26.509  1.00  0.00     0.116 C 
BRANCH  36  37
ATOM     37  N   UNL A   1      39.969  24.434  25.919  1.00  0.00    -0.352 N 
ATOM     38  C   UNL A   1      40.725  25.587  25.966  1.00  0.00     0.251 C 
ATOM     39  H   UNL A   1      40.365  23.682  25.423  1.00  0.00     0.163 HD
ATOM     40  O   UNL A   1      41.605  25.792  25.141  1.00  0.00    -0.269 OA
BRANCH  38  41
ATOM     41  C   UNL A   1      40.464  26.577  27.026  1.00  0.00     0.039 A 
ATOM     42  C   UNL A   1      40.272  26.166  28.345  1.00  0.00     0.014 A 
ATOM     43  C   UNL A   1      40.417  27.929  26.688  1.00  0.00     0.014 A 
ATOM     44  C   UNL A   1      40.131  27.134  29.338  1.00  0.00     0.010 A 
ATOM     45  C   UNL A   1      40.370  28.887  27.678  1.00  0.00     0.010 A 
ATOM     46  C   UNL A   1      40.210  28.497  29.004  1.00  0.00    -0.014 A 
BRANCH  46  47
ATOM     47  C   UNL A   1      40.291  29.497  30.068  1.00  0.00     0.031 A 
ATOM     48  C   UNL A   1      39.051  30.298  30.265  1.00  0.00     0.074 A 
ATOM     49  C   UNL A   1      41.296  29.578  30.965  1.00  0.00     0.049 A 
ATOM     50  N   UNL A   1      38.896  31.567  30.076  1.00  0.00    -0.248 NA
ATOM     51  C   UNL A   1      37.808  29.590  30.611  1.00  0.00     0.031 C 
ATOM     52  C   UNL A   1      42.439  28.673  31.126  1.00  0.00     0.029 A 
ATOM     53  N   UNL A   1      41.439  30.436  32.016  1.00  0.00    -0.354 N 
ATOM     54  C   UNL A   1      37.591  31.859  30.464  1.00  0.00     0.074 A 
ATOM     55  C   UNL A   1      36.926  30.591  30.627  1.00  0.00     0.031 C 
ATOM     56  C   UNL A   1      43.008  28.879  32.334  1.00  0.00     0.029 A 
ATOM     57  C   UNL A   1      42.381  30.033  32.955  1.00  0.00     0.049 A 
ATOM     58  H   UNL A   1      40.920  31.267  32.103  1.00  0.00     0.167 HD
ATOM     59  C   UNL A   1      37.232  33.113  30.859  1.00  0.00     0.031 A 
ATOM     60  C   UNL A   1      42.613  30.585  34.170  1.00  0.00     0.031 A 
ATOM     61  C   UNL A   1      38.219  34.093  30.480  1.00  0.00     0.049 A 
ATOM     62  C   UNL A   1      42.060  31.956  34.155  1.00  0.00     0.074 A 
ATOM     63  C   UNL A   1      38.787  34.507  29.292  1.00  0.00     0.029 A 
ATOM     64  N   UNL A   1      39.053  34.552  31.473  1.00  0.00    -0.354 N 
ATOM     65  N   UNL A   1      42.565  32.925  33.450  1.00  0.00    -0.248 NA
ATOM     66  C   UNL A   1      40.698  32.162  34.616  1.00  0.00     0.031 C 
ATOM     67  C   UNL A   1      40.157  34.759  29.607  1.00  0.00     0.029 A 
ATOM     68  C   UNL A   1      40.328  34.554  30.977  1.00  0.00     0.049 A 
ATOM     69  H   UNL A   1      38.781  34.829  32.378  1.00  0.00     0.167 HD
ATOM     70  C   UNL A   1      41.463  33.625  32.984  1.00  0.00     0.074 A 
ATOM     71  C   UNL A   1      40.358  33.196  33.840  1.00  0.00     0.031 C 
ATOM     72  C   UNL A   1      41.497  34.259  31.774  1.00  0.00     0.031 A 
BRANCH  59  73
ATOM     73  C   UNL A   1      36.237  33.388  31.966  1.00  0.00    -0.014 A 
ATOM     74  C   UNL A   1      35.291  34.414  31.779  1.00  0.00     0.009 A 
ATOM     75  C   UNL A   1      36.386  32.904  33.279  1.00  0.00     0.009 A 
ATOM     76  C   UNL A   1      34.616  34.993  32.861  1.00  0.00     0.001 A 
ATOM     77  C   UNL A   1      35.679  33.448  34.356  1.00  0.00     0.001 A 
ATOM     78  C   UNL A   1      34.820  34.517  34.152  1.00  0.00     0.000 A 
ENDBRANCH  59  73
BRANCH  60  79
ATOM     79  C   UNL A   1      43.089  29.953  35.417  1.00  0.00    -0.014 A 
ATOM     80  C   UNL A   1      42.898  28.579  35.641  1.00  0.00     0.009 A 
ATOM     81  C   UNL A   1      43.982  30.638  36.260  1.00  0.00     0.009 A 
ATOM     82  C   UNL A   1      43.617  27.906  36.637  1.00  0.00     0.001 A 
ATOM     83  C   UNL A   1      44.696  29.966  37.259  1.00  0.00     0.001 A 
ATOM     84  C   UNL A   1      44.528  28.596  37.434  1.00  0.00     0.000 A 
ENDBRANCH  60  79
BRANCH  72  85
ATOM     85  C   UNL A   1      42.841  34.437  31.108  1.00  0.00    -0.014 A 
ATOM     86  C   UNL A   1      43.451  33.450  30.313  1.00  0.00     0.009 A 
ATOM     87  C   UNL A   1      43.462  35.691  31.198  1.00  0.00     0.009 A 
ATOM     88  C   UNL A   1      44.671  33.696  29.673  1.00  0.00     0.001 A 
ATOM     89  C   UNL A   1      44.665  35.946  30.539  1.00  0.00     0.001 A 
ATOM     90  C   UNL A   1      45.276  34.945  29.786  1.00  0.00     0.000 A 
ENDBRANCH  72  85
ENDBRANCH  46  47
ENDBRANCH  38  41
ENDBRANCH  36  37
ENDBRANCH  35  36
ENDBRANCH   1  35
TORSDOF 15
ENDMDL
MODEL 2
REMARK VINA RESULT:     -12.9      3.629      5.236
REMARK SMILES COc1ccc(-c2[nH]nc3nc(-c4ccc(C(F)(F)F)cc4)cc(C(=O)NCCCCNC(=O)c4ccc(-c5c6nc(c(-c7ccccc7)c7ccc([nH]7)c(-c7ccccc7)c7nc(c(-c8ccccc8)c8ccc5[nH]8)C=C7)C=C6)cc4)c23)cc1
REMARK SMILES IDX 29 1 28 2 27 3 25 4 26 5 24 7 7 8 8 9 83 10 9 11 10 13 11 14
REMARK SMILES IDX 23 15 12 16 6 17 3 18 4 19 85 20 5 21 84 22 2 23 1 24 13 25
REMARK SMILES IDX 14 26 22 27 15 28 21 29 16 30 17 31 18 32 19 33 20 34 30 35
REMARK SMILES IDX 31 36 32 37 33 38 34 40 35 41 36 42 82 43 37 44 81 45 38 46
REMARK SMILES IDX 39 47 40 48 75 49 41 50 80 51 74 52 76 53 42 54 79 55 73 56
REMARK SMILES IDX 72 57 43 59 65 60 50 61 64 62 51 63 54 64 63 65 77 66 52 67
REMARK SMILES IDX 53 68 62 70 78 71 55 72 44 73 45 74 49 75 46 76 48 77 47 78
REMARK SMILES IDX 66 79 67 80 71 81 68 82 70 83 69 84 56 85 57 86 61 87 58 88
REMARK SMILES IDX 60 89 59 90
REMARK H PARENT 27 6 8 12 32 39 76 58 54 69
REMARK Flexibility Score: inf
ROOT
ATOM      1  C   UNL A   1      36.907  20.772  24.521  1.00  0.00     0.023 C 
ENDROOT
BRANCH   1   2
ATOM      2  C   UNL A   1      36.637  21.825  25.595  1.00  0.00     0.116 C 
BRANCH   2   3
ATOM      3  N   UNL A   1      35.614  21.412  26.532  1.00  0.00    -0.352 N 
ATOM      4  C   UNL A   1      34.244  21.463  26.584  1.00  0.00     0.252 C 
ATOM      5  O   UNL A   1      33.766  20.770  27.477  1.00  0.00    -0.269 OA
ATOM      6  H   UNL A   1      35.997  20.986  27.333  1.00  0.00     0.163 HD
BRANCH   4   7
ATOM      7  C   UNL A   1      33.371  22.198  25.633  1.00  0.00     0.055 A 
ATOM      8  C   UNL A   1      32.824  20.444  23.871  1.00  0.00     0.075 A 
ATOM      9  N   UNL A   1      32.254  20.592  22.629  1.00  0.00    -0.275 N 
ATOM     10  C   UNL A   1      32.873  21.728  24.398  1.00  0.00     0.059 A 
ATOM     11  N   UNL A   1      31.876  21.841  22.323  1.00  0.00    -0.154 NA
ATOM     12  H   UNL A   1      32.131  19.837  22.009  1.00  0.00     0.190 HD
ATOM     13  C   UNL A   1      32.224  22.545  23.398  1.00  0.00     0.182 A 
ATOM     14  N   UNL A   1      32.015  23.877  23.555  1.00  0.00    -0.226 NA
ATOM     15  C   UNL A   1      33.003  23.538  25.790  1.00  0.00     0.043 A 
ATOM     16  C   UNL A   1      32.423  24.327  24.764  1.00  0.00     0.074 A 
BRANCH   8  17
ATOM     17  C   UNL A   1      33.146  19.113  24.369  1.00  0.00     0.001 A 
ATOM     18  C   UNL A   1      33.698  16.477  25.177  1.00  0.00     0.118 A 
ATOM     19  C   UNL A   1      32.537  17.124  25.608  1.00  0.00     0.047 A 
ATOM     20  C   UNL A   1      34.601  17.164  24.366  1.00  0.00     0.047 A 
ATOM     21  C   UNL A   1      32.263  18.438  25.217  1.00  0.00     0.014 A 
ATOM     22  C   UNL A   1      34.331  18.479  23.971  1.00  0.00     0.014 A 
BRANCH  18  23
ATOM     23  O   UNL A   1      33.811  15.176  25.584  1.00  0.00    -0.497 OA
ATOM     24  C   UNL A   1      32.601  14.445  25.735  1.00  0.00     0.278 C 
ENDBRANCH  18  23
ENDBRANCH   8  17
BRANCH  16  25
ATOM     25  C   UNL A   1      32.346  25.780  24.988  1.00  0.00     0.000 A 
ATOM     26  C   UNL A   1      31.478  26.600  24.260  1.00  0.00     0.011 A 
ATOM     27  C   UNL A   1      33.100  26.362  26.026  1.00  0.00     0.011 A 
ATOM     28  C   UNL A   1      31.329  27.952  24.596  1.00  0.00     0.014 A 
ATOM     29  C   UNL A   1      32.955  27.709  26.363  1.00  0.00     0.014 A 
ATOM     30  C   UNL A   1      32.054  28.515  25.660  1.00  0.00     0.056 A 
BRANCH  30  31
ATOM     31  C   UNL A   1      31.853  29.963  26.039  1.00  0.00     0.416 C 
ATOM     32  F   UNL A   1      30.896  30.573  25.290  1.00  0.00    -0.166 F 
ATOM     33  F   UNL A   1      31.468  30.109  27.337  1.00  0.00    -0.166 F 
ATOM     34  F   UNL A   1      32.977  30.720  25.899  1.00  0.00    -0.166 F 
ENDBRANCH  30  31
ENDBRANCH  16  25
ENDBRANCH   4   7
ENDBRANCH   2   3
ENDBRANCH   1   2
BRANCH   1  35
ATOM     35  C   UNL A   1      37.898  19.673  24.940  1.00  0.00     0.023 C 
BRANCH  35  36
ATOM     36  C   UNL A   1      39.064  20.145  25.809  1.00  0.00     0.116 C 
BRANCH  36  37
ATOM     37  N   UNL A   1      40.203  19.234  25.769  1.00  0.00    -0.352 N 
ATOM     38  C   UNL A   1      41.543  19.530  25.905  1.00  0.00     0.251 C 
ATOM     39  H   UNL A   1      39.986  18.284  25.626  1.00  0.00     0.163 HD
ATOM     40  O   UNL A   1      42.398  18.760  25.488  1.00  0.00    -0.269 OA
BRANCH  38  41
ATOM     41  C   UNL A   1      41.940  20.786  26.564  1.00  0.00     0.039 A 
ATOM     42  C   UNL A   1      42.319  21.893  25.805  1.00  0.00     0.014 A 
ATOM     43  C   UNL A   1      41.928  20.849  27.957  1.00  0.00     0.014 A 
ATOM     44  C   UNL A   1      42.589  23.096  26.455  1.00  0.00     0.010 A 
ATOM     45  C   UNL A   1      42.105  22.059  28.595  1.00  0.00     0.010 A 
ATOM     46  C   UNL A   1      42.452  23.183  27.851  1.00  0.00    -0.014 A 
BRANCH  46  47
ATOM     47  C   UNL A   1      42.512  24.492  28.502  1.00  0.00     0.031 A 
ATOM     48  C   UNL A   1      41.370  25.395  28.190  1.00  0.00     0.074 A 
ATOM     49  C   UNL A   1      43.385  24.819  29.478  1.00  0.00     0.049 A 
ATOM     50  N   UNL A   1      41.406  26.518  27.552  1.00  0.00    -0.248 NA
ATOM     51  C   UNL A   1      40.010  24.948  28.535  1.00  0.00     0.031 C 
ATOM     52  C   UNL A   1      44.368  23.955  30.138  1.00  0.00     0.029 A 
ATOM     53  N   UNL A   1      43.490  25.986  30.177  1.00  0.00    -0.354 N 
ATOM     54  C   UNL A   1      40.109  27.021  27.580  1.00  0.00     0.074 A 
ATOM     55  C   UNL A   1      39.270  25.948  28.051  1.00  0.00     0.031 C 
ATOM     56  C   UNL A   1      44.787  24.542  31.281  1.00  0.00     0.029 A 
ATOM     57  C   UNL A   1      44.233  25.883  31.347  1.00  0.00     0.049 A 
ATOM     58  H   UNL A   1      43.074  26.827  29.879  1.00  0.00     0.167 HD
ATOM     59  C   UNL A   1      39.862  28.355  27.450  1.00  0.00     0.031 A 
ATOM     60  C   UNL A   1      44.362  26.819  32.317  1.00  0.00     0.031 A 
ATOM     61  C   UNL A   1      41.010  29.061  26.936  1.00  0.00     0.049 A 
ATOM     62  C   UNL A   1      43.998  28.127  31.735  1.00  0.00     0.074 A 
ATOM     63  C   UNL A   1      41.786  28.977  25.797  1.00  0.00     0.029 A 
ATOM     64  N   UNL A   1      41.750  29.786  27.839  1.00  0.00    -0.354 N 
ATOM     65  N   UNL A   1      44.715  28.739  30.839  1.00  0.00    -0.248 NA
ATOM     66  C   UNL A   1      42.623  28.581  31.850  1.00  0.00     0.031 C 
ATOM     67  C   UNL A   1      43.119  29.228  26.240  1.00  0.00     0.029 A 
ATOM     68  C   UNL A   1      43.072  29.519  27.605  1.00  0.00     0.049 A 
ATOM     69  H   UNL A   1      41.393  30.390  28.531  1.00  0.00     0.167 HD
ATOM     70  C   UNL A   1      43.788  29.300  29.975  1.00  0.00     0.074 A 
ATOM     71  C   UNL A   1      42.530  29.287  30.718  1.00  0.00     0.031 C 
ATOM     72  C   UNL A   1      44.071  29.451  28.647  1.00  0.00     0.031 A 
BRANCH  59  73
ATOM     73  C   UNL A   1      38.767  29.080  28.202  1.00  0.00    -0.014 A 
ATOM     74  C   UNL A   1      38.684  28.911  29.597  1.00  0.00     0.009 A 
ATOM     75  C   UNL A   1      37.649  29.659  27.573  1.00  0.00     0.009 A 
ATOM     76  C   UNL A   1      37.510  29.203  30.301  1.00  0.00     0.001 A 
ATOM     77  C   UNL A   1      36.490  29.996  28.280  1.00  0.00     0.001 A 
ATOM     78  C   UNL A   1      36.408  29.735  29.639  1.00  0.00     0.000 A 
ENDBRANCH  59  73
BRANCH  60  79
ATOM     79  C   UNL A   1      44.575  26.647  33.769  1.00  0.00    -0.014 A 
ATOM     80  C   UNL A   1      43.535  26.192  34.595  1.00  0.00     0.009 A 
ATOM     81  C   UNL A   1      45.879  26.656  34.297  1.00  0.00     0.009 A 
ATOM     82  C   UNL A   1      43.799  25.712  35.885  1.00  0.00     0.001 A 
ATOM     83  C   UNL A   1      46.141  26.181  35.588  1.00  0.00     0.001 A 
ATOM     84  C   UNL A   1      45.103  25.691  36.374  1.00  0.00     0.000 A 
ENDBRANCH  60  79
BRANCH  72  85
ATOM     85  C   UNL A   1      45.506  29.280  28.207  1.00  0.00    -0.014 A 
ATOM     86  C   UNL A   1      46.421  30.344  28.109  1.00  0.00     0.009 A 
ATOM     87  C   UNL A   1      45.980  27.979  27.989  1.00  0.00     0.009 A 
ATOM     88  C   UNL A   1      47.753  30.115  27.753  1.00  0.00     0.001 A 
ATOM     89  C   UNL A   1      47.315  27.746  27.659  1.00  0.00     0.001 A 
ATOM     90  C   UNL A   1      48.200  28.814  27.529  1.00  0.00     0.000 A 
ENDBRANCH  72  85
ENDBRANCH  46  47
ENDBRANCH  38  41
ENDBRANCH  36  37
ENDBRANCH  35  36
ENDBRANCH   1  35
TORSDOF 15
ENDMDL
MODEL 3
REMARK VINA RESULT:     -12.8      1.795      5.471
REMARK SMILES COc1ccc(-c2[nH]nc3nc(-c4ccc(C(F)(F)F)cc4)cc(C(=O)NCCCCNC(=O)c4ccc(-c5c6nc(c(-c7ccccc7)c7ccc([nH]7)c(-c7ccccc7)c7nc(c(-c8ccccc8)c8ccc5[nH]8)C=C7)C=C6)cc4)c23)cc1
REMARK SMILES IDX 29 1 28 2 27 3 25 4 26 5 24 7 7 8 8 9 83 10 9 11 10 13 11 14
REMARK SMILES IDX 23 15 12 16 6 17 3 18 4 19 85 20 5 21 84 22 2 23 1 24 13 25
REMARK SMILES IDX 14 26 22 27 15 28 21 29 16 30 17 31 18 32 19 33 20 34 30 35
REMARK SMILES IDX 31 36 32 37 33 38 34 40 35 41 36 42 82 43 37 44 81 45 38 46
REMARK SMILES IDX 39 47 40 48 75 49 41 50 80 51 74 52 76 53 42 54 79 55 73 56
REMARK SMILES IDX 72 57 43 59 65 60 50 61 64 62 51 63 54 64 63 65 77 66 52 67
REMARK SMILES IDX 53 68 62 70 78 71 55 72 44 73 45 74 49 75 46 76 48 77 47 78
REMARK SMILES IDX 66 79 67 80 71 81 68 82 70 83 69 84 56 85 57 86 61 87 58 88
REMARK SMILES IDX 60 89 59 90
REMARK H PARENT 27 6 8 12 32 39 76 58 54 69
REMARK Flexibility Score: inf
ROOT
ATOM      1  C   UNL A   1      37.721  22.778  25.723  1.00  0.00     0.023 C 
ENDROOT
BRANCH   1   2
ATOM      2  C   UNL A   1      36.303  22.212  25.789  1.00  0.00     0.116 C 
BRANCH   2   3
ATOM      3  N   UNL A   1      35.566  22.422  24.560  1.00  0.00    -0.352 N 
ATOM      4  C   UNL A   1      34.430  23.096  24.194  1.00  0.00     0.252 C 
ATOM      5  O   UNL A   1      34.298  23.200  22.978  1.00  0.00    -0.269 OA
ATOM      6  H   UNL A   1      35.986  21.965  23.795  1.00  0.00     0.163 HD
BRANCH   4   7
ATOM      7  C   UNL A   1      33.464  23.732  25.127  1.00  0.00     0.055 A 
ATOM      8  C   UNL A   1      31.696  21.928  25.452  1.00  0.00     0.075 A 
ATOM      9  N   UNL A   1      30.445  22.014  26.016  1.00  0.00    -0.275 N 
ATOM     10  C   UNL A   1      32.222  23.210  25.551  1.00  0.00     0.059 A 
ATOM     11  N   UNL A   1      30.131  23.214  26.522  1.00  0.00    -0.154 NA
ATOM     12  H   UNL A   1      29.825  21.249  26.046  1.00  0.00     0.190 HD
ATOM     13  C   UNL A   1      31.211  23.952  26.270  1.00  0.00     0.182 A 
ATOM     14  N   UNL A   1      31.362  25.253  26.625  1.00  0.00    -0.226 NA
ATOM     15  C   UNL A   1      33.613  25.024  25.640  1.00  0.00     0.043 A 
ATOM     16  C   UNL A   1      32.576  25.745  26.287  1.00  0.00     0.074 A 
BRANCH   8  17
ATOM     17  C   UNL A   1      32.202  20.640  24.995  1.00  0.00     0.001 A 
ATOM     18  C   UNL A   1      33.007  18.092  24.121  1.00  0.00     0.118 A 
ATOM     19  C   UNL A   1      33.112  18.447  25.468  1.00  0.00     0.047 A 
ATOM     20  C   UNL A   1      32.528  19.027  23.204  1.00  0.00     0.047 A 
ATOM     21  C   UNL A   1      32.722  19.717  25.906  1.00  0.00     0.014 A 
ATOM     22  C   UNL A   1      32.135  20.299  23.638  1.00  0.00     0.014 A 
BRANCH  18  23
ATOM     23  O   UNL A   1      33.365  16.802  23.841  1.00  0.00    -0.497 OA
ATOM     24  C   UNL A   1      34.570  16.331  24.430  1.00  0.00     0.278 C 
ENDBRANCH  18  23
ENDBRANCH   8  17
BRANCH  16  25
ATOM     25  C   UNL A   1      32.797  27.181  26.525  1.00  0.00     0.000 A 
ATOM     26  C   UNL A   1      31.830  27.992  27.128  1.00  0.00     0.011 A 
ATOM     27  C   UNL A   1      34.049  27.750  26.220  1.00  0.00     0.011 A 
ATOM     28  C   UNL A   1      32.128  29.319  27.468  1.00  0.00     0.014 A 
ATOM     29  C   UNL A   1      34.348  29.071  26.555  1.00  0.00     0.014 A 
ATOM     30  C   UNL A   1      33.393  29.866  27.198  1.00  0.00     0.056 A 
BRANCH  30  31
ATOM     31  C   UNL A   1      33.715  31.284  27.606  1.00  0.00     0.416 C 
ATOM     32  F   UNL A   1      33.773  31.441  28.956  1.00  0.00    -0.166 F 
ATOM     33  F   UNL A   1      34.918  31.701  27.125  1.00  0.00    -0.166 F 
ATOM     34  F   UNL A   1      32.803  32.195  27.162  1.00  0.00    -0.166 F 
ENDBRANCH  30  31
ENDBRANCH  16  25
ENDBRANCH   4   7
ENDBRANCH   2   3
ENDBRANCH   1   2
BRANCH   1  35
ATOM     35  C   UNL A   1      38.834  21.719  25.788  1.00  0.00     0.023 C 
BRANCH  35  36
ATOM     36  C   UNL A   1      39.973  22.032  26.759  1.00  0.00     0.116 C 
BRANCH  36  37
ATOM     37  N   UNL A   1      41.257  22.201  26.086  1.00  0.00    -0.352 N 
ATOM     38  C   UNL A   1      41.955  23.368  25.851  1.00  0.00     0.251 C 
ATOM     39  H   UNL A   1      41.680  21.375  25.757  1.00  0.00     0.163 HD
ATOM     40  O   UNL A   1      42.805  23.421  24.973  1.00  0.00    -0.269 OA
BRANCH  38  41
ATOM     41  C   UNL A   1      41.668  24.557  26.672  1.00  0.00     0.039 A 
ATOM     42  C   UNL A   1      42.233  24.694  27.940  1.00  0.00     0.014 A 
ATOM     43  C   UNL A   1      40.826  25.542  26.158  1.00  0.00     0.014 A 
ATOM     44  C   UNL A   1      42.024  25.877  28.646  1.00  0.00     0.010 A 
ATOM     45  C   UNL A   1      40.693  26.748  26.813  1.00  0.00     0.010 A 
ATOM     46  C   UNL A   1      41.276  26.916  28.066  1.00  0.00    -0.014 A 
BRANCH  46  47
ATOM     47  C   UNL A   1      41.250  28.232  28.706  1.00  0.00     0.031 A 
ATOM     48  C   UNL A   1      42.350  29.147  28.291  1.00  0.00     0.074 A 
ATOM     49  C   UNL A   1      40.223  28.701  29.444  1.00  0.00     0.049 A 
ATOM     50  N   UNL A   1      43.306  29.612  29.026  1.00  0.00    -0.248 NA
ATOM     51  C   UNL A   1      42.462  29.506  26.868  1.00  0.00     0.031 C 
ATOM     52  C   UNL A   1      38.924  28.068  29.690  1.00  0.00     0.029 A 
ATOM     53  N   UNL A   1      40.082  29.921  30.037  1.00  0.00    -0.354 N 
ATOM     54  C   UNL A   1      44.032  30.477  28.212  1.00  0.00     0.074 A 
ATOM     55  C   UNL A   1      43.569  30.249  26.867  1.00  0.00     0.031 C 
ATOM     56  C   UNL A   1      38.056  28.991  30.162  1.00  0.00     0.029 A 
ATOM     57  C   UNL A   1      38.777  30.227  30.406  1.00  0.00     0.049 A 
ATOM     58  H   UNL A   1      40.838  30.533  30.190  1.00  0.00     0.167 HD
ATOM     59  C   UNL A   1      44.780  31.487  28.741  1.00  0.00     0.031 A 
ATOM     60  C   UNL A   1      38.312  31.418  30.852  1.00  0.00     0.031 A 
ATOM     61  C   UNL A   1      45.000  31.303  30.154  1.00  0.00     0.049 A 
ATOM     62  C   UNL A   1      39.467  32.199  31.343  1.00  0.00     0.074 A 
ATOM     63  C   UNL A   1      45.564  30.319  30.941  1.00  0.00     0.029 A 
ATOM     64  N   UNL A   1      44.247  32.077  31.006  1.00  0.00    -0.354 N 
ATOM     65  N   UNL A   1      40.139  31.889  32.412  1.00  0.00    -0.248 NA
ATOM     66  C   UNL A   1      40.136  33.104  30.425  1.00  0.00     0.031 C 
ATOM     67  C   UNL A   1      44.744  30.266  32.108  1.00  0.00     0.029 A 
ATOM     68  C   UNL A   1      43.773  31.263  31.999  1.00  0.00     0.049 A 
ATOM     69  H   UNL A   1      44.080  33.043  30.917  1.00  0.00     0.167 HD
ATOM     70  C   UNL A   1      41.458  32.163  32.084  1.00  0.00     0.074 A 
ATOM     71  C   UNL A   1      41.379  33.031  30.911  1.00  0.00     0.031 C 
ATOM     72  C   UNL A   1      42.479  31.429  32.619  1.00  0.00     0.031 A 
BRANCH  59  73
ATOM     73  C   UNL A   1      44.924  32.848  28.094  1.00  0.00    -0.014 A 
ATOM     74  C   UNL A   1      43.837  33.741  28.162  1.00  0.00     0.009 A 
ATOM     75  C   UNL A   1      45.940  33.164  27.174  1.00  0.00     0.009 A 
ATOM     76  C   UNL A   1      43.726  34.825  27.283  1.00  0.00     0.001 A 
ATOM     77  C   UNL A   1      45.854  34.273  26.325  1.00  0.00     0.001 A 
ATOM     78  C   UNL A   1      44.730  35.083  26.355  1.00  0.00     0.000 A 
ENDBRANCH  59  73
BRANCH  60  79
ATOM     79  C   UNL A   1      36.974  32.025  30.698  1.00  0.00    -0.014 A 
ATOM     80  C   UNL A   1      36.007  31.890  31.707  1.00  0.00     0.009 A 
ATOM     81  C   UNL A   1      36.742  32.976  29.688  1.00  0.00     0.009 A 
ATOM     82  C   UNL A   1      34.875  32.716  31.734  1.00  0.00     0.001 A 
ATOM     83  C   UNL A   1      35.609  33.797  29.713  1.00  0.00     0.001 A 
ATOM     84  C   UNL A   1      34.686  33.680  30.747  1.00  0.00     0.000 A 
ENDBRANCH  60  79
BRANCH  72  85
ATOM     85  C   UNL A   1      42.163  30.530  33.792  1.00  0.00    -0.014 A 
ATOM     86  C   UNL A   1      41.737  29.197  33.657  1.00  0.00     0.009 A 
ATOM     87  C   UNL A   1      42.414  31.017  35.083  1.00  0.00     0.009 A 
ATOM     88  C   UNL A   1      41.517  28.396  34.783  1.00  0.00     0.001 A 
ATOM     89  C   UNL A   1      42.220  30.211  36.205  1.00  0.00     0.001 A 
ATOM     90  C   UNL A   1      41.761  28.904  36.057  1.00  0.00     0.000 A 
ENDBRANCH  72  85
ENDBRANCH  46  47
ENDBRANCH  38  41
ENDBRANCH  36  37
ENDBRANCH  35  36
ENDBRANCH   1  35
TORSDOF 15
ENDMDL
