MODEL 1
REMARK VINA RESULT:     -12.6      0.000      0.000
REMARK SMILES O=C(Cc1c(C(=O)c2cc3c(cn2)CCCC3)[nH]c2cc(Cl)ccc12)NCCCCNC(=O)c1ccc(-c2c3nc(c(-c4ccccc4)c4ccc([nH]4)c(-c4ccccc4)c4nc(c(-c5ccccc5)c5ccc2[nH]5)C=C4)C=C3)cc1
REMARK SMILES IDX 28 1 27 2 26 3 1 4 2 5 3 7 4 8 5 9 25 10 18 11 19 12 24 13
REMARK SMILES IDX 20 15 23 16 21 17 22 18 6 19 7 20 8 21 9 22 13 23 10 24
REMARK SMILES IDX 12 25 11 26 17 27 14 28 16 29 15 30 29 31 30 32 31 33 32 34
REMARK SMILES IDX 33 36 34 37 35 38 81 39 36 40 80 41 37 42 38 43 39 44 74 45
REMARK SMILES IDX 40 46 79 47 73 48 75 49 41 50 78 51 72 52 71 53 42 55 64 56
REMARK SMILES IDX 49 57 63 58 50 59 53 60 62 61 76 62 51 63 52 64 61 66 77 67
REMARK SMILES IDX 54 68 43 69 44 70 48 71 45 72 47 73 46 74 65 75 66 76 70 77
REMARK SMILES IDX 67 78 69 79 68 80 55 81 56 82 60 83 57 84 59 85 58 86
REMARK H PARENT 26 6 18 14 31 35 75 54 53 65
REMARK Flexibility Score: inf
ROOT
ATOM      1  C   UNL A   1      35.926  21.507  24.744  1.00  0.00     0.023 C 
ENDROOT
BRANCH   1   2
ATOM      2  C   UNL A   1      36.519  22.908  24.621  1.00  0.00     0.116 C 
BRANCH   2   3
ATOM      3  N   UNL A   1      35.755  23.921  25.319  1.00  0.00    -0.356 N 
ATOM      4  O   UNL A   1      34.490  24.434  23.481  1.00  0.00    -0.275 OA
ATOM      5  C   UNL A   1      34.732  24.595  24.675  1.00  0.00     0.224 C 
ATOM      6  H   UNL A   1      35.965  24.132  26.257  1.00  0.00     0.163 HD
BRANCH   5   7
ATOM      7  C   UNL A   1      33.904  25.506  25.578  1.00  0.00     0.138 C 
BRANCH   7   8
ATOM      8  C   UNL A   1      32.426  25.334  25.337  1.00  0.00    -0.002 A 
ATOM      9  C   UNL A   1      31.635  24.236  25.685  1.00  0.00     0.093 A 
ATOM     10  C   UNL A   1      31.573  26.270  24.654  1.00  0.00     0.004 A 
ATOM     11  N   UNL A   1      30.330  24.593  25.407  1.00  0.00    -0.351 N 
ATOM     12  C   UNL A   1      30.273  25.781  24.724  1.00  0.00     0.048 A 
ATOM     13  C   UNL A   1      31.786  27.498  23.991  1.00  0.00     0.012 A 
ATOM     14  H   UNL A   1      29.542  24.062  25.664  1.00  0.00     0.167 HD
ATOM     15  C   UNL A   1      29.173  26.460  24.183  1.00  0.00     0.047 A 
ATOM     16  C   UNL A   1      30.704  28.193  23.440  1.00  0.00     0.021 A 
ATOM     17  C   UNL A   1      29.419  27.675  23.539  1.00  0.00     0.043 A 
ATOM     18  Cl  UNL A   1      28.103  28.549  22.852  1.00  0.00    -0.084 Cl
BRANCH   9  19
ATOM     19  C   UNL A   1      32.037  22.955  26.270  1.00  0.00     0.227 C 
ATOM     20  O   UNL A   1      32.301  22.807  27.460  1.00  0.00    -0.285 OA
BRANCH  19  21
ATOM     21  C   UNL A   1      32.215  21.779  25.367  1.00  0.00     0.113 A 
ATOM     22  C   UNL A   1      32.542  20.534  25.899  1.00  0.00     0.036 A 
ATOM     23  N   UNL A   1      32.034  22.005  24.044  1.00  0.00    -0.252 NA
ATOM     24  C   UNL A   1      32.692  19.451  25.028  1.00  0.00    -0.041 A 
ATOM     25  C   UNL A   1      32.169  20.941  23.225  1.00  0.00     0.115 A 
ATOM     26  C   UNL A   1      32.508  19.658  23.653  1.00  0.00    -0.026 A 
ATOM     27  C   UNL A   1      33.100  18.104  25.571  1.00  0.00     0.036 C 
ATOM     28  C   UNL A   1      32.584  18.531  22.658  1.00  0.00     0.037 C 
ATOM     29  C   UNL A   1      32.826  16.957  24.599  1.00  0.00     0.005 C 
ATOM     30  C   UNL A   1      33.321  17.307  23.199  1.00  0.00     0.005 C 
ENDBRANCH  19  21
ENDBRANCH   9  19
ENDBRANCH   7   8
ENDBRANCH   5   7
ENDBRANCH   2   3
ENDBRANCH   1   2
BRANCH   1  31
ATOM     31  C   UNL A   1      36.938  20.383  24.987  1.00  0.00     0.023 C 
BRANCH  31  32
ATOM     32  C   UNL A   1      38.316  20.833  25.461  1.00  0.00     0.116 C 
BRANCH  32  33
ATOM     33  N   UNL A   1      39.293  19.756  25.489  1.00  0.00    -0.352 N 
ATOM     34  C   UNL A   1      40.603  19.750  25.917  1.00  0.00     0.251 C 
ATOM     35  H   UNL A   1      38.965  18.891  25.150  1.00  0.00     0.163 HD
ATOM     36  O   UNL A   1      41.299  18.758  25.743  1.00  0.00    -0.269 OA
BRANCH  34  37
ATOM     37  C   UNL A   1      41.194  20.957  26.545  1.00  0.00     0.039 A 
ATOM     38  C   UNL A   1      41.150  21.155  27.925  1.00  0.00     0.014 A 
ATOM     39  C   UNL A   1      41.802  21.913  25.724  1.00  0.00     0.014 A 
ATOM     40  C   UNL A   1      41.534  22.383  28.460  1.00  0.00     0.010 A 
ATOM     41  C   UNL A   1      42.268  23.113  26.277  1.00  0.00     0.010 A 
ATOM     42  C   UNL A   1      42.081  23.384  27.640  1.00  0.00    -0.014 A 
BRANCH  42  43
ATOM     43  C   UNL A   1      42.427  24.710  28.222  1.00  0.00     0.031 A 
ATOM     44  C   UNL A   1      43.854  25.049  28.569  1.00  0.00     0.074 A 
ATOM     45  C   UNL A   1      41.463  25.638  28.385  1.00  0.00     0.049 A 
ATOM     46  N   UNL A   1      44.341  26.169  29.044  1.00  0.00    -0.248 NA
ATOM     47  C   UNL A   1      44.866  24.002  28.358  1.00  0.00     0.031 C 
ATOM     48  C   UNL A   1      40.047  25.445  28.071  1.00  0.00     0.029 A 
ATOM     49  N   UNL A   1      41.533  26.935  28.828  1.00  0.00    -0.354 N 
ATOM     50  C   UNL A   1      45.706  25.956  29.201  1.00  0.00     0.074 A 
ATOM     51  C   UNL A   1      45.968  24.592  28.802  1.00  0.00     0.031 C 
ATOM     52  C   UNL A   1      39.393  26.598  28.275  1.00  0.00     0.029 A 
ATOM     53  C   UNL A   1      40.327  27.592  28.793  1.00  0.00     0.049 A 
ATOM     54  H   UNL A   1      42.367  27.355  29.140  1.00  0.00     0.167 HD
ATOM     55  C   UNL A   1      46.656  26.822  29.626  1.00  0.00     0.031 A 
ATOM     56  C   UNL A   1      39.999  28.851  29.145  1.00  0.00     0.031 A 
ATOM     57  C   UNL A   1      46.402  28.185  30.012  1.00  0.00     0.049 A 
ATOM     58  C   UNL A   1      41.064  29.776  29.661  1.00  0.00     0.074 A 
ATOM     59  C   UNL A   1      47.312  29.140  30.431  1.00  0.00     0.029 A 
ATOM     60  N   UNL A   1      45.154  28.786  30.025  1.00  0.00    -0.354 N 
ATOM     61  N   UNL A   1      42.351  29.560  29.788  1.00  0.00    -0.248 NA
ATOM     62  C   UNL A   1      40.633  31.116  30.086  1.00  0.00     0.031 C 
ATOM     63  C   UNL A   1      46.608  30.302  30.754  1.00  0.00     0.029 A 
ATOM     64  C   UNL A   1      45.268  30.092  30.472  1.00  0.00     0.049 A 
ATOM     65  H   UNL A   1      44.313  28.350  29.757  1.00  0.00     0.167 HD
ATOM     66  C   UNL A   1      42.885  30.738  30.292  1.00  0.00     0.074 A 
ATOM     67  C   UNL A   1      41.788  31.673  30.432  1.00  0.00     0.031 C 
ATOM     68  C   UNL A   1      44.172  31.014  30.613  1.00  0.00     0.031 A 
BRANCH  55  69
ATOM     69  C   UNL A   1      48.076  26.331  29.707  1.00  0.00    -0.014 A 
ATOM     70  C   UNL A   1      48.565  25.812  30.916  1.00  0.00     0.009 A 
ATOM     71  C   UNL A   1      48.957  26.477  28.624  1.00  0.00     0.009 A 
ATOM     72  C   UNL A   1      49.910  25.460  31.045  1.00  0.00     0.001 A 
ATOM     73  C   UNL A   1      50.296  26.099  28.748  1.00  0.00     0.001 A 
ATOM     74  C   UNL A   1      50.773  25.601  29.960  1.00  0.00     0.000 A 
ENDBRANCH  55  69
BRANCH  56  75
ATOM     75  C   UNL A   1      38.590  29.302  29.006  1.00  0.00    -0.014 A 
ATOM     76  C   UNL A   1      37.725  29.291  30.113  1.00  0.00     0.009 A 
ATOM     77  C   UNL A   1      38.088  29.699  27.758  1.00  0.00     0.009 A 
ATOM     78  C   UNL A   1      36.382  29.637  29.967  1.00  0.00     0.001 A 
ATOM     79  C   UNL A   1      36.749  30.074  27.622  1.00  0.00     0.001 A 
ATOM     80  C   UNL A   1      35.895  30.033  28.723  1.00  0.00     0.000 A 
ENDBRANCH  56  75
BRANCH  68  81
ATOM     81  C   UNL A   1      44.487  32.386  31.140  1.00  0.00    -0.014 A 
ATOM     82  C   UNL A   1      44.911  33.392  30.257  1.00  0.00     0.009 A 
ATOM     83  C   UNL A   1      44.469  32.652  32.517  1.00  0.00     0.009 A 
ATOM     84  C   UNL A   1      45.328  34.632  30.743  1.00  0.00     0.001 A 
ATOM     85  C   UNL A   1      44.860  33.903  32.999  1.00  0.00     0.001 A 
ATOM     86  C   UNL A   1      45.298  34.887  32.113  1.00  0.00     0.000 A 
ENDBRANCH  68  81
ENDBRANCH  42  43
ENDBRANCH  34  37
ENDBRANCH  32  33
ENDBRANCH  31  32
ENDBRANCH   1  31
TORSDOF 14
ENDMDL
MODEL 2
REMARK VINA RESULT:     -12.5      3.426      8.878
REMARK SMILES O=C(Cc1c(C(=O)c2cc3c(cn2)CCCC3)[nH]c2cc(Cl)ccc12)NCCCCNC(=O)c1ccc(-c2c3nc(c(-c4ccccc4)c4ccc([nH]4)c(-c4ccccc4)c4nc(c(-c5ccccc5)c5ccc2[nH]5)C=C4)C=C3)cc1
REMARK SMILES IDX 28 1 27 2 26 3 1 4 2 5 3 7 4 8 5 9 25 10 18 11 19 12 24 13
REMARK SMILES IDX 20 15 23 16 21 17 22 18 6 19 7 20 8 21 9 22 13 23 10 24
REMARK SMILES IDX 12 25 11 26 17 27 14 28 16 29 15 30 29 31 30 32 31 33 32 34
REMARK SMILES IDX 33 36 34 37 35 38 81 39 36 40 80 41 37 42 38 43 39 44 74 45
REMARK SMILES IDX 40 46 79 47 73 48 75 49 41 50 78 51 72 52 71 53 42 55 64 56
REMARK SMILES IDX 49 57 63 58 50 59 53 60 62 61 76 62 51 63 52 64 61 66 77 67
REMARK SMILES IDX 54 68 43 69 44 70 48 71 45 72 47 73 46 74 65 75 66 76 70 77
REMARK SMILES IDX 67 78 69 79 68 80 55 81 56 82 60 83 57 84 59 85 58 86
REMARK H PARENT 26 6 18 14 31 35 75 54 53 65
REMARK Flexibility Score: inf
ROOT
ATOM      1  C   UNL A   1      31.837  30.157  25.519  1.00  0.00     0.023 C 
ENDROOT
BRANCH   1   2
ATOM      2  C   UNL A   1      31.667  28.735  26.048  1.00  0.00     0.116 C 
BRANCH   2   3
ATOM      3  N   UNL A   1      32.792  27.871  25.753  1.00  0.00    -0.356 N 
ATOM      4  O   UNL A   1      31.885  26.079  26.851  1.00  0.00    -0.275 OA
ATOM      5  C   UNL A   1      32.785  26.548  26.158  1.00  0.00     0.224 C 
ATOM      6  H   UNL A   1      33.567  28.229  25.261  1.00  0.00     0.163 HD
BRANCH   5   7
ATOM      7  C   UNL A   1      33.952  25.716  25.632  1.00  0.00     0.138 C 
BRANCH   7   8
ATOM      8  C   UNL A   1      33.475  24.552  24.801  1.00  0.00    -0.002 A 
ATOM      9  C   UNL A   1      32.996  24.591  23.488  1.00  0.00     0.093 A 
ATOM     10  C   UNL A   1      33.387  23.187  25.242  1.00  0.00     0.004 A 
ATOM     11  N   UNL A   1      32.827  23.277  23.097  1.00  0.00    -0.351 N 
ATOM     12  C   UNL A   1      32.989  22.418  24.154  1.00  0.00     0.048 A 
ATOM     13  C   UNL A   1      33.623  22.528  26.469  1.00  0.00     0.012 A 
ATOM     14  H   UNL A   1      32.616  22.994  22.178  1.00  0.00     0.167 HD
ATOM     15  C   UNL A   1      32.829  21.027  24.220  1.00  0.00     0.047 A 
ATOM     16  C   UNL A   1      33.467  21.141  26.561  1.00  0.00     0.021 A 
ATOM     17  C   UNL A   1      33.077  20.408  25.447  1.00  0.00     0.043 A 
ATOM     18  Cl  UNL A   1      32.891  18.701  25.585  1.00  0.00    -0.084 Cl
BRANCH   9  19
ATOM     19  C   UNL A   1      32.743  25.750  22.629  1.00  0.00     0.227 C 
ATOM     20  O   UNL A   1      33.556  26.179  21.814  1.00  0.00    -0.285 OA
BRANCH  19  21
ATOM     21  C   UNL A   1      31.467  26.505  22.801  1.00  0.00     0.113 A 
ATOM     22  C   UNL A   1      31.338  27.787  22.271  1.00  0.00     0.036 A 
ATOM     23  N   UNL A   1      30.481  25.872  23.480  1.00  0.00    -0.252 NA
ATOM     24  C   UNL A   1      30.126  28.464  22.441  1.00  0.00    -0.041 A 
ATOM     25  C   UNL A   1      29.316  26.539  23.617  1.00  0.00     0.115 A 
ATOM     26  C   UNL A   1      29.088  27.828  23.138  1.00  0.00    -0.026 A 
ATOM     27  C   UNL A   1      29.977  29.873  21.925  1.00  0.00     0.036 C 
ATOM     28  C   UNL A   1      27.733  28.461  23.304  1.00  0.00     0.037 C 
ATOM     29  C   UNL A   1      28.519  30.319  21.810  1.00  0.00     0.005 C 
ATOM     30  C   UNL A   1      27.749  29.972  23.081  1.00  0.00     0.005 C 
ENDBRANCH  19  21
ENDBRANCH   9  19
ENDBRANCH   7   8
ENDBRANCH   5   7
ENDBRANCH   2   3
ENDBRANCH   1   2
BRANCH   1  31
ATOM     31  C   UNL A   1      31.513  31.272  26.518  1.00  0.00     0.023 C 
BRANCH  31  32
ATOM     32  C   UNL A   1      32.718  32.018  27.083  1.00  0.00     0.116 C 
BRANCH  32  33
ATOM     33  N   UNL A   1      32.404  33.370  27.517  1.00  0.00    -0.352 N 
ATOM     34  C   UNL A   1      33.097  34.224  28.347  1.00  0.00     0.251 C 
ATOM     35  H   UNL A   1      31.562  33.735  27.158  1.00  0.00     0.163 HD
ATOM     36  O   UNL A   1      32.595  35.289  28.685  1.00  0.00    -0.269 OA
BRANCH  34  37
ATOM     37  C   UNL A   1      34.429  33.842  28.876  1.00  0.00     0.039 A 
ATOM     38  C   UNL A   1      35.604  34.186  28.207  1.00  0.00     0.014 A 
ATOM     39  C   UNL A   1      34.496  33.117  30.070  1.00  0.00     0.014 A 
ATOM     40  C   UNL A   1      36.819  33.646  28.621  1.00  0.00     0.010 A 
ATOM     41  C   UNL A   1      35.731  32.648  30.534  1.00  0.00     0.010 A 
ATOM     42  C   UNL A   1      36.895  32.855  29.779  1.00  0.00    -0.014 A 
BRANCH  42  43
ATOM     43  C   UNL A   1      38.192  32.237  30.169  1.00  0.00     0.031 A 
ATOM     44  C   UNL A   1      39.062  32.873  31.222  1.00  0.00     0.074 A 
ATOM     45  C   UNL A   1      38.565  31.065  29.616  1.00  0.00     0.049 A 
ATOM     46  N   UNL A   1      40.201  32.451  31.715  1.00  0.00    -0.248 NA
ATOM     47  C   UNL A   1      38.599  34.145  31.801  1.00  0.00     0.031 C 
ATOM     48  C   UNL A   1      37.807  30.335  28.600  1.00  0.00     0.029 A 
ATOM     49  N   UNL A   1      39.659  30.271  29.852  1.00  0.00    -0.354 N 
ATOM     50  C   UNL A   1      40.595  33.407  32.644  1.00  0.00     0.074 A 
ATOM     51  C   UNL A   1      39.592  34.449  32.627  1.00  0.00     0.031 C 
ATOM     52  C   UNL A   1      38.427  29.174  28.342  1.00  0.00     0.029 A 
ATOM     53  C   UNL A   1      39.657  29.104  29.125  1.00  0.00     0.049 A 
ATOM     54  H   UNL A   1      40.377  30.513  30.481  1.00  0.00     0.167 HD
ATOM     55  C   UNL A   1      41.684  33.412  33.447  1.00  0.00     0.031 A 
ATOM     56  C   UNL A   1      40.545  28.092  29.081  1.00  0.00     0.031 A 
ATOM     57  C   UNL A   1      42.678  32.372  33.477  1.00  0.00     0.049 A 
ATOM     58  C   UNL A   1      41.771  28.146  29.946  1.00  0.00     0.074 A 
ATOM     59  C   UNL A   1      43.803  32.284  34.280  1.00  0.00     0.029 A 
ATOM     60  N   UNL A   1      42.669  31.242  32.675  1.00  0.00    -0.354 N 
ATOM     61  N   UNL A   1      42.117  29.051  30.829  1.00  0.00    -0.248 NA
ATOM     62  C   UNL A   1      42.732  27.041  29.808  1.00  0.00     0.031 C 
ATOM     63  C   UNL A   1      44.505  31.131  33.923  1.00  0.00     0.029 A 
ATOM     64  C   UNL A   1      43.784  30.467  32.945  1.00  0.00     0.049 A 
ATOM     65  H   UNL A   1      41.974  31.025  32.011  1.00  0.00     0.167 HD
ATOM     66  C   UNL A   1      43.324  28.620  31.361  1.00  0.00     0.074 A 
ATOM     67  C   UNL A   1      43.645  27.363  30.717  1.00  0.00     0.031 C 
ATOM     68  C   UNL A   1      44.098  29.220  32.298  1.00  0.00     0.031 A 
BRANCH  55  69
ATOM     69  C   UNL A   1      41.878  34.583  34.371  1.00  0.00    -0.014 A 
ATOM     70  C   UNL A   1      42.657  35.675  33.957  1.00  0.00     0.009 A 
ATOM     71  C   UNL A   1      41.380  34.563  35.683  1.00  0.00     0.009 A 
ATOM     72  C   UNL A   1      42.945  36.717  34.840  1.00  0.00     0.001 A 
ATOM     73  C   UNL A   1      41.647  35.619  36.556  1.00  0.00     0.001 A 
ATOM     74  C   UNL A   1      42.437  36.690  36.138  1.00  0.00     0.000 A 
ENDBRANCH  55  69
BRANCH  56  75
ATOM     75  C   UNL A   1      40.286  26.936  28.183  1.00  0.00    -0.014 A 
ATOM     76  C   UNL A   1      39.548  25.832  28.638  1.00  0.00     0.009 A 
ATOM     77  C   UNL A   1      40.818  26.909  26.885  1.00  0.00     0.009 A 
ATOM     78  C   UNL A   1      39.373  24.712  27.824  1.00  0.00     0.001 A 
ATOM     79  C   UNL A   1      40.614  25.799  26.062  1.00  0.00     0.001 A 
ATOM     80  C   UNL A   1      39.901  24.697  26.535  1.00  0.00     0.000 A 
ENDBRANCH  56  75
BRANCH  68  81
ATOM     81  C   UNL A   1      45.370  28.531  32.706  1.00  0.00    -0.014 A 
ATOM     82  C   UNL A   1      46.555  28.774  31.992  1.00  0.00     0.009 A 
ATOM     83  C   UNL A   1      45.374  27.565  33.723  1.00  0.00     0.009 A 
ATOM     84  C   UNL A   1      47.714  28.050  32.276  1.00  0.00     0.001 A 
ATOM     85  C   UNL A   1      46.542  26.862  34.023  1.00  0.00     0.001 A 
ATOM     86  C   UNL A   1      47.707  27.098  33.294  1.00  0.00     0.000 A 
ENDBRANCH  68  81
ENDBRANCH  42  43
ENDBRANCH  34  37
ENDBRANCH  32  33
ENDBRANCH  31  32
ENDBRANCH   1  31
TORSDOF 14
ENDMDL
MODEL 3
REMARK VINA RESULT:     -12.4      3.441      8.855
REMARK SMILES O=C(Cc1c(C(=O)c2cc3c(cn2)CCCC3)[nH]c2cc(Cl)ccc12)NCCCCNC(=O)c1ccc(-c2c3nc(c(-c4ccccc4)c4ccc([nH]4)c(-c4ccccc4)c4nc(c(-c5ccccc5)c5ccc2[nH]5)C=C4)C=C3)cc1
REMARK SMILES IDX 28 1 27 2 26 3 1 4 2 5 3 7 4 8 5 9 25 10 18 11 19 12 24 13
REMARK SMILES IDX 20 15 23 16 21 17 22 18 6 19 7 20 8 21 9 22 13 23 10 24
REMARK SMILES IDX 12 25 11 26 17 27 14 28 16 29 15 30 29 31 30 32 31 33 32 34
REMARK SMILES IDX 33 36 34 37 35 38 81 39 36 40 80 41 37 42 38 43 39 44 74 45
REMARK SMILES IDX 40 46 79 47 73 48 75 49 41 50 78 51 72 52 71 53 42 55 64 56
REMARK SMILES IDX 49 57 63 58 50 59 53 60 62 61 76 62 51 63 52 64 61 66 77 67
REMARK SMILES IDX 54 68 43 69 44 70 48 71 45 72 47 73 46 74 65 75 66 76 70 77
REMARK SMILES IDX 67 78 69 79 68 80 55 81 56 82 60 83 57 84 59 85 58 86
REMARK H PARENT 26 6 18 14 31 35 75 54 53 65
REMARK Flexibility Score: inf
ROOT
ATOM      1  C   UNL A   1      31.887  29.845  25.881  1.00  0.00     0.023 C 
ENDROOT
BRANCH   1   2
ATOM      2  C   UNL A   1      32.378  28.840  26.920  1.00  0.00     0.116 C 
BRANCH   2   3
ATOM      3  N   UNL A   1      33.367  27.915  26.406  1.00  0.00    -0.356 N 
ATOM      4  O   UNL A   1      31.958  26.115  26.542  1.00  0.00    -0.275 OA
ATOM      5  C   UNL A   1      33.044  26.582  26.210  1.00  0.00     0.224 C 
ATOM      6  H   UNL A   1      34.273  28.235  26.194  1.00  0.00     0.163 HD
BRANCH   5   7
ATOM      7  C   UNL A   1      34.124  25.766  25.504  1.00  0.00     0.138 C 
BRANCH   7   8
ATOM      8  C   UNL A   1      33.527  24.710  24.609  1.00  0.00    -0.002 A 
ATOM      9  C   UNL A   1      32.960  24.896  23.345  1.00  0.00     0.093 A 
ATOM     10  C   UNL A   1      33.395  23.315  24.930  1.00  0.00     0.004 A 
ATOM     11  N   UNL A   1      32.692  23.635  22.850  1.00  0.00    -0.351 N 
ATOM     12  C   UNL A   1      32.880  22.673  23.809  1.00  0.00     0.048 A 
ATOM     13  C   UNL A   1      33.679  22.532  26.071  1.00  0.00     0.012 A 
ATOM     14  H   UNL A   1      32.402  23.451  21.927  1.00  0.00     0.167 HD
ATOM     15  C   UNL A   1      32.648  21.291  23.760  1.00  0.00     0.047 A 
ATOM     16  C   UNL A   1      33.453  21.152  26.047  1.00  0.00     0.021 A 
ATOM     17  C   UNL A   1      32.946  20.547  24.903  1.00  0.00     0.043 A 
ATOM     18  Cl  UNL A   1      32.677  18.846  24.899  1.00  0.00    -0.084 Cl
BRANCH   9  19
ATOM     19  C   UNL A   1      32.713  26.142  22.616  1.00  0.00     0.227 C 
ATOM     20  O   UNL A   1      33.556  26.697  21.916  1.00  0.00    -0.285 OA
BRANCH  19  21
ATOM     21  C   UNL A   1      31.396  26.825  22.790  1.00  0.00     0.113 A 
ATOM     22  C   UNL A   1      31.195  28.097  22.258  1.00  0.00     0.036 A 
ATOM     23  N   UNL A   1      30.449  26.138  23.471  1.00  0.00    -0.252 NA
ATOM     24  C   UNL A   1      29.947  28.705  22.430  1.00  0.00    -0.041 A 
ATOM     25  C   UNL A   1      29.249  26.739  23.609  1.00  0.00     0.115 A 
ATOM     26  C   UNL A   1      28.948  28.012  23.130  1.00  0.00    -0.026 A 
ATOM     27  C   UNL A   1      29.718  30.103  21.913  1.00  0.00     0.036 C 
ATOM     28  C   UNL A   1      27.559  28.569  23.297  1.00  0.00     0.037 C 
ATOM     29  C   UNL A   1      28.238  30.467  21.801  1.00  0.00     0.005 C 
ATOM     30  C   UNL A   1      27.491  30.078  23.073  1.00  0.00     0.005 C 
ENDBRANCH  19  21
ENDBRANCH   9  19
ENDBRANCH   7   8
ENDBRANCH   5   7
ENDBRANCH   2   3
ENDBRANCH   1   2
BRANCH   1  31
ATOM     31  C   UNL A   1      31.578  31.246  26.416  1.00  0.00     0.023 C 
BRANCH  31  32
ATOM     32  C   UNL A   1      32.751  31.974  27.066  1.00  0.00     0.116 C 
BRANCH  32  33
ATOM     33  N   UNL A   1      32.434  33.339  27.458  1.00  0.00    -0.352 N 
ATOM     34  C   UNL A   1      33.095  34.200  28.306  1.00  0.00     0.251 C 
ATOM     35  H   UNL A   1      31.616  33.706  27.051  1.00  0.00     0.163 HD
ATOM     36  O   UNL A   1      32.592  35.277  28.598  1.00  0.00    -0.269 OA
BRANCH  34  37
ATOM     37  C   UNL A   1      34.394  33.812  28.908  1.00  0.00     0.039 A 
ATOM     38  C   UNL A   1      35.606  34.153  28.308  1.00  0.00     0.014 A 
ATOM     39  C   UNL A   1      34.392  33.083  30.102  1.00  0.00     0.014 A 
ATOM     40  C   UNL A   1      36.795  33.607  28.788  1.00  0.00     0.010 A 
ATOM     41  C   UNL A   1      35.597  32.609  30.634  1.00  0.00     0.010 A 
ATOM     42  C   UNL A   1      36.802  32.814  29.947  1.00  0.00    -0.014 A 
BRANCH  42  43
ATOM     43  C   UNL A   1      38.073  32.190  30.408  1.00  0.00     0.031 A 
ATOM     44  C   UNL A   1      38.546  30.884  29.821  1.00  0.00     0.074 A 
ATOM     45  C   UNL A   1      38.839  32.828  31.315  1.00  0.00     0.049 A 
ATOM     46  N   UNL A   1      39.647  30.219  30.074  1.00  0.00    -0.248 NA
ATOM     47  C   UNL A   1      37.676  30.238  28.825  1.00  0.00     0.031 C 
ATOM     48  C   UNL A   1      38.507  34.105  31.947  1.00  0.00     0.029 A 
ATOM     49  N   UNL A   1      40.064  32.503  31.842  1.00  0.00    -0.354 N 
ATOM     50  C   UNL A   1      39.594  29.077  29.282  1.00  0.00     0.074 A 
ATOM     51  C   UNL A   1      38.340  29.120  28.564  1.00  0.00     0.031 C 
ATOM     52  C   UNL A   1      39.527  34.484  32.730  1.00  0.00     0.029 A 
ATOM     53  C   UNL A   1      40.557  33.451  32.706  1.00  0.00     0.049 A 
ATOM     54  H   UNL A   1      40.543  31.672  31.622  1.00  0.00     0.167 HD
ATOM     55  C   UNL A   1      40.512  28.091  29.155  1.00  0.00     0.031 A 
ATOM     56  C   UNL A   1      41.705  33.487  33.411  1.00  0.00     0.031 A 
ATOM     57  C   UNL A   1      41.767  28.050  29.858  1.00  0.00     0.049 A 
ATOM     58  C   UNL A   1      42.683  32.354  33.290  1.00  0.00     0.074 A 
ATOM     59  C   UNL A   1      42.769  27.098  29.769  1.00  0.00     0.029 A 
ATOM     60  N   UNL A   1      42.194  28.997  30.774  1.00  0.00    -0.354 N 
ATOM     61  N   UNL A   1      42.622  31.292  32.525  1.00  0.00    -0.248 NA
ATOM     62  C   UNL A   1      43.888  32.422  34.131  1.00  0.00     0.031 C 
ATOM     63  C   UNL A   1      43.776  27.438  30.674  1.00  0.00     0.029 A 
ATOM     64  C   UNL A   1      43.433  28.636  31.278  1.00  0.00     0.049 A 
ATOM     65  H   UNL A   1      41.692  29.805  31.029  1.00  0.00     0.167 HD
ATOM     66  C   UNL A   1      43.782  30.573  32.781  1.00  0.00     0.074 A 
ATOM     67  C   UNL A   1      44.540  31.328  33.757  1.00  0.00     0.031 C 
ATOM     68  C   UNL A   1      44.178  29.390  32.252  1.00  0.00     0.031 A 
BRANCH  55  69
ATOM     69  C   UNL A   1      40.204  26.952  28.221  1.00  0.00    -0.014 A 
ATOM     70  C   UNL A   1      39.458  25.856  28.682  1.00  0.00     0.009 A 
ATOM     71  C   UNL A   1      40.735  26.915  26.922  1.00  0.00     0.009 A 
ATOM     72  C   UNL A   1      39.260  24.739  27.867  1.00  0.00     0.001 A 
ATOM     73  C   UNL A   1      40.513  25.809  26.100  1.00  0.00     0.001 A 
ATOM     74  C   UNL A   1      39.785  24.718  26.576  1.00  0.00     0.000 A 
ENDBRANCH  55  69
BRANCH  56  75
ATOM     75  C   UNL A   1      41.984  34.654  34.289  1.00  0.00    -0.014 A 
ATOM     76  C   UNL A   1      42.623  35.794  33.775  1.00  0.00     0.009 A 
ATOM     77  C   UNL A   1      41.657  34.615  35.652  1.00  0.00     0.009 A 
ATOM     78  C   UNL A   1      42.957  36.858  34.614  1.00  0.00     0.001 A 
ATOM     79  C   UNL A   1      41.965  35.695  36.483  1.00  0.00     0.001 A 
ATOM     80  C   UNL A   1      42.624  36.811  35.967  1.00  0.00     0.000 A 
ENDBRANCH  56  75
BRANCH  68  81
ATOM     81  C   UNL A   1      45.497  28.826  32.700  1.00  0.00    -0.014 A 
ATOM     82  C   UNL A   1      45.555  28.009  33.841  1.00  0.00     0.009 A 
ATOM     83  C   UNL A   1      46.692  29.186  32.060  1.00  0.00     0.009 A 
ATOM     84  C   UNL A   1      46.784  27.580  34.344  1.00  0.00     0.001 A 
ATOM     85  C   UNL A   1      47.919  28.733  32.549  1.00  0.00     0.001 A 
ATOM     86  C   UNL A   1      47.964  27.939  33.695  1.00  0.00     0.000 A 
ENDBRANCH  68  81
ENDBRANCH  42  43
ENDBRANCH  34  37
ENDBRANCH  32  33
ENDBRANCH  31  32
ENDBRANCH   1  31
TORSDOF 14
ENDMDL
