MODEL 1
REMARK VINA RESULT:     -10.9      0.000      0.000
REMARK SMILES C[C@](NC(=O)[C@](C)([NH3+])C(F)(F)F)(C(=O)NCCCCNC(=O)c1ccc(-c2c3nc(c(-c4ccccc4)c4ccc([nH]4)c(-c4ccccc4)c4nc(c(-c5ccccc5)c5ccc2[nH]5)C=C4)C=C3)cc1)c1ccccc1
REMARK SMILES IDX 17 1 16 2 15 3 13 4 14 5 2 7 1 8 71 9 72 10 76 11 73 12
REMARK SMILES IDX 75 13 74 14 3 15 4 16 5 18 6 19 7 20 8 21 9 25 10 26 11 27
REMARK SMILES IDX 12 28 18 29 19 30 20 31 21 32 22 34 23 35 24 36 70 37 25 38
REMARK SMILES IDX 69 39 26 40 27 41 28 42 63 43 29 44 68 45 62 46 64 47 30 48
REMARK SMILES IDX 67 49 61 50 60 51 31 53 53 54 38 55 52 56 39 57 42 58 51 59
REMARK SMILES IDX 65 60 40 61 41 62 50 64 66 65 43 66 32 67 33 68 37 69 34 70
REMARK SMILES IDX 36 71 35 72 54 73 55 74 59 75 56 76 58 77 57 78 44 79 45 80
REMARK SMILES IDX 49 81 46 82 48 83 47 84
REMARK H PARENT 15 6 3 17 8 22 8 23 8 24 20 33 64 52 42 63
REMARK Flexibility Score: inf
ROOT
ATOM      1  C   UNL A   1      36.150  20.429  25.006  1.00  0.00     0.023 C 
ENDROOT
BRANCH   1   2
ATOM      2  C   UNL A   1      35.306  21.669  25.279  1.00  0.00     0.116 C 
BRANCH   2   3
ATOM      3  N   UNL A   1      35.009  22.395  24.053  1.00  0.00    -0.354 N 
ATOM      4  C   UNL A   1      33.810  22.719  23.466  1.00  0.00     0.250 C 
ATOM      5  O   UNL A   1      33.865  23.531  22.539  1.00  0.00    -0.272 OA
ATOM      6  H   UNL A   1      35.801  22.708  23.560  1.00  0.00     0.163 HD
BRANCH   4   7
ATOM      7  C   UNL A   1      32.447  22.191  24.075  1.00  0.00     0.142 C 
ATOM      8  C   UNL A   1      31.364  22.763  23.132  1.00  0.00     0.051 C 
BRANCH   7   9
ATOM      9  C   UNL A   1      32.468  20.650  24.126  1.00  0.00    -0.013 A 
ATOM     10  C   UNL A   1      32.538  19.957  25.348  1.00  0.00     0.007 A 
ATOM     11  C   UNL A   1      32.403  19.878  22.947  1.00  0.00     0.007 A 
ATOM     12  C   UNL A   1      32.617  18.562  25.385  1.00  0.00     0.000 A 
ATOM     13  C   UNL A   1      32.486  18.484  22.985  1.00  0.00     0.000 A 
ATOM     14  C   UNL A   1      32.606  17.827  24.204  1.00  0.00     0.000 A 
ENDBRANCH   7   9
BRANCH   7  15
ATOM     15  N   UNL A   1      32.400  22.742  25.457  1.00  0.00    -0.332 N 
ATOM     16  C   UNL A   1      32.258  23.926  26.094  1.00  0.00     0.291 C 
ATOM     17  H   UNL A   1      32.505  22.017  26.114  1.00  0.00     0.165 HD
ATOM     18  O   UNL A   1      32.098  23.804  27.318  1.00  0.00    -0.267 OA
BRANCH  16  19
ATOM     19  C   UNL A   1      32.344  25.328  25.473  1.00  0.00     0.267 C 
ATOM     20  C   UNL A   1      31.539  26.308  26.343  1.00  0.00     0.100 C 
BRANCH  19  21
ATOM     21  N   UNL A   1      31.707  25.430  24.132  1.00  0.00    -0.337 N 
ATOM     22  H   UNL A   1      32.385  25.176  23.414  1.00  0.00     0.345 HD
ATOM     23  H   UNL A   1      31.392  26.388  23.979  1.00  0.00     0.345 HD
ATOM     24  H   UNL A   1      30.909  24.797  24.086  1.00  0.00     0.345 HD
ENDBRANCH  19  21
BRANCH  19  25
ATOM     25  C   UNL A   1      33.846  25.704  25.557  1.00  0.00     0.453 C 
ATOM     26  F   UNL A   1      34.030  26.835  26.281  1.00  0.00    -0.164 F 
ATOM     27  F   UNL A   1      34.603  24.742  26.130  1.00  0.00    -0.164 F 
ATOM     28  F   UNL A   1      34.369  25.944  24.330  1.00  0.00    -0.164 F 
ENDBRANCH  19  25
ENDBRANCH  16  19
ENDBRANCH   7  15
ENDBRANCH   4   7
ENDBRANCH   2   3
ENDBRANCH   1   2
BRANCH   1  29
ATOM     29  C   UNL A   1      37.591  20.729  24.593  1.00  0.00     0.023 C 
BRANCH  29  30
ATOM     30  C   UNL A   1      38.589  20.796  25.745  1.00  0.00     0.116 C 
BRANCH  30  31
ATOM     31  N   UNL A   1      39.559  19.713  25.719  1.00  0.00    -0.352 N 
ATOM     32  C   UNL A   1      40.897  19.747  26.039  1.00  0.00     0.251 C 
ATOM     33  H   UNL A   1      39.212  18.837  25.433  1.00  0.00     0.163 HD
ATOM     34  O   UNL A   1      41.613  18.779  25.834  1.00  0.00    -0.269 OA
BRANCH  32  35
ATOM     35  C   UNL A   1      41.466  20.988  26.605  1.00  0.00     0.039 A 
ATOM     36  C   UNL A   1      42.013  21.935  25.737  1.00  0.00     0.014 A 
ATOM     37  C   UNL A   1      41.425  21.224  27.981  1.00  0.00     0.014 A 
ATOM     38  C   UNL A   1      42.456  23.157  26.246  1.00  0.00     0.010 A 
ATOM     39  C   UNL A   1      41.801  22.468  28.477  1.00  0.00     0.010 A 
ATOM     40  C   UNL A   1      42.319  23.447  27.614  1.00  0.00    -0.014 A 
BRANCH  40  41
ATOM     41  C   UNL A   1      42.706  24.769  28.163  1.00  0.00     0.031 A 
ATOM     42  C   UNL A   1      41.667  25.835  28.365  1.00  0.00     0.074 A 
ATOM     43  C   UNL A   1      44.003  25.033  28.416  1.00  0.00     0.049 A 
ATOM     44  N   UNL A   1      41.820  27.070  28.772  1.00  0.00    -0.248 NA
ATOM     45  C   UNL A   1      40.276  25.476  28.042  1.00  0.00     0.031 C 
ATOM     46  C   UNL A   1      45.114  24.098  28.221  1.00  0.00     0.029 A 
ATOM     47  N   UNL A   1      44.606  26.173  28.885  1.00  0.00    -0.354 N 
ATOM     48  C   UNL A   1      40.552  27.637  28.739  1.00  0.00     0.074 A 
ATOM     49  C   UNL A   1      39.651  26.629  28.222  1.00  0.00     0.031 C 
ATOM     50  C   UNL A   1      46.259  24.695  28.590  1.00  0.00     0.029 A 
ATOM     51  C   UNL A   1      45.969  26.062  29.011  1.00  0.00     0.049 A 
ATOM     52  H   UNL A   1      44.109  26.992  29.110  1.00  0.00     0.167 HD
ATOM     53  C   UNL A   1      40.167  28.877  29.121  1.00  0.00     0.031 A 
ATOM     54  C   UNL A   1      46.885  26.962  29.415  1.00  0.00     0.031 A 
ATOM     55  C   UNL A   1      41.060  29.876  29.643  1.00  0.00     0.049 A 
ATOM     56  C   UNL A   1      46.434  28.335  29.828  1.00  0.00     0.074 A 
ATOM     57  C   UNL A   1      40.758  31.144  30.108  1.00  0.00     0.029 A 
ATOM     58  N   UNL A   1      42.431  29.719  29.768  1.00  0.00    -0.354 N 
ATOM     59  N   UNL A   1      45.222  28.834  29.852  1.00  0.00    -0.248 NA
ATOM     60  C   UNL A   1      47.478  29.265  30.281  1.00  0.00     0.031 C 
ATOM     61  C   UNL A   1      41.953  31.772  30.472  1.00  0.00     0.029 A 
ATOM     62  C   UNL A   1      42.992  30.875  30.283  1.00  0.00     0.049 A 
ATOM     63  H   UNL A   1      42.932  28.907  29.527  1.00  0.00     0.167 HD
ATOM     64  C   UNL A   1      45.354  30.125  30.346  1.00  0.00     0.074 A 
ATOM     65  C   UNL A   1      46.762  30.327  30.624  1.00  0.00     0.031 C 
ATOM     66  C   UNL A   1      44.395  31.060  30.553  1.00  0.00     0.031 A 
BRANCH  53  67
ATOM     67  C   UNL A   1      38.709  29.218  28.983  1.00  0.00    -0.014 A 
ATOM     68  C   UNL A   1      38.186  29.695  27.770  1.00  0.00     0.009 A 
ATOM     69  C   UNL A   1      37.842  29.037  30.071  1.00  0.00     0.009 A 
ATOM     70  C   UNL A   1      36.833  30.021  27.662  1.00  0.00     0.001 A 
ATOM     71  C   UNL A   1      36.484  29.336  29.952  1.00  0.00     0.001 A 
ATOM     72  C   UNL A   1      35.982  29.838  28.752  1.00  0.00     0.000 A 
ENDBRANCH  53  67
BRANCH  54  73
ATOM     73  C   UNL A   1      48.322  26.590  29.465  1.00  0.00    -0.014 A 
ATOM     74  C   UNL A   1      49.166  26.860  28.377  1.00  0.00     0.009 A 
ATOM     75  C   UNL A   1      48.858  25.960  30.599  1.00  0.00     0.009 A 
ATOM     76  C   UNL A   1      50.511  26.484  28.413  1.00  0.00     0.001 A 
ATOM     77  C   UNL A   1      50.208  25.610  30.644  1.00  0.00     0.001 A 
ATOM     78  C   UNL A   1      51.032  25.863  29.549  1.00  0.00     0.000 A 
ENDBRANCH  54  73
BRANCH  66  79
ATOM     79  C   UNL A   1      44.831  32.374  31.137  1.00  0.00    -0.014 A 
ATOM     80  C   UNL A   1      45.186  33.454  30.314  1.00  0.00     0.009 A 
ATOM     81  C   UNL A   1      44.847  32.543  32.530  1.00  0.00     0.009 A 
ATOM     82  C   UNL A   1      45.580  34.669  30.879  1.00  0.00     0.001 A 
ATOM     83  C   UNL A   1      45.213  33.766  33.090  1.00  0.00     0.001 A 
ATOM     84  C   UNL A   1      45.588  34.826  32.265  1.00  0.00     0.000 A 
ENDBRANCH  66  79
ENDBRANCH  40  41
ENDBRANCH  32  35
ENDBRANCH  30  31
ENDBRANCH  29  30
ENDBRANCH   1  29
TORSDOF 16
ENDMDL
MODEL 2
REMARK VINA RESULT:     -10.9      1.157      6.119
REMARK SMILES C[C@](NC(=O)[C@](C)([NH3+])C(F)(F)F)(C(=O)NCCCCNC(=O)c1ccc(-c2c3nc(c(-c4ccccc4)c4ccc([nH]4)c(-c4ccccc4)c4nc(c(-c5ccccc5)c5ccc2[nH]5)C=C4)C=C3)cc1)c1ccccc1
REMARK SMILES IDX 17 1 16 2 15 3 13 4 14 5 2 7 1 8 71 9 72 10 76 11 73 12
REMARK SMILES IDX 75 13 74 14 3 15 4 16 5 18 6 19 7 20 8 21 9 25 10 26 11 27
REMARK SMILES IDX 12 28 18 29 19 30 20 31 21 32 22 34 23 35 24 36 70 37 25 38
REMARK SMILES IDX 69 39 26 40 27 41 28 42 63 43 29 44 68 45 62 46 64 47 30 48
REMARK SMILES IDX 67 49 61 50 60 51 31 53 53 54 38 55 52 56 39 57 42 58 51 59
REMARK SMILES IDX 65 60 40 61 41 62 50 64 66 65 43 66 32 67 33 68 37 69 34 70
REMARK SMILES IDX 36 71 35 72 54 73 55 74 59 75 56 76 58 77 57 78 44 79 45 80
REMARK SMILES IDX 49 81 46 82 48 83 47 84
REMARK H PARENT 15 6 3 17 8 22 8 23 8 24 20 33 64 52 42 63
REMARK Flexibility Score: inf
ROOT
ATOM      1  C   UNL A   1      36.670  21.112  24.558  1.00  0.00     0.023 C 
ENDROOT
BRANCH   1   2
ATOM      2  C   UNL A   1      36.834  22.413  25.336  1.00  0.00     0.116 C 
BRANCH   2   3
ATOM      3  N   UNL A   1      36.009  22.429  26.535  1.00  0.00    -0.354 N 
ATOM      4  C   UNL A   1      34.747  22.925  26.753  1.00  0.00     0.250 C 
ATOM      5  O   UNL A   1      34.216  22.599  27.818  1.00  0.00    -0.272 OA
ATOM      6  H   UNL A   1      36.425  22.012  27.324  1.00  0.00     0.163 HD
BRANCH   4   7
ATOM      7  C   UNL A   1      33.988  23.723  25.616  1.00  0.00     0.142 C 
ATOM      8  C   UNL A   1      35.075  24.636  25.005  1.00  0.00     0.051 C 
BRANCH   7   9
ATOM      9  C   UNL A   1      33.382  22.728  24.606  1.00  0.00    -0.013 A 
ATOM     10  C   UNL A   1      33.238  23.058  23.246  1.00  0.00     0.007 A 
ATOM     11  C   UNL A   1      32.961  21.443  25.007  1.00  0.00     0.007 A 
ATOM     12  C   UNL A   1      32.634  22.174  22.347  1.00  0.00     0.000 A 
ATOM     13  C   UNL A   1      32.353  20.562  24.110  1.00  0.00     0.000 A 
ATOM     14  C   UNL A   1      32.179  20.934  22.782  1.00  0.00     0.000 A 
ENDBRANCH   7   9
BRANCH   7  15
ATOM     15  N   UNL A   1      32.900  24.459  26.316  1.00  0.00    -0.332 N 
ATOM     16  C   UNL A   1      32.062  25.501  26.117  1.00  0.00     0.291 C 
ATOM     17  H   UNL A   1      32.740  24.061  27.202  1.00  0.00     0.165 HD
ATOM     18  O   UNL A   1      31.180  25.588  26.985  1.00  0.00    -0.267 OA
BRANCH  16  19
ATOM     19  C   UNL A   1      32.151  26.563  25.012  1.00  0.00     0.267 C 
ATOM     20  C   UNL A   1      30.791  27.274  24.894  1.00  0.00     0.100 C 
BRANCH  19  21
ATOM     21  N   UNL A   1      32.381  25.998  23.655  1.00  0.00    -0.337 N 
ATOM     22  H   UNL A   1      33.237  26.390  23.264  1.00  0.00     0.345 HD
ATOM     23  H   UNL A   1      31.592  26.233  23.051  1.00  0.00     0.345 HD
ATOM     24  H   UNL A   1      32.470  24.984  23.719  1.00  0.00     0.345 HD
ENDBRANCH  19  21
BRANCH  19  25
ATOM     25  C   UNL A   1      33.202  27.579  25.527  1.00  0.00     0.453 C 
ATOM     26  F   UNL A   1      32.658  28.811  25.688  1.00  0.00    -0.164 F 
ATOM     27  F   UNL A   1      33.744  27.229  26.714  1.00  0.00    -0.164 F 
ATOM     28  F   UNL A   1      34.226  27.724  24.649  1.00  0.00    -0.164 F 
ENDBRANCH  19  25
ENDBRANCH  16  19
ENDBRANCH   7  15
ENDBRANCH   4   7
ENDBRANCH   2   3
ENDBRANCH   1   2
BRANCH   1  29
ATOM     29  C   UNL A   1      37.620  19.997  24.992  1.00  0.00     0.023 C 
BRANCH  29  30
ATOM     30  C   UNL A   1      38.886  20.470  25.700  1.00  0.00     0.116 C 
BRANCH  30  31
ATOM     31  N   UNL A   1      39.932  19.460  25.726  1.00  0.00    -0.352 N 
ATOM     32  C   UNL A   1      41.257  19.602  26.069  1.00  0.00     0.251 C 
ATOM     33  H   UNL A   1      39.655  18.552  25.463  1.00  0.00     0.163 HD
ATOM     34  O   UNL A   1      42.046  18.683  25.909  1.00  0.00    -0.269 OA
BRANCH  32  35
ATOM     35  C   UNL A   1      41.724  20.897  26.604  1.00  0.00     0.039 A 
ATOM     36  C   UNL A   1      42.229  21.850  25.718  1.00  0.00     0.014 A 
ATOM     37  C   UNL A   1      41.626  21.178  27.970  1.00  0.00     0.014 A 
ATOM     38  C   UNL A   1      42.573  23.116  26.194  1.00  0.00     0.010 A 
ATOM     39  C   UNL A   1      41.901  22.461  28.429  1.00  0.00     0.010 A 
ATOM     40  C   UNL A   1      42.376  23.443  27.546  1.00  0.00    -0.014 A 
BRANCH  40  41
ATOM     41  C   UNL A   1      42.657  24.807  28.056  1.00  0.00     0.031 A 
ATOM     42  C   UNL A   1      44.046  25.179  28.490  1.00  0.00     0.074 A 
ATOM     43  C   UNL A   1      41.648  25.689  28.194  1.00  0.00     0.049 A 
ATOM     44  N   UNL A   1      44.474  26.297  29.021  1.00  0.00    -0.248 NA
ATOM     45  C   UNL A   1      45.088  24.150  28.331  1.00  0.00     0.031 C 
ATOM     46  C   UNL A   1      40.246  25.437  27.850  1.00  0.00     0.029 A 
ATOM     47  N   UNL A   1      41.647  26.977  28.667  1.00  0.00    -0.354 N 
ATOM     48  C   UNL A   1      45.826  26.100  29.273  1.00  0.00     0.074 A 
ATOM     49  C   UNL A   1      46.135  24.740  28.887  1.00  0.00     0.031 C 
ATOM     50  C   UNL A   1      39.527  26.542  28.103  1.00  0.00     0.029 A 
ATOM     51  C   UNL A   1      40.406  27.566  28.659  1.00  0.00     0.049 A 
ATOM     52  H   UNL A   1      42.458  27.435  28.984  1.00  0.00     0.167 HD
ATOM     53  C   UNL A   1      46.733  26.977  29.763  1.00  0.00     0.031 A 
ATOM     54  C   UNL A   1      40.017  28.791  29.059  1.00  0.00     0.031 A 
ATOM     55  C   UNL A   1      46.428  28.331  30.138  1.00  0.00     0.049 A 
ATOM     56  C   UNL A   1      41.042  29.744  29.606  1.00  0.00     0.074 A 
ATOM     57  C   UNL A   1      47.289  29.314  30.596  1.00  0.00     0.029 A 
ATOM     58  N   UNL A   1      45.162  28.893  30.101  1.00  0.00    -0.354 N 
ATOM     59  N   UNL A   1      42.329  29.565  29.778  1.00  0.00    -0.248 NA
ATOM     60  C   UNL A   1      40.560  31.074  30.005  1.00  0.00     0.031 C 
ATOM     61  C   UNL A   1      46.536  30.458  30.879  1.00  0.00     0.029 A 
ATOM     62  C   UNL A   1      45.215  30.203  30.547  1.00  0.00     0.049 A 
ATOM     63  H   UNL A   1      44.346  28.430  29.802  1.00  0.00     0.167 HD
ATOM     64  C   UNL A   1      42.816  30.765  30.279  1.00  0.00     0.074 A 
ATOM     65  C   UNL A   1      41.688  31.671  30.368  1.00  0.00     0.031 C 
ATOM     66  C   UNL A   1      44.083  31.090  30.632  1.00  0.00     0.031 A 
BRANCH  53  67
ATOM     67  C   UNL A   1      48.146  26.489  29.922  1.00  0.00    -0.014 A 
ATOM     68  C   UNL A   1      48.568  25.858  31.104  1.00  0.00     0.009 A 
ATOM     69  C   UNL A   1      49.061  26.638  28.868  1.00  0.00     0.009 A 
ATOM     70  C   UNL A   1      49.888  25.423  31.241  1.00  0.00     0.001 A 
ATOM     71  C   UNL A   1      50.371  26.176  28.997  1.00  0.00     0.001 A 
ATOM     72  C   UNL A   1      50.787  25.579  30.186  1.00  0.00     0.000 A 
ENDBRANCH  53  67
BRANCH  54  73
ATOM     73  C   UNL A   1      38.593  29.194  28.943  1.00  0.00    -0.014 A 
ATOM     74  C   UNL A   1      37.731  29.089  30.044  1.00  0.00     0.009 A 
ATOM     75  C   UNL A   1      38.086  29.684  27.729  1.00  0.00     0.009 A 
ATOM     76  C   UNL A   1      36.383  29.441  29.926  1.00  0.00     0.001 A 
ATOM     77  C   UNL A   1      36.747  30.062  27.621  1.00  0.00     0.001 A 
ATOM     78  C   UNL A   1      35.894  29.932  28.716  1.00  0.00     0.000 A 
ENDBRANCH  54  73
BRANCH  66  79
ATOM     79  C   UNL A   1      44.323  32.492  31.116  1.00  0.00    -0.014 A 
ATOM     80  C   UNL A   1      44.259  32.811  32.480  1.00  0.00     0.009 A 
ATOM     81  C   UNL A   1      44.658  33.496  30.195  1.00  0.00     0.009 A 
ATOM     82  C   UNL A   1      44.496  34.120  32.909  1.00  0.00     0.001 A 
ATOM     83  C   UNL A   1      44.922  34.795  30.629  1.00  0.00     0.001 A 
ATOM     84  C   UNL A   1      44.831  35.108  31.984  1.00  0.00     0.000 A 
ENDBRANCH  66  79
ENDBRANCH  40  41
ENDBRANCH  32  35
ENDBRANCH  30  31
ENDBRANCH  29  30
ENDBRANCH   1  29
TORSDOF 16
ENDMDL
MODEL 3
REMARK VINA RESULT:     -10.8      1.357      6.440
REMARK SMILES C[C@](NC(=O)[C@](C)([NH3+])C(F)(F)F)(C(=O)NCCCCNC(=O)c1ccc(-c2c3nc(c(-c4ccccc4)c4ccc([nH]4)c(-c4ccccc4)c4nc(c(-c5ccccc5)c5ccc2[nH]5)C=C4)C=C3)cc1)c1ccccc1
REMARK SMILES IDX 17 1 16 2 15 3 13 4 14 5 2 7 1 8 71 9 72 10 76 11 73 12
REMARK SMILES IDX 75 13 74 14 3 15 4 16 5 18 6 19 7 20 8 21 9 25 10 26 11 27
REMARK SMILES IDX 12 28 18 29 19 30 20 31 21 32 22 34 23 35 24 36 70 37 25 38
REMARK SMILES IDX 69 39 26 40 27 41 28 42 63 43 29 44 68 45 62 46 64 47 30 48
REMARK SMILES IDX 67 49 61 50 60 51 31 53 53 54 38 55 52 56 39 57 42 58 51 59
REMARK SMILES IDX 65 60 40 61 41 62 50 64 66 65 43 66 32 67 33 68 37 69 34 70
REMARK SMILES IDX 36 71 35 72 54 73 55 74 59 75 56 76 58 77 57 78 44 79 45 80
REMARK SMILES IDX 49 81 46 82 48 83 47 84
REMARK H PARENT 15 6 3 17 8 22 8 23 8 24 20 33 64 52 42 63
REMARK Flexibility Score: inf
ROOT
ATOM      1  C   UNL A   1      36.776  21.028  24.731  1.00  0.00     0.023 C 
ENDROOT
BRANCH   1   2
ATOM      2  C   UNL A   1      35.435  20.717  25.387  1.00  0.00     0.116 C 
BRANCH   2   3
ATOM      3  N   UNL A   1      35.215  21.535  26.571  1.00  0.00    -0.354 N 
ATOM      4  C   UNL A   1      34.350  22.578  26.796  1.00  0.00     0.250 C 
ATOM      5  O   UNL A   1      34.233  22.937  27.970  1.00  0.00    -0.272 OA
ATOM      6  H   UNL A   1      35.782  21.302  27.341  1.00  0.00     0.163 HD
BRANCH   4   7
ATOM      7  C   UNL A   1      33.451  23.146  25.623  1.00  0.00     0.142 C 
ATOM      8  C   UNL A   1      32.234  22.195  25.584  1.00  0.00     0.051 C 
BRANCH   7   9
ATOM      9  C   UNL A   1      33.078  24.611  25.924  1.00  0.00    -0.013 A 
ATOM     10  C   UNL A   1      31.770  24.974  26.296  1.00  0.00     0.007 A 
ATOM     11  C   UNL A   1      34.039  25.641  25.852  1.00  0.00     0.007 A 
ATOM     12  C   UNL A   1      31.424  26.312  26.510  1.00  0.00     0.000 A 
ATOM     13  C   UNL A   1      33.691  26.978  26.062  1.00  0.00     0.000 A 
ATOM     14  C   UNL A   1      32.380  27.314  26.379  1.00  0.00     0.000 A 
ENDBRANCH   7   9
BRANCH   7  15
ATOM     15  N   UNL A   1      34.310  23.082  24.409  1.00  0.00    -0.332 N 
ATOM     16  C   UNL A   1      34.263  23.385  23.092  1.00  0.00     0.291 C 
ATOM     17  H   UNL A   1      35.189  22.702  24.637  1.00  0.00     0.165 HD
ATOM     18  O   UNL A   1      35.368  23.301  22.534  1.00  0.00    -0.267 OA
BRANCH  16  19
ATOM     19  C   UNL A   1      33.017  23.733  22.265  1.00  0.00     0.267 C 
ATOM     20  C   UNL A   1      31.778  23.144  22.962  1.00  0.00     0.100 C 
BRANCH  19  21
ATOM     21  N   UNL A   1      33.000  23.110  20.914  1.00  0.00    -0.337 N 
ATOM     22  H   UNL A   1      32.157  22.546  20.810  1.00  0.00     0.345 HD
ATOM     23  H   UNL A   1      33.822  22.516  20.803  1.00  0.00     0.345 HD
ATOM     24  H   UNL A   1      33.010  23.841  20.202  1.00  0.00     0.345 HD
ENDBRANCH  19  21
BRANCH  19  25
ATOM     25  C   UNL A   1      32.930  25.279  22.316  1.00  0.00     0.453 C 
ATOM     26  F   UNL A   1      34.059  25.818  22.840  1.00  0.00    -0.164 F 
ATOM     27  F   UNL A   1      32.753  25.842  21.101  1.00  0.00    -0.164 F 
ATOM     28  F   UNL A   1      31.907  25.696  23.102  1.00  0.00    -0.164 F 
ENDBRANCH  19  25
ENDBRANCH  16  19
ENDBRANCH   7  15
ENDBRANCH   4   7
ENDBRANCH   2   3
ENDBRANCH   1   2
BRANCH   1  29
ATOM     29  C   UNL A   1      37.837  19.946  24.926  1.00  0.00     0.023 C 
BRANCH  29  30
ATOM     30  C   UNL A   1      39.036  20.366  25.770  1.00  0.00     0.116 C 
BRANCH  30  31
ATOM     31  N   UNL A   1      40.096  19.370  25.784  1.00  0.00    -0.352 N 
ATOM     32  C   UNL A   1      41.426  19.533  26.096  1.00  0.00     0.251 C 
ATOM     33  H   UNL A   1      39.826  18.456  25.537  1.00  0.00     0.163 HD
ATOM     34  O   UNL A   1      42.223  18.622  25.929  1.00  0.00    -0.269 OA
BRANCH  32  35
ATOM     35  C   UNL A   1      41.887  20.840  26.607  1.00  0.00     0.039 A 
ATOM     36  C   UNL A   1      42.345  21.795  25.697  1.00  0.00     0.014 A 
ATOM     37  C   UNL A   1      41.830  21.129  27.973  1.00  0.00     0.014 A 
ATOM     38  C   UNL A   1      42.682  23.071  26.153  1.00  0.00     0.010 A 
ATOM     39  C   UNL A   1      42.098  22.420  28.414  1.00  0.00     0.010 A 
ATOM     40  C   UNL A   1      42.525  23.404  27.509  1.00  0.00    -0.014 A 
BRANCH  40  41
ATOM     41  C   UNL A   1      42.798  24.777  28.001  1.00  0.00     0.031 A 
ATOM     42  C   UNL A   1      44.193  25.173  28.394  1.00  0.00     0.074 A 
ATOM     43  C   UNL A   1      41.780  25.644  28.157  1.00  0.00     0.049 A 
ATOM     44  N   UNL A   1      44.617  26.301  28.905  1.00  0.00    -0.248 NA
ATOM     45  C   UNL A   1      45.246  24.159  28.217  1.00  0.00     0.031 C 
ATOM     46  C   UNL A   1      40.374  25.368  27.853  1.00  0.00     0.029 A 
ATOM     47  N   UNL A   1      41.772  26.936  28.621  1.00  0.00    -0.354 N 
ATOM     48  C   UNL A   1      45.978  26.128  29.122  1.00  0.00     0.074 A 
ATOM     49  C   UNL A   1      46.298  24.769  28.739  1.00  0.00     0.031 C 
ATOM     50  C   UNL A   1      39.644  26.464  28.116  1.00  0.00     0.029 A 
ATOM     51  C   UNL A   1      40.522  27.506  28.640  1.00  0.00     0.049 A 
ATOM     52  H   UNL A   1      42.584  27.409  28.912  1.00  0.00     0.167 HD
ATOM     53  C   UNL A   1      46.884  27.022  29.581  1.00  0.00     0.031 A 
ATOM     54  C   UNL A   1      40.125  28.728  29.041  1.00  0.00     0.031 A 
ATOM     55  C   UNL A   1      46.569  28.375  29.953  1.00  0.00     0.049 A 
ATOM     56  C   UNL A   1      41.150  29.701  29.552  1.00  0.00     0.074 A 
ATOM     57  C   UNL A   1      47.426  29.374  30.380  1.00  0.00     0.029 A 
ATOM     58  N   UNL A   1      45.294  28.917  29.945  1.00  0.00    -0.354 N 
ATOM     59  N   UNL A   1      42.443  29.543  29.691  1.00  0.00    -0.248 NA
ATOM     60  C   UNL A   1      40.658  31.028  29.953  1.00  0.00     0.031 C 
ATOM     61  C   UNL A   1      46.663  30.509  30.673  1.00  0.00     0.029 A 
ATOM     62  C   UNL A   1      45.338  30.232  30.379  1.00  0.00     0.049 A 
ATOM     63  H   UNL A   1      44.477  28.440  29.671  1.00  0.00     0.167 HD
ATOM     64  C   UNL A   1      42.924  30.755  30.169  1.00  0.00     0.074 A 
ATOM     65  C   UNL A   1      41.785  31.644  30.281  1.00  0.00     0.031 C 
ATOM     66  C   UNL A   1      44.195  31.102  30.486  1.00  0.00     0.031 A 
BRANCH  53  67
ATOM     67  C   UNL A   1      48.308  26.557  29.706  1.00  0.00    -0.014 A 
ATOM     68  C   UNL A   1      49.226  26.737  28.658  1.00  0.00     0.009 A 
ATOM     69  C   UNL A   1      48.746  25.954  30.895  1.00  0.00     0.009 A 
ATOM     70  C   UNL A   1      50.542  26.286  28.784  1.00  0.00     0.001 A 
ATOM     71  C   UNL A   1      50.069  25.530  31.029  1.00  0.00     0.001 A 
ATOM     72  C   UNL A   1      50.963  25.687  29.971  1.00  0.00     0.000 A 
ENDBRANCH  53  67
BRANCH  54  73
ATOM     73  C   UNL A   1      38.692  29.109  28.958  1.00  0.00    -0.014 A 
ATOM     74  C   UNL A   1      38.150  29.583  27.755  1.00  0.00     0.009 A 
ATOM     75  C   UNL A   1      37.859  29.001  30.082  1.00  0.00     0.009 A 
ATOM     76  C   UNL A   1      36.808  29.969  27.686  1.00  0.00     0.001 A 
ATOM     77  C   UNL A   1      36.512  29.360  30.004  1.00  0.00     0.001 A 
ATOM     78  C   UNL A   1      35.990  29.852  28.808  1.00  0.00     0.000 A 
ENDBRANCH  54  73
BRANCH  66  79
ATOM     79  C   UNL A   1      44.426  32.511  30.952  1.00  0.00    -0.014 A 
ATOM     80  C   UNL A   1      44.683  33.546  30.040  1.00  0.00     0.009 A 
ATOM     81  C   UNL A   1      44.345  32.812  32.320  1.00  0.00     0.009 A 
ATOM     82  C   UNL A   1      44.885  34.852  30.496  1.00  0.00     0.001 A 
ATOM     83  C   UNL A   1      44.519  34.121  32.769  1.00  0.00     0.001 A 
ATOM     84  C   UNL A   1      44.798  35.138  31.857  1.00  0.00     0.000 A 
ENDBRANCH  66  79
ENDBRANCH  40  41
ENDBRANCH  32  35
ENDBRANCH  30  31
ENDBRANCH  29  30
ENDBRANCH   1  29
TORSDOF 16
ENDMDL
