MODEL 1
REMARK VINA RESULT:     -11.9      0.000      0.000
REMARK SMILES Cc1ccc(S(=O)(=O)N(c2ccccc2)[C@H](C)C(=O)NCCCCNC(=O)c2ccc(-c3c4nc(c(-c5ccccc5)c5ccc([nH]5)c(-c5ccccc5)c5nc(c(-c6ccccc6)c6ccc3[nH]6)C=C5)C=C4)cc2)cc1
REMARK SMILES IDX 22 1 21 2 20 3 18 4 19 5 16 7 17 8 9 9 6 10 7 11 8 12 5 13
REMARK SMILES IDX 1 14 2 15 3 16 77 17 4 18 76 19 10 20 11 21 15 22 12 23
REMARK SMILES IDX 14 24 13 25 23 26 24 27 25 28 26 29 27 31 28 32 29 33 75 34
REMARK SMILES IDX 30 35 74 36 31 37 32 38 33 39 68 40 34 41 73 42 67 43 69 44
REMARK SMILES IDX 35 45 72 46 66 47 65 48 36 50 58 51 43 52 57 53 44 54 47 55
REMARK SMILES IDX 56 56 70 57 45 58 46 59 55 61 71 62 48 63 37 64 38 65 42 66
REMARK SMILES IDX 39 67 41 68 40 69 59 70 60 71 64 72 61 73 63 74 62 75 49 76
REMARK SMILES IDX 50 77 54 78 51 79 53 80 52 81
REMARK H PARENT 20 6 25 30 69 49 47 60
REMARK Flexibility Score: inf
ROOT
ATOM      1  C   UNL A   1      33.949  28.051  26.397  1.00  0.00     0.023 C 
ENDROOT
BRANCH   1   2
ATOM      2  C   UNL A   1      32.682  27.197  26.420  1.00  0.00     0.116 C 
BRANCH   2   3
ATOM      3  N   UNL A   1      31.742  27.443  25.342  1.00  0.00    -0.354 N 
ATOM      4  C   UNL A   1      31.497  26.725  24.201  1.00  0.00     0.243 C 
ATOM      5  O   UNL A   1      30.401  26.944  23.665  1.00  0.00    -0.273 OA
ATOM      6  H   UNL A   1      31.195  28.254  25.446  1.00  0.00     0.163 HD
BRANCH   4   7
ATOM      7  C   UNL A   1      32.488  25.741  23.552  1.00  0.00     0.185 C 
ATOM      8  C   UNL A   1      33.703  26.445  22.941  1.00  0.00     0.043 C 
BRANCH   7   9
ATOM      9  N   UNL A   1      32.811  24.498  24.345  1.00  0.00    -0.254 N 
BRANCH   9  10
ATOM     10  S   UNL A   1      31.509  23.400  24.500  1.00  0.00     0.265 S 
ATOM     11  O   UNL A   1      30.719  23.535  23.289  1.00  0.00    -0.201 OA
ATOM     12  O   UNL A   1      30.895  23.640  25.791  1.00  0.00    -0.201 OA
BRANCH  10  13
ATOM     13  C   UNL A   1      32.066  21.702  24.512  1.00  0.00     0.088 A 
ATOM     14  C   UNL A   1      33.910  17.827  24.113  1.00  0.00     0.044 C 
ATOM     15  C   UNL A   1      33.234  19.157  24.257  1.00  0.00    -0.051 A 
ATOM     16  C   UNL A   1      32.589  19.747  23.166  1.00  0.00     0.005 A 
ATOM     17  C   UNL A   1      33.202  19.809  25.496  1.00  0.00     0.005 A 
ATOM     18  C   UNL A   1      32.027  21.019  23.287  1.00  0.00     0.022 A 
ATOM     19  C   UNL A   1      32.588  21.060  25.632  1.00  0.00     0.022 A 
ENDBRANCH  10  13
ENDBRANCH   9  10
BRANCH   9  20
ATOM     20  C   UNL A   1      34.148  24.016  24.344  1.00  0.00     0.053 A 
ATOM     21  C   UNL A   1      34.885  24.234  25.512  1.00  0.00     0.027 A 
ATOM     22  C   UNL A   1      34.740  23.406  23.240  1.00  0.00     0.027 A 
ATOM     23  C   UNL A   1      36.219  23.850  25.577  1.00  0.00     0.002 A 
ATOM     24  C   UNL A   1      36.082  23.019  23.311  1.00  0.00     0.002 A 
ATOM     25  C   UNL A   1      36.820  23.247  24.475  1.00  0.00     0.000 A 
ENDBRANCH   9  20
ENDBRANCH   7   9
ENDBRANCH   4   7
ENDBRANCH   2   3
ENDBRANCH   1   2
BRANCH   1  26
ATOM     26  C   UNL A   1      33.731  29.559  26.256  1.00  0.00     0.023 C 
BRANCH  26  27
ATOM     27  C   UNL A   1      33.401  30.303  27.546  1.00  0.00     0.116 C 
BRANCH  27  28
ATOM     28  N   UNL A   1      34.206  31.476  27.837  1.00  0.00    -0.352 N 
ATOM     29  C   UNL A   1      35.506  31.575  28.312  1.00  0.00     0.251 C 
ATOM     30  H   UNL A   1      33.759  32.337  27.671  1.00  0.00     0.163 HD
ATOM     31  O   UNL A   1      35.941  32.682  28.600  1.00  0.00    -0.269 OA
BRANCH  29  32
ATOM     32  C   UNL A   1      36.431  30.399  28.354  1.00  0.00     0.039 A 
ATOM     33  C   UNL A   1      36.549  29.693  29.566  1.00  0.00     0.014 A 
ATOM     34  C   UNL A   1      37.290  30.075  27.312  1.00  0.00     0.014 A 
ATOM     35  C   UNL A   1      37.650  28.865  29.795  1.00  0.00     0.010 A 
ATOM     36  C   UNL A   1      38.438  29.360  27.569  1.00  0.00     0.010 A 
ATOM     37  C   UNL A   1      38.648  28.805  28.829  1.00  0.00    -0.014 A 
BRANCH  37  38
ATOM     38  C   UNL A   1      39.998  28.315  29.052  1.00  0.00     0.031 A 
ATOM     39  C   UNL A   1      40.440  27.025  28.498  1.00  0.00     0.074 A 
ATOM     40  C   UNL A   1      40.905  29.165  29.582  1.00  0.00     0.049 A 
ATOM     41  N   UNL A   1      41.477  26.386  28.920  1.00  0.00    -0.248 NA
ATOM     42  C   UNL A   1      39.721  26.329  27.435  1.00  0.00     0.031 C 
ATOM     43  C   UNL A   1      42.360  29.075  29.523  1.00  0.00     0.029 A 
ATOM     44  N   UNL A   1      40.671  30.214  30.469  1.00  0.00    -0.354 N 
ATOM     45  C   UNL A   1      41.743  25.401  28.001  1.00  0.00     0.074 A 
ATOM     46  C   UNL A   1      40.577  25.343  27.150  1.00  0.00     0.031 C 
ATOM     47  C   UNL A   1      42.874  29.805  30.527  1.00  0.00     0.029 A 
ATOM     48  C   UNL A   1      41.759  30.240  31.351  1.00  0.00     0.049 A 
ATOM     49  H   UNL A   1      39.894  30.818  30.474  1.00  0.00     0.167 HD
ATOM     50  C   UNL A   1      42.982  24.837  27.957  1.00  0.00     0.031 A 
ATOM     51  C   UNL A   1      41.621  30.014  32.691  1.00  0.00     0.031 A 
ATOM     52  C   UNL A   1      43.879  25.383  28.971  1.00  0.00     0.049 A 
ATOM     53  C   UNL A   1      42.410  28.814  33.182  1.00  0.00     0.074 A 
ATOM     54  C   UNL A   1      44.941  26.273  28.945  1.00  0.00     0.029 A 
ATOM     55  N   UNL A   1      43.542  25.235  30.307  1.00  0.00    -0.354 N 
ATOM     56  N   UNL A   1      43.068  27.996  32.407  1.00  0.00    -0.248 NA
ATOM     57  C   UNL A   1      42.419  28.376  34.577  1.00  0.00     0.031 C 
ATOM     58  C   UNL A   1      45.250  26.639  30.285  1.00  0.00     0.029 A 
ATOM     59  C   UNL A   1      44.384  25.963  31.123  1.00  0.00     0.049 A 
ATOM     60  H   UNL A   1      42.796  24.682  30.633  1.00  0.00     0.167 HD
ATOM     61  C   UNL A   1      43.534  26.938  33.140  1.00  0.00     0.074 A 
ATOM     62  C   UNL A   1      43.097  27.218  34.495  1.00  0.00     0.031 C 
ATOM     63  C   UNL A   1      44.197  25.894  32.563  1.00  0.00     0.031 A 
BRANCH  50  64
ATOM     64  C   UNL A   1      43.439  23.969  26.813  1.00  0.00    -0.014 A 
ATOM     65  C   UNL A   1      44.095  24.550  25.714  1.00  0.00     0.009 A 
ATOM     66  C   UNL A   1      43.232  22.580  26.750  1.00  0.00     0.009 A 
ATOM     67  C   UNL A   1      44.431  23.809  24.575  1.00  0.00     0.001 A 
ATOM     68  C   UNL A   1      43.526  21.840  25.597  1.00  0.00     0.001 A 
ATOM     69  C   UNL A   1      44.118  22.459  24.504  1.00  0.00     0.000 A 
ENDBRANCH  50  64
BRANCH  51  70
ATOM     70  C   UNL A   1      40.291  30.413  33.232  1.00  0.00    -0.014 A 
ATOM     71  C   UNL A   1      39.991  31.786  33.330  1.00  0.00     0.009 A 
ATOM     72  C   UNL A   1      39.231  29.492  33.255  1.00  0.00     0.009 A 
ATOM     73  C   UNL A   1      38.664  32.228  33.346  1.00  0.00     0.001 A 
ATOM     74  C   UNL A   1      37.904  29.941  33.270  1.00  0.00     0.001 A 
ATOM     75  C   UNL A   1      37.622  31.306  33.282  1.00  0.00     0.000 A 
ENDBRANCH  51  70
BRANCH  63  76
ATOM     76  C   UNL A   1      44.703  24.676  33.292  1.00  0.00    -0.014 A 
ATOM     77  C   UNL A   1      43.892  23.593  33.648  1.00  0.00     0.009 A 
ATOM     78  C   UNL A   1      46.040  24.643  33.750  1.00  0.00     0.009 A 
ATOM     79  C   UNL A   1      44.412  22.500  34.356  1.00  0.00     0.001 A 
ATOM     80  C   UNL A   1      46.557  23.568  34.475  1.00  0.00     0.001 A 
ATOM     81  C   UNL A   1      45.743  22.486  34.765  1.00  0.00     0.000 A 
ENDBRANCH  63  76
ENDBRANCH  37  38
ENDBRANCH  29  32
ENDBRANCH  27  28
ENDBRANCH  26  27
ENDBRANCH   1  26
TORSDOF 15
ENDMDL
MODEL 2
REMARK VINA RESULT:     -11.7      3.220      8.504
REMARK SMILES Cc1ccc(S(=O)(=O)N(c2ccccc2)[C@H](C)C(=O)NCCCCNC(=O)c2ccc(-c3c4nc(c(-c5ccccc5)c5ccc([nH]5)c(-c5ccccc5)c5nc(c(-c6ccccc6)c6ccc3[nH]6)C=C5)C=C4)cc2)cc1
REMARK SMILES IDX 22 1 21 2 20 3 18 4 19 5 16 7 17 8 9 9 6 10 7 11 8 12 5 13
REMARK SMILES IDX 1 14 2 15 3 16 77 17 4 18 76 19 10 20 11 21 15 22 12 23
REMARK SMILES IDX 14 24 13 25 23 26 24 27 25 28 26 29 27 31 28 32 29 33 75 34
REMARK SMILES IDX 30 35 74 36 31 37 32 38 33 39 68 40 34 41 73 42 67 43 69 44
REMARK SMILES IDX 35 45 72 46 66 47 65 48 36 50 58 51 43 52 57 53 44 54 47 55
REMARK SMILES IDX 56 56 70 57 45 58 46 59 55 61 71 62 48 63 37 64 38 65 42 66
REMARK SMILES IDX 39 67 41 68 40 69 59 70 60 71 64 72 61 73 63 74 62 75 49 76
REMARK SMILES IDX 50 77 54 78 51 79 53 80 52 81
REMARK H PARENT 20 6 25 30 69 49 47 60
REMARK Flexibility Score: inf
ROOT
ATOM      1  C   UNL A   1      36.402  23.945  25.339  1.00  0.00     0.023 C 
ENDROOT
BRANCH   1   2
ATOM      2  C   UNL A   1      35.308  23.892  24.273  1.00  0.00     0.116 C 
BRANCH   2   3
ATOM      3  N   UNL A   1      34.420  22.747  24.345  1.00  0.00    -0.354 N 
ATOM      4  C   UNL A   1      33.074  22.685  24.597  1.00  0.00     0.243 C 
ATOM      5  O   UNL A   1      32.515  21.645  24.222  1.00  0.00    -0.273 OA
ATOM      6  H   UNL A   1      34.852  21.877  24.189  1.00  0.00     0.163 HD
BRANCH   4   7
ATOM      7  C   UNL A   1      32.269  23.771  25.334  1.00  0.00     0.185 C 
ATOM      8  C   UNL A   1      32.509  23.761  26.846  1.00  0.00     0.043 C 
BRANCH   7   9
ATOM      9  N   UNL A   1      32.265  25.142  24.705  1.00  0.00    -0.254 N 
BRANCH   9  10
ATOM     10  S   UNL A   1      31.408  25.241  23.227  1.00  0.00     0.265 S 
ATOM     11  O   UNL A   1      30.306  24.301  23.335  1.00  0.00    -0.201 OA
ATOM     12  O   UNL A   1      32.376  25.094  22.158  1.00  0.00    -0.201 OA
BRANCH  10  13
ATOM     13  C   UNL A   1      30.644  26.840  23.004  1.00  0.00     0.088 A 
ATOM     14  C   UNL A   1      28.741  30.705  23.156  1.00  0.00     0.044 C 
ATOM     15  C   UNL A   1      29.386  29.354  23.068  1.00  0.00    -0.051 A 
ATOM     16  C   UNL A   1      28.673  28.202  23.411  1.00  0.00     0.005 A 
ATOM     17  C   UNL A   1      30.700  29.222  22.600  1.00  0.00     0.005 A 
ATOM     18  C   UNL A   1      29.303  26.957  23.399  1.00  0.00     0.022 A 
ATOM     19  C   UNL A   1      31.315  27.966  22.533  1.00  0.00     0.022 A 
ENDBRANCH  10  13
ENDBRANCH   9  10
BRANCH   9  20
ATOM     20  C   UNL A   1      32.351  26.281  25.550  1.00  0.00     0.053 A 
ATOM     21  C   UNL A   1      33.584  26.939  25.577  1.00  0.00     0.027 A 
ATOM     22  C   UNL A   1      31.304  26.714  26.361  1.00  0.00     0.027 A 
ATOM     23  C   UNL A   1      33.777  28.026  26.422  1.00  0.00     0.002 A 
ATOM     24  C   UNL A   1      31.502  27.808  27.207  1.00  0.00     0.002 A 
ATOM     25  C   UNL A   1      32.737  28.458  27.241  1.00  0.00     0.000 A 
ENDBRANCH   9  20
ENDBRANCH   7   9
ENDBRANCH   4   7
ENDBRANCH   2   3
ENDBRANCH   1   2
BRANCH   1  26
ATOM     26  C   UNL A   1      37.726  23.273  24.966  1.00  0.00     0.023 C 
BRANCH  26  27
ATOM     27  C   UNL A   1      38.181  22.150  25.893  1.00  0.00     0.116 C 
BRANCH  27  28
ATOM     28  N   UNL A   1      39.603  22.091  26.182  1.00  0.00    -0.352 N 
ATOM     29  C   UNL A   1      40.493  23.103  26.514  1.00  0.00     0.251 C 
ATOM     30  H   UNL A   1      39.999  21.190  26.135  1.00  0.00     0.163 HD
ATOM     31  O   UNL A   1      41.683  22.831  26.595  1.00  0.00    -0.269 OA
BRANCH  29  32
ATOM     32  C   UNL A   1      40.033  24.473  26.904  1.00  0.00     0.039 A 
ATOM     33  C   UNL A   1      40.485  25.565  26.142  1.00  0.00     0.014 A 
ATOM     34  C   UNL A   1      39.318  24.726  28.068  1.00  0.00     0.014 A 
ATOM     35  C   UNL A   1      40.429  26.860  26.663  1.00  0.00     0.010 A 
ATOM     36  C   UNL A   1      39.368  25.977  28.642  1.00  0.00     0.010 A 
ATOM     37  C   UNL A   1      39.978  27.032  27.967  1.00  0.00    -0.014 A 
BRANCH  37  38
ATOM     38  C   UNL A   1      40.203  28.215  28.780  1.00  0.00     0.031 A 
ATOM     39  C   UNL A   1      39.146  29.222  28.968  1.00  0.00     0.074 A 
ATOM     40  C   UNL A   1      41.318  28.261  29.542  1.00  0.00     0.049 A 
ATOM     41  N   UNL A   1      39.370  30.421  29.382  1.00  0.00    -0.248 NA
ATOM     42  C   UNL A   1      37.740  28.963  28.669  1.00  0.00     0.031 C 
ATOM     43  C   UNL A   1      41.571  29.096  30.712  1.00  0.00     0.029 A 
ATOM     44  N   UNL A   1      42.554  27.673  29.278  1.00  0.00    -0.354 N 
ATOM     45  C   UNL A   1      38.153  30.968  29.708  1.00  0.00     0.074 A 
ATOM     46  C   UNL A   1      37.167  30.064  29.162  1.00  0.00     0.031 C 
ATOM     47  C   UNL A   1      42.899  29.196  30.886  1.00  0.00     0.029 A 
ATOM     48  C   UNL A   1      43.528  28.570  29.735  1.00  0.00     0.049 A 
ATOM     49  H   UNL A   1      42.711  26.798  28.854  1.00  0.00     0.167 HD
ATOM     50  C   UNL A   1      38.098  32.047  30.537  1.00  0.00     0.031 A 
ATOM     51  C   UNL A   1      44.428  29.164  28.897  1.00  0.00     0.031 A 
ATOM     52  C   UNL A   1      39.424  32.498  30.952  1.00  0.00     0.049 A 
ATOM     53  C   UNL A   1      44.332  30.678  28.887  1.00  0.00     0.074 A 
ATOM     54  C   UNL A   1      40.159  32.392  32.122  1.00  0.00     0.029 A 
ATOM     55  N   UNL A   1      40.317  32.922  29.982  1.00  0.00    -0.354 N 
ATOM     56  N   UNL A   1      43.417  31.363  29.516  1.00  0.00    -0.248 NA
ATOM     57  C   UNL A   1      45.192  31.532  28.068  1.00  0.00     0.031 C 
ATOM     58  C   UNL A   1      41.499  32.780  31.844  1.00  0.00     0.029 A 
ATOM     59  C   UNL A   1      41.574  33.132  30.511  1.00  0.00     0.049 A 
ATOM     60  H   UNL A   1      40.085  33.057  29.035  1.00  0.00     0.167 HD
ATOM     61  C   UNL A   1      43.514  32.686  29.177  1.00  0.00     0.074 A 
ATOM     62  C   UNL A   1      44.639  32.742  28.261  1.00  0.00     0.031 C 
ATOM     63  C   UNL A   1      42.630  33.618  29.637  1.00  0.00     0.031 A 
BRANCH  50  64
ATOM     64  C   UNL A   1      36.816  32.525  31.166  1.00  0.00    -0.014 A 
ATOM     65  C   UNL A   1      36.016  33.465  30.493  1.00  0.00     0.009 A 
ATOM     66  C   UNL A   1      36.355  32.105  32.426  1.00  0.00     0.009 A 
ATOM     67  C   UNL A   1      34.880  34.030  31.086  1.00  0.00     0.001 A 
ATOM     68  C   UNL A   1      35.245  32.697  33.043  1.00  0.00     0.001 A 
ATOM     69  C   UNL A   1      34.513  33.669  32.375  1.00  0.00     0.000 A 
ENDBRANCH  50  64
BRANCH  51  70
ATOM     70  C   UNL A   1      44.761  28.343  27.697  1.00  0.00    -0.014 A 
ATOM     71  C   UNL A   1      45.567  27.201  27.868  1.00  0.00     0.009 A 
ATOM     72  C   UNL A   1      43.985  28.448  26.531  1.00  0.00     0.009 A 
ATOM     73  C   UNL A   1      45.519  26.148  26.949  1.00  0.00     0.001 A 
ATOM     74  C   UNL A   1      43.940  27.389  25.614  1.00  0.00     0.001 A 
ATOM     75  C   UNL A   1      44.680  26.230  25.841  1.00  0.00     0.000 A 
ENDBRANCH  51  70
BRANCH  63  76
ATOM     76  C   UNL A   1      42.644  35.082  29.277  1.00  0.00    -0.014 A 
ATOM     77  C   UNL A   1      41.900  35.629  28.226  1.00  0.00     0.009 A 
ATOM     78  C   UNL A   1      43.528  35.956  29.951  1.00  0.00     0.009 A 
ATOM     79  C   UNL A   1      41.979  36.995  27.917  1.00  0.00     0.001 A 
ATOM     80  C   UNL A   1      43.626  37.311  29.632  1.00  0.00     0.001 A 
ATOM     81  C   UNL A   1      42.838  37.835  28.622  1.00  0.00     0.000 A 
ENDBRANCH  63  76
ENDBRANCH  37  38
ENDBRANCH  29  32
ENDBRANCH  27  28
ENDBRANCH  26  27
ENDBRANCH   1  26
TORSDOF 15
ENDMDL
MODEL 3
REMARK VINA RESULT:     -11.5      3.141      8.586
REMARK SMILES Cc1ccc(S(=O)(=O)N(c2ccccc2)[C@H](C)C(=O)NCCCCNC(=O)c2ccc(-c3c4nc(c(-c5ccccc5)c5ccc([nH]5)c(-c5ccccc5)c5nc(c(-c6ccccc6)c6ccc3[nH]6)C=C5)C=C4)cc2)cc1
REMARK SMILES IDX 22 1 21 2 20 3 18 4 19 5 16 7 17 8 9 9 6 10 7 11 8 12 5 13
REMARK SMILES IDX 1 14 2 15 3 16 77 17 4 18 76 19 10 20 11 21 15 22 12 23
REMARK SMILES IDX 14 24 13 25 23 26 24 27 25 28 26 29 27 31 28 32 29 33 75 34
REMARK SMILES IDX 30 35 74 36 31 37 32 38 33 39 68 40 34 41 73 42 67 43 69 44
REMARK SMILES IDX 35 45 72 46 66 47 65 48 36 50 58 51 43 52 57 53 44 54 47 55
REMARK SMILES IDX 56 56 70 57 45 58 46 59 55 61 71 62 48 63 37 64 38 65 42 66
REMARK SMILES IDX 39 67 41 68 40 69 59 70 60 71 64 72 61 73 63 74 62 75 49 76
REMARK SMILES IDX 50 77 54 78 51 79 53 80 52 81
REMARK H PARENT 20 6 25 30 69 49 47 60
REMARK Flexibility Score: inf
ROOT
ATOM      1  C   UNL A   1      36.007  23.603  24.884  1.00  0.00     0.023 C 
ENDROOT
BRANCH   1   2
ATOM      2  C   UNL A   1      35.124  23.378  23.656  1.00  0.00     0.116 C 
BRANCH   2   3
ATOM      3  N   UNL A   1      33.742  23.037  23.934  1.00  0.00    -0.354 N 
ATOM      4  C   UNL A   1      32.589  23.725  23.660  1.00  0.00     0.243 C 
ATOM      5  O   UNL A   1      31.555  23.042  23.655  1.00  0.00    -0.273 OA
ATOM      6  H   UNL A   1      33.611  22.176  24.392  1.00  0.00     0.163 HD
BRANCH   4   7
ATOM      7  C   UNL A   1      32.509  25.244  23.418  1.00  0.00     0.185 C 
ATOM      8  C   UNL A   1      32.396  25.600  21.933  1.00  0.00     0.043 C 
BRANCH   7   9
ATOM      9  N   UNL A   1      31.582  26.016  24.325  1.00  0.00    -0.254 N 
BRANCH   9  10
ATOM     10  S   UNL A   1      32.104  26.118  25.951  1.00  0.00     0.265 S 
ATOM     11  O   UNL A   1      33.226  25.204  26.073  1.00  0.00    -0.201 OA
ATOM     12  O   UNL A   1      30.936  25.940  26.790  1.00  0.00    -0.201 OA
BRANCH  10  13
ATOM     13  C   UNL A   1      32.768  27.731  26.338  1.00  0.00     0.088 A 
ATOM     14  C   UNL A   1      34.134  31.503  27.914  1.00  0.00     0.044 C 
ATOM     15  C   UNL A   1      33.654  30.208  27.330  1.00  0.00    -0.051 A 
ATOM     16  C   UNL A   1      32.286  29.949  27.207  1.00  0.00     0.005 A 
ATOM     17  C   UNL A   1      34.568  29.256  26.861  1.00  0.00     0.005 A 
ATOM     18  C   UNL A   1      31.846  28.712  26.734  1.00  0.00     0.022 A 
ATOM     19  C   UNL A   1      34.126  28.037  26.333  1.00  0.00     0.022 A 
ENDBRANCH  10  13
ENDBRANCH   9  10
BRANCH   9  20
ATOM     20  C   UNL A   1      30.795  27.059  23.767  1.00  0.00     0.053 A 
ATOM     21  C   UNL A   1      29.411  26.865  23.778  1.00  0.00     0.027 A 
ATOM     22  C   UNL A   1      31.341  28.201  23.184  1.00  0.00     0.027 A 
ATOM     23  C   UNL A   1      28.568  27.806  23.199  1.00  0.00     0.002 A 
ATOM     24  C   UNL A   1      30.490  29.147  22.605  1.00  0.00     0.002 A 
ATOM     25  C   UNL A   1      29.108  28.946  22.608  1.00  0.00     0.000 A 
ENDBRANCH   9  20
ENDBRANCH   7   9
ENDBRANCH   4   7
ENDBRANCH   2   3
ENDBRANCH   1   2
BRANCH   1  26
ATOM     26  C   UNL A   1      37.449  23.104  24.766  1.00  0.00     0.023 C 
BRANCH  26  27
ATOM     27  C   UNL A   1      37.923  22.184  25.886  1.00  0.00     0.116 C 
BRANCH  27  28
ATOM     28  N   UNL A   1      39.360  22.094  26.080  1.00  0.00    -0.352 N 
ATOM     29  C   UNL A   1      40.287  23.082  26.385  1.00  0.00     0.251 C 
ATOM     30  H   UNL A   1      39.736  21.190  25.980  1.00  0.00     0.163 HD
ATOM     31  O   UNL A   1      41.475  22.790  26.380  1.00  0.00    -0.269 OA
BRANCH  29  32
ATOM     32  C   UNL A   1      39.875  24.445  26.846  1.00  0.00     0.039 A 
ATOM     33  C   UNL A   1      40.302  25.555  26.094  1.00  0.00     0.014 A 
ATOM     34  C   UNL A   1      39.235  24.672  28.058  1.00  0.00     0.014 A 
ATOM     35  C   UNL A   1      40.302  26.833  26.660  1.00  0.00     0.010 A 
ATOM     36  C   UNL A   1      39.342  25.901  28.668  1.00  0.00     0.010 A 
ATOM     37  C   UNL A   1      39.931  26.968  27.993  1.00  0.00    -0.014 A 
BRANCH  37  38
ATOM     38  C   UNL A   1      40.226  28.119  28.829  1.00  0.00     0.031 A 
ATOM     39  C   UNL A   1      39.212  29.156  29.081  1.00  0.00     0.074 A 
ATOM     40  C   UNL A   1      41.367  28.105  29.553  1.00  0.00     0.049 A 
ATOM     41  N   UNL A   1      39.492  30.335  29.519  1.00  0.00    -0.248 NA
ATOM     42  C   UNL A   1      37.789  28.955  28.824  1.00  0.00     0.031 C 
ATOM     43  C   UNL A   1      41.688  28.897  30.736  1.00  0.00     0.029 A 
ATOM     44  N   UNL A   1      42.571  27.482  29.231  1.00  0.00    -0.354 N 
ATOM     45  C   UNL A   1      38.308  30.914  29.902  1.00  0.00     0.074 A 
ATOM     46  C   UNL A   1      37.272  30.062  29.366  1.00  0.00     0.031 C 
ATOM     47  C   UNL A   1      43.024  28.945  30.867  1.00  0.00     0.029 A 
ATOM     48  C   UNL A   1      43.591  28.331  29.678  1.00  0.00     0.049 A 
ATOM     49  H   UNL A   1      42.682  26.614  28.778  1.00  0.00     0.167 HD
ATOM     50  C   UNL A   1      38.320  31.971  30.761  1.00  0.00     0.031 A 
ATOM     51  C   UNL A   1      44.483  28.916  28.826  1.00  0.00     0.031 A 
ATOM     52  C   UNL A   1      39.674  32.364  31.142  1.00  0.00     0.049 A 
ATOM     53  C   UNL A   1      44.442  30.433  28.860  1.00  0.00     0.074 A 
ATOM     54  C   UNL A   1      40.443  32.199  32.283  1.00  0.00     0.029 A 
ATOM     55  N   UNL A   1      40.548  32.784  30.153  1.00  0.00    -0.354 N 
ATOM     56  N   UNL A   1      43.573  31.131  29.538  1.00  0.00    -0.248 NA
ATOM     57  C   UNL A   1      45.303  31.279  28.035  1.00  0.00     0.031 C 
ATOM     58  C   UNL A   1      41.787  32.548  31.969  1.00  0.00     0.029 A 
ATOM     59  C   UNL A   1      41.829  32.935  30.644  1.00  0.00     0.049 A 
ATOM     60  H   UNL A   1      40.289  32.954  29.219  1.00  0.00     0.167 HD
ATOM     61  C   UNL A   1      43.706  32.459  29.232  1.00  0.00     0.074 A 
ATOM     62  C   UNL A   1      44.800  32.502  28.279  1.00  0.00     0.031 C 
ATOM     63  C   UNL A   1      42.871  33.408  29.748  1.00  0.00     0.031 A 
BRANCH  50  64
ATOM     64  C   UNL A   1      37.077  32.475  31.447  1.00  0.00    -0.014 A 
ATOM     65  C   UNL A   1      36.962  32.376  32.844  1.00  0.00     0.009 A 
ATOM     66  C   UNL A   1      35.979  33.035  30.771  1.00  0.00     0.009 A 
ATOM     67  C   UNL A   1      35.782  32.717  33.516  1.00  0.00     0.001 A 
ATOM     68  C   UNL A   1      34.780  33.338  31.431  1.00  0.00     0.001 A 
ATOM     69  C   UNL A   1      34.679  33.169  32.805  1.00  0.00     0.000 A 
ENDBRANCH  50  64
BRANCH  51  70
ATOM     70  C   UNL A   1      44.746  28.119  27.594  1.00  0.00    -0.014 A 
ATOM     71  C   UNL A   1      45.512  26.942  27.706  1.00  0.00     0.009 A 
ATOM     72  C   UNL A   1      43.939  28.288  26.457  1.00  0.00     0.009 A 
ATOM     73  C   UNL A   1      45.393  25.919  26.761  1.00  0.00     0.001 A 
ATOM     74  C   UNL A   1      43.824  27.258  25.512  1.00  0.00     0.001 A 
ATOM     75  C   UNL A   1      44.524  26.065  25.682  1.00  0.00     0.000 A 
ENDBRANCH  51  70
BRANCH  63  76
ATOM     76  C   UNL A   1      42.926  34.880  29.427  1.00  0.00    -0.014 A 
ATOM     77  C   UNL A   1      42.464  35.430  28.226  1.00  0.00     0.009 A 
ATOM     78  C   UNL A   1      43.570  35.765  30.323  1.00  0.00     0.009 A 
ATOM     79  C   UNL A   1      42.571  36.804  27.970  1.00  0.00     0.001 A 
ATOM     80  C   UNL A   1      43.699  37.130  30.062  1.00  0.00     0.001 A 
ATOM     81  C   UNL A   1      43.184  37.653  28.888  1.00  0.00     0.000 A 
ENDBRANCH  63  76
ENDBRANCH  37  38
ENDBRANCH  29  32
ENDBRANCH  27  28
ENDBRANCH  26  27
ENDBRANCH   1  26
TORSDOF 15
ENDMDL
