MODEL 1
REMARK VINA RESULT:     -11.7      0.000      0.000
REMARK SMILES CC(C)CCc1cc2c(cc1Cl)C=C(C(=O)NCCCCNC(=O)c1ccc(-c3c4nc(c(-c5ccccc5)c5ccc([nH]5)c(-c5ccccc5)c5nc(c(-c6ccccc6)c6ccc3[nH]6)C=C5)C=C4)cc1)[C@@H](C(F)(F)F)O2
REMARK SMILES IDX 19 1 18 2 17 3 15 4 16 5 14 7 6 8 7 9 11 10 8 11 10 12 12 13
REMARK SMILES IDX 9 14 78 15 13 16 73 17 5 18 4 19 2 20 1 21 3 22 74 23 75 24
REMARK SMILES IDX 76 25 77 26 20 27 21 28 22 29 23 30 24 32 25 33 26 34 72 35
REMARK SMILES IDX 27 36 71 37 28 38 29 39 30 40 65 41 31 42 70 43 64 44 66 45
REMARK SMILES IDX 32 46 69 47 63 48 62 49 33 51 55 52 40 53 54 54 41 55 44 56
REMARK SMILES IDX 53 57 67 58 42 59 43 60 52 62 68 63 45 64 34 65 35 66 39 67
REMARK SMILES IDX 36 68 38 69 37 70 56 71 57 72 61 73 58 74 60 75 59 76 46 77
REMARK SMILES IDX 47 78 51 79 48 80 50 81 49 82
REMARK H PARENT 17 6 22 31 66 50 44 61
REMARK Flexibility Score: inf
ROOT
ATOM      1  C   UNL A   1      37.171  22.493  23.863  1.00  0.00     0.023 C 
ENDROOT
BRANCH   1   2
ATOM      2  C   UNL A   1      35.824  23.206  23.945  1.00  0.00     0.116 C 
BRANCH   2   3
ATOM      3  N   UNL A   1      35.236  23.122  25.271  1.00  0.00    -0.352 N 
ATOM      4  C   UNL A   1      34.227  23.727  25.942  1.00  0.00     0.251 C 
ATOM      5  O   UNL A   1      34.054  23.332  27.099  1.00  0.00    -0.270 OA
ATOM      6  H   UNL A   1      35.690  22.449  25.828  1.00  0.00     0.163 HD
BRANCH   4   7
ATOM      7  C   UNL A   1      33.351  24.804  25.392  1.00  0.00     0.067 C 
ATOM      8  C   UNL A   1      31.029  29.206  24.476  1.00  0.00    -0.026 A 
ATOM      9  C   UNL A   1      31.201  28.006  23.767  1.00  0.00     0.052 A 
ATOM     10  C   UNL A   1      31.691  29.341  25.710  1.00  0.00     0.045 A 
ATOM     11  C   UNL A   1      31.953  26.962  24.297  1.00  0.00     0.128 A 
ATOM     12  C   UNL A   1      32.471  28.293  26.226  1.00  0.00     0.032 A 
ATOM     13  Cl  UNL A   1      31.605  30.786  26.652  1.00  0.00    -0.084 Cl
ATOM     14  C   UNL A   1      32.599  27.095  25.522  1.00  0.00     0.019 A 
ATOM     15  O   UNL A   1      32.050  25.834  23.534  1.00  0.00    -0.475 OA
ATOM     16  C   UNL A   1      33.430  26.000  26.009  1.00  0.00     0.025 C 
ATOM     17  C   UNL A   1      32.396  24.617  24.248  1.00  0.00     0.314 C 
BRANCH   8  18
ATOM     18  C   UNL A   1      30.166  30.291  23.864  1.00  0.00     0.037 C 
BRANCH  18  19
ATOM     19  C   UNL A   1      29.394  29.860  22.603  1.00  0.00     0.008 C 
BRANCH  19  20
ATOM     20  C   UNL A   1      27.865  30.037  22.679  1.00  0.00    -0.017 C 
ATOM     21  C   UNL A   1      27.166  28.777  23.192  1.00  0.00     0.007 C 
ATOM     22  C   UNL A   1      27.523  31.224  23.583  1.00  0.00     0.007 C 
ENDBRANCH  19  20
ENDBRANCH  18  19
ENDBRANCH   8  18
BRANCH  17  23
ATOM     23  C   UNL A   1      31.108  23.881  24.672  1.00  0.00     0.429 C 
ATOM     24  F   UNL A   1      30.711  24.295  25.902  1.00  0.00    -0.167 F 
ATOM     25  F   UNL A   1      30.073  24.128  23.833  1.00  0.00    -0.167 F 
ATOM     26  F   UNL A   1      31.262  22.541  24.724  1.00  0.00    -0.167 F 
ENDBRANCH  17  23
ENDBRANCH   4   7
ENDBRANCH   2   3
ENDBRANCH   1   2
BRANCH   1  27
ATOM     27  C   UNL A   1      37.298  21.274  24.780  1.00  0.00     0.023 C 
BRANCH  27  28
ATOM     28  C   UNL A   1      38.543  21.244  25.662  1.00  0.00     0.116 C 
BRANCH  28  29
ATOM     29  N   UNL A   1      39.349  20.038  25.535  1.00  0.00    -0.352 N 
ATOM     30  C   UNL A   1      40.668  19.865  25.900  1.00  0.00     0.251 C 
ATOM     31  H   UNL A   1      38.900  19.254  25.142  1.00  0.00     0.163 HD
ATOM     32  O   UNL A   1      41.257  18.817  25.669  1.00  0.00    -0.269 OA
BRANCH  30  33
ATOM     33  C   UNL A   1      41.375  21.003  26.523  1.00  0.00     0.039 A 
ATOM     34  C   UNL A   1      41.380  21.145  27.911  1.00  0.00     0.014 A 
ATOM     35  C   UNL A   1      41.937  21.987  25.706  1.00  0.00     0.014 A 
ATOM     36  C   UNL A   1      41.762  22.357  28.468  1.00  0.00     0.010 A 
ATOM     37  C   UNL A   1      42.406  23.173  26.279  1.00  0.00     0.010 A 
ATOM     38  C   UNL A   1      42.261  23.393  27.657  1.00  0.00    -0.014 A 
BRANCH  38  39
ATOM     39  C   UNL A   1      42.590  24.697  28.286  1.00  0.00     0.031 A 
ATOM     40  C   UNL A   1      44.020  25.084  28.565  1.00  0.00     0.074 A 
ATOM     41  C   UNL A   1      41.599  25.581  28.511  1.00  0.00     0.049 A 
ATOM     42  N   UNL A   1      44.490  26.226  29.004  1.00  0.00    -0.248 NA
ATOM     43  C   UNL A   1      45.056  24.067  28.322  1.00  0.00     0.031 C 
ATOM     44  C   UNL A   1      40.178  25.327  28.267  1.00  0.00     0.029 A 
ATOM     45  N   UNL A   1      41.637  26.883  28.944  1.00  0.00    -0.354 N 
ATOM     46  C   UNL A   1      45.864  26.057  29.110  1.00  0.00     0.074 A 
ATOM     47  C   UNL A   1      46.156  24.698  28.712  1.00  0.00     0.031 C 
ATOM     48  C   UNL A   1      39.491  26.460  28.472  1.00  0.00     0.029 A 
ATOM     49  C   UNL A   1      40.411  27.500  28.920  1.00  0.00     0.049 A 
ATOM     50  H   UNL A   1      42.462  27.329  29.241  1.00  0.00     0.167 HD
ATOM     51  C   UNL A   1      46.801  26.957  29.494  1.00  0.00     0.031 A 
ATOM     52  C   UNL A   1      40.059  28.765  29.217  1.00  0.00     0.031 A 
ATOM     53  C   UNL A   1      46.516  28.315  29.875  1.00  0.00     0.049 A 
ATOM     54  C   UNL A   1      41.114  29.739  29.651  1.00  0.00     0.074 A 
ATOM     55  C   UNL A   1      47.403  29.300  30.272  1.00  0.00     0.029 A 
ATOM     56  N   UNL A   1      45.250  28.880  29.900  1.00  0.00    -0.354 N 
ATOM     57  N   UNL A   1      42.410  29.560  29.745  1.00  0.00    -0.248 NA
ATOM     58  C   UNL A   1      40.661  31.087  30.020  1.00  0.00     0.031 C 
ATOM     59  C   UNL A   1      46.670  30.449  30.581  1.00  0.00     0.029 A 
ATOM     60  C   UNL A   1      45.333  30.197  30.321  1.00  0.00     0.049 A 
ATOM     61  H   UNL A   1      44.418  28.416  29.654  1.00  0.00     0.167 HD
ATOM     62  C   UNL A   1      42.928  30.772  30.177  1.00  0.00     0.074 A 
ATOM     63  C   UNL A   1      41.811  31.686  30.303  1.00  0.00     0.031 C 
ATOM     64  C   UNL A   1      44.215  31.094  30.450  1.00  0.00     0.031 A 
BRANCH  51  65
ATOM     65  C   UNL A   1      48.236  26.507  29.539  1.00  0.00    -0.014 A 
ATOM     66  C   UNL A   1      48.749  25.936  30.714  1.00  0.00     0.009 A 
ATOM     67  C   UNL A   1      49.100  26.724  28.455  1.00  0.00     0.009 A 
ATOM     68  C   UNL A   1      50.101  25.602  30.809  1.00  0.00     0.001 A 
ATOM     69  C   UNL A   1      50.448  26.365  28.544  1.00  0.00     0.001 A 
ATOM     70  C   UNL A   1      50.949  25.812  29.722  1.00  0.00     0.000 A 
ENDBRANCH  51  65
BRANCH  52  71
ATOM     71  C   UNL A   1      38.638  29.173  29.084  1.00  0.00    -0.014 A 
ATOM     72  C   UNL A   1      38.150  29.671  27.865  1.00  0.00     0.009 A 
ATOM     73  C   UNL A   1      37.777  29.126  30.190  1.00  0.00     0.009 A 
ATOM     74  C   UNL A   1      36.839  30.139  27.764  1.00  0.00     0.001 A 
ATOM     75  C   UNL A   1      36.457  29.567  30.079  1.00  0.00     0.001 A 
ATOM     76  C   UNL A   1      35.993  30.083  28.869  1.00  0.00     0.000 A 
ENDBRANCH  52  71
BRANCH  64  77
ATOM     77  C   UNL A   1      44.499  32.496  30.908  1.00  0.00    -0.014 A 
ATOM     78  C   UNL A   1      44.812  33.488  29.965  1.00  0.00     0.009 A 
ATOM     79  C   UNL A   1      44.543  32.814  32.273  1.00  0.00     0.009 A 
ATOM     80  C   UNL A   1      45.169  34.771  30.379  1.00  0.00     0.001 A 
ATOM     81  C   UNL A   1      44.876  34.106  32.685  1.00  0.00     0.001 A 
ATOM     82  C   UNL A   1      45.196  35.081  31.739  1.00  0.00     0.000 A 
ENDBRANCH  64  77
ENDBRANCH  38  39
ENDBRANCH  30  33
ENDBRANCH  28  29
ENDBRANCH  27  28
ENDBRANCH   1  27
TORSDOF 15
ENDMDL
MODEL 2
REMARK VINA RESULT:     -11.6      3.586      7.490
REMARK SMILES CC(C)CCc1cc2c(cc1Cl)C=C(C(=O)NCCCCNC(=O)c1ccc(-c3c4nc(c(-c5ccccc5)c5ccc([nH]5)c(-c5ccccc5)c5nc(c(-c6ccccc6)c6ccc3[nH]6)C=C5)C=C4)cc1)[C@@H](C(F)(F)F)O2
REMARK SMILES IDX 19 1 18 2 17 3 15 4 16 5 14 7 6 8 7 9 11 10 8 11 10 12 12 13
REMARK SMILES IDX 9 14 78 15 13 16 73 17 5 18 4 19 2 20 1 21 3 22 74 23 75 24
REMARK SMILES IDX 76 25 77 26 20 27 21 28 22 29 23 30 24 32 25 33 26 34 72 35
REMARK SMILES IDX 27 36 71 37 28 38 29 39 30 40 65 41 31 42 70 43 64 44 66 45
REMARK SMILES IDX 32 46 69 47 63 48 62 49 33 51 55 52 40 53 54 54 41 55 44 56
REMARK SMILES IDX 53 57 67 58 42 59 43 60 52 62 68 63 45 64 34 65 35 66 39 67
REMARK SMILES IDX 36 68 38 69 37 70 56 71 57 72 61 73 58 74 60 75 59 76 46 77
REMARK SMILES IDX 47 78 51 79 48 80 50 81 49 82
REMARK H PARENT 17 6 22 31 66 50 44 61
REMARK Flexibility Score: inf
ROOT
ATOM      1  C   UNL A   1      37.018  21.426  24.285  1.00  0.00     0.023 C 
ENDROOT
BRANCH   1   2
ATOM      2  C   UNL A   1      36.318  20.579  25.345  1.00  0.00     0.116 C 
BRANCH   2   3
ATOM      3  N   UNL A   1      35.093  19.977  24.848  1.00  0.00    -0.352 N 
ATOM      4  C   UNL A   1      33.818  20.378  24.623  1.00  0.00     0.251 C 
ATOM      5  O   UNL A   1      33.067  19.510  24.168  1.00  0.00    -0.270 OA
ATOM      6  H   UNL A   1      35.221  19.029  24.615  1.00  0.00     0.163 HD
BRANCH   4   7
ATOM      7  C   UNL A   1      33.288  21.748  24.887  1.00  0.00     0.067 C 
ATOM      8  C   UNL A   1      32.039  26.641  24.550  1.00  0.00    -0.026 A 
ATOM      9  C   UNL A   1      31.602  25.554  25.325  1.00  0.00     0.052 A 
ATOM     10  C   UNL A   1      32.991  26.390  23.546  1.00  0.00     0.045 A 
ATOM     11  C   UNL A   1      32.138  24.282  25.143  1.00  0.00     0.128 A 
ATOM     12  C   UNL A   1      33.508  25.100  23.350  1.00  0.00     0.032 A 
ATOM     13  Cl  UNL A   1      33.569  27.630  22.489  1.00  0.00    -0.084 Cl
ATOM     14  C   UNL A   1      33.087  24.041  24.155  1.00  0.00     0.019 A 
ATOM     15  O   UNL A   1      31.654  23.297  25.954  1.00  0.00    -0.475 OA
ATOM     16  C   UNL A   1      33.574  22.680  23.956  1.00  0.00     0.025 C 
ATOM     17  C   UNL A   1      32.509  22.133  26.113  1.00  0.00     0.314 C 
BRANCH   8  18
ATOM     18  C   UNL A   1      31.446  28.009  24.822  1.00  0.00     0.037 C 
BRANCH  18  19
ATOM     19  C   UNL A   1      31.810  28.603  26.195  1.00  0.00     0.008 C 
BRANCH  19  20
ATOM     20  C   UNL A   1      32.617  29.916  26.146  1.00  0.00    -0.017 C 
ATOM     21  C   UNL A   1      31.760  31.131  26.502  1.00  0.00     0.007 C 
ATOM     22  C   UNL A   1      33.812  29.827  27.099  1.00  0.00     0.007 C 
ENDBRANCH  19  20
ENDBRANCH  18  19
ENDBRANCH   8  18
BRANCH  17  23
ATOM     23  C   UNL A   1      33.412  22.319  27.349  1.00  0.00     0.429 C 
ATOM     24  F   UNL A   1      33.911  21.124  27.753  1.00  0.00    -0.167 F 
ATOM     25  F   UNL A   1      34.480  23.112  27.093  1.00  0.00    -0.167 F 
ATOM     26  F   UNL A   1      32.759  22.864  28.399  1.00  0.00    -0.167 F 
ENDBRANCH  17  23
ENDBRANCH   4   7
ENDBRANCH   2   3
ENDBRANCH   1   2
BRANCH   1  27
ATOM     27  C   UNL A   1      37.023  22.928  24.580  1.00  0.00     0.023 C 
BRANCH  27  28
ATOM     28  C   UNL A   1      37.831  23.352  25.804  1.00  0.00     0.116 C 
BRANCH  28  29
ATOM     29  N   UNL A   1      39.233  22.957  25.773  1.00  0.00    -0.352 N 
ATOM     30  C   UNL A   1      40.311  23.642  26.293  1.00  0.00     0.251 C 
ATOM     31  H   UNL A   1      39.434  22.101  25.329  1.00  0.00     0.163 HD
ATOM     32  O   UNL A   1      41.456  23.237  26.133  1.00  0.00    -0.269 OA
BRANCH  30  33
ATOM     33  C   UNL A   1      40.057  24.915  26.997  1.00  0.00     0.039 A 
ATOM     34  C   UNL A   1      40.682  26.086  26.568  1.00  0.00     0.014 A 
ATOM     35  C   UNL A   1      39.279  24.909  28.158  1.00  0.00     0.014 A 
ATOM     36  C   UNL A   1      40.694  27.194  27.402  1.00  0.00     0.010 A 
ATOM     37  C   UNL A   1      39.219  26.058  28.953  1.00  0.00     0.010 A 
ATOM     38  C   UNL A   1      39.980  27.187  28.615  1.00  0.00    -0.014 A 
BRANCH  38  39
ATOM     39  C   UNL A   1      40.080  28.368  29.510  1.00  0.00     0.031 A 
ATOM     40  C   UNL A   1      39.050  29.466  29.463  1.00  0.00     0.074 A 
ATOM     41  C   UNL A   1      41.051  28.397  30.444  1.00  0.00     0.049 A 
ATOM     42  N   UNL A   1      38.925  30.508  30.248  1.00  0.00    -0.248 NA
ATOM     43  C   UNL A   1      38.030  29.391  28.404  1.00  0.00     0.031 C 
ATOM     44  C   UNL A   1      42.097  27.384  30.599  1.00  0.00     0.029 A 
ATOM     45  N   UNL A   1      41.285  29.279  31.468  1.00  0.00    -0.354 N 
ATOM     46  C   UNL A   1      37.832  31.218  29.767  1.00  0.00     0.074 A 
ATOM     47  C   UNL A   1      37.340  30.506  28.609  1.00  0.00     0.031 C 
ATOM     48  C   UNL A   1      42.807  27.655  31.702  1.00  0.00     0.029 A 
ATOM     49  C   UNL A   1      42.309  28.891  32.297  1.00  0.00     0.049 A 
ATOM     50  H   UNL A   1      40.770  30.109  31.596  1.00  0.00     0.167 HD
ATOM     51  C   UNL A   1      37.282  32.356  30.254  1.00  0.00     0.031 A 
ATOM     52  C   UNL A   1      42.793  29.457  33.419  1.00  0.00     0.031 A 
ATOM     53  C   UNL A   1      37.759  33.058  31.415  1.00  0.00     0.049 A 
ATOM     54  C   UNL A   1      42.173  30.724  33.929  1.00  0.00     0.074 A 
ATOM     55  C   UNL A   1      37.259  34.217  31.984  1.00  0.00     0.029 A 
ATOM     56  N   UNL A   1      38.841  32.666  32.188  1.00  0.00    -0.354 N 
ATOM     57  N   UNL A   1      41.140  31.381  33.460  1.00  0.00    -0.248 NA
ATOM     58  C   UNL A   1      42.784  31.328  35.122  1.00  0.00     0.031 C 
ATOM     59  C   UNL A   1      38.066  34.550  33.076  1.00  0.00     0.029 A 
ATOM     60  C   UNL A   1      39.032  33.568  33.220  1.00  0.00     0.049 A 
ATOM     61  H   UNL A   1      39.390  31.865  32.027  1.00  0.00     0.167 HD
ATOM     62  C   UNL A   1      40.972  32.471  34.301  1.00  0.00     0.074 A 
ATOM     63  C   UNL A   1      41.994  32.374  35.325  1.00  0.00     0.031 C 
ATOM     64  C   UNL A   1      40.056  33.466  34.227  1.00  0.00     0.031 A 
BRANCH  51  65
ATOM     65  C   UNL A   1      36.099  32.935  29.525  1.00  0.00    -0.014 A 
ATOM     66  C   UNL A   1      34.799  32.616  29.946  1.00  0.00     0.009 A 
ATOM     67  C   UNL A   1      36.268  33.722  28.376  1.00  0.00     0.009 A 
ATOM     68  C   UNL A   1      33.690  33.063  29.226  1.00  0.00     0.001 A 
ATOM     69  C   UNL A   1      35.155  34.190  27.672  1.00  0.00     0.001 A 
ATOM     70  C   UNL A   1      33.868  33.854  28.092  1.00  0.00     0.000 A 
ENDBRANCH  51  65
BRANCH  52  71
ATOM     71  C   UNL A   1      43.915  28.801  34.136  1.00  0.00    -0.014 A 
ATOM     72  C   UNL A   1      45.246  29.092  33.795  1.00  0.00     0.009 A 
ATOM     73  C   UNL A   1      43.663  27.835  35.121  1.00  0.00     0.009 A 
ATOM     74  C   UNL A   1      46.300  28.410  34.406  1.00  0.00     0.001 A 
ATOM     75  C   UNL A   1      44.720  27.175  35.751  1.00  0.00     0.001 A 
ATOM     76  C   UNL A   1      46.036  27.455  35.385  1.00  0.00     0.000 A 
ENDBRANCH  52  71
BRANCH  64  77
ATOM     77  C   UNL A   1      40.101  34.534  35.281  1.00  0.00    -0.014 A 
ATOM     78  C   UNL A   1      40.941  35.646  35.112  1.00  0.00     0.009 A 
ATOM     79  C   UNL A   1      39.382  34.399  36.477  1.00  0.00     0.009 A 
ATOM     80  C   UNL A   1      41.066  36.600  36.122  1.00  0.00     0.001 A 
ATOM     81  C   UNL A   1      39.488  35.368  37.477  1.00  0.00     0.001 A 
ATOM     82  C   UNL A   1      40.335  36.463  37.302  1.00  0.00     0.000 A 
ENDBRANCH  64  77
ENDBRANCH  38  39
ENDBRANCH  30  33
ENDBRANCH  28  29
ENDBRANCH  27  28
ENDBRANCH   1  27
TORSDOF 15
ENDMDL
MODEL 3
REMARK VINA RESULT:     -11.4      3.576      8.777
REMARK SMILES CC(C)CCc1cc2c(cc1Cl)C=C(C(=O)NCCCCNC(=O)c1ccc(-c3c4nc(c(-c5ccccc5)c5ccc([nH]5)c(-c5ccccc5)c5nc(c(-c6ccccc6)c6ccc3[nH]6)C=C5)C=C4)cc1)[C@@H](C(F)(F)F)O2
REMARK SMILES IDX 19 1 18 2 17 3 15 4 16 5 14 7 6 8 7 9 11 10 8 11 10 12 12 13
REMARK SMILES IDX 9 14 78 15 13 16 73 17 5 18 4 19 2 20 1 21 3 22 74 23 75 24
REMARK SMILES IDX 76 25 77 26 20 27 21 28 22 29 23 30 24 32 25 33 26 34 72 35
REMARK SMILES IDX 27 36 71 37 28 38 29 39 30 40 65 41 31 42 70 43 64 44 66 45
REMARK SMILES IDX 32 46 69 47 63 48 62 49 33 51 55 52 40 53 54 54 41 55 44 56
REMARK SMILES IDX 53 57 67 58 42 59 43 60 52 62 68 63 45 64 34 65 35 66 39 67
REMARK SMILES IDX 36 68 38 69 37 70 56 71 57 72 61 73 58 74 60 75 59 76 46 77
REMARK SMILES IDX 47 78 51 79 48 80 50 81 49 82
REMARK H PARENT 17 6 22 31 66 50 44 61
REMARK Flexibility Score: inf
ROOT
ATOM      1  C   UNL A   1      32.377  29.091  27.334  1.00  0.00     0.023 C 
ENDROOT
BRANCH   1   2
ATOM      2  C   UNL A   1      33.680  28.441  26.875  1.00  0.00     0.116 C 
BRANCH   2   3
ATOM      3  N   UNL A   1      33.839  28.486  25.432  1.00  0.00    -0.352 N 
ATOM      4  C   UNL A   1      33.741  27.613  24.401  1.00  0.00     0.251 C 
ATOM      5  O   UNL A   1      33.959  28.091  23.284  1.00  0.00    -0.270 OA
ATOM      6  H   UNL A   1      34.083  29.388  25.120  1.00  0.00     0.163 HD
BRANCH   4   7
ATOM      7  C   UNL A   1      33.405  26.164  24.530  1.00  0.00     0.067 C 
ATOM      8  C   UNL A   1      33.613  21.152  25.203  1.00  0.00    -0.026 A 
ATOM      9  C   UNL A   1      32.594  22.118  25.232  1.00  0.00     0.052 A 
ATOM     10  C   UNL A   1      34.936  21.599  25.035  1.00  0.00     0.045 A 
ATOM     11  C   UNL A   1      32.878  23.467  25.039  1.00  0.00     0.128 A 
ATOM     12  C   UNL A   1      35.219  22.964  24.868  1.00  0.00     0.032 A 
ATOM     13  Cl  UNL A   1      36.284  20.518  25.037  1.00  0.00    -0.084 Cl
ATOM     14  C   UNL A   1      34.188  23.904  24.863  1.00  0.00     0.019 A 
ATOM     15  O   UNL A   1      31.816  24.323  25.074  1.00  0.00    -0.475 OA
ATOM     16  C   UNL A   1      34.447  25.333  24.731  1.00  0.00     0.025 C 
ATOM     17  C   UNL A   1      32.015  25.604  24.416  1.00  0.00     0.314 C 
BRANCH   8  18
ATOM     18  C   UNL A   1      33.235  19.696  25.379  1.00  0.00     0.037 C 
BRANCH  18  19
ATOM     19  C   UNL A   1      32.743  19.002  24.095  1.00  0.00     0.008 C 
BRANCH  19  20
ATOM     20  C   UNL A   1      32.796  17.461  24.122  1.00  0.00    -0.017 C 
ATOM     21  C   UNL A   1      34.002  16.914  23.358  1.00  0.00     0.007 C 
ATOM     22  C   UNL A   1      32.831  16.968  25.571  1.00  0.00     0.007 C 
ENDBRANCH  19  20
ENDBRANCH  18  19
ENDBRANCH   8  18
BRANCH  17  23
ATOM     23  C   UNL A   1      31.536  25.514  22.953  1.00  0.00     0.429 C 
ATOM     24  F   UNL A   1      30.927  26.668  22.584  1.00  0.00    -0.167 F 
ATOM     25  F   UNL A   1      32.559  25.327  22.085  1.00  0.00    -0.167 F 
ATOM     26  F   UNL A   1      30.658  24.508  22.749  1.00  0.00    -0.167 F 
ENDBRANCH  17  23
ENDBRANCH   4   7
ENDBRANCH   2   3
ENDBRANCH   1   2
BRANCH   1  27
ATOM     27  C   UNL A   1      32.179  30.527  26.840  1.00  0.00     0.023 C 
BRANCH  27  28
ATOM     28  C   UNL A   1      33.200  31.541  27.347  1.00  0.00     0.116 C 
BRANCH  28  29
ATOM     29  N   UNL A   1      32.663  32.871  27.598  1.00  0.00    -0.352 N 
ATOM     30  C   UNL A   1      33.212  33.865  28.382  1.00  0.00     0.251 C 
ATOM     31  H   UNL A   1      31.810  33.086  27.157  1.00  0.00     0.163 HD
ATOM     32  O   UNL A   1      32.619  34.919  28.574  1.00  0.00    -0.269 OA
BRANCH  30  33
ATOM     33  C   UNL A   1      34.508  33.602  29.039  1.00  0.00     0.039 A 
ATOM     34  C   UNL A   1      35.698  33.903  28.377  1.00  0.00     0.014 A 
ATOM     35  C   UNL A   1      34.527  32.948  30.273  1.00  0.00     0.014 A 
ATOM     36  C   UNL A   1      36.891  33.374  28.850  1.00  0.00     0.010 A 
ATOM     37  C   UNL A   1      35.742  32.494  30.794  1.00  0.00     0.010 A 
ATOM     38  C   UNL A   1      36.925  32.645  30.053  1.00  0.00    -0.014 A 
BRANCH  38  39
ATOM     39  C   UNL A   1      38.209  32.037  30.484  1.00  0.00     0.031 A 
ATOM     40  C   UNL A   1      38.695  30.744  29.882  1.00  0.00     0.074 A 
ATOM     41  C   UNL A   1      38.991  32.711  31.350  1.00  0.00     0.049 A 
ATOM     42  N   UNL A   1      39.841  30.135  30.061  1.00  0.00    -0.248 NA
ATOM     43  C   UNL A   1      37.785  30.042  28.962  1.00  0.00     0.031 C 
ATOM     44  C   UNL A   1      38.636  33.979  31.989  1.00  0.00     0.029 A 
ATOM     45  N   UNL A   1      40.261  32.453  31.801  1.00  0.00    -0.354 N 
ATOM     46  C   UNL A   1      39.781  28.976  29.298  1.00  0.00     0.074 A 
ATOM     47  C   UNL A   1      38.480  28.950  28.670  1.00  0.00     0.031 C 
ATOM     48  C   UNL A   1      39.692  34.430  32.679  1.00  0.00     0.029 A 
ATOM     49  C   UNL A   1      40.774  33.457  32.584  1.00  0.00     0.049 A 
ATOM     50  H   UNL A   1      40.755  31.630  31.583  1.00  0.00     0.167 HD
ATOM     51  C   UNL A   1      40.730  28.024  29.128  1.00  0.00     0.031 A 
ATOM     52  C   UNL A   1      41.985  33.590  33.159  1.00  0.00     0.031 A 
ATOM     53  C   UNL A   1      42.032  28.056  29.739  1.00  0.00     0.049 A 
ATOM     54  C   UNL A   1      43.013  32.516  32.964  1.00  0.00     0.074 A 
ATOM     55  C   UNL A   1      43.060  27.137  29.618  1.00  0.00     0.029 A 
ATOM     56  N   UNL A   1      42.487  29.060  30.580  1.00  0.00    -0.354 N 
ATOM     57  N   UNL A   1      42.936  31.426  32.239  1.00  0.00    -0.248 NA
ATOM     58  C   UNL A   1      44.293  32.687  33.666  1.00  0.00     0.031 C 
ATOM     59  C   UNL A   1      44.122  27.562  30.421  1.00  0.00     0.029 A 
ATOM     60  C   UNL A   1      43.777  28.775  30.996  1.00  0.00     0.049 A 
ATOM     61  H   UNL A   1      41.972  29.857  30.840  1.00  0.00     0.167 HD
ATOM     62  C   UNL A   1      44.158  30.785  32.391  1.00  0.00     0.074 A 
ATOM     63  C   UNL A   1      44.966  31.620  33.257  1.00  0.00     0.031 C 
ATOM     64  C   UNL A   1      44.567  29.607  31.863  1.00  0.00     0.031 A 
BRANCH  51  65
ATOM     65  C   UNL A   1      40.398  26.847  28.253  1.00  0.00    -0.014 A 
ATOM     66  C   UNL A   1      40.834  26.828  26.918  1.00  0.00     0.009 A 
ATOM     67  C   UNL A   1      39.587  25.801  28.717  1.00  0.00     0.009 A 
ATOM     68  C   UNL A   1      40.455  25.792  26.062  1.00  0.00     0.001 A 
ATOM     69  C   UNL A   1      39.230  24.752  27.865  1.00  0.00     0.001 A 
ATOM     70  C   UNL A   1      39.657  24.753  26.537  1.00  0.00     0.000 A 
ENDBRANCH  51  65
BRANCH  52  71
ATOM     71  C   UNL A   1      42.280  34.809  33.953  1.00  0.00    -0.014 A 
ATOM     72  C   UNL A   1      41.988  34.853  35.326  1.00  0.00     0.009 A 
ATOM     73  C   UNL A   1      42.796  35.956  33.332  1.00  0.00     0.009 A 
ATOM     74  C   UNL A   1      42.181  36.028  36.055  1.00  0.00     0.001 A 
ATOM     75  C   UNL A   1      43.015  37.121  34.070  1.00  0.00     0.001 A 
ATOM     76  C   UNL A   1      42.698  37.159  35.427  1.00  0.00     0.000 A 
ENDBRANCH  52  71
BRANCH  64  77
ATOM     77  C   UNL A   1      45.956  29.142  32.196  1.00  0.00    -0.014 A 
ATOM     78  C   UNL A   1      47.026  29.479  31.351  1.00  0.00     0.009 A 
ATOM     79  C   UNL A   1      46.192  28.300  33.293  1.00  0.00     0.009 A 
ATOM     80  C   UNL A   1      48.305  28.978  31.595  1.00  0.00     0.001 A 
ATOM     81  C   UNL A   1      47.478  27.820  33.549  1.00  0.00     0.001 A 
ATOM     82  C   UNL A   1      48.531  28.153  32.696  1.00  0.00     0.000 A 
ENDBRANCH  64  77
ENDBRANCH  38  39
ENDBRANCH  30  33
ENDBRANCH  28  29
ENDBRANCH  27  28
ENDBRANCH   1  27
TORSDOF 15
ENDMDL
