MODEL 1
REMARK VINA RESULT:     -12.1      0.000      0.000
REMARK SMILES CC(=O)Nc1cc(NC(C)=O)cc(C(=O)Nc2ccc(Br)cc2C(=O)NCCCCNC(=O)c2ccc(-c3c4nc(c(-c5ccccc5)c5ccc([nH]5)c(-c5ccccc5)c5nc(c(-c6ccccc6)c6ccc3[nH]6)C=C5)C=C4)cc2)c1
REMARK SMILES IDX 28 1 27 2 26 3 24 4 25 5 23 7 17 8 18 9 19 10 22 11 20 12
REMARK SMILES IDX 21 13 16 14 14 15 15 16 13 18 5 19 6 20 82 21 7 22 12 23
REMARK SMILES IDX 4 24 1 25 2 26 3 27 8 29 9 30 10 32 11 33 29 34 30 35 31 36
REMARK SMILES IDX 32 37 33 39 34 40 35 41 81 42 36 43 80 44 37 45 38 46 39 47
REMARK SMILES IDX 74 48 40 49 79 50 73 51 75 52 41 53 78 54 72 55 71 56 42 58
REMARK SMILES IDX 64 59 49 60 63 61 50 62 53 63 62 64 76 65 51 66 52 67 61 69
REMARK SMILES IDX 77 70 54 71 43 72 44 73 48 74 45 75 47 76 46 77 65 78 66 79
REMARK SMILES IDX 70 80 67 81 69 82 68 83 55 84 56 85 60 86 57 87 59 88 58 89
REMARK H PARENT 26 6 16 17 4 28 8 31 31 38 75 57 53 68
REMARK Flexibility Score: inf
ROOT
ATOM      1  C   UNL A   1      32.234  30.472  26.870  1.00  0.00     0.023 C 
ENDROOT
BRANCH   1   2
ATOM      2  C   UNL A   1      32.556  29.050  27.299  1.00  0.00     0.116 C 
BRANCH   2   3
ATOM      3  N   UNL A   1      33.374  28.294  26.378  1.00  0.00    -0.352 N 
ATOM      4  C   UNL A   1      33.009  27.661  25.214  1.00  0.00     0.253 C 
ATOM      5  O   UNL A   1      33.887  27.099  24.559  1.00  0.00    -0.269 OA
ATOM      6  H   UNL A   1      34.327  28.224  26.618  1.00  0.00     0.163 HD
BRANCH   4   7
ATOM      7  C   UNL A   1      31.585  27.541  24.777  1.00  0.00     0.064 A 
ATOM      8  C   UNL A   1      30.662  26.533  25.130  1.00  0.00     0.054 A 
ATOM      9  C   UNL A   1      29.454  26.445  24.413  1.00  0.00     0.028 A 
ATOM     10  C   UNL A   1      29.083  27.433  23.498  1.00  0.00     0.018 A 
ATOM     11  C   UNL A   1      31.178  28.556  23.884  1.00  0.00     0.031 A 
ATOM     12  C   UNL A   1      29.928  28.510  23.273  1.00  0.00     0.018 A 
ATOM     13  Br  UNL A   1      29.371  29.920  22.145  1.00  0.00    -0.051 Br
BRANCH   8  14
ATOM     14  N   UNL A   1      30.756  25.609  26.201  1.00  0.00    -0.321 N 
ATOM     15  C   UNL A   1      31.225  24.308  26.264  1.00  0.00     0.255 C 
ATOM     16  O   UNL A   1      30.968  23.621  27.251  1.00  0.00    -0.269 OA
ATOM     17  H   UNL A   1      30.427  25.958  27.062  1.00  0.00     0.170 HD
BRANCH  15  18
ATOM     18  C   UNL A   1      32.074  23.738  25.194  1.00  0.00     0.044 A 
ATOM     19  C   UNL A   1      34.013  22.447  24.584  1.00  0.00     0.044 A 
ATOM     20  C   UNL A   1      33.873  22.915  23.270  1.00  0.00     0.052 A 
ATOM     21  C   UNL A   1      33.046  22.789  25.513  1.00  0.00     0.040 A 
ATOM     22  C   UNL A   1      32.788  23.713  22.885  1.00  0.00     0.044 A 
ATOM     23  C   UNL A   1      31.904  24.161  23.871  1.00  0.00     0.040 A 
BRANCH  19  24
ATOM     24  N   UNL A   1      35.203  21.772  24.910  1.00  0.00    -0.326 N 
ATOM     25  C   UNL A   1      36.695  23.592  25.750  1.00  0.00     0.114 C 
ATOM     26  C   UNL A   1      36.453  22.196  25.253  1.00  0.00     0.221 C 
ATOM     27  O   UNL A   1      37.389  21.395  25.188  1.00  0.00    -0.275 OA
ATOM     28  H   UNL A   1      35.115  20.792  24.884  1.00  0.00     0.169 HD
ENDBRANCH  19  24
BRANCH  22  29
ATOM     29  N   UNL A   1      32.541  24.106  21.550  1.00  0.00    -0.326 N 
ATOM     30  C   UNL A   1      32.899  25.308  20.963  1.00  0.00     0.221 C 
ATOM     31  H   UNL A   1      32.067  23.459  20.979  1.00  0.00     0.169 HD
ATOM     32  C   UNL A   1      32.521  25.404  19.506  1.00  0.00     0.114 C 
ATOM     33  O   UNL A   1      33.489  26.239  21.502  1.00  0.00    -0.275 OA
ENDBRANCH  22  29
ENDBRANCH  15  18
ENDBRANCH   8  14
ENDBRANCH   4   7
ENDBRANCH   2   3
ENDBRANCH   1   2
BRANCH   1  34
ATOM     34  C   UNL A   1      33.001  31.578  27.593  1.00  0.00     0.023 C 
BRANCH  34  35
ATOM     35  C   UNL A   1      33.061  32.942  26.909  1.00  0.00     0.116 C 
BRANCH  35  36
ATOM     36  N   UNL A   1      32.598  34.049  27.733  1.00  0.00    -0.352 N 
ATOM     37  C   UNL A   1      33.126  34.581  28.890  1.00  0.00     0.251 C 
ATOM     38  H   UNL A   1      31.777  34.486  27.413  1.00  0.00     0.163 HD
ATOM     39  O   UNL A   1      32.526  35.451  29.501  1.00  0.00    -0.269 OA
BRANCH  37  40
ATOM     40  C   UNL A   1      34.414  34.073  29.414  1.00  0.00     0.039 A 
ATOM     41  C   UNL A   1      34.409  33.266  30.554  1.00  0.00     0.014 A 
ATOM     42  C   UNL A   1      35.621  34.381  28.783  1.00  0.00     0.014 A 
ATOM     43  C   UNL A   1      35.604  32.701  31.007  1.00  0.00     0.010 A 
ATOM     44  C   UNL A   1      36.793  33.739  29.174  1.00  0.00     0.010 A 
ATOM     45  C   UNL A   1      36.800  32.897  30.296  1.00  0.00    -0.014 A 
BRANCH  45  46
ATOM     46  C   UNL A   1      38.060  32.231  30.720  1.00  0.00     0.031 A 
ATOM     47  C   UNL A   1      38.900  32.816  31.823  1.00  0.00     0.074 A 
ATOM     48  C   UNL A   1      38.477  31.120  30.079  1.00  0.00     0.049 A 
ATOM     49  N   UNL A   1      40.020  32.368  32.334  1.00  0.00    -0.248 NA
ATOM     50  C   UNL A   1      38.441  34.085  32.409  1.00  0.00     0.031 C 
ATOM     51  C   UNL A   1      37.795  30.485  28.949  1.00  0.00     0.029 A 
ATOM     52  N   UNL A   1      39.576  30.324  30.291  1.00  0.00    -0.354 N 
ATOM     53  C   UNL A   1      40.404  33.307  33.284  1.00  0.00     0.074 A 
ATOM     54  C   UNL A   1      39.435  34.379  33.234  1.00  0.00     0.031 C 
ATOM     55  C   UNL A   1      38.466  29.376  28.597  1.00  0.00     0.029 A 
ATOM     56  C   UNL A   1      39.642  29.240  29.450  1.00  0.00     0.049 A 
ATOM     57  H   UNL A   1      40.252  30.514  30.981  1.00  0.00     0.167 HD
ATOM     58  C   UNL A   1      41.451  33.271  34.142  1.00  0.00     0.031 A 
ATOM     59  C   UNL A   1      40.542  28.241  29.378  1.00  0.00     0.031 A 
ATOM     60  C   UNL A   1      42.410  32.199  34.204  1.00  0.00     0.049 A 
ATOM     61  C   UNL A   1      41.686  28.211  30.354  1.00  0.00     0.074 A 
ATOM     62  C   UNL A   1      43.466  32.036  35.083  1.00  0.00     0.029 A 
ATOM     63  N   UNL A   1      42.431  31.110  33.347  1.00  0.00    -0.354 N 
ATOM     64  N   UNL A   1      41.982  29.060  31.308  1.00  0.00    -0.248 NA
ATOM     65  C   UNL A   1      42.607  27.071  30.255  1.00  0.00     0.031 C 
ATOM     66  C   UNL A   1      44.161  30.877  34.722  1.00  0.00     0.029 A 
ATOM     67  C   UNL A   1      43.498  30.284  33.660  1.00  0.00     0.049 A 
ATOM     68  H   UNL A   1      41.784  30.948  32.623  1.00  0.00     0.167 HD
ATOM     69  C   UNL A   1      43.105  28.542  31.941  1.00  0.00     0.074 A 
ATOM     70  C   UNL A   1      43.422  27.295  31.275  1.00  0.00     0.031 C 
ATOM     71  C   UNL A   1      43.809  29.051  32.982  1.00  0.00     0.031 A 
BRANCH  58  72
ATOM     72  C   UNL A   1      41.616  34.438  35.080  1.00  0.00    -0.014 A 
ATOM     73  C   UNL A   1      41.079  34.415  36.378  1.00  0.00     0.009 A 
ATOM     74  C   UNL A   1      42.333  35.570  34.666  1.00  0.00     0.009 A 
ATOM     75  C   UNL A   1      41.216  35.518  37.222  1.00  0.00     0.001 A 
ATOM     76  C   UNL A   1      42.499  36.659  35.524  1.00  0.00     0.001 A 
ATOM     77  C   UNL A   1      41.930  36.638  36.796  1.00  0.00     0.000 A 
ENDBRANCH  58  72
BRANCH  59  78
ATOM     78  C   UNL A   1      40.380  27.166  28.365  1.00  0.00    -0.014 A 
ATOM     79  C   UNL A   1      40.966  27.284  27.095  1.00  0.00     0.009 A 
ATOM     80  C   UNL A   1      39.634  26.015  28.661  1.00  0.00     0.009 A 
ATOM     81  C   UNL A   1      40.785  26.286  26.134  1.00  0.00     0.001 A 
ATOM     82  C   UNL A   1      39.481  25.003  27.709  1.00  0.00     0.001 A 
ATOM     83  C   UNL A   1      40.048  25.145  26.443  1.00  0.00     0.000 A 
ENDBRANCH  59  78
BRANCH  71  84
ATOM     84  C   UNL A   1      44.972  28.239  33.486  1.00  0.00    -0.014 A 
ATOM     85  C   UNL A   1      44.807  27.253  34.471  1.00  0.00     0.009 A 
ATOM     86  C   UNL A   1      46.251  28.455  32.950  1.00  0.00     0.009 A 
ATOM     87  C   UNL A   1      45.908  26.535  34.944  1.00  0.00     0.001 A 
ATOM     88  C   UNL A   1      47.343  27.713  33.400  1.00  0.00     0.001 A 
ATOM     89  C   UNL A   1      47.173  26.764  34.406  1.00  0.00     0.000 A 
ENDBRANCH  71  84
ENDBRANCH  45  46
ENDBRANCH  37  40
ENDBRANCH  35  36
ENDBRANCH  34  35
ENDBRANCH   1  34
TORSDOF 15
ENDMDL
MODEL 2
REMARK VINA RESULT:     -12.0      4.007      9.402
REMARK SMILES CC(=O)Nc1cc(NC(C)=O)cc(C(=O)Nc2ccc(Br)cc2C(=O)NCCCCNC(=O)c2ccc(-c3c4nc(c(-c5ccccc5)c5ccc([nH]5)c(-c5ccccc5)c5nc(c(-c6ccccc6)c6ccc3[nH]6)C=C5)C=C4)cc2)c1
REMARK SMILES IDX 28 1 27 2 26 3 24 4 25 5 23 7 17 8 18 9 19 10 22 11 20 12
REMARK SMILES IDX 21 13 16 14 14 15 15 16 13 18 5 19 6 20 82 21 7 22 12 23
REMARK SMILES IDX 4 24 1 25 2 26 3 27 8 29 9 30 10 32 11 33 29 34 30 35 31 36
REMARK SMILES IDX 32 37 33 39 34 40 35 41 81 42 36 43 80 44 37 45 38 46 39 47
REMARK SMILES IDX 74 48 40 49 79 50 73 51 75 52 41 53 78 54 72 55 71 56 42 58
REMARK SMILES IDX 64 59 49 60 63 61 50 62 53 63 62 64 76 65 51 66 52 67 61 69
REMARK SMILES IDX 77 70 54 71 43 72 44 73 48 74 45 75 47 76 46 77 65 78 66 79
REMARK SMILES IDX 70 80 67 81 69 82 68 83 55 84 56 85 60 86 57 87 59 88 58 89
REMARK H PARENT 26 6 16 17 4 28 8 31 31 38 75 57 53 68
REMARK Flexibility Score: inf
ROOT
ATOM      1  C   UNL A   1      37.396  21.058  24.694  1.00  0.00     0.023 C 
ENDROOT
BRANCH   1   2
ATOM      2  C   UNL A   1      36.396  21.297  25.813  1.00  0.00     0.116 C 
BRANCH   2   3
ATOM      3  N   UNL A   1      35.885  22.645  25.911  1.00  0.00    -0.352 N 
ATOM      4  C   UNL A   1      34.767  23.191  25.326  1.00  0.00     0.253 C 
ATOM      5  O   UNL A   1      34.495  24.366  25.577  1.00  0.00    -0.269 OA
ATOM      6  H   UNL A   1      36.410  23.258  26.475  1.00  0.00     0.163 HD
BRANCH   4   7
ATOM      7  C   UNL A   1      33.939  22.451  24.326  1.00  0.00     0.064 A 
ATOM      8  C   UNL A   1      33.403  22.951  23.119  1.00  0.00     0.054 A 
ATOM      9  C   UNL A   1      32.436  22.183  22.444  1.00  0.00     0.028 A 
ATOM     10  C   UNL A   1      32.140  20.878  22.845  1.00  0.00     0.018 A 
ATOM     11  C   UNL A   1      33.664  21.116  24.694  1.00  0.00     0.031 A 
ATOM     12  C   UNL A   1      32.791  20.334  23.942  1.00  0.00     0.018 A 
ATOM     13  Br  UNL A   1      32.499  18.526  24.405  1.00  0.00    -0.051 Br
BRANCH   8  14
ATOM     14  N   UNL A   1      33.777  24.131  22.429  1.00  0.00    -0.321 N 
ATOM     15  C   UNL A   1      33.251  25.411  22.430  1.00  0.00     0.255 C 
ATOM     16  O   UNL A   1      33.589  26.203  21.552  1.00  0.00    -0.269 OA
ATOM     17  H   UNL A   1      34.558  24.020  21.838  1.00  0.00     0.170 HD
BRANCH  15  18
ATOM     18  C   UNL A   1      32.327  25.868  23.493  1.00  0.00     0.044 A 
ATOM     19  C   UNL A   1      31.604  27.636  24.959  1.00  0.00     0.044 A 
ATOM     20  C   UNL A   1      30.862  26.691  25.682  1.00  0.00     0.052 A 
ATOM     21  C   UNL A   1      32.251  27.226  23.807  1.00  0.00     0.040 A 
ATOM     22  C   UNL A   1      30.768  25.356  25.266  1.00  0.00     0.044 A 
ATOM     23  C   UNL A   1      31.545  24.936  24.183  1.00  0.00     0.040 A 
BRANCH  19  24
ATOM     24  N   UNL A   1      31.756  28.914  25.526  1.00  0.00    -0.326 N 
ATOM     25  C   UNL A   1      33.672  28.627  27.104  1.00  0.00     0.114 C 
ATOM     26  C   UNL A   1      32.495  29.391  26.567  1.00  0.00     0.221 C 
ATOM     27  O   UNL A   1      32.208  30.492  27.043  1.00  0.00    -0.275 OA
ATOM     28  H   UNL A   1      31.217  29.606  25.079  1.00  0.00     0.169 HD
ENDBRANCH  19  24
BRANCH  22  29
ATOM     29  N   UNL A   1      29.938  24.400  25.893  1.00  0.00    -0.326 N 
ATOM     30  C   UNL A   1      30.324  23.462  26.836  1.00  0.00     0.221 C 
ATOM     31  H   UNL A   1      28.988  24.400  25.634  1.00  0.00     0.169 HD
ATOM     32  C   UNL A   1      29.186  22.607  27.338  1.00  0.00     0.114 C 
ATOM     33  O   UNL A   1      31.453  23.298  27.286  1.00  0.00    -0.275 OA
ENDBRANCH  22  29
ENDBRANCH  15  18
ENDBRANCH   8  14
ENDBRANCH   4   7
ENDBRANCH   2   3
ENDBRANCH   1   2
BRANCH   1  34
ATOM     34  C   UNL A   1      38.317  19.851  24.867  1.00  0.00     0.023 C 
BRANCH  34  35
ATOM     35  C   UNL A   1      39.306  19.893  26.030  1.00  0.00     0.116 C 
BRANCH  35  36
ATOM     36  N   UNL A   1      40.419  18.965  25.907  1.00  0.00    -0.352 N 
ATOM     37  C   UNL A   1      41.774  19.173  26.053  1.00  0.00     0.251 C 
ATOM     38  H   UNL A   1      40.164  18.041  25.682  1.00  0.00     0.163 HD
ATOM     39  O   UNL A   1      42.568  18.280  25.801  1.00  0.00    -0.269 OA
BRANCH  37  40
ATOM     40  C   UNL A   1      42.274  20.497  26.488  1.00  0.00     0.039 A 
ATOM     41  C   UNL A   1      42.727  21.399  25.522  1.00  0.00     0.014 A 
ATOM     42  C   UNL A   1      42.288  20.855  27.838  1.00  0.00     0.014 A 
ATOM     43  C   UNL A   1      43.114  22.686  25.906  1.00  0.00     0.010 A 
ATOM     44  C   UNL A   1      42.576  22.165  28.206  1.00  0.00     0.010 A 
ATOM     45  C   UNL A   1      43.000  23.095  27.245  1.00  0.00    -0.014 A 
BRANCH  45  46
ATOM     46  C   UNL A   1      43.326  24.489  27.649  1.00  0.00     0.031 A 
ATOM     47  C   UNL A   1      44.756  24.959  27.686  1.00  0.00     0.074 A 
ATOM     48  C   UNL A   1      42.337  25.324  28.029  1.00  0.00     0.049 A 
ATOM     49  N   UNL A   1      45.228  26.140  28.001  1.00  0.00    -0.248 NA
ATOM     50  C   UNL A   1      45.792  23.968  27.359  1.00  0.00     0.031 C 
ATOM     51  C   UNL A   1      40.916  24.977  28.105  1.00  0.00     0.029 A 
ATOM     52  N   UNL A   1      42.379  26.639  28.421  1.00  0.00    -0.354 N 
ATOM     53  C   UNL A   1      46.611  26.025  27.924  1.00  0.00     0.074 A 
ATOM     54  C   UNL A   1      46.903  24.647  27.599  1.00  0.00     0.031 C 
ATOM     55  C   UNL A   1      40.218  26.063  28.475  1.00  0.00     0.029 A 
ATOM     56  C   UNL A   1      41.142  27.171  28.697  1.00  0.00     0.049 A 
ATOM     57  H   UNL A   1      43.216  27.151  28.498  1.00  0.00     0.167 HD
ATOM     58  C   UNL A   1      47.555  26.984  28.083  1.00  0.00     0.031 A 
ATOM     59  C   UNL A   1      40.788  28.413  29.076  1.00  0.00     0.031 A 
ATOM     60  C   UNL A   1      47.267  28.359  28.394  1.00  0.00     0.049 A 
ATOM     61  C   UNL A   1      41.851  29.467  29.226  1.00  0.00     0.074 A 
ATOM     62  C   UNL A   1      48.147  29.421  28.507  1.00  0.00     0.029 A 
ATOM     63  N   UNL A   1      46.000  28.862  28.647  1.00  0.00    -0.354 N 
ATOM     64  N   UNL A   1      43.147  29.363  29.060  1.00  0.00    -0.248 NA
ATOM     65  C   UNL A   1      41.396  30.814  29.596  1.00  0.00     0.031 C 
ATOM     66  C   UNL A   1      47.420  30.554  28.885  1.00  0.00     0.029 A 
ATOM     67  C   UNL A   1      46.078  30.213  28.941  1.00  0.00     0.049 A 
ATOM     68  H   UNL A   1      45.168  28.336  28.621  1.00  0.00     0.167 HD
ATOM     69  C   UNL A   1      43.659  30.637  29.276  1.00  0.00     0.074 A 
ATOM     70  C   UNL A   1      42.530  31.498  29.563  1.00  0.00     0.031 C 
ATOM     71  C   UNL A   1      44.948  31.057  29.236  1.00  0.00     0.031 A 
BRANCH  58  72
ATOM     72  C   UNL A   1      48.994  26.567  27.930  1.00  0.00    -0.014 A 
ATOM     73  C   UNL A   1      49.774  26.207  29.042  1.00  0.00     0.009 A 
ATOM     74  C   UNL A   1      49.574  26.517  26.654  1.00  0.00     0.009 A 
ATOM     75  C   UNL A   1      51.115  25.854  28.884  1.00  0.00     0.001 A 
ATOM     76  C   UNL A   1      50.906  26.129  26.494  1.00  0.00     0.001 A 
ATOM     77  C   UNL A   1      51.679  25.810  27.610  1.00  0.00     0.000 A 
ENDBRANCH  58  72
BRANCH  59  78
ATOM     78  C   UNL A   1      39.356  28.740  29.306  1.00  0.00    -0.014 A 
ATOM     79  C   UNL A   1      38.552  29.214  28.257  1.00  0.00     0.009 A 
ATOM     80  C   UNL A   1      38.785  28.584  30.578  1.00  0.00     0.009 A 
ATOM     81  C   UNL A   1      37.215  29.550  28.485  1.00  0.00     0.001 A 
ATOM     82  C   UNL A   1      37.440  28.890  30.796  1.00  0.00     0.001 A 
ATOM     83  C   UNL A   1      36.659  29.383  29.751  1.00  0.00     0.000 A 
ENDBRANCH  59  78
BRANCH  71  84
ATOM     84  C   UNL A   1      45.199  32.521  29.477  1.00  0.00    -0.014 A 
ATOM     85  C   UNL A   1      45.176  33.452  28.428  1.00  0.00     0.009 A 
ATOM     86  C   UNL A   1      45.448  32.975  30.782  1.00  0.00     0.009 A 
ATOM     87  C   UNL A   1      45.444  34.801  28.673  1.00  0.00     0.001 A 
ATOM     88  C   UNL A   1      45.681  34.327  31.030  1.00  0.00     0.001 A 
ATOM     89  C   UNL A   1      45.693  35.237  29.974  1.00  0.00     0.000 A 
ENDBRANCH  71  84
ENDBRANCH  45  46
ENDBRANCH  37  40
ENDBRANCH  35  36
ENDBRANCH  34  35
ENDBRANCH   1  34
TORSDOF 15
ENDMDL
MODEL 3
REMARK VINA RESULT:     -11.8      4.534      9.404
REMARK SMILES CC(=O)Nc1cc(NC(C)=O)cc(C(=O)Nc2ccc(Br)cc2C(=O)NCCCCNC(=O)c2ccc(-c3c4nc(c(-c5ccccc5)c5ccc([nH]5)c(-c5ccccc5)c5nc(c(-c6ccccc6)c6ccc3[nH]6)C=C5)C=C4)cc2)c1
REMARK SMILES IDX 28 1 27 2 26 3 24 4 25 5 23 7 17 8 18 9 19 10 22 11 20 12
REMARK SMILES IDX 21 13 16 14 14 15 15 16 13 18 5 19 6 20 82 21 7 22 12 23
REMARK SMILES IDX 4 24 1 25 2 26 3 27 8 29 9 30 10 32 11 33 29 34 30 35 31 36
REMARK SMILES IDX 32 37 33 39 34 40 35 41 81 42 36 43 80 44 37 45 38 46 39 47
REMARK SMILES IDX 74 48 40 49 79 50 73 51 75 52 41 53 78 54 72 55 71 56 42 58
REMARK SMILES IDX 64 59 49 60 63 61 50 62 53 63 62 64 76 65 51 66 52 67 61 69
REMARK SMILES IDX 77 70 54 71 43 72 44 73 48 74 45 75 47 76 46 77 65 78 66 79
REMARK SMILES IDX 70 80 67 81 69 82 68 83 55 84 56 85 60 86 57 87 59 88 58 89
REMARK H PARENT 26 6 16 17 4 28 8 31 31 38 75 57 53 68
REMARK Flexibility Score: inf
ROOT
ATOM      1  C   UNL A   1      37.703  21.386  24.910  1.00  0.00     0.023 C 
ENDROOT
BRANCH   1   2
ATOM      2  C   UNL A   1      36.450  21.461  25.766  1.00  0.00     0.116 C 
BRANCH   2   3
ATOM      3  N   UNL A   1      35.867  22.776  25.899  1.00  0.00    -0.352 N 
ATOM      4  C   UNL A   1      34.715  23.273  25.337  1.00  0.00     0.253 C 
ATOM      5  O   UNL A   1      34.382  24.425  25.618  1.00  0.00    -0.269 OA
ATOM      6  H   UNL A   1      36.363  23.404  26.473  1.00  0.00     0.163 HD
BRANCH   4   7
ATOM      7  C   UNL A   1      33.919  22.511  24.327  1.00  0.00     0.064 A 
ATOM      8  C   UNL A   1      33.382  22.998  23.116  1.00  0.00     0.054 A 
ATOM      9  C   UNL A   1      32.443  22.204  22.429  1.00  0.00     0.028 A 
ATOM     10  C   UNL A   1      32.181  20.891  22.825  1.00  0.00     0.018 A 
ATOM     11  C   UNL A   1      33.678  21.168  24.690  1.00  0.00     0.031 A 
ATOM     12  C   UNL A   1      32.836  20.363  23.928  1.00  0.00     0.018 A 
ATOM     13  Br  UNL A   1      32.592  18.547  24.384  1.00  0.00    -0.051 Br
BRANCH   8  14
ATOM     14  N   UNL A   1      33.729  24.190  22.431  1.00  0.00    -0.321 N 
ATOM     15  C   UNL A   1      33.195  25.466  22.465  1.00  0.00     0.255 C 
ATOM     16  O   UNL A   1      33.503  26.273  21.589  1.00  0.00    -0.269 OA
ATOM     17  H   UNL A   1      34.492  24.092  21.817  1.00  0.00     0.170 HD
BRANCH  15  18
ATOM     18  C   UNL A   1      32.300  25.903  23.561  1.00  0.00     0.044 A 
ATOM     19  C   UNL A   1      31.643  27.629  25.106  1.00  0.00     0.044 A 
ATOM     20  C   UNL A   1      30.890  26.674  25.805  1.00  0.00     0.052 A 
ATOM     21  C   UNL A   1      32.262  27.249  23.928  1.00  0.00     0.040 A 
ATOM     22  C   UNL A   1      30.757  25.359  25.339  1.00  0.00     0.044 A 
ATOM     23  C   UNL A   1      31.506  24.964  24.227  1.00  0.00     0.040 A 
BRANCH  19  24
ATOM     24  N   UNL A   1      31.835  28.879  25.720  1.00  0.00    -0.326 N 
ATOM     25  C   UNL A   1      33.974  28.589  26.979  1.00  0.00     0.114 C 
ATOM     26  C   UNL A   1      32.705  29.331  26.667  1.00  0.00     0.221 C 
ATOM     27  O   UNL A   1      32.456  30.392  27.245  1.00  0.00    -0.275 OA
ATOM     28  H   UNL A   1      31.212  29.572  25.399  1.00  0.00     0.169 HD
ENDBRANCH  19  24
BRANCH  22  29
ATOM     29  N   UNL A   1      29.914  24.398  25.942  1.00  0.00    -0.326 N 
ATOM     30  C   UNL A   1      30.285  23.441  26.871  1.00  0.00     0.221 C 
ATOM     31  H   UNL A   1      28.966  24.411  25.675  1.00  0.00     0.169 HD
ATOM     32  C   UNL A   1      29.136  22.587  27.349  1.00  0.00     0.114 C 
ATOM     33  O   UNL A   1      31.409  23.260  27.328  1.00  0.00    -0.275 OA
ENDBRANCH  22  29
ENDBRANCH  15  18
ENDBRANCH   8  14
ENDBRANCH   4   7
ENDBRANCH   2   3
ENDBRANCH   1   2
BRANCH   1  34
ATOM     34  C   UNL A   1      38.515  20.096  25.022  1.00  0.00     0.023 C 
BRANCH  34  35
ATOM     35  C   UNL A   1      39.467  19.977  26.209  1.00  0.00     0.116 C 
BRANCH  35  36
ATOM     36  N   UNL A   1      40.512  18.977  26.044  1.00  0.00    -0.352 N 
ATOM     37  C   UNL A   1      41.884  19.114  26.035  1.00  0.00     0.251 C 
ATOM     38  H   UNL A   1      40.187  18.057  25.918  1.00  0.00     0.163 HD
ATOM     39  O   UNL A   1      42.599  18.160  25.772  1.00  0.00    -0.269 OA
BRANCH  37  40
ATOM     40  C   UNL A   1      42.495  20.433  26.315  1.00  0.00     0.039 A 
ATOM     41  C   UNL A   1      42.928  21.217  25.243  1.00  0.00     0.014 A 
ATOM     42  C   UNL A   1      42.632  20.901  27.623  1.00  0.00     0.014 A 
ATOM     43  C   UNL A   1      43.421  22.503  25.483  1.00  0.00     0.010 A 
ATOM     44  C   UNL A   1      43.028  22.216  27.852  1.00  0.00     0.010 A 
ATOM     45  C   UNL A   1      43.434  23.031  26.785  1.00  0.00    -0.014 A 
BRANCH  45  46
ATOM     46  C   UNL A   1      43.875  24.428  27.039  1.00  0.00     0.031 A 
ATOM     47  C   UNL A   1      42.883  25.476  27.469  1.00  0.00     0.074 A 
ATOM     48  C   UNL A   1      45.164  24.770  26.838  1.00  0.00     0.049 A 
ATOM     49  N   UNL A   1      43.087  26.740  27.747  1.00  0.00    -0.248 NA
ATOM     50  C   UNL A   1      41.476  25.061  27.569  1.00  0.00     0.031 C 
ATOM     51  C   UNL A   1      46.216  23.870  26.358  1.00  0.00     0.029 A 
ATOM     52  N   UNL A   1      45.810  25.968  27.017  1.00  0.00    -0.354 N 
ATOM     53  C   UNL A   1      41.834  27.269  28.037  1.00  0.00     0.074 A 
ATOM     54  C   UNL A   1      40.872  26.208  27.838  1.00  0.00     0.031 C 
ATOM     55  C   UNL A   1      47.381  24.536  26.323  1.00  0.00     0.029 A 
ATOM     56  C   UNL A   1      47.155  25.915  26.742  1.00  0.00     0.049 A 
ATOM     57  H   UNL A   1      45.352  26.787  27.313  1.00  0.00     0.167 HD
ATOM     58  C   UNL A   1      41.514  28.516  28.457  1.00  0.00     0.031 A 
ATOM     59  C   UNL A   1      48.104  26.866  26.827  1.00  0.00     0.031 A 
ATOM     60  C   UNL A   1      42.471  29.570  28.669  1.00  0.00     0.049 A 
ATOM     61  C   UNL A   1      47.729  28.238  27.315  1.00  0.00     0.074 A 
ATOM     62  C   UNL A   1      42.254  30.845  29.159  1.00  0.00     0.029 A 
ATOM     63  N   UNL A   1      43.826  29.470  28.397  1.00  0.00    -0.354 N 
ATOM     64  N   UNL A   1      46.553  28.695  27.673  1.00  0.00    -0.248 NA
ATOM     65  C   UNL A   1      48.817  29.218  27.431  1.00  0.00     0.031 C 
ATOM     66  C   UNL A   1      43.470  31.537  29.129  1.00  0.00     0.029 A 
ATOM     67  C   UNL A   1      44.455  30.670  28.684  1.00  0.00     0.049 A 
ATOM     68  H   UNL A   1      44.275  28.665  28.051  1.00  0.00     0.167 HD
ATOM     69  C   UNL A   1      46.766  30.005  28.085  1.00  0.00     0.074 A 
ATOM     70  C   UNL A   1      48.186  30.259  27.951  1.00  0.00     0.031 C 
ATOM     71  C   UNL A   1      45.867  30.915  28.536  1.00  0.00     0.031 A 
BRANCH  58  72
ATOM     72  C   UNL A   1      40.057  28.806  28.707  1.00  0.00    -0.014 A 
ATOM     73  C   UNL A   1      39.231  29.328  27.698  1.00  0.00     0.009 A 
ATOM     74  C   UNL A   1      39.498  28.537  29.965  1.00  0.00     0.009 A 
ATOM     75  C   UNL A   1      37.891  29.619  27.957  1.00  0.00     0.001 A 
ATOM     76  C   UNL A   1      38.148  28.796  30.213  1.00  0.00     0.001 A 
ATOM     77  C   UNL A   1      37.349  29.349  29.213  1.00  0.00     0.000 A 
ENDBRANCH  58  72
BRANCH  59  78
ATOM     78  C   UNL A   1      49.512  26.545  26.473  1.00  0.00    -0.014 A 
ATOM     79  C   UNL A   1      49.970  26.691  25.154  1.00  0.00     0.009 A 
ATOM     80  C   UNL A   1      50.407  26.087  27.453  1.00  0.00     0.009 A 
ATOM     81  C   UNL A   1      51.285  26.358  24.818  1.00  0.00     0.001 A 
ATOM     82  C   UNL A   1      51.730  25.786  27.121  1.00  0.00     0.001 A 
ATOM     83  C   UNL A   1      52.165  25.912  25.802  1.00  0.00     0.000 A 
ENDBRANCH  59  78
BRANCH  71  84
ATOM     84  C   UNL A   1      46.402  32.259  28.950  1.00  0.00    -0.014 A 
ATOM     85  C   UNL A   1      46.482  33.328  28.045  1.00  0.00     0.009 A 
ATOM     86  C   UNL A   1      46.815  32.460  30.277  1.00  0.00     0.009 A 
ATOM     87  C   UNL A   1      47.012  34.557  28.447  1.00  0.00     0.001 A 
ATOM     88  C   UNL A   1      47.311  33.699  30.684  1.00  0.00     0.001 A 
ATOM     89  C   UNL A   1      47.422  34.741  29.766  1.00  0.00     0.000 A 
ENDBRANCH  71  84
ENDBRANCH  45  46
ENDBRANCH  37  40
ENDBRANCH  35  36
ENDBRANCH  34  35
ENDBRANCH   1  34
TORSDOF 15
ENDMDL
