MODEL 1
REMARK VINA RESULT:     -13.8      0.000      0.000
REMARK SMILES O=C(NCCCCNC(=O)c1ccc(N2C(=O)[C@@H]3N=NC(c4ccccc4)=C3[C@H]2c2cccc(Br)c2)cc1)c1ccc(-c2c3nc(c(-c4ccccc4)c4ccc([nH]4)c(-c4ccccc4)c4nc(c(-c5ccccc5)c5ccc2[nH]5)C=C4)C=C3)cc1
REMARK SMILES IDX 5 1 4 2 3 3 1 4 2 5 39 7 40 8 86 9 41 10 85 11 42 12 43 13
REMARK SMILES IDX 44 14 79 15 45 16 84 17 78 18 80 19 46 20 83 21 77 22 76 23
REMARK SMILES IDX 47 25 69 26 54 27 68 28 55 29 58 30 67 31 81 32 56 33 57 34
REMARK SMILES IDX 66 36 82 37 59 38 48 39 49 40 53 41 50 42 52 43 51 44 70 45
REMARK SMILES IDX 71 46 75 47 72 48 74 49 73 50 60 51 61 52 65 53 62 54 64 55
REMARK SMILES IDX 63 56 6 57 7 58 8 59 9 60 10 62 11 63 12 64 38 65 13 66
REMARK SMILES IDX 37 67 14 68 15 69 16 70 29 71 18 72 17 73 28 74 19 75 21 76
REMARK SMILES IDX 20 77 30 78 31 79 36 80 32 81 34 82 33 83 35 84 22 85 23 86
REMARK SMILES IDX 27 87 24 88 26 89 25 90
REMARK H PARENT 3 6 80 24 58 35 8 61
REMARK Flexibility Score: inf
ROOT
ATOM      1  C   UNL A   1      37.108  21.657  24.514  1.00  0.00     0.023 C 
ENDROOT
BRANCH   1   2
ATOM      2  C   UNL A   1      37.755  22.478  25.629  1.00  0.00     0.116 C 
BRANCH   2   3
ATOM      3  N   UNL A   1      39.140  22.149  25.893  1.00  0.00    -0.352 N 
ATOM      4  O   UNL A   1      41.129  21.977  26.830  1.00  0.00    -0.269 OA
ATOM      5  C   UNL A   1      40.122  22.675  26.687  1.00  0.00     0.251 C 
ATOM      6  H   UNL A   1      39.447  21.365  25.382  1.00  0.00     0.163 HD
BRANCH   5   7
ATOM      7  C   UNL A   1      40.099  24.024  27.315  1.00  0.00     0.039 A 
ATOM      8  C   UNL A   1      39.099  24.985  27.164  1.00  0.00     0.014 A 
ATOM      9  C   UNL A   1      41.240  24.358  28.071  1.00  0.00     0.014 A 
ATOM     10  C   UNL A   1      39.277  26.273  27.667  1.00  0.00     0.010 A 
ATOM     11  C   UNL A   1      41.422  25.637  28.581  1.00  0.00     0.010 A 
ATOM     12  C   UNL A   1      40.455  26.607  28.339  1.00  0.00    -0.014 A 
BRANCH  12  13
ATOM     13  C   UNL A   1      40.583  27.948  28.905  1.00  0.00     0.031 A 
ATOM     14  C   UNL A   1      41.717  28.749  28.356  1.00  0.00     0.074 A 
ATOM     15  C   UNL A   1      39.665  28.491  29.730  1.00  0.00     0.049 A 
ATOM     16  N   UNL A   1      42.695  29.300  28.997  1.00  0.00    -0.248 NA
ATOM     17  C   UNL A   1      41.820  28.869  26.891  1.00  0.00     0.031 C 
ATOM     18  C   UNL A   1      38.365  27.933  30.117  1.00  0.00     0.029 A 
ATOM     19  N   UNL A   1      39.648  29.728  30.306  1.00  0.00    -0.354 N 
ATOM     20  C   UNL A   1      43.449  29.982  28.042  1.00  0.00     0.074 A 
ATOM     21  C   UNL A   1      42.941  29.576  26.757  1.00  0.00     0.031 C 
ATOM     22  C   UNL A   1      37.600  28.914  30.650  1.00  0.00     0.029 A 
ATOM     23  C   UNL A   1      38.397  30.125  30.764  1.00  0.00     0.049 A 
ATOM     24  H   UNL A   1      40.453  30.290  30.391  1.00  0.00     0.167 HD
ATOM     25  C   UNL A   1      44.286  31.002  28.379  1.00  0.00     0.031 A 
ATOM     26  C   UNL A   1      38.021  31.373  31.142  1.00  0.00     0.031 A 
ATOM     27  C   UNL A   1      44.635  30.972  29.773  1.00  0.00     0.049 A 
ATOM     28  C   UNL A   1      39.248  32.151  31.419  1.00  0.00     0.074 A 
ATOM     29  C   UNL A   1      45.277  30.075  30.603  1.00  0.00     0.029 A 
ATOM     30  N   UNL A   1      43.991  31.855  30.604  1.00  0.00    -0.354 N 
ATOM     31  N   UNL A   1      40.036  31.917  32.427  1.00  0.00    -0.248 NA
ATOM     32  C   UNL A   1      39.833  32.915  30.329  1.00  0.00     0.031 C 
ATOM     33  C   UNL A   1      44.583  30.168  31.846  1.00  0.00     0.029 A 
ATOM     34  C   UNL A   1      43.605  31.156  31.716  1.00  0.00     0.049 A 
ATOM     35  H   UNL A   1      43.835  32.812  30.432  1.00  0.00     0.167 HD
ATOM     36  C   UNL A   1      41.314  32.095  31.918  1.00  0.00     0.074 A 
ATOM     37  C   UNL A   1      41.124  32.806  30.654  1.00  0.00     0.031 C 
ATOM     38  C   UNL A   1      42.375  31.405  32.428  1.00  0.00     0.031 A 
BRANCH  25  39
ATOM     39  C   UNL A   1      44.419  32.264  27.553  1.00  0.00    -0.014 A 
ATOM     40  C   UNL A   1      43.837  33.450  28.041  1.00  0.00     0.009 A 
ATOM     41  C   UNL A   1      44.800  32.265  26.198  1.00  0.00     0.009 A 
ATOM     42  C   UNL A   1      43.543  34.524  27.192  1.00  0.00     0.001 A 
ATOM     43  C   UNL A   1      44.548  33.351  25.357  1.00  0.00     0.001 A 
ATOM     44  C   UNL A   1      43.884  34.466  25.846  1.00  0.00     0.000 A 
ENDBRANCH  25  39
BRANCH  26  45
ATOM     45  C   UNL A   1      36.703  32.030  30.994  1.00  0.00    -0.014 A 
ATOM     46  C   UNL A   1      35.733  31.946  32.006  1.00  0.00     0.009 A 
ATOM     47  C   UNL A   1      36.501  32.977  29.974  1.00  0.00     0.009 A 
ATOM     48  C   UNL A   1      34.622  32.802  32.013  1.00  0.00     0.001 A 
ATOM     49  C   UNL A   1      35.392  33.831  29.980  1.00  0.00     0.001 A 
ATOM     50  C   UNL A   1      34.460  33.752  31.008  1.00  0.00     0.000 A 
ENDBRANCH  26  45
BRANCH  38  51
ATOM     51  C   UNL A   1      42.166  30.621  33.699  1.00  0.00    -0.014 A 
ATOM     52  C   UNL A   1      41.681  29.301  33.715  1.00  0.00     0.009 A 
ATOM     53  C   UNL A   1      42.619  31.179  34.903  1.00  0.00     0.009 A 
ATOM     54  C   UNL A   1      41.621  28.575  34.910  1.00  0.00     0.001 A 
ATOM     55  C   UNL A   1      42.581  30.447  36.091  1.00  0.00     0.001 A 
ATOM     56  C   UNL A   1      42.077  29.148  36.096  1.00  0.00     0.000 A 
ENDBRANCH  38  51
ENDBRANCH  12  13
ENDBRANCH   5   7
ENDBRANCH   2   3
ENDBRANCH   1   2
BRANCH   1  57
ATOM     57  C   UNL A   1      36.455  20.338  24.946  1.00  0.00     0.023 C 
BRANCH  57  58
ATOM     58  C   UNL A   1      34.927  20.288  24.906  1.00  0.00     0.116 C 
BRANCH  58  59
ATOM     59  N   UNL A   1      34.319  20.460  26.212  1.00  0.00    -0.352 N 
ATOM     60  C   UNL A   1      33.598  21.521  26.712  1.00  0.00     0.251 C 
ATOM     61  H   UNL A   1      34.438  19.705  26.833  1.00  0.00     0.163 HD
ATOM     62  O   UNL A   1      33.257  21.529  27.883  1.00  0.00    -0.269 OA
BRANCH  60  63
ATOM     63  C   UNL A   1      33.275  22.686  25.848  1.00  0.00     0.039 A 
ATOM     64  C   UNL A   1      32.097  22.628  25.107  1.00  0.00     0.016 A 
ATOM     65  C   UNL A   1      34.114  23.803  25.731  1.00  0.00     0.016 A 
ATOM     66  C   UNL A   1      31.719  23.720  24.322  1.00  0.00     0.027 A 
ATOM     67  C   UNL A   1      33.737  24.900  24.928  1.00  0.00     0.027 A 
ATOM     68  C   UNL A   1      32.522  24.877  24.243  1.00  0.00     0.045 A 
BRANCH  68  69
ATOM     69  N   UNL A   1      32.024  26.036  23.560  1.00  0.00    -0.299 N 
ATOM     70  C   UNL A   1      32.819  26.467  22.442  1.00  0.00     0.259 C 
ATOM     71  C   UNL A   1      31.541  27.206  24.337  1.00  0.00     0.152 C 
ATOM     72  C   UNL A   1      32.905  27.962  22.479  1.00  0.00     0.248 C 
ATOM     73  O   UNL A   1      33.382  25.744  21.630  1.00  0.00    -0.271 OA
ATOM     74  C   UNL A   1      32.599  28.145  23.915  1.00  0.00     0.021 C 
ATOM     75  N   UNL A   1      34.250  28.546  22.384  1.00  0.00    -0.170 NA
ATOM     76  C   UNL A   1      33.542  28.937  24.410  1.00  0.00     0.097 C 
ATOM     77  N   UNL A   1      34.497  29.197  23.446  1.00  0.00    -0.154 NA
BRANCH  71  78
ATOM     78  C   UNL A   1      30.154  27.768  23.949  1.00  0.00    -0.020 A 
ATOM     79  C   UNL A   1      29.010  26.927  23.878  1.00  0.00     0.006 A 
ATOM     80  C   UNL A   1      29.983  29.096  23.528  1.00  0.00     0.022 A 
ATOM     81  C   UNL A   1      27.770  27.371  23.418  1.00  0.00     0.002 A 
ATOM     82  C   UNL A   1      28.736  29.532  23.040  1.00  0.00     0.018 A 
ATOM     83  C   UNL A   1      27.634  28.679  22.983  1.00  0.00     0.016 A 
ATOM     84  Br  UNL A   1      28.538  31.301  22.396  1.00  0.00    -0.051 Br
ENDBRANCH  71  78
BRANCH  76  85
ATOM     85  C   UNL A   1      33.778  29.365  25.784  1.00  0.00     0.002 A 
ATOM     86  C   UNL A   1      33.062  30.441  26.326  1.00  0.00     0.010 A 
ATOM     87  C   UNL A   1      34.874  28.847  26.484  1.00  0.00     0.010 A 
ATOM     88  C   UNL A   1      33.500  31.050  27.507  1.00  0.00     0.001 A 
ATOM     89  C   UNL A   1      35.307  29.455  27.662  1.00  0.00     0.001 A 
ATOM     90  C   UNL A   1      34.638  30.573  28.158  1.00  0.00     0.000 A 
ENDBRANCH  76  85
ENDBRANCH  68  69
ENDBRANCH  60  63
ENDBRANCH  58  59
ENDBRANCH  57  58
ENDBRANCH   1  57
TORSDOF 14
ENDMDL
MODEL 2
REMARK VINA RESULT:     -13.2      3.276      8.529
REMARK SMILES O=C(NCCCCNC(=O)c1ccc(N2C(=O)[C@@H]3N=NC(c4ccccc4)=C3[C@H]2c2cccc(Br)c2)cc1)c1ccc(-c2c3nc(c(-c4ccccc4)c4ccc([nH]4)c(-c4ccccc4)c4nc(c(-c5ccccc5)c5ccc2[nH]5)C=C4)C=C3)cc1
REMARK SMILES IDX 5 1 4 2 3 3 1 4 2 5 39 7 40 8 86 9 41 10 85 11 42 12 43 13
REMARK SMILES IDX 44 14 79 15 45 16 84 17 78 18 80 19 46 20 83 21 77 22 76 23
REMARK SMILES IDX 47 25 69 26 54 27 68 28 55 29 58 30 67 31 81 32 56 33 57 34
REMARK SMILES IDX 66 36 82 37 59 38 48 39 49 40 53 41 50 42 52 43 51 44 70 45
REMARK SMILES IDX 71 46 75 47 72 48 74 49 73 50 60 51 61 52 65 53 62 54 64 55
REMARK SMILES IDX 63 56 6 57 7 58 8 59 9 60 10 62 11 63 12 64 38 65 13 66
REMARK SMILES IDX 37 67 14 68 15 69 16 70 29 71 18 72 17 73 28 74 19 75 21 76
REMARK SMILES IDX 20 77 30 78 31 79 36 80 32 81 34 82 33 83 35 84 22 85 23 86
REMARK SMILES IDX 27 87 24 88 26 89 25 90
REMARK H PARENT 3 6 80 24 58 35 8 61
REMARK Flexibility Score: inf
ROOT
ATOM      1  C   UNL A   1      32.721  29.877  26.705  1.00  0.00     0.023 C 
ENDROOT
BRANCH   1   2
ATOM      2  C   UNL A   1      34.205  29.935  27.067  1.00  0.00     0.116 C 
BRANCH   2   3
ATOM      3  N   UNL A   1      34.672  31.238  27.492  1.00  0.00    -0.352 N 
ATOM      4  O   UNL A   1      35.947  32.966  27.990  1.00  0.00    -0.269 OA
ATOM      5  C   UNL A   1      35.863  31.736  27.942  1.00  0.00     0.251 C 
ATOM      6  H   UNL A   1      33.967  31.925  27.449  1.00  0.00     0.163 HD
BRANCH   5   7
ATOM      7  C   UNL A   1      37.010  30.927  28.436  1.00  0.00     0.039 A 
ATOM      8  C   UNL A   1      38.154  31.421  29.066  1.00  0.00     0.014 A 
ATOM      9  C   UNL A   1      36.936  29.546  28.168  1.00  0.00     0.014 A 
ATOM     10  C   UNL A   1      39.232  30.578  29.328  1.00  0.00     0.010 A 
ATOM     11  C   UNL A   1      38.004  28.699  28.433  1.00  0.00     0.010 A 
ATOM     12  C   UNL A   1      39.171  29.228  28.974  1.00  0.00    -0.014 A 
BRANCH  12  13
ATOM     13  C   UNL A   1      40.296  28.362  29.319  1.00  0.00     0.031 A 
ATOM     14  C   UNL A   1      40.652  28.354  30.769  1.00  0.00     0.074 A 
ATOM     15  C   UNL A   1      40.866  27.509  28.443  1.00  0.00     0.049 A 
ATOM     16  N   UNL A   1      41.789  28.632  31.318  1.00  0.00    -0.248 NA
ATOM     17  C   UNL A   1      39.571  28.090  31.734  1.00  0.00     0.031 C 
ATOM     18  C   UNL A   1      40.431  27.202  27.077  1.00  0.00     0.029 A 
ATOM     19  N   UNL A   1      41.896  26.636  28.638  1.00  0.00    -0.354 N 
ATOM     20  C   UNL A   1      41.622  28.417  32.685  1.00  0.00     0.074 A 
ATOM     21  C   UNL A   1      40.212  28.213  32.896  1.00  0.00     0.031 C 
ATOM     22  C   UNL A   1      41.027  26.058  26.666  1.00  0.00     0.029 A 
ATOM     23  C   UNL A   1      41.979  25.632  27.679  1.00  0.00     0.049 A 
ATOM     24  H   UNL A   1      42.527  26.710  29.391  1.00  0.00     0.167 HD
ATOM     25  C   UNL A   1      42.679  28.198  33.515  1.00  0.00     0.031 A 
ATOM     26  C   UNL A   1      42.721  24.497  27.742  1.00  0.00     0.031 A 
ATOM     27  C   UNL A   1      43.916  28.657  32.942  1.00  0.00     0.049 A 
ATOM     28  C   UNL A   1      43.764  24.695  28.772  1.00  0.00     0.074 A 
ATOM     29  C   UNL A   1      44.406  29.877  32.521  1.00  0.00     0.029 A 
ATOM     30  N   UNL A   1      44.751  27.712  32.401  1.00  0.00    -0.354 N 
ATOM     31  N   UNL A   1      44.760  25.521  28.637  1.00  0.00    -0.248 NA
ATOM     32  C   UNL A   1      43.463  24.292  30.136  1.00  0.00     0.031 C 
ATOM     33  C   UNL A   1      45.186  29.576  31.365  1.00  0.00     0.029 A 
ATOM     34  C   UNL A   1      45.174  28.191  31.191  1.00  0.00     0.049 A 
ATOM     35  H   UNL A   1      44.999  26.850  32.807  1.00  0.00     0.167 HD
ATOM     36  C   UNL A   1      44.913  26.089  29.893  1.00  0.00     0.074 A 
ATOM     37  C   UNL A   1      44.158  25.222  30.797  1.00  0.00     0.031 C 
ATOM     38  C   UNL A   1      45.400  27.356  30.036  1.00  0.00     0.031 A 
BRANCH  25  39
ATOM     39  C   UNL A   1      42.652  27.174  34.630  1.00  0.00    -0.014 A 
ATOM     40  C   UNL A   1      43.006  25.844  34.328  1.00  0.00     0.009 A 
ATOM     41  C   UNL A   1      41.999  27.385  35.859  1.00  0.00     0.009 A 
ATOM     42  C   UNL A   1      42.617  24.780  35.151  1.00  0.00     0.001 A 
ATOM     43  C   UNL A   1      41.647  26.330  36.703  1.00  0.00     0.001 A 
ATOM     44  C   UNL A   1      41.922  25.023  36.330  1.00  0.00     0.000 A 
ENDBRANCH  25  39
BRANCH  26  45
ATOM     45  C   UNL A   1      42.414  23.155  27.199  1.00  0.00    -0.014 A 
ATOM     46  C   UNL A   1      43.090  22.656  26.074  1.00  0.00     0.009 A 
ATOM     47  C   UNL A   1      41.649  22.249  27.955  1.00  0.00     0.009 A 
ATOM     48  C   UNL A   1      43.030  21.294  25.742  1.00  0.00     0.001 A 
ATOM     49  C   UNL A   1      41.587  20.892  27.623  1.00  0.00     0.001 A 
ATOM     50  C   UNL A   1      42.291  20.412  26.524  1.00  0.00     0.000 A 
ENDBRANCH  26  45
BRANCH  38  51
ATOM     51  C   UNL A   1      45.978  28.035  28.820  1.00  0.00    -0.014 A 
ATOM     52  C   UNL A   1      45.191  28.729  27.884  1.00  0.00     0.009 A 
ATOM     53  C   UNL A   1      47.373  28.106  28.702  1.00  0.00     0.009 A 
ATOM     54  C   UNL A   1      45.788  29.446  26.840  1.00  0.00     0.001 A 
ATOM     55  C   UNL A   1      47.969  28.840  27.675  1.00  0.00     0.001 A 
ATOM     56  C   UNL A   1      47.177  29.504  26.741  1.00  0.00     0.000 A 
ENDBRANCH  38  51
ENDBRANCH  12  13
ENDBRANCH   5   7
ENDBRANCH   2   3
ENDBRANCH   1   2
BRANCH   1  57
ATOM     57  C   UNL A   1      32.275  28.648  25.905  1.00  0.00     0.023 C 
BRANCH  57  58
ATOM     58  C   UNL A   1      32.975  28.413  24.565  1.00  0.00     0.116 C 
BRANCH  58  59
ATOM     59  N   UNL A   1      32.082  28.533  23.428  1.00  0.00    -0.352 N 
ATOM     60  C   UNL A   1      31.456  27.549  22.696  1.00  0.00     0.251 C 
ATOM     61  H   UNL A   1      31.895  29.455  23.137  1.00  0.00     0.163 HD
ATOM     62  O   UNL A   1      30.823  27.843  21.696  1.00  0.00    -0.269 OA
BRANCH  60  63
ATOM     63  C   UNL A   1      31.589  26.122  23.085  1.00  0.00     0.039 A 
ATOM     64  C   UNL A   1      32.873  25.640  23.330  1.00  0.00     0.016 A 
ATOM     65  C   UNL A   1      30.492  25.253  23.182  1.00  0.00     0.016 A 
ATOM     66  C   UNL A   1      33.047  24.320  23.753  1.00  0.00     0.027 A 
ATOM     67  C   UNL A   1      30.672  23.917  23.596  1.00  0.00     0.027 A 
ATOM     68  C   UNL A   1      31.947  23.451  23.915  1.00  0.00     0.045 A 
BRANCH  68  69
ATOM     69  N   UNL A   1      32.150  22.159  24.505  1.00  0.00    -0.299 N 
ATOM     70  C   UNL A   1      31.724  22.047  25.873  1.00  0.00     0.259 C 
ATOM     71  C   UNL A   1      33.433  21.441  24.297  1.00  0.00     0.152 C 
ATOM     72  C   UNL A   1      32.759  21.263  26.621  1.00  0.00     0.248 C 
ATOM     73  O   UNL A   1      30.723  22.552  26.366  1.00  0.00    -0.271 OA
ATOM     74  C   UNL A   1      33.892  21.496  25.700  1.00  0.00     0.021 C 
ATOM     75  N   UNL A   1      33.261  21.856  27.868  1.00  0.00    -0.170 NA
ATOM     76  C   UNL A   1      34.911  21.911  26.443  1.00  0.00     0.097 C 
ATOM     77  N   UNL A   1      34.507  22.072  27.755  1.00  0.00    -0.154 NA
BRANCH  71  78
ATOM     78  C   UNL A   1      33.335  19.970  23.835  1.00  0.00    -0.020 A 
ATOM     79  C   UNL A   1      32.394  19.568  22.847  1.00  0.00     0.006 A 
ATOM     80  C   UNL A   1      34.070  18.947  24.452  1.00  0.00     0.022 A 
ATOM     81  C   UNL A   1      32.194  18.234  22.489  1.00  0.00     0.002 A 
ATOM     82  C   UNL A   1      33.846  17.600  24.106  1.00  0.00     0.018 A 
ATOM     83  C   UNL A   1      32.914  17.242  23.132  1.00  0.00     0.016 A 
ATOM     84  Br  UNL A   1      34.783  16.223  25.005  1.00  0.00    -0.051 Br
ENDBRANCH  71  78
BRANCH  76  85
ATOM     85  C   UNL A   1      36.236  22.369  26.042  1.00  0.00     0.002 A 
ATOM     86  C   UNL A   1      37.243  21.445  25.729  1.00  0.00     0.010 A 
ATOM     87  C   UNL A   1      36.566  23.722  26.186  1.00  0.00     0.010 A 
ATOM     88  C   UNL A   1      38.576  21.861  25.658  1.00  0.00     0.001 A 
ATOM     89  C   UNL A   1      37.896  24.133  26.113  1.00  0.00     0.001 A 
ATOM     90  C   UNL A   1      38.904  23.199  25.878  1.00  0.00     0.000 A 
ENDBRANCH  76  85
ENDBRANCH  68  69
ENDBRANCH  60  63
ENDBRANCH  58  59
ENDBRANCH  57  58
ENDBRANCH   1  57
TORSDOF 14
ENDMDL
MODEL 3
REMARK VINA RESULT:     -12.5      3.477      8.407
REMARK SMILES O=C(NCCCCNC(=O)c1ccc(N2C(=O)[C@@H]3N=NC(c4ccccc4)=C3[C@H]2c2cccc(Br)c2)cc1)c1ccc(-c2c3nc(c(-c4ccccc4)c4ccc([nH]4)c(-c4ccccc4)c4nc(c(-c5ccccc5)c5ccc2[nH]5)C=C4)C=C3)cc1
REMARK SMILES IDX 5 1 4 2 3 3 1 4 2 5 39 7 40 8 86 9 41 10 85 11 42 12 43 13
REMARK SMILES IDX 44 14 79 15 45 16 84 17 78 18 80 19 46 20 83 21 77 22 76 23
REMARK SMILES IDX 47 25 69 26 54 27 68 28 55 29 58 30 67 31 81 32 56 33 57 34
REMARK SMILES IDX 66 36 82 37 59 38 48 39 49 40 53 41 50 42 52 43 51 44 70 45
REMARK SMILES IDX 71 46 75 47 72 48 74 49 73 50 60 51 61 52 65 53 62 54 64 55
REMARK SMILES IDX 63 56 6 57 7 58 8 59 9 60 10 62 11 63 12 64 38 65 13 66
REMARK SMILES IDX 37 67 14 68 15 69 16 70 29 71 18 72 17 73 28 74 19 75 21 76
REMARK SMILES IDX 20 77 30 78 31 79 36 80 32 81 34 82 33 83 35 84 22 85 23 86
REMARK SMILES IDX 27 87 24 88 26 89 25 90
REMARK H PARENT 3 6 80 24 58 35 8 61
REMARK Flexibility Score: inf
ROOT
ATOM      1  C   UNL A   1      36.857  32.894  32.375  1.00  0.00     0.023 C 
ENDROOT
BRANCH   1   2
ATOM      2  C   UNL A   1      37.498  33.770  31.300  1.00  0.00     0.116 C 
BRANCH   2   3
ATOM      3  N   UNL A   1      38.830  34.240  31.621  1.00  0.00    -0.352 N 
ATOM      4  O   UNL A   1      41.011  34.563  31.630  1.00  0.00    -0.269 OA
ATOM      5  C   UNL A   1      40.096  33.763  31.419  1.00  0.00     0.251 C 
ATOM      6  H   UNL A   1      38.823  35.103  32.095  1.00  0.00     0.163 HD
BRANCH   5   7
ATOM      7  C   UNL A   1      40.446  32.365  31.047  1.00  0.00     0.039 A 
ATOM      8  C   UNL A   1      39.749  31.215  31.419  1.00  0.00     0.014 A 
ATOM      9  C   UNL A   1      41.636  32.218  30.306  1.00  0.00     0.014 A 
ATOM     10  C   UNL A   1      40.276  29.954  31.147  1.00  0.00     0.010 A 
ATOM     11  C   UNL A   1      42.163  30.964  30.025  1.00  0.00     0.010 A 
ATOM     12  C   UNL A   1      41.501  29.831  30.488  1.00  0.00    -0.014 A 
BRANCH  12  13
ATOM     13  C   UNL A   1      41.993  28.494  30.167  1.00  0.00     0.031 A 
ATOM     14  C   UNL A   1      42.834  27.869  31.231  1.00  0.00     0.074 A 
ATOM     15  C   UNL A   1      41.596  27.802  29.079  1.00  0.00     0.049 A 
ATOM     16  N   UNL A   1      44.042  27.419  31.139  1.00  0.00    -0.248 NA
ATOM     17  C   UNL A   1      42.282  27.828  32.597  1.00  0.00     0.031 C 
ATOM     18  C   UNL A   1      40.560  28.173  28.110  1.00  0.00     0.029 A 
ATOM     19  N   UNL A   1      41.955  26.549  28.676  1.00  0.00    -0.354 N 
ATOM     20  C   UNL A   1      44.351  26.881  32.389  1.00  0.00     0.074 A 
ATOM     21  C   UNL A   1      43.287  27.275  33.276  1.00  0.00     0.031 C 
ATOM     22  C   UNL A   1      40.209  27.080  27.393  1.00  0.00     0.029 A 
ATOM     23  C   UNL A   1      41.083  25.977  27.757  1.00  0.00     0.049 A 
ATOM     24  H   UNL A   1      42.761  26.091  29.007  1.00  0.00     0.167 HD
ATOM     25  C   UNL A   1      45.342  25.961  32.553  1.00  0.00     0.031 A 
ATOM     26  C   UNL A   1      41.034  24.675  27.375  1.00  0.00     0.031 A 
ATOM     27  C   UNL A   1      46.272  25.973  31.456  1.00  0.00     0.049 A 
ATOM     28  C   UNL A   1      42.323  24.047  27.739  1.00  0.00     0.074 A 
ATOM     29  C   UNL A   1      47.129  26.907  30.909  1.00  0.00     0.029 A 
ATOM     30  N   UNL A   1      46.152  24.980  30.517  1.00  0.00    -0.354 N 
ATOM     31  N   UNL A   1      43.452  24.335  27.161  1.00  0.00    -0.248 NA
ATOM     32  C   UNL A   1      42.430  23.414  29.043  1.00  0.00     0.031 C 
ATOM     33  C   UNL A   1      47.075  26.671  29.503  1.00  0.00     0.029 A 
ATOM     34  C   UNL A   1      46.240  25.574  29.287  1.00  0.00     0.049 A 
ATOM     35  H   UNL A   1      46.027  24.019  30.694  1.00  0.00     0.167 HD
ATOM     36  C   UNL A   1      44.379  24.344  28.192  1.00  0.00     0.074 A 
ATOM     37  C   UNL A   1      43.713  23.671  29.308  1.00  0.00     0.031 C 
ATOM     38  C   UNL A   1      45.487  25.140  28.135  1.00  0.00     0.031 A 
BRANCH  25  39
ATOM     39  C   UNL A   1      45.210  24.765  33.471  1.00  0.00    -0.014 A 
ATOM     40  C   UNL A   1      44.261  23.775  33.150  1.00  0.00     0.009 A 
ATOM     41  C   UNL A   1      45.738  24.729  34.775  1.00  0.00     0.009 A 
ATOM     42  C   UNL A   1      43.780  22.883  34.117  1.00  0.00     0.001 A 
ATOM     43  C   UNL A   1      45.291  23.813  35.731  1.00  0.00     0.001 A 
ATOM     44  C   UNL A   1      44.284  22.915  35.412  1.00  0.00     0.000 A 
ENDBRANCH  25  39
BRANCH  26  45
ATOM     45  C   UNL A   1      39.858  23.863  26.993  1.00  0.00    -0.014 A 
ATOM     46  C   UNL A   1      38.620  24.465  26.712  1.00  0.00     0.009 A 
ATOM     47  C   UNL A   1      40.023  22.513  26.632  1.00  0.00     0.009 A 
ATOM     48  C   UNL A   1      37.602  23.751  26.063  1.00  0.00     0.001 A 
ATOM     49  C   UNL A   1      39.007  21.801  25.986  1.00  0.00     0.001 A 
ATOM     50  C   UNL A   1      37.801  22.425  25.688  1.00  0.00     0.000 A 
ENDBRANCH  26  45
BRANCH  38  51
ATOM     51  C   UNL A   1      45.794  25.833  26.832  1.00  0.00    -0.014 A 
ATOM     52  C   UNL A   1      45.201  27.052  26.454  1.00  0.00     0.009 A 
ATOM     53  C   UNL A   1      46.827  25.319  26.036  1.00  0.00     0.009 A 
ATOM     54  C   UNL A   1      45.612  27.716  25.292  1.00  0.00     0.001 A 
ATOM     55  C   UNL A   1      47.251  25.993  24.890  1.00  0.00     0.001 A 
ATOM     56  C   UNL A   1      46.640  27.188  24.515  1.00  0.00     0.000 A 
ENDBRANCH  38  51
ENDBRANCH  12  13
ENDBRANCH   5   7
ENDBRANCH   2   3
ENDBRANCH   1   2
BRANCH   1  57
ATOM     57  C   UNL A   1      35.973  31.749  31.866  1.00  0.00     0.023 C 
BRANCH  57  58
ATOM     58  C   UNL A   1      35.650  31.749  30.371  1.00  0.00     0.116 C 
BRANCH  58  59
ATOM     59  N   UNL A   1      36.763  31.313  29.549  1.00  0.00    -0.352 N 
ATOM     60  C   UNL A   1      36.760  30.572  28.388  1.00  0.00     0.251 C 
ATOM     61  H   UNL A   1      37.653  31.588  29.868  1.00  0.00     0.163 HD
ATOM     62  O   UNL A   1      37.815  30.208  27.894  1.00  0.00    -0.269 OA
BRANCH  60  63
ATOM     63  C   UNL A   1      35.478  30.167  27.756  1.00  0.00     0.039 A 
ATOM     64  C   UNL A   1      35.349  28.837  27.364  1.00  0.00     0.016 A 
ATOM     65  C   UNL A   1      34.429  31.066  27.518  1.00  0.00     0.016 A 
ATOM     66  C   UNL A   1      34.143  28.392  26.816  1.00  0.00     0.027 A 
ATOM     67  C   UNL A   1      33.217  30.617  26.953  1.00  0.00     0.027 A 
ATOM     68  C   UNL A   1      33.056  29.271  26.627  1.00  0.00     0.045 A 
BRANCH  68  69
ATOM     69  N   UNL A   1      31.786  28.744  26.216  1.00  0.00    -0.299 N 
ATOM     70  C   UNL A   1      31.152  27.880  27.175  1.00  0.00     0.259 C 
ATOM     71  C   UNL A   1      31.613  28.211  24.841  1.00  0.00     0.152 C 
ATOM     72  C   UNL A   1      30.563  26.717  26.437  1.00  0.00     0.248 C 
ATOM     73  O   UNL A   1      31.141  28.028  28.391  1.00  0.00    -0.271 OA
ATOM     74  C   UNL A   1      31.405  26.801  25.224  1.00  0.00     0.021 C 
ATOM     75  N   UNL A   1      30.899  25.378  26.943  1.00  0.00    -0.170 NA
ATOM     76  C   UNL A   1      31.893  25.584  25.012  1.00  0.00     0.097 C 
ATOM     77  N   UNL A   1      31.529  24.740  26.044  1.00  0.00    -0.154 NA
BRANCH  71  78
ATOM     78  C   UNL A   1      30.390  28.726  24.050  1.00  0.00    -0.020 A 
ATOM     79  C   UNL A   1      29.573  27.840  23.295  1.00  0.00     0.006 A 
ATOM     80  C   UNL A   1      30.103  30.095  23.932  1.00  0.00     0.022 A 
ATOM     81  C   UNL A   1      28.534  28.279  22.474  1.00  0.00     0.002 A 
ATOM     82  C   UNL A   1      29.070  30.535  23.082  1.00  0.00     0.018 A 
ATOM     83  C   UNL A   1      28.289  29.637  22.355  1.00  0.00     0.016 A 
ATOM     84  Br  UNL A   1      28.747  32.388  22.867  1.00  0.00    -0.051 Br
ENDBRANCH  71  78
BRANCH  76  85
ATOM     85  C   UNL A   1      32.850  25.121  24.013  1.00  0.00     0.002 A 
ATOM     86  C   UNL A   1      32.433  24.843  22.705  1.00  0.00     0.010 A 
ATOM     87  C   UNL A   1      34.135  24.743  24.420  1.00  0.00     0.010 A 
ATOM     88  C   UNL A   1      33.259  24.109  21.848  1.00  0.00     0.001 A 
ATOM     89  C   UNL A   1      34.957  24.012  23.562  1.00  0.00     0.001 A 
ATOM     90  C   UNL A   1      34.508  23.670  22.287  1.00  0.00     0.000 A 
ENDBRANCH  76  85
ENDBRANCH  68  69
ENDBRANCH  60  63
ENDBRANCH  58  59
ENDBRANCH  57  58
ENDBRANCH   1  57
TORSDOF 14
ENDMDL
