MODEL 1
REMARK VINA RESULT:     -10.9      0.000      0.000
REMARK SMILES C[C@@H]1SCCC[C@H]1[N@H+]1CCC[C@H](CCC(=O)NCCCCNC(=O)c2ccc(-c3c4nc(c(-c5ccccc5)c5ccc([nH]5)c(-c5ccccc5)c5nc(c(-c6ccccc6)c6ccc3[nH]6)C=C5)C=C4)cc2)C1
REMARK SMILES IDX 19 1 18 2 17 3 15 4 16 5 14 7 13 8 12 9 8 10 9 11 73 12
REMARK SMILES IDX 10 14 11 15 7 16 1 17 2 18 3 19 4 20 6 21 5 22 20 23 21 24
REMARK SMILES IDX 22 25 23 26 24 28 25 29 26 30 72 31 27 32 71 33 28 34 29 35
REMARK SMILES IDX 30 36 65 37 31 38 70 39 64 40 66 41 32 42 69 43 63 44 62 45
REMARK SMILES IDX 33 47 55 48 40 49 54 50 41 51 44 52 53 53 67 54 42 55 43 56
REMARK SMILES IDX 52 58 68 59 45 60 34 61 35 62 39 63 36 64 38 65 37 66 56 67
REMARK SMILES IDX 57 68 61 69 58 70 60 71 59 72 46 73 47 74 51 75 48 76 50 77
REMARK SMILES IDX 49 78
REMARK H PARENT 17 6 8 13 22 27 66 46 44 57
REMARK Flexibility Score: inf
ROOT
ATOM      1  C   UNL A   1      31.572  29.891  25.550  1.00  0.00     0.023 C 
ENDROOT
BRANCH   1   2
ATOM      2  C   UNL A   1      32.018  29.285  24.213  1.00  0.00     0.116 C 
BRANCH   2   3
ATOM      3  N   UNL A   1      31.021  29.630  23.201  1.00  0.00    -0.356 N 
ATOM      4  C   UNL A   1      29.919  28.989  22.727  1.00  0.00     0.220 C 
ATOM      5  O   UNL A   1      29.495  29.339  21.622  1.00  0.00    -0.275 OA
ATOM      6  H   UNL A   1      31.179  30.504  22.776  1.00  0.00     0.163 HD
BRANCH   4   7
ATOM      7  C   UNL A   1      29.192  27.914  23.519  1.00  0.00     0.100 C 
BRANCH   7   8
ATOM      8  C   UNL A   1      29.685  26.490  23.213  1.00  0.00     0.019 C 
BRANCH   8   9
ATOM      9  C   UNL A   1      30.817  25.905  24.114  1.00  0.00     0.045 C 
ATOM     10  N   UNL A   1      31.726  23.613  24.909  1.00  0.00    -0.331 N 
ATOM     11  C   UNL A   1      31.349  23.988  26.264  1.00  0.00     0.262 C 
ATOM     12  C   UNL A   1      30.971  24.392  23.933  1.00  0.00     0.265 C 
ATOM     13  H   UNL A   1      31.454  22.630  24.916  1.00  0.00     0.348 HD
ATOM     14  C   UNL A   1      31.402  25.484  26.553  1.00  0.00     0.062 C 
ATOM     15  C   UNL A   1      30.520  26.260  25.582  1.00  0.00     0.015 C 
BRANCH  10  16
ATOM     16  C   UNL A   1      33.129  23.358  24.513  1.00  0.00     0.196 C 
ATOM     17  C   UNL A   1      35.555  23.907  24.914  1.00  0.00     0.026 C 
ATOM     18  C   UNL A   1      34.249  23.410  25.571  1.00  0.00     0.101 C 
ATOM     19  S   UNL A   1      34.699  21.838  26.411  1.00  0.00    -0.153 SA
ATOM     20  C   UNL A   1      33.595  20.596  25.670  1.00  0.00     0.070 C 
ATOM     21  C   UNL A   1      33.300  22.132  23.612  1.00  0.00     0.067 C 
ATOM     22  C   UNL A   1      33.043  20.791  24.265  1.00  0.00     0.017 C 
ENDBRANCH  10  16
ENDBRANCH   8   9
ENDBRANCH   7   8
ENDBRANCH   4   7
ENDBRANCH   2   3
ENDBRANCH   1   2
BRANCH   1  23
ATOM     23  C   UNL A   1      32.118  29.359  26.882  1.00  0.00     0.023 C 
BRANCH  23  24
ATOM     24  C   UNL A   1      33.575  29.593  27.252  1.00  0.00     0.116 C 
BRANCH  24  25
ATOM     25  N   UNL A   1      33.805  30.824  28.001  1.00  0.00    -0.352 N 
ATOM     26  C   UNL A   1      34.940  31.207  28.691  1.00  0.00     0.251 C 
ATOM     27  H   UNL A   1      33.056  31.463  28.017  1.00  0.00     0.163 HD
ATOM     28  O   UNL A   1      34.993  32.238  29.356  1.00  0.00    -0.269 OA
BRANCH  26  29
ATOM     29  C   UNL A   1      36.122  30.335  28.724  1.00  0.00     0.039 A 
ATOM     30  C   UNL A   1      36.960  30.329  27.603  1.00  0.00     0.014 A 
ATOM     31  C   UNL A   1      36.444  29.599  29.862  1.00  0.00     0.014 A 
ATOM     32  C   UNL A   1      38.197  29.703  27.677  1.00  0.00     0.010 A 
ATOM     33  C   UNL A   1      37.719  29.071  29.974  1.00  0.00     0.010 A 
ATOM     34  C   UNL A   1      38.613  29.146  28.894  1.00  0.00    -0.014 A 
BRANCH  34  35
ATOM     35  C   UNL A   1      39.997  28.666  29.080  1.00  0.00     0.031 A 
ATOM     36  C   UNL A   1      41.038  29.612  29.592  1.00  0.00     0.074 A 
ATOM     37  C   UNL A   1      40.317  27.420  28.681  1.00  0.00     0.049 A 
ATOM     38  N   UNL A   1      42.331  29.445  29.681  1.00  0.00    -0.248 NA
ATOM     39  C   UNL A   1      40.568  30.941  30.017  1.00  0.00     0.031 C 
ATOM     40  C   UNL A   1      39.382  26.437  28.120  1.00  0.00     0.029 A 
ATOM     41  N   UNL A   1      41.520  26.766  28.679  1.00  0.00    -0.354 N 
ATOM     42  C   UNL A   1      42.830  30.659  30.130  1.00  0.00     0.074 A 
ATOM     43  C   UNL A   1      41.712  31.567  30.246  1.00  0.00     0.031 C 
ATOM     44  C   UNL A   1      40.040  25.296  27.867  1.00  0.00     0.029 A 
ATOM     45  C   UNL A   1      41.447  25.481  28.199  1.00  0.00     0.049 A 
ATOM     46  H   UNL A   1      42.358  27.178  28.990  1.00  0.00     0.167 HD
ATOM     47  C   UNL A   1      44.109  30.980  30.435  1.00  0.00     0.031 A 
ATOM     48  C   UNL A   1      42.413  24.558  28.044  1.00  0.00     0.031 A 
ATOM     49  C   UNL A   1      45.203  30.052  30.343  1.00  0.00     0.049 A 
ATOM     50  C   UNL A   1      43.818  24.926  28.428  1.00  0.00     0.074 A 
ATOM     51  C   UNL A   1      46.531  30.245  30.673  1.00  0.00     0.029 A 
ATOM     52  N   UNL A   1      45.082  28.744  29.896  1.00  0.00    -0.354 N 
ATOM     53  N   UNL A   1      44.274  26.067  28.890  1.00  0.00    -0.248 NA
ATOM     54  C   UNL A   1      44.838  23.881  28.279  1.00  0.00     0.031 C 
ATOM     55  C   UNL A   1      47.220  29.058  30.398  1.00  0.00     0.029 A 
ATOM     56  C   UNL A   1      46.312  28.116  29.938  1.00  0.00     0.049 A 
ATOM     57  H   UNL A   1      44.244  28.325  29.593  1.00  0.00     0.167 HD
ATOM     58  C   UNL A   1      45.629  25.870  29.111  1.00  0.00     0.074 A 
ATOM     59  C   UNL A   1      45.916  24.495  28.747  1.00  0.00     0.031 C 
ATOM     60  C   UNL A   1      46.556  26.744  29.571  1.00  0.00     0.031 A 
BRANCH  47  61
ATOM     61  C   UNL A   1      44.369  32.389  30.887  1.00  0.00    -0.014 A 
ATOM     62  C   UNL A   1      44.304  32.743  32.245  1.00  0.00     0.009 A 
ATOM     63  C   UNL A   1      44.663  33.383  29.940  1.00  0.00     0.009 A 
ATOM     64  C   UNL A   1      44.474  34.071  32.640  1.00  0.00     0.001 A 
ATOM     65  C   UNL A   1      44.864  34.705  30.343  1.00  0.00     0.001 A 
ATOM     66  C   UNL A   1      44.756  35.050  31.689  1.00  0.00     0.000 A 
ENDBRANCH  47  61
BRANCH  48  67
ATOM     67  C   UNL A   1      42.082  23.201  27.539  1.00  0.00    -0.014 A 
ATOM     68  C   UNL A   1      41.503  22.251  28.395  1.00  0.00     0.009 A 
ATOM     69  C   UNL A   1      42.325  22.849  26.202  1.00  0.00     0.009 A 
ATOM     70  C   UNL A   1      41.198  20.969  27.931  1.00  0.00     0.001 A 
ATOM     71  C   UNL A   1      41.994  21.574  25.734  1.00  0.00     0.001 A 
ATOM     72  C   UNL A   1      41.441  20.633  26.600  1.00  0.00     0.000 A 
ENDBRANCH  48  67
BRANCH  60  73
ATOM     73  C   UNL A   1      47.953  26.222  29.737  1.00  0.00    -0.014 A 
ATOM     74  C   UNL A   1      48.411  25.759  30.980  1.00  0.00     0.009 A 
ATOM     75  C   UNL A   1      48.803  26.156  28.624  1.00  0.00     0.009 A 
ATOM     76  C   UNL A   1      49.709  25.267  31.109  1.00  0.00     0.001 A 
ATOM     77  C   UNL A   1      50.092  25.639  28.751  1.00  0.00     0.001 A 
ATOM     78  C   UNL A   1      50.547  25.202  29.994  1.00  0.00     0.000 A 
ENDBRANCH  60  73
ENDBRANCH  34  35
ENDBRANCH  26  29
ENDBRANCH  24  25
ENDBRANCH  23  24
ENDBRANCH   1  23
TORSDOF 14
ENDMDL
MODEL 2
REMARK VINA RESULT:     -10.8      4.845     10.869
REMARK SMILES C[C@@H]1SCCC[C@H]1[N@H+]1CCC[C@H](CCC(=O)NCCCCNC(=O)c2ccc(-c3c4nc(c(-c5ccccc5)c5ccc([nH]5)c(-c5ccccc5)c5nc(c(-c6ccccc6)c6ccc3[nH]6)C=C5)C=C4)cc2)C1
REMARK SMILES IDX 19 1 18 2 17 3 15 4 16 5 14 7 13 8 12 9 8 10 9 11 73 12
REMARK SMILES IDX 10 14 11 15 7 16 1 17 2 18 3 19 4 20 6 21 5 22 20 23 21 24
REMARK SMILES IDX 22 25 23 26 24 28 25 29 26 30 72 31 27 32 71 33 28 34 29 35
REMARK SMILES IDX 30 36 65 37 31 38 70 39 64 40 66 41 32 42 69 43 63 44 62 45
REMARK SMILES IDX 33 47 55 48 40 49 54 50 41 51 44 52 53 53 67 54 42 55 43 56
REMARK SMILES IDX 52 58 68 59 45 60 34 61 35 62 39 63 36 64 38 65 37 66 56 67
REMARK SMILES IDX 57 68 61 69 58 70 60 71 59 72 46 73 47 74 51 75 48 76 50 77
REMARK SMILES IDX 49 78
REMARK H PARENT 17 6 8 13 22 27 66 46 44 57
REMARK Flexibility Score: inf
ROOT
ATOM      1  C   UNL A   1      41.913  19.838  27.275  1.00  0.00     0.023 C 
ENDROOT
BRANCH   1   2
ATOM      2  C   UNL A   1      42.231  19.032  26.010  1.00  0.00     0.116 C 
BRANCH   2   3
ATOM      3  N   UNL A   1      43.619  18.581  26.093  1.00  0.00    -0.356 N 
ATOM      4  C   UNL A   1      44.723  18.830  25.338  1.00  0.00     0.220 C 
ATOM      5  O   UNL A   1      45.653  18.022  25.418  1.00  0.00    -0.275 OA
ATOM      6  H   UNL A   1      43.789  17.974  26.849  1.00  0.00     0.163 HD
BRANCH   4   7
ATOM      7  C   UNL A   1      44.854  20.062  24.460  1.00  0.00     0.100 C 
BRANCH   7   8
ATOM      8  C   UNL A   1      45.899  21.069  24.969  1.00  0.00     0.019 C 
BRANCH   8   9
ATOM      9  C   UNL A   1      45.555  22.587  24.864  1.00  0.00     0.045 C 
ATOM     10  N   UNL A   1      45.567  24.724  26.330  1.00  0.00    -0.331 N 
ATOM     11  C   UNL A   1      44.118  24.765  26.198  1.00  0.00     0.262 C 
ATOM     12  C   UNL A   1      46.067  23.378  26.072  1.00  0.00     0.265 C 
ATOM     13  H   UNL A   1      45.663  24.993  27.309  1.00  0.00     0.348 HD
ATOM     14  C   UNL A   1      43.578  24.188  24.894  1.00  0.00     0.062 C 
ATOM     15  C   UNL A   1      44.031  22.745  24.705  1.00  0.00     0.015 C 
BRANCH  10  16
ATOM     16  C   UNL A   1      46.446  25.797  25.813  1.00  0.00     0.196 C 
ATOM     17  C   UNL A   1      46.729  27.645  24.125  1.00  0.00     0.026 C 
ATOM     18  C   UNL A   1      45.830  27.094  25.251  1.00  0.00     0.101 C 
ATOM     19  S   UNL A   1      45.597  28.497  26.415  1.00  0.00    -0.153 SA
ATOM     20  C   UNL A   1      46.223  27.876  28.006  1.00  0.00     0.070 C 
ATOM     21  C   UNL A   1      47.627  26.119  26.731  1.00  0.00     0.067 C 
ATOM     22  C   UNL A   1      47.279  26.780  28.048  1.00  0.00     0.017 C 
ENDBRANCH  10  16
ENDBRANCH   8   9
ENDBRANCH   7   8
ENDBRANCH   4   7
ENDBRANCH   2   3
ENDBRANCH   1   2
BRANCH   1  23
ATOM     23  C   UNL A   1      40.827  20.923  27.271  1.00  0.00     0.023 C 
BRANCH  23  24
ATOM     24  C   UNL A   1      40.770  21.933  26.135  1.00  0.00     0.116 C 
BRANCH  24  25
ATOM     25  N   UNL A   1      39.416  22.345  25.776  1.00  0.00    -0.352 N 
ATOM     26  C   UNL A   1      38.756  23.511  26.119  1.00  0.00     0.251 C 
ATOM     27  H   UNL A   1      38.908  21.711  25.220  1.00  0.00     0.163 HD
ATOM     28  O   UNL A   1      37.582  23.716  25.825  1.00  0.00    -0.269 OA
BRANCH  26  29
ATOM     29  C   UNL A   1      39.424  24.531  26.938  1.00  0.00     0.039 A 
ATOM     30  C   UNL A   1      40.224  25.474  26.282  1.00  0.00     0.014 A 
ATOM     31  C   UNL A   1      39.206  24.611  28.312  1.00  0.00     0.014 A 
ATOM     32  C   UNL A   1      40.684  26.583  26.978  1.00  0.00     0.010 A 
ATOM     33  C   UNL A   1      39.571  25.768  28.978  1.00  0.00     0.010 A 
ATOM     34  C   UNL A   1      40.285  26.773  28.308  1.00  0.00    -0.014 A 
BRANCH  34  35
ATOM     35  C   UNL A   1      40.569  28.038  29.017  1.00  0.00     0.031 A 
ATOM     36  C   UNL A   1      41.863  28.191  29.755  1.00  0.00     0.074 A 
ATOM     37  C   UNL A   1      39.612  28.984  29.076  1.00  0.00     0.049 A 
ATOM     38  N   UNL A   1      42.243  29.145  30.562  1.00  0.00    -0.248 NA
ATOM     39  C   UNL A   1      42.841  27.101  29.600  1.00  0.00     0.031 C 
ATOM     40  C   UNL A   1      38.295  28.907  28.431  1.00  0.00     0.029 A 
ATOM     41  N   UNL A   1      39.594  30.196  29.714  1.00  0.00    -0.354 N 
ATOM     42  C   UNL A   1      43.482  28.749  31.044  1.00  0.00     0.074 A 
ATOM     43  C   UNL A   1      43.768  27.449  30.479  1.00  0.00     0.031 C 
ATOM     44  C   UNL A   1      37.618  30.039  28.676  1.00  0.00     0.029 A 
ATOM     45  C   UNL A   1      38.427  30.897  29.531  1.00  0.00     0.049 A 
ATOM     46  H   UNL A   1      40.346  30.532  30.254  1.00  0.00     0.167 HD
ATOM     47  C   UNL A   1      44.317  29.422  31.870  1.00  0.00     0.031 A 
ATOM     48  C   UNL A   1      38.056  32.099  30.006  1.00  0.00     0.031 A 
ATOM     49  C   UNL A   1      44.028  30.729  32.395  1.00  0.00     0.049 A 
ATOM     50  C   UNL A   1      39.017  32.844  30.888  1.00  0.00     0.074 A 
ATOM     51  C   UNL A   1      44.816  31.531  33.198  1.00  0.00     0.029 A 
ATOM     52  N   UNL A   1      42.855  31.427  32.150  1.00  0.00    -0.354 N 
ATOM     53  N   UNL A   1      40.205  32.477  31.306  1.00  0.00    -0.248 NA
ATOM     54  C   UNL A   1      38.591  34.169  31.357  1.00  0.00     0.031 C 
ATOM     55  C   UNL A   1      44.104  32.707  33.462  1.00  0.00     0.029 A 
ATOM     56  C   UNL A   1      42.893  32.653  32.788  1.00  0.00     0.049 A 
ATOM     57  H   UNL A   1      42.105  31.099  31.602  1.00  0.00     0.167 HD
ATOM     58  C   UNL A   1      40.681  33.536  32.066  1.00  0.00     0.074 A 
ATOM     59  C   UNL A   1      39.658  34.564  32.037  1.00  0.00     0.031 C 
ATOM     60  C   UNL A   1      41.856  33.651  32.732  1.00  0.00     0.031 A 
BRANCH  47  61
ATOM     61  C   UNL A   1      45.602  28.741  32.244  1.00  0.00    -0.014 A 
ATOM     62  C   UNL A   1      46.764  28.900  31.471  1.00  0.00     0.009 A 
ATOM     63  C   UNL A   1      45.648  27.909  33.375  1.00  0.00     0.009 A 
ATOM     64  C   UNL A   1      47.929  28.201  31.790  1.00  0.00     0.001 A 
ATOM     65  C   UNL A   1      46.824  27.235  33.709  1.00  0.00     0.001 A 
ATOM     66  C   UNL A   1      47.959  27.371  32.910  1.00  0.00     0.000 A 
ENDBRANCH  47  61
BRANCH  48  67
ATOM     67  C   UNL A   1      36.742  32.682  29.631  1.00  0.00    -0.014 A 
ATOM     68  C   UNL A   1      36.586  33.338  28.399  1.00  0.00     0.009 A 
ATOM     69  C   UNL A   1      35.635  32.576  30.486  1.00  0.00     0.009 A 
ATOM     70  C   UNL A   1      35.357  33.898  28.044  1.00  0.00     0.001 A 
ATOM     71  C   UNL A   1      34.399  33.114  30.116  1.00  0.00     0.001 A 
ATOM     72  C   UNL A   1      34.264  33.783  28.901  1.00  0.00     0.000 A 
ENDBRANCH  48  67
BRANCH  60  73
ATOM     73  C   UNL A   1      42.103  34.946  33.447  1.00  0.00    -0.014 A 
ATOM     74  C   UNL A   1      41.558  35.188  34.717  1.00  0.00     0.009 A 
ATOM     75  C   UNL A   1      42.926  35.915  32.856  1.00  0.00     0.009 A 
ATOM     76  C   UNL A   1      41.811  36.395  35.369  1.00  0.00     0.001 A 
ATOM     77  C   UNL A   1      43.198  37.110  33.522  1.00  0.00     0.001 A 
ATOM     78  C   UNL A   1      42.634  37.353  34.774  1.00  0.00     0.000 A 
ENDBRANCH  60  73
ENDBRANCH  34  35
ENDBRANCH  26  29
ENDBRANCH  24  25
ENDBRANCH  23  24
ENDBRANCH   1  23
TORSDOF 14
ENDMDL
MODEL 3
REMARK VINA RESULT:     -10.8      2.892      7.749
REMARK SMILES C[C@@H]1SCCC[C@H]1[N@H+]1CCC[C@H](CCC(=O)NCCCCNC(=O)c2ccc(-c3c4nc(c(-c5ccccc5)c5ccc([nH]5)c(-c5ccccc5)c5nc(c(-c6ccccc6)c6ccc3[nH]6)C=C5)C=C4)cc2)C1
REMARK SMILES IDX 19 1 18 2 17 3 15 4 16 5 14 7 13 8 12 9 8 10 9 11 73 12
REMARK SMILES IDX 10 14 11 15 7 16 1 17 2 18 3 19 4 20 6 21 5 22 20 23 21 24
REMARK SMILES IDX 22 25 23 26 24 28 25 29 26 30 72 31 27 32 71 33 28 34 29 35
REMARK SMILES IDX 30 36 65 37 31 38 70 39 64 40 66 41 32 42 69 43 63 44 62 45
REMARK SMILES IDX 33 47 55 48 40 49 54 50 41 51 44 52 53 53 67 54 42 55 43 56
REMARK SMILES IDX 52 58 68 59 45 60 34 61 35 62 39 63 36 64 38 65 37 66 56 67
REMARK SMILES IDX 57 68 61 69 58 70 60 71 59 72 46 73 47 74 51 75 48 76 50 77
REMARK SMILES IDX 49 78
REMARK H PARENT 17 6 8 13 22 27 66 46 44 57
REMARK Flexibility Score: inf
ROOT
ATOM      1  C   UNL A   1      36.351  20.577  25.009  1.00  0.00     0.023 C 
ENDROOT
BRANCH   1   2
ATOM      2  C   UNL A   1      35.089  21.100  25.708  1.00  0.00     0.116 C 
BRANCH   2   3
ATOM      3  N   UNL A   1      34.112  20.015  25.756  1.00  0.00    -0.356 N 
ATOM      4  C   UNL A   1      33.072  19.664  24.951  1.00  0.00     0.220 C 
ATOM      5  O   UNL A   1      32.200  18.942  25.441  1.00  0.00    -0.275 OA
ATOM      6  H   UNL A   1      34.229  19.415  26.529  1.00  0.00     0.163 HD
BRANCH   4   7
ATOM      7  C   UNL A   1      32.983  20.092  23.496  1.00  0.00     0.100 C 
BRANCH   7   8
ATOM      8  C   UNL A   1      31.982  21.234  23.253  1.00  0.00     0.019 C 
BRANCH   8   9
ATOM      9  C   UNL A   1      32.409  22.675  23.673  1.00  0.00     0.045 C 
ATOM     10  N   UNL A   1      31.736  25.140  23.247  1.00  0.00    -0.331 N 
ATOM     11  C   UNL A   1      33.035  25.336  22.621  1.00  0.00     0.262 C 
ATOM     12  C   UNL A   1      31.378  23.725  23.252  1.00  0.00     0.265 C 
ATOM     13  H   UNL A   1      31.151  25.687  22.616  1.00  0.00     0.348 HD
ATOM     14  C   UNL A   1      34.152  24.459  23.176  1.00  0.00     0.062 C 
ATOM     15  C   UNL A   1      33.792  22.982  23.069  1.00  0.00     0.015 C 
BRANCH  10  16
ATOM     16  C   UNL A   1      31.322  25.865  24.469  1.00  0.00     0.196 C 
ATOM     17  C   UNL A   1      31.994  27.486  26.276  1.00  0.00     0.026 C 
ATOM     18  C   UNL A   1      31.873  27.277  24.752  1.00  0.00     0.101 C 
ATOM     19  S   UNL A   1      30.894  28.709  24.143  1.00  0.00    -0.153 SA
ATOM     20  C   UNL A   1      29.450  27.958  23.330  1.00  0.00     0.070 C 
ATOM     21  C   UNL A   1      29.814  25.816  24.731  1.00  0.00     0.067 C 
ATOM     22  C   UNL A   1      28.949  26.585  23.755  1.00  0.00     0.017 C 
ENDBRANCH  10  16
ENDBRANCH   8   9
ENDBRANCH   7   8
ENDBRANCH   4   7
ENDBRANCH   2   3
ENDBRANCH   1   2
BRANCH   1  23
ATOM     23  C   UNL A   1      37.604  21.454  24.877  1.00  0.00     0.023 C 
BRANCH  23  24
ATOM     24  C   UNL A   1      38.723  21.335  25.900  1.00  0.00     0.116 C 
BRANCH  24  25
ATOM     25  N   UNL A   1      39.514  20.115  25.774  1.00  0.00    -0.352 N 
ATOM     26  C   UNL A   1      40.849  19.923  26.080  1.00  0.00     0.251 C 
ATOM     27  H   UNL A   1      39.035  19.327  25.425  1.00  0.00     0.163 HD
ATOM     28  O   UNL A   1      41.433  18.866  25.856  1.00  0.00    -0.269 OA
BRANCH  26  29
ATOM     29  C   UNL A   1      41.656  21.027  26.616  1.00  0.00     0.039 A 
ATOM     30  C   UNL A   1      42.223  21.924  25.704  1.00  0.00     0.014 A 
ATOM     31  C   UNL A   1      41.787  21.225  27.989  1.00  0.00     0.014 A 
ATOM     32  C   UNL A   1      42.796  23.101  26.167  1.00  0.00     0.010 A 
ATOM     33  C   UNL A   1      42.257  22.445  28.444  1.00  0.00     0.010 A 
ATOM     34  C   UNL A   1      42.736  23.401  27.534  1.00  0.00    -0.014 A 
BRANCH  34  35
ATOM     35  C   UNL A   1      43.134  24.730  28.041  1.00  0.00     0.031 A 
ATOM     36  C   UNL A   1      42.080  25.756  28.317  1.00  0.00     0.074 A 
ATOM     37  C   UNL A   1      44.444  25.027  28.139  1.00  0.00     0.049 A 
ATOM     38  N   UNL A   1      42.217  27.020  28.615  1.00  0.00    -0.248 NA
ATOM     39  C   UNL A   1      40.681  25.311  28.196  1.00  0.00     0.031 C 
ATOM     40  C   UNL A   1      45.552  24.111  27.843  1.00  0.00     0.029 A 
ATOM     41  N   UNL A   1      45.070  26.188  28.509  1.00  0.00    -0.354 N 
ATOM     42  C   UNL A   1      40.928  27.529  28.673  1.00  0.00     0.074 A 
ATOM     43  C   UNL A   1      40.025  26.452  28.332  1.00  0.00     0.031 C 
ATOM     44  C   UNL A   1      46.716  24.734  28.081  1.00  0.00     0.029 A 
ATOM     45  C   UNL A   1      46.441  26.103  28.497  1.00  0.00     0.049 A 
ATOM     46  H   UNL A   1      44.583  27.007  28.758  1.00  0.00     0.167 HD
ATOM     47  C   UNL A   1      40.533  28.781  29.003  1.00  0.00     0.031 A 
ATOM     48  C   UNL A   1      47.369  27.032  28.789  1.00  0.00     0.031 A 
ATOM     49  C   UNL A   1      41.445  29.829  29.370  1.00  0.00     0.049 A 
ATOM     50  C   UNL A   1      46.904  28.402  29.190  1.00  0.00     0.074 A 
ATOM     51  C   UNL A   1      41.162  31.121  29.771  1.00  0.00     0.029 A 
ATOM     52  N   UNL A   1      42.826  29.691  29.391  1.00  0.00    -0.354 N 
ATOM     53  N   UNL A   1      45.678  28.862  29.281  1.00  0.00    -0.248 NA
ATOM     54  C   UNL A   1      47.945  29.378  29.536  1.00  0.00     0.031 C 
ATOM     55  C   UNL A   1      42.377  31.774  30.009  1.00  0.00     0.029 A 
ATOM     56  C   UNL A   1      43.412  30.875  29.797  1.00  0.00     0.049 A 
ATOM     57  H   UNL A   1      43.316  28.871  29.152  1.00  0.00     0.167 HD
ATOM     58  C   UNL A   1      45.799  30.173  29.719  1.00  0.00     0.074 A 
ATOM     59  C   UNL A   1      47.216  30.427  29.890  1.00  0.00     0.031 C 
ATOM     60  C   UNL A   1      44.828  31.088  29.958  1.00  0.00     0.031 A 
BRANCH  47  61
ATOM     61  C   UNL A   1      39.058  29.062  28.968  1.00  0.00    -0.014 A 
ATOM     62  C   UNL A   1      38.437  29.551  27.806  1.00  0.00     0.009 A 
ATOM     63  C   UNL A   1      38.280  28.856  30.118  1.00  0.00     0.009 A 
ATOM     64  C   UNL A   1      37.080  29.878  27.812  1.00  0.00     0.001 A 
ATOM     65  C   UNL A   1      36.915  29.154  30.111  1.00  0.00     0.001 A 
ATOM     66  C   UNL A   1      36.320  29.677  28.964  1.00  0.00     0.000 A 
ENDBRANCH  47  61
BRANCH  48  67
ATOM     67  C   UNL A   1      48.813  26.688  28.747  1.00  0.00    -0.014 A 
ATOM     68  C   UNL A   1      49.532  26.799  27.546  1.00  0.00     0.009 A 
ATOM     69  C   UNL A   1      49.488  26.264  29.903  1.00  0.00     0.009 A 
ATOM     70  C   UNL A   1      50.888  26.467  27.496  1.00  0.00     0.001 A 
ATOM     71  C   UNL A   1      50.852  25.959  29.856  1.00  0.00     0.001 A 
ATOM     72  C   UNL A   1      51.547  26.051  28.652  1.00  0.00     0.000 A 
ENDBRANCH  48  67
BRANCH  60  73
ATOM     73  C   UNL A   1      45.272  32.428  30.463  1.00  0.00    -0.014 A 
ATOM     74  C   UNL A   1      45.431  32.670  31.836  1.00  0.00     0.009 A 
ATOM     75  C   UNL A   1      45.575  33.446  29.546  1.00  0.00     0.009 A 
ATOM     76  C   UNL A   1      45.857  33.921  32.282  1.00  0.00     0.001 A 
ATOM     77  C   UNL A   1      46.027  34.687  29.995  1.00  0.00     0.001 A 
ATOM     78  C   UNL A   1      46.159  34.927  31.362  1.00  0.00     0.000 A 
ENDBRANCH  60  73
ENDBRANCH  34  35
ENDBRANCH  26  29
ENDBRANCH  24  25
ENDBRANCH  23  24
ENDBRANCH   1  23
TORSDOF 14
ENDMDL
