MODEL 1
REMARK VINA RESULT:     -11.9      0.000      0.000
REMARK SMILES Nc1c(Cl)ccc2c1C=C(C(=O)NCCCCNC(=O)c1ccc(-c3c4nc(c(-c5ccccc5)c5ccc([nH]5)c(-c5ccccc5)c5nc(c(-c6ccccc6)c6ccc3[nH]6)C=C5)C=C4)cc1)[C@@H](C(F)(F)F)O2
REMARK SMILES IDX 16 1 15 2 14 3 13 4 11 5 12 6 10 8 2 9 3 10 8 11 4 12 5 13
REMARK SMILES IDX 7 14 9 15 6 16 74 17 69 18 1 19 70 22 71 23 72 24 73 25
REMARK SMILES IDX 17 26 18 27 19 28 20 30 21 31 22 32 68 33 23 34 67 35 24 36
REMARK SMILES IDX 25 37 26 38 61 39 27 40 66 41 60 42 62 43 28 44 65 45 59 46
REMARK SMILES IDX 58 47 29 49 51 50 36 51 50 52 37 53 40 54 49 55 63 56 38 57
REMARK SMILES IDX 39 58 48 60 64 61 41 62 30 63 31 64 35 65 32 66 34 67 33 68
REMARK SMILES IDX 52 69 53 70 57 71 54 72 56 73 55 74 42 75 43 76 47 77 44 78
REMARK SMILES IDX 46 79 45 80
REMARK H PARENT 13 7 1 20 1 21 18 29 62 48 40 59
REMARK Flexibility Score: inf
ROOT
ATOM      1  C   UNL A   1      33.296  28.972  25.581  1.00  0.00     0.023 C 
ENDROOT
BRANCH   1   2
ATOM      2  C   UNL A   1      34.053  28.018  24.652  1.00  0.00     0.023 C 
BRANCH   2   3
ATOM      3  C   UNL A   1      33.932  26.547  25.038  1.00  0.00     0.116 C 
BRANCH   3   4
ATOM      4  N   UNL A   1      33.578  25.720  23.898  1.00  0.00    -0.352 N 
ATOM      5  C   UNL A   1      32.484  25.511  23.130  1.00  0.00     0.251 C 
ATOM      6  O   UNL A   1      32.629  24.665  22.241  1.00  0.00    -0.270 OA
ATOM      7  H   UNL A   1      34.335  25.162  23.607  1.00  0.00     0.163 HD
BRANCH   5   8
ATOM      8  C   UNL A   1      31.172  26.211  23.277  1.00  0.00     0.067 C 
ATOM      9  C   UNL A   1      29.703  29.482  22.229  1.00  0.00     0.061 A 
ATOM     10  C   UNL A   1      28.458  30.138  22.382  1.00  0.00     0.064 A 
ATOM     11  C   UNL A   1      29.822  28.160  22.715  1.00  0.00     0.042 A 
ATOM     12  Cl  UNL A   1      28.248  31.771  21.840  1.00  0.00    -0.082 Cl
ATOM     13  C   UNL A   1      27.358  29.498  22.955  1.00  0.00     0.026 A 
ATOM     14  C   UNL A   1      28.709  27.538  23.301  1.00  0.00     0.130 A 
ATOM     15  C   UNL A   1      31.054  27.371  22.603  1.00  0.00     0.027 C 
ATOM     16  C   UNL A   1      27.483  28.190  23.407  1.00  0.00     0.049 A 
ATOM     17  O   UNL A   1      28.735  26.252  23.767  1.00  0.00    -0.475 OA
ATOM     18  C   UNL A   1      30.039  25.728  24.133  1.00  0.00     0.314 C 
BRANCH   9  19
ATOM     19  N   UNL A   1      30.793  30.179  21.704  1.00  0.00    -0.397 N 
ATOM     20  H   UNL A   1      31.480  30.547  22.307  1.00  0.00     0.156 HD
ATOM     21  H   UNL A   1      30.877  30.303  20.731  1.00  0.00     0.156 HD
ENDBRANCH   9  19
BRANCH  18  22
ATOM     22  C   UNL A   1      30.284  25.958  25.636  1.00  0.00     0.429 C 
ATOM     23  F   UNL A   1      29.150  25.721  26.341  1.00  0.00    -0.167 F 
ATOM     24  F   UNL A   1      31.227  25.125  26.140  1.00  0.00    -0.167 F 
ATOM     25  F   UNL A   1      30.682  27.218  25.916  1.00  0.00    -0.167 F 
ENDBRANCH  18  22
ENDBRANCH   5   8
ENDBRANCH   3   4
ENDBRANCH   2   3
ENDBRANCH   1   2
BRANCH   1  26
ATOM     26  C   UNL A   1      33.731  28.941  27.045  1.00  0.00     0.116 C 
BRANCH  26  27
ATOM     27  N   UNL A   1      33.684  30.244  27.695  1.00  0.00    -0.352 N 
ATOM     28  C   UNL A   1      34.682  30.862  28.407  1.00  0.00     0.251 C 
ATOM     29  H   UNL A   1      32.838  30.740  27.613  1.00  0.00     0.163 HD
ATOM     30  O   UNL A   1      34.499  31.939  28.962  1.00  0.00    -0.269 OA
BRANCH  28  31
ATOM     31  C   UNL A   1      35.977  30.173  28.524  1.00  0.00     0.039 A 
ATOM     32  C   UNL A   1      36.872  30.243  27.456  1.00  0.00     0.014 A 
ATOM     33  C   UNL A   1      36.328  29.552  29.726  1.00  0.00     0.014 A 
ATOM     34  C   UNL A   1      38.163  29.746  27.618  1.00  0.00     0.010 A 
ATOM     35  C   UNL A   1      37.628  29.089  29.897  1.00  0.00     0.010 A 
ATOM     36  C   UNL A   1      38.556  29.196  28.849  1.00  0.00    -0.014 A 
BRANCH  36  37
ATOM     37  C   UNL A   1      39.944  28.731  29.061  1.00  0.00     0.031 A 
ATOM     38  C   UNL A   1      40.950  29.647  29.687  1.00  0.00     0.074 A 
ATOM     39  C   UNL A   1      40.303  27.502  28.648  1.00  0.00     0.049 A 
ATOM     40  N   UNL A   1      42.221  29.440  29.911  1.00  0.00    -0.248 NA
ATOM     41  C   UNL A   1      40.468  30.974  30.105  1.00  0.00     0.031 C 
ATOM     42  C   UNL A   1      39.416  26.528  28.008  1.00  0.00     0.029 A 
ATOM     43  N   UNL A   1      41.515  26.862  28.705  1.00  0.00    -0.354 N 
ATOM     44  C   UNL A   1      42.694  30.609  30.488  1.00  0.00     0.074 A 
ATOM     45  C   UNL A   1      41.585  31.536  30.549  1.00  0.00     0.031 C 
ATOM     46  C   UNL A   1      40.108  25.405  27.756  1.00  0.00     0.029 A 
ATOM     47  C   UNL A   1      41.489  25.589  28.191  1.00  0.00     0.049 A 
ATOM     48  H   UNL A   1      42.326  27.276  29.080  1.00  0.00     0.167 HD
ATOM     49  C   UNL A   1      43.938  30.880  30.942  1.00  0.00     0.031 A 
ATOM     50  C   UNL A   1      42.470  24.673  28.084  1.00  0.00     0.031 A 
ATOM     51  C   UNL A   1      45.037  29.959  30.895  1.00  0.00     0.049 A 
ATOM     52  C   UNL A   1      43.848  25.006  28.578  1.00  0.00     0.074 A 
ATOM     53  C   UNL A   1      46.328  30.134  31.362  1.00  0.00     0.029 A 
ATOM     54  N   UNL A   1      44.974  28.687  30.351  1.00  0.00    -0.354 N 
ATOM     55  N   UNL A   1      44.275  26.109  29.141  1.00  0.00    -0.248 NA
ATOM     56  C   UNL A   1      44.880  23.969  28.420  1.00  0.00     0.031 C 
ATOM     57  C   UNL A   1      47.054  28.975  31.078  1.00  0.00     0.029 A 
ATOM     58  C   UNL A   1      46.206  28.068  30.462  1.00  0.00     0.049 A 
ATOM     59  H   UNL A   1      44.172  28.283  29.946  1.00  0.00     0.167 HD
ATOM     60  C   UNL A   1      45.617  25.896  29.422  1.00  0.00     0.074 A 
ATOM     61  C   UNL A   1      45.935  24.556  28.970  1.00  0.00     0.031 C 
ATOM     62  C   UNL A   1      46.503  26.737  30.005  1.00  0.00     0.031 A 
BRANCH  49  63
ATOM     63  C   UNL A   1      44.171  32.234  31.542  1.00  0.00    -0.014 A 
ATOM     64  C   UNL A   1      44.588  33.308  30.740  1.00  0.00     0.009 A 
ATOM     65  C   UNL A   1      43.929  32.449  32.905  1.00  0.00     0.009 A 
ATOM     66  C   UNL A   1      44.777  34.572  31.301  1.00  0.00     0.001 A 
ATOM     67  C   UNL A   1      44.102  33.718  33.459  1.00  0.00     0.001 A 
ATOM     68  C   UNL A   1      44.529  34.776  32.659  1.00  0.00     0.000 A 
ENDBRANCH  49  63
BRANCH  50  69
ATOM     69  C   UNL A   1      42.167  23.340  27.510  1.00  0.00    -0.014 A 
ATOM     70  C   UNL A   1      42.467  23.069  26.167  1.00  0.00     0.009 A 
ATOM     71  C   UNL A   1      41.613  22.326  28.305  1.00  0.00     0.009 A 
ATOM     72  C   UNL A   1      42.211  21.807  25.628  1.00  0.00     0.001 A 
ATOM     73  C   UNL A   1      41.371  21.060  27.767  1.00  0.00     0.001 A 
ATOM     74  C   UNL A   1      41.667  20.803  26.428  1.00  0.00     0.000 A 
ENDBRANCH  50  69
BRANCH  62  75
ATOM     75  C   UNL A   1      47.903  26.241  30.207  1.00  0.00    -0.014 A 
ATOM     76  C   UNL A   1      48.860  26.365  29.191  1.00  0.00     0.009 A 
ATOM     77  C   UNL A   1      48.291  25.746  31.462  1.00  0.00     0.009 A 
ATOM     78  C   UNL A   1      50.185  25.996  29.427  1.00  0.00     0.001 A 
ATOM     79  C   UNL A   1      49.619  25.392  31.699  1.00  0.00     0.001 A 
ATOM     80  C   UNL A   1      50.565  25.518  30.682  1.00  0.00     0.000 A 
ENDBRANCH  62  75
ENDBRANCH  36  37
ENDBRANCH  28  31
ENDBRANCH  26  27
ENDBRANCH   1  26
TORSDOF 13
ENDMDL
MODEL 2
REMARK VINA RESULT:     -11.8      0.191      5.977
REMARK SMILES Nc1c(Cl)ccc2c1C=C(C(=O)NCCCCNC(=O)c1ccc(-c3c4nc(c(-c5ccccc5)c5ccc([nH]5)c(-c5ccccc5)c5nc(c(-c6ccccc6)c6ccc3[nH]6)C=C5)C=C4)cc1)[C@@H](C(F)(F)F)O2
REMARK SMILES IDX 16 1 15 2 14 3 13 4 11 5 12 6 10 8 2 9 3 10 8 11 4 12 5 13
REMARK SMILES IDX 7 14 9 15 6 16 74 17 69 18 1 19 70 22 71 23 72 24 73 25
REMARK SMILES IDX 17 26 18 27 19 28 20 30 21 31 22 32 68 33 23 34 67 35 24 36
REMARK SMILES IDX 25 37 26 38 61 39 27 40 66 41 60 42 62 43 28 44 65 45 59 46
REMARK SMILES IDX 58 47 29 49 51 50 36 51 50 52 37 53 40 54 49 55 63 56 38 57
REMARK SMILES IDX 39 58 48 60 64 61 41 62 30 63 31 64 35 65 32 66 34 67 33 68
REMARK SMILES IDX 52 69 53 70 57 71 54 72 56 73 55 74 42 75 43 76 47 77 44 78
REMARK SMILES IDX 46 79 45 80
REMARK H PARENT 13 7 1 20 1 21 18 29 62 48 40 59
REMARK Flexibility Score: inf
ROOT
ATOM      1  C   UNL A   1      33.346  28.934  25.505  1.00  0.00     0.023 C 
ENDROOT
BRANCH   1   2
ATOM      2  C   UNL A   1      34.055  27.945  24.575  1.00  0.00     0.023 C 
BRANCH   2   3
ATOM      3  C   UNL A   1      33.894  26.483  24.980  1.00  0.00     0.116 C 
BRANCH   3   4
ATOM      4  N   UNL A   1      33.515  25.652  23.852  1.00  0.00    -0.352 N 
ATOM      5  C   UNL A   1      32.409  25.453  23.097  1.00  0.00     0.251 C 
ATOM      6  O   UNL A   1      32.531  24.597  22.215  1.00  0.00    -0.270 OA
ATOM      7  H   UNL A   1      34.260  25.080  23.557  1.00  0.00     0.163 HD
BRANCH   5   8
ATOM      8  C   UNL A   1      31.109  26.173  23.254  1.00  0.00     0.067 C 
ATOM      9  C   UNL A   1      29.697  29.482  22.246  1.00  0.00     0.061 A 
ATOM     10  C   UNL A   1      28.463  30.157  22.408  1.00  0.00     0.064 A 
ATOM     11  C   UNL A   1      29.793  28.152  22.716  1.00  0.00     0.042 A 
ATOM     12  Cl  UNL A   1      28.282  31.800  21.886  1.00  0.00    -0.082 Cl
ATOM     13  C   UNL A   1      27.352  29.529  22.973  1.00  0.00     0.026 A 
ATOM     14  C   UNL A   1      28.669  27.542  23.294  1.00  0.00     0.130 A 
ATOM     15  C   UNL A   1      31.011  27.343  22.594  1.00  0.00     0.027 C 
ATOM     16  C   UNL A   1      27.454  28.214  23.408  1.00  0.00     0.049 A 
ATOM     17  O   UNL A   1      28.673  26.250  23.744  1.00  0.00    -0.475 OA
ATOM     18  C   UNL A   1      29.968  25.699  24.103  1.00  0.00     0.314 C 
BRANCH   9  19
ATOM     19  N   UNL A   1      30.799  30.167  21.730  1.00  0.00    -0.397 N 
ATOM     20  H   UNL A   1      31.148  30.961  22.196  1.00  0.00     0.156 HD
ATOM     21  H   UNL A   1      31.229  29.855  20.901  1.00  0.00     0.156 HD
ENDBRANCH   9  19
BRANCH  18  22
ATOM     22  C   UNL A   1      30.216  25.905  25.609  1.00  0.00     0.429 C 
ATOM     23  F   UNL A   1      30.649  27.169  25.847  1.00  0.00    -0.167 F 
ATOM     24  F   UNL A   1      29.092  25.743  26.346  1.00  0.00    -0.167 F 
ATOM     25  F   UNL A   1      31.141  25.057  26.109  1.00  0.00    -0.167 F 
ENDBRANCH  18  22
ENDBRANCH   5   8
ENDBRANCH   3   4
ENDBRANCH   2   3
ENDBRANCH   1   2
BRANCH   1  26
ATOM     26  C   UNL A   1      33.800  28.900  26.964  1.00  0.00     0.116 C 
BRANCH  26  27
ATOM     27  N   UNL A   1      33.691  30.187  27.638  1.00  0.00    -0.352 N 
ATOM     28  C   UNL A   1      34.650  30.826  28.384  1.00  0.00     0.251 C 
ATOM     29  H   UNL A   1      32.829  30.652  27.548  1.00  0.00     0.163 HD
ATOM     30  O   UNL A   1      34.415  31.884  28.956  1.00  0.00    -0.269 OA
BRANCH  28  31
ATOM     31  C   UNL A   1      35.967  30.183  28.515  1.00  0.00     0.039 A 
ATOM     32  C   UNL A   1      36.873  30.291  27.460  1.00  0.00     0.014 A 
ATOM     33  C   UNL A   1      36.324  29.568  29.718  1.00  0.00     0.014 A 
ATOM     34  C   UNL A   1      38.179  29.839  27.637  1.00  0.00     0.010 A 
ATOM     35  C   UNL A   1      37.637  29.152  29.905  1.00  0.00     0.010 A 
ATOM     36  C   UNL A   1      38.575  29.297  28.870  1.00  0.00    -0.014 A 
BRANCH  36  37
ATOM     37  C   UNL A   1      39.976  28.881  29.099  1.00  0.00     0.031 A 
ATOM     38  C   UNL A   1      40.420  27.507  28.697  1.00  0.00     0.074 A 
ATOM     39  C   UNL A   1      40.829  29.724  29.708  1.00  0.00     0.049 A 
ATOM     40  N   UNL A   1      41.588  26.943  28.858  1.00  0.00    -0.248 NA
ATOM     41  C   UNL A   1      39.418  26.652  28.041  1.00  0.00     0.031 C 
ATOM     42  C   UNL A   1      40.506  31.079  30.160  1.00  0.00     0.029 A 
ATOM     43  N   UNL A   1      42.146  29.564  30.051  1.00  0.00    -0.354 N 
ATOM     44  C   UNL A   1      41.461  25.667  28.331  1.00  0.00     0.074 A 
ATOM     45  C   UNL A   1      40.096  25.524  27.877  1.00  0.00     0.031 C 
ATOM     46  C   UNL A   1      41.604  31.634  30.698  1.00  0.00     0.029 A 
ATOM     47  C   UNL A   1      42.697  30.668  30.653  1.00  0.00     0.049 A 
ATOM     48  H   UNL A   1      42.650  28.735  29.882  1.00  0.00     0.167 HD
ATOM     49  C   UNL A   1      42.405  24.704  28.221  1.00  0.00     0.031 A 
ATOM     50  C   UNL A   1      43.944  30.879  31.114  1.00  0.00     0.031 A 
ATOM     51  C   UNL A   1      43.764  24.847  28.659  1.00  0.00     0.049 A 
ATOM     52  C   UNL A   1      44.968  29.787  30.997  1.00  0.00     0.074 A 
ATOM     53  C   UNL A   1      44.801  23.937  28.557  1.00  0.00     0.029 A 
ATOM     54  N   UNL A   1      44.276  25.976  29.278  1.00  0.00    -0.354 N 
ATOM     55  N   UNL A   1      44.839  28.592  30.476  1.00  0.00    -0.248 NA
ATOM     56  C   UNL A   1      46.308  30.073  31.532  1.00  0.00     0.031 C 
ATOM     57  C   UNL A   1      45.937  24.506  29.139  1.00  0.00     0.029 A 
ATOM     58  C   UNL A   1      45.613  25.782  29.574  1.00  0.00     0.049 A 
ATOM     59  H   UNL A   1      43.765  26.793  29.478  1.00  0.00     0.167 HD
ATOM     60  C   UNL A   1      46.082  27.988  30.603  1.00  0.00     0.074 A 
ATOM     61  C   UNL A   1      46.954  28.949  31.248  1.00  0.00     0.031 C 
ATOM     62  C   UNL A   1      46.463  26.748  30.217  1.00  0.00     0.031 A 
BRANCH  49  63
ATOM     63  C   UNL A   1      41.995  23.409  27.588  1.00  0.00    -0.014 A 
ATOM     64  C   UNL A   1      42.278  23.153  26.238  1.00  0.00     0.009 A 
ATOM     65  C   UNL A   1      41.363  22.422  28.357  1.00  0.00     0.009 A 
ATOM     66  C   UNL A   1      41.917  21.933  25.663  1.00  0.00     0.001 A 
ATOM     67  C   UNL A   1      41.019  21.198  27.784  1.00  0.00     0.001 A 
ATOM     68  C   UNL A   1      41.292  20.955  26.438  1.00  0.00     0.000 A 
ENDBRANCH  49  63
BRANCH  50  69
ATOM     69  C   UNL A   1      44.295  32.194  31.700  1.00  0.00    -0.014 A 
ATOM     70  C   UNL A   1      44.148  32.411  33.078  1.00  0.00     0.009 A 
ATOM     71  C   UNL A   1      44.810  33.223  30.898  1.00  0.00     0.009 A 
ATOM     72  C   UNL A   1      44.503  33.638  33.641  1.00  0.00     0.001 A 
ATOM     73  C   UNL A   1      45.179  34.444  31.466  1.00  0.00     0.001 A 
ATOM     74  C   UNL A   1      45.021  34.652  32.837  1.00  0.00     0.000 A 
ENDBRANCH  50  69
BRANCH  62  75
ATOM     75  C   UNL A   1      47.888  26.351  30.461  1.00  0.00    -0.014 A 
ATOM     76  C   UNL A   1      48.270  25.772  31.679  1.00  0.00     0.009 A 
ATOM     77  C   UNL A   1      48.828  26.458  29.424  1.00  0.00     0.009 A 
ATOM     78  C   UNL A   1      49.576  25.310  31.856  1.00  0.00     0.001 A 
ATOM     79  C   UNL A   1      50.127  25.982  29.600  1.00  0.00     0.001 A 
ATOM     80  C   UNL A   1      50.499  25.408  30.815  1.00  0.00     0.000 A 
ENDBRANCH  62  75
ENDBRANCH  36  37
ENDBRANCH  28  31
ENDBRANCH  26  27
ENDBRANCH   1  26
TORSDOF 13
ENDMDL
MODEL 3
REMARK VINA RESULT:     -11.6      4.058      8.443
REMARK SMILES Nc1c(Cl)ccc2c1C=C(C(=O)NCCCCNC(=O)c1ccc(-c3c4nc(c(-c5ccccc5)c5ccc([nH]5)c(-c5ccccc5)c5nc(c(-c6ccccc6)c6ccc3[nH]6)C=C5)C=C4)cc1)[C@@H](C(F)(F)F)O2
REMARK SMILES IDX 16 1 15 2 14 3 13 4 11 5 12 6 10 8 2 9 3 10 8 11 4 12 5 13
REMARK SMILES IDX 7 14 9 15 6 16 74 17 69 18 1 19 70 22 71 23 72 24 73 25
REMARK SMILES IDX 17 26 18 27 19 28 20 30 21 31 22 32 68 33 23 34 67 35 24 36
REMARK SMILES IDX 25 37 26 38 61 39 27 40 66 41 60 42 62 43 28 44 65 45 59 46
REMARK SMILES IDX 58 47 29 49 51 50 36 51 50 52 37 53 40 54 49 55 63 56 38 57
REMARK SMILES IDX 39 58 48 60 64 61 41 62 30 63 31 64 35 65 32 66 34 67 33 68
REMARK SMILES IDX 52 69 53 70 57 71 54 72 56 73 55 74 42 75 43 76 47 77 44 78
REMARK SMILES IDX 46 79 45 80
REMARK H PARENT 13 7 1 20 1 21 18 29 62 48 40 59
REMARK Flexibility Score: inf
ROOT
ATOM      1  C   UNL A   1      35.921  22.469  25.981  1.00  0.00     0.023 C 
ENDROOT
BRANCH   1   2
ATOM      2  C   UNL A   1      34.818  23.229  26.725  1.00  0.00     0.023 C 
BRANCH   2   3
ATOM      3  C   UNL A   1      34.221  24.390  25.935  1.00  0.00     0.116 C 
BRANCH   3   4
ATOM      4  N   UNL A   1      32.769  24.370  25.966  1.00  0.00    -0.352 N 
ATOM      5  C   UNL A   1      31.778  23.623  25.427  1.00  0.00     0.251 C 
ATOM      6  O   UNL A   1      30.635  23.991  25.717  1.00  0.00    -0.270 OA
ATOM      7  H   UNL A   1      32.410  25.093  26.529  1.00  0.00     0.163 HD
BRANCH   5   8
ATOM      8  C   UNL A   1      31.970  22.431  24.545  1.00  0.00     0.067 C 
ATOM      9  C   UNL A   1      32.745  18.806  25.007  1.00  0.00     0.061 A 
ATOM     10  C   UNL A   1      32.932  17.687  24.162  1.00  0.00     0.064 A 
ATOM     11  C   UNL A   1      32.357  20.029  24.414  1.00  0.00     0.042 A 
ATOM     12  Cl  UNL A   1      33.440  16.163  24.814  1.00  0.00    -0.082 Cl
ATOM     13  C   UNL A   1      32.703  17.760  22.786  1.00  0.00     0.026 A 
ATOM     14  C   UNL A   1      32.145  20.087  23.029  1.00  0.00     0.130 A 
ATOM     15  C   UNL A   1      32.119  21.255  25.184  1.00  0.00     0.027 C 
ATOM     16  C   UNL A   1      32.299  18.963  22.221  1.00  0.00     0.049 A 
ATOM     17  O   UNL A   1      31.740  21.224  22.385  1.00  0.00    -0.475 OA
ATOM     18  C   UNL A   1      32.041  22.481  23.048  1.00  0.00     0.314 C 
BRANCH   9  19
ATOM     19  N   UNL A   1      33.043  18.704  26.368  1.00  0.00    -0.397 N 
ATOM     20  H   UNL A   1      32.381  18.322  26.990  1.00  0.00     0.156 HD
ATOM     21  H   UNL A   1      33.914  19.013  26.706  1.00  0.00     0.156 HD
ENDBRANCH   9  19
BRANCH  18  22
ATOM     22  C   UNL A   1      33.384  23.028  22.530  1.00  0.00     0.429 C 
ATOM     23  F   UNL A   1      33.485  24.356  22.791  1.00  0.00    -0.167 F 
ATOM     24  F   UNL A   1      34.447  22.441  23.129  1.00  0.00    -0.167 F 
ATOM     25  F   UNL A   1      33.539  22.862  21.199  1.00  0.00    -0.167 F 
ENDBRANCH  18  22
ENDBRANCH   5   8
ENDBRANCH   3   4
ENDBRANCH   2   3
ENDBRANCH   1   2
BRANCH   1  26
ATOM     26  C   UNL A   1      37.160  23.292  25.631  1.00  0.00     0.116 C 
BRANCH  26  27
ATOM     27  N   UNL A   1      38.400  22.531  25.691  1.00  0.00    -0.352 N 
ATOM     28  C   UNL A   1      39.603  22.931  26.218  1.00  0.00     0.251 C 
ATOM     29  H   UNL A   1      38.373  21.625  25.308  1.00  0.00     0.163 HD
ATOM     30  O   UNL A   1      40.598  22.218  26.153  1.00  0.00    -0.269 OA
BRANCH  28  31
ATOM     31  C   UNL A   1      39.680  24.265  26.834  1.00  0.00     0.039 A 
ATOM     32  C   UNL A   1      39.188  24.435  28.128  1.00  0.00     0.014 A 
ATOM     33  C   UNL A   1      40.328  25.305  26.161  1.00  0.00     0.014 A 
ATOM     34  C   UNL A   1      39.409  25.643  28.786  1.00  0.00     0.010 A 
ATOM     35  C   UNL A   1      40.580  26.496  26.833  1.00  0.00     0.010 A 
ATOM     36  C   UNL A   1      40.134  26.666  28.153  1.00  0.00    -0.014 A 
BRANCH  36  37
ATOM     37  C   UNL A   1      40.441  27.927  28.864  1.00  0.00     0.031 A 
ATOM     38  C   UNL A   1      41.774  28.104  29.524  1.00  0.00     0.074 A 
ATOM     39  C   UNL A   1      39.502  28.886  28.951  1.00  0.00     0.049 A 
ATOM     40  N   UNL A   1      42.211  29.112  30.232  1.00  0.00    -0.248 NA
ATOM     41  C   UNL A   1      42.737  27.000  29.380  1.00  0.00     0.031 C 
ATOM     42  C   UNL A   1      38.162  28.819  28.365  1.00  0.00     0.029 A 
ATOM     43  N   UNL A   1      39.535  30.110  29.568  1.00  0.00    -0.354 N 
ATOM     44  C   UNL A   1      43.495  28.763  30.624  1.00  0.00     0.074 A 
ATOM     45  C   UNL A   1      43.756  27.438  30.107  1.00  0.00     0.031 C 
ATOM     46  C   UNL A   1      37.510  29.963  28.630  1.00  0.00     0.029 A 
ATOM     47  C   UNL A   1      38.375  30.830  29.424  1.00  0.00     0.049 A 
ATOM     48  H   UNL A   1      40.316  30.441  30.068  1.00  0.00     0.167 HD
ATOM     49  C   UNL A   1      44.384  29.491  31.339  1.00  0.00     0.031 A 
ATOM     50  C   UNL A   1      38.046  32.053  29.880  1.00  0.00     0.031 A 
ATOM     51  C   UNL A   1      44.133  30.811  31.842  1.00  0.00     0.049 A 
ATOM     52  C   UNL A   1      39.043  32.833  30.688  1.00  0.00     0.074 A 
ATOM     53  C   UNL A   1      44.986  31.639  32.548  1.00  0.00     0.029 A 
ATOM     54  N   UNL A   1      42.938  31.497  31.688  1.00  0.00    -0.354 N 
ATOM     55  N   UNL A   1      40.262  32.498  31.032  1.00  0.00    -0.248 NA
ATOM     56  C   UNL A   1      38.620  34.156  31.169  1.00  0.00     0.031 C 
ATOM     57  C   UNL A   1      44.300  32.820  32.845  1.00  0.00     0.029 A 
ATOM     58  C   UNL A   1      43.030  32.737  32.296  1.00  0.00     0.049 A 
ATOM     59  H   UNL A   1      42.145  31.154  31.218  1.00  0.00     0.167 HD
ATOM     60  C   UNL A   1      40.760  33.574  31.755  1.00  0.00     0.074 A 
ATOM     61  C   UNL A   1      39.712  34.574  31.798  1.00  0.00     0.031 C 
ATOM     62  C   UNL A   1      41.977  33.716  32.329  1.00  0.00     0.031 A 
BRANCH  49  63
ATOM     63  C   UNL A   1      45.721  28.870  31.608  1.00  0.00    -0.014 A 
ATOM     64  C   UNL A   1      46.795  29.078  30.730  1.00  0.00     0.009 A 
ATOM     65  C   UNL A   1      45.921  28.111  32.769  1.00  0.00     0.009 A 
ATOM     66  C   UNL A   1      48.044  28.519  31.002  1.00  0.00     0.001 A 
ATOM     67  C   UNL A   1      47.175  27.567  33.047  1.00  0.00     0.001 A 
ATOM     68  C   UNL A   1      48.234  27.768  32.163  1.00  0.00     0.000 A 
ENDBRANCH  49  63
BRANCH  50  69
ATOM     69  C   UNL A   1      36.718  32.625  29.552  1.00  0.00    -0.014 A 
ATOM     70  C   UNL A   1      35.673  32.554  30.485  1.00  0.00     0.009 A 
ATOM     71  C   UNL A   1      36.498  33.272  28.327  1.00  0.00     0.009 A 
ATOM     72  C   UNL A   1      34.428  33.114  30.193  1.00  0.00     0.001 A 
ATOM     73  C   UNL A   1      35.256  33.844  28.044  1.00  0.00     0.001 A 
ATOM     74  C   UNL A   1      34.222  33.762  28.976  1.00  0.00     0.000 A 
ENDBRANCH  50  69
BRANCH  62  75
ATOM     75  C   UNL A   1      42.263  35.003  33.044  1.00  0.00    -0.014 A 
ATOM     76  C   UNL A   1      41.813  35.207  34.356  1.00  0.00     0.009 A 
ATOM     77  C   UNL A   1      43.079  35.970  32.437  1.00  0.00     0.009 A 
ATOM     78  C   UNL A   1      42.174  36.364  35.048  1.00  0.00     0.001 A 
ATOM     79  C   UNL A   1      43.449  37.117  33.137  1.00  0.00     0.001 A 
ATOM     80  C   UNL A   1      42.997  37.313  34.442  1.00  0.00     0.000 A 
ENDBRANCH  62  75
ENDBRANCH  36  37
ENDBRANCH  28  31
ENDBRANCH  26  27
ENDBRANCH   1  26
TORSDOF 13
ENDMDL
