MODEL 1
REMARK VINA RESULT:      -9.4      0.000      0.000
REMARK SMILES CS(=O)(=O)c1ccc(/C=C(/C(=O)NCCCCNC(=O)c2ccc(-c3c4nc(c(-c5ccccc5)c5ccc([nH]5)c(-c5ccccc5)c5nc(c(-c6ccccc6)c6ccc3[nH]6)C=C5)C=C4)cc2)c2cccc(-c3ccc(S(C)(=O)=O)cc3)c2)cc1
REMARK SMILES IDX 15 1 14 2 13 3 11 4 12 5 10 7 9 8 8 9 5 10 6 11 86 12 7 13
REMARK SMILES IDX 85 14 2 15 1 16 3 17 4 18 69 19 70 20 84 21 71 22 73 23
REMARK SMILES IDX 72 24 74 25 75 26 83 27 76 28 82 29 77 30 78 31 79 32 80 33
REMARK SMILES IDX 81 34 16 35 17 36 18 37 19 38 20 40 21 41 22 42 68 43 23 44
REMARK SMILES IDX 67 45 24 46 25 47 26 48 61 49 27 50 66 51 60 52 62 53 28 54
REMARK SMILES IDX 65 55 59 56 58 57 29 59 51 60 36 61 50 62 37 63 40 64 49 65
REMARK SMILES IDX 63 66 38 67 39 68 48 70 64 71 41 72 30 73 31 74 35 75 32 76
REMARK SMILES IDX 34 77 33 78 52 79 53 80 57 81 54 82 56 83 55 84 42 85 43 86
REMARK SMILES IDX 47 87 44 88 46 89 45 90
REMARK H PARENT 13 6 18 39 62 58 40 69
REMARK Flexibility Score: inf
ROOT
ATOM      1  C   UNL A   1      34.657  33.746  30.788  1.00  0.00     0.023 C 
ENDROOT
BRANCH   1   2
ATOM      2  C   UNL A   1      35.450  34.473  31.879  1.00  0.00     0.116 C 
BRANCH   2   3
ATOM      3  N   UNL A   1      36.844  34.571  31.499  1.00  0.00    -0.352 N 
ATOM      4  C   UNL A   1      38.015  34.321  32.142  1.00  0.00     0.251 C 
ATOM      5  O   UNL A   1      39.036  34.588  31.501  1.00  0.00    -0.269 OA
ATOM      6  H   UNL A   1      36.970  34.886  30.575  1.00  0.00     0.163 HD
BRANCH   4   7
ATOM      7  C   UNL A   1      38.110  33.678  33.512  1.00  0.00     0.047 C 
ATOM      8  C   UNL A   1      38.341  34.410  34.628  1.00  0.00     0.022 C 
BRANCH   8   9
ATOM      9  C   UNL A   1      38.334  34.015  36.055  1.00  0.00    -0.025 A 
ATOM     10  C   UNL A   1      38.369  33.494  38.817  1.00  0.00     0.067 A 
ATOM     11  C   UNL A   1      37.394  32.907  38.013  1.00  0.00     0.021 A 
ATOM     12  C   UNL A   1      39.353  34.307  38.250  1.00  0.00     0.021 A 
ATOM     13  C   UNL A   1      37.401  33.146  36.631  1.00  0.00     0.009 A 
ATOM     14  C   UNL A   1      39.332  34.563  36.877  1.00  0.00     0.009 A 
BRANCH  10  15
ATOM     15  S   UNL A   1      38.415  33.265  40.580  1.00  0.00     0.175 S 
ATOM     16  C   UNL A   1      36.763  33.470  41.184  1.00  0.00     0.163 C 
ATOM     17  O   UNL A   1      39.206  34.358  41.114  1.00  0.00    -0.224 OA
ATOM     18  O   UNL A   1      38.800  31.884  40.796  1.00  0.00    -0.224 OA
ENDBRANCH  10  15
ENDBRANCH   8   9
BRANCH   7  19
ATOM     19  C   UNL A   1      38.113  32.190  33.561  1.00  0.00    -0.012 A 
ATOM     20  C   UNL A   1      37.077  31.495  32.914  1.00  0.00     0.009 A 
ATOM     21  C   UNL A   1      39.172  31.455  34.115  1.00  0.00     0.017 A 
ATOM     22  C   UNL A   1      37.099  30.109  32.808  1.00  0.00     0.001 A 
ATOM     23  C   UNL A   1      39.256  30.061  33.935  1.00  0.00    -0.018 A 
ATOM     24  C   UNL A   1      38.189  29.400  33.304  1.00  0.00     0.009 A 
BRANCH  23  25
ATOM     25  C   UNL A   1      40.490  29.333  34.269  1.00  0.00    -0.018 A 
ATOM     26  C   UNL A   1      41.226  29.700  35.413  1.00  0.00     0.010 A 
ATOM     27  C   UNL A   1      40.934  28.235  33.515  1.00  0.00     0.010 A 
ATOM     28  C   UNL A   1      42.364  28.994  35.799  1.00  0.00     0.021 A 
ATOM     29  C   UNL A   1      42.078  27.523  33.891  1.00  0.00     0.021 A 
ATOM     30  C   UNL A   1      42.787  27.912  35.028  1.00  0.00     0.067 A 
BRANCH  30  31
ATOM     31  S   UNL A   1      44.217  27.001  35.555  1.00  0.00     0.175 S 
ATOM     32  C   UNL A   1      43.828  26.537  37.222  1.00  0.00     0.163 C 
ATOM     33  O   UNL A   1      44.266  25.798  34.746  1.00  0.00    -0.224 OA
ATOM     34  O   UNL A   1      45.338  27.922  35.602  1.00  0.00    -0.224 OA
ENDBRANCH  30  31
ENDBRANCH  23  25
ENDBRANCH   7  19
ENDBRANCH   4   7
ENDBRANCH   2   3
ENDBRANCH   1   2
BRANCH   1  35
ATOM     35  C   UNL A   1      35.527  33.060  29.728  1.00  0.00     0.023 C 
BRANCH  35  36
ATOM     36  C   UNL A   1      35.068  33.262  28.289  1.00  0.00     0.116 C 
BRANCH  36  37
ATOM     37  N   UNL A   1      34.134  32.241  27.842  1.00  0.00    -0.352 N 
ATOM     38  C   UNL A   1      34.351  30.898  27.667  1.00  0.00     0.251 C 
ATOM     39  H   UNL A   1      33.223  32.557  27.637  1.00  0.00     0.163 HD
ATOM     40  O   UNL A   1      33.485  30.189  27.168  1.00  0.00    -0.269 OA
BRANCH  38  41
ATOM     41  C   UNL A   1      35.653  30.317  28.052  1.00  0.00     0.039 A 
ATOM     42  C   UNL A   1      36.721  30.409  27.156  1.00  0.00     0.014 A 
ATOM     43  C   UNL A   1      35.821  29.697  29.292  1.00  0.00     0.014 A 
ATOM     44  C   UNL A   1      37.974  29.922  27.527  1.00  0.00     0.010 A 
ATOM     45  C   UNL A   1      37.086  29.275  29.687  1.00  0.00     0.010 A 
ATOM     46  C   UNL A   1      38.172  29.375  28.805  1.00  0.00    -0.014 A 
BRANCH  46  47
ATOM     47  C   UNL A   1      39.503  28.880  29.229  1.00  0.00     0.031 A 
ATOM     48  C   UNL A   1      40.395  29.753  30.068  1.00  0.00     0.074 A 
ATOM     49  C   UNL A   1      39.934  27.674  28.813  1.00  0.00     0.049 A 
ATOM     50  N   UNL A   1      41.613  29.526  30.490  1.00  0.00    -0.248 NA
ATOM     51  C   UNL A   1      39.858  31.066  30.461  1.00  0.00     0.031 C 
ATOM     52  C   UNL A   1      39.179  26.748  27.965  1.00  0.00     0.029 A 
ATOM     53  N   UNL A   1      41.118  27.021  29.045  1.00  0.00    -0.354 N 
ATOM     54  C   UNL A   1      41.993  30.672  31.177  1.00  0.00     0.074 A 
ATOM     55  C   UNL A   1      40.897  31.611  31.073  1.00  0.00     0.031 C 
ATOM     56  C   UNL A   1      39.909  25.637  27.771  1.00  0.00     0.029 A 
ATOM     57  C   UNL A   1      41.193  25.787  28.448  1.00  0.00     0.049 A 
ATOM     58  H   UNL A   1      41.847  27.402  29.588  1.00  0.00     0.167 HD
ATOM     59  C   UNL A   1      43.140  30.915  31.853  1.00  0.00     0.031 A 
ATOM     60  C   UNL A   1      42.187  24.879  28.443  1.00  0.00     0.031 A 
ATOM     61  C   UNL A   1      44.222  29.975  31.971  1.00  0.00     0.049 A 
ATOM     62  C   UNL A   1      43.453  25.173  29.199  1.00  0.00     0.074 A 
ATOM     63  C   UNL A   1      45.402  30.102  32.681  1.00  0.00     0.029 A 
ATOM     64  N   UNL A   1      44.252  28.728  31.363  1.00  0.00    -0.354 N 
ATOM     65  N   UNL A   1      43.769  26.234  29.900  1.00  0.00    -0.248 NA
ATOM     66  C   UNL A   1      44.493  24.135  29.173  1.00  0.00     0.031 C 
ATOM     67  C   UNL A   1      46.168  28.953  32.465  1.00  0.00     0.029 A 
ATOM     68  C   UNL A   1      45.440  28.086  31.665  1.00  0.00     0.049 A 
ATOM     69  H   UNL A   1      43.535  28.358  30.800  1.00  0.00     0.167 HD
ATOM     70  C   UNL A   1      45.031  25.980  30.423  1.00  0.00     0.074 A 
ATOM     71  C   UNL A   1      45.414  24.659  29.970  1.00  0.00     0.031 C 
ATOM     72  C   UNL A   1      45.802  26.769  31.210  1.00  0.00     0.031 A 
BRANCH  59  73
ATOM     73  C   UNL A   1      43.281  32.257  32.515  1.00  0.00    -0.014 A 
ATOM     74  C   UNL A   1      43.921  33.325  31.867  1.00  0.00     0.009 A 
ATOM     75  C   UNL A   1      42.746  32.463  33.796  1.00  0.00     0.009 A 
ATOM     76  C   UNL A   1      44.059  34.560  32.503  1.00  0.00     0.001 A 
ATOM     77  C   UNL A   1      42.858  33.708  34.418  1.00  0.00     0.001 A 
ATOM     78  C   UNL A   1      43.523  34.753  33.776  1.00  0.00     0.000 A 
ENDBRANCH  59  73
BRANCH  60  79
ATOM     79  C   UNL A   1      42.019  23.593  27.718  1.00  0.00    -0.014 A 
ATOM     80  C   UNL A   1      42.503  23.446  26.409  1.00  0.00     0.009 A 
ATOM     81  C   UNL A   1      41.364  22.509  28.325  1.00  0.00     0.009 A 
ATOM     82  C   UNL A   1      42.311  22.251  25.712  1.00  0.00     0.001 A 
ATOM     83  C   UNL A   1      41.199  21.306  27.636  1.00  0.00     0.001 A 
ATOM     84  C   UNL A   1      41.663  21.181  26.327  1.00  0.00     0.000 A 
ENDBRANCH  60  79
BRANCH  72  85
ATOM     85  C   UNL A   1      47.120  26.209  31.664  1.00  0.00    -0.014 A 
ATOM     86  C   UNL A   1      48.268  26.302  30.863  1.00  0.00     0.009 A 
ATOM     87  C   UNL A   1      47.219  25.616  32.931  1.00  0.00     0.009 A 
ATOM     88  C   UNL A   1      49.485  25.784  31.312  1.00  0.00     0.001 A 
ATOM     89  C   UNL A   1      48.442  25.124  33.389  1.00  0.00     0.001 A 
ATOM     90  C   UNL A   1      49.571  25.200  32.576  1.00  0.00     0.000 A 
ENDBRANCH  72  85
ENDBRANCH  46  47
ENDBRANCH  38  41
ENDBRANCH  36  37
ENDBRANCH  35  36
ENDBRANCH   1  35
TORSDOF 16
ENDMDL
MODEL 2
REMARK VINA RESULT:      -9.3      3.931     10.581
REMARK SMILES CS(=O)(=O)c1ccc(/C=C(/C(=O)NCCCCNC(=O)c2ccc(-c3c4nc(c(-c5ccccc5)c5ccc([nH]5)c(-c5ccccc5)c5nc(c(-c6ccccc6)c6ccc3[nH]6)C=C5)C=C4)cc2)c2cccc(-c3ccc(S(C)(=O)=O)cc3)c2)cc1
REMARK SMILES IDX 15 1 14 2 13 3 11 4 12 5 10 7 9 8 8 9 5 10 6 11 86 12 7 13
REMARK SMILES IDX 85 14 2 15 1 16 3 17 4 18 69 19 70 20 84 21 71 22 73 23
REMARK SMILES IDX 72 24 74 25 75 26 83 27 76 28 82 29 77 30 78 31 79 32 80 33
REMARK SMILES IDX 81 34 16 35 17 36 18 37 19 38 20 40 21 41 22 42 68 43 23 44
REMARK SMILES IDX 67 45 24 46 25 47 26 48 61 49 27 50 66 51 60 52 62 53 28 54
REMARK SMILES IDX 65 55 59 56 58 57 29 59 51 60 36 61 50 62 37 63 40 64 49 65
REMARK SMILES IDX 63 66 38 67 39 68 48 70 64 71 41 72 30 73 31 74 35 75 32 76
REMARK SMILES IDX 34 77 33 78 52 79 53 80 57 81 54 82 56 83 55 84 42 85 43 86
REMARK SMILES IDX 47 87 44 88 46 89 45 90
REMARK H PARENT 13 6 18 39 62 58 40 69
REMARK Flexibility Score: inf
ROOT
ATOM      1  C   UNL A   1      45.706  22.691  25.773  1.00  0.00     0.023 C 
ENDROOT
BRANCH   1   2
ATOM      2  C   UNL A   1      44.317  22.100  26.036  1.00  0.00     0.116 C 
BRANCH   2   3
ATOM      3  N   UNL A   1      43.982  22.222  27.440  1.00  0.00    -0.352 N 
ATOM      4  C   UNL A   1      42.906  22.710  28.113  1.00  0.00     0.251 C 
ATOM      5  O   UNL A   1      43.007  22.704  29.344  1.00  0.00    -0.269 OA
ATOM      6  H   UNL A   1      44.685  21.876  28.035  1.00  0.00     0.163 HD
BRANCH   4   7
ATOM      7  C   UNL A   1      41.620  23.155  27.446  1.00  0.00     0.047 C 
ATOM      8  C   UNL A   1      40.731  22.264  26.945  1.00  0.00     0.022 C 
BRANCH   8   9
ATOM      9  C   UNL A   1      39.375  22.468  26.388  1.00  0.00    -0.025 A 
ATOM     10  C   UNL A   1      36.750  22.629  25.392  1.00  0.00     0.067 A 
ATOM     11  C   UNL A   1      37.289  23.698  26.106  1.00  0.00     0.021 A 
ATOM     12  C   UNL A   1      37.524  21.495  25.135  1.00  0.00     0.021 A 
ATOM     13  C   UNL A   1      38.609  23.625  26.573  1.00  0.00     0.009 A 
ATOM     14  C   UNL A   1      38.827  21.419  25.631  1.00  0.00     0.009 A 
BRANCH  10  15
ATOM     15  S   UNL A   1      35.078  22.631  24.790  1.00  0.00     0.175 S 
ATOM     16  C   UNL A   1      34.444  20.989  24.982  1.00  0.00     0.163 C 
ATOM     17  O   UNL A   1      35.156  22.898  23.366  1.00  0.00    -0.224 OA
ATOM     18  O   UNL A   1      34.332  23.503  25.676  1.00  0.00    -0.224 OA
ENDBRANCH  10  15
ENDBRANCH   8   9
BRANCH   7  19
ATOM     19  C   UNL A   1      41.453  24.615  27.206  1.00  0.00    -0.012 A 
ATOM     20  C   UNL A   1      41.688  25.114  25.913  1.00  0.00     0.009 A 
ATOM     21  C   UNL A   1      40.950  25.488  28.181  1.00  0.00     0.017 A 
ATOM     22  C   UNL A   1      41.418  26.440  25.595  1.00  0.00     0.001 A 
ATOM     23  C   UNL A   1      40.584  26.807  27.852  1.00  0.00    -0.018 A 
ATOM     24  C   UNL A   1      40.856  27.276  26.555  1.00  0.00     0.009 A 
BRANCH  23  25
ATOM     25  C   UNL A   1      39.806  27.629  28.792  1.00  0.00    -0.018 A 
ATOM     26  C   UNL A   1      40.176  27.670  30.151  1.00  0.00     0.010 A 
ATOM     27  C   UNL A   1      38.734  28.431  28.369  1.00  0.00     0.010 A 
ATOM     28  C   UNL A   1      39.504  28.486  31.060  1.00  0.00     0.021 A 
ATOM     29  C   UNL A   1      38.050  29.250  29.274  1.00  0.00     0.021 A 
ATOM     30  C   UNL A   1      38.439  29.267  30.615  1.00  0.00     0.067 A 
BRANCH  30  31
ATOM     31  S   UNL A   1      37.619  30.328  31.778  1.00  0.00     0.175 S 
ATOM     32  C   UNL A   1      38.310  29.850  33.340  1.00  0.00     0.163 C 
ATOM     33  O   UNL A   1      38.050  31.681  31.483  1.00  0.00    -0.224 OA
ATOM     34  O   UNL A   1      36.212  29.972  31.789  1.00  0.00    -0.224 OA
ENDBRANCH  30  31
ENDBRANCH  23  25
ENDBRANCH   7  19
ENDBRANCH   4   7
ENDBRANCH   2   3
ENDBRANCH   1   2
BRANCH   1  35
ATOM     35  C   UNL A   1      45.697  24.178  25.397  1.00  0.00     0.023 C 
BRANCH  35  36
ATOM     36  C   UNL A   1      47.016  24.907  25.623  1.00  0.00     0.116 C 
BRANCH  36  37
ATOM     37  N   UNL A   1      47.244  25.978  24.666  1.00  0.00    -0.352 N 
ATOM     38  C   UNL A   1      46.828  27.284  24.727  1.00  0.00     0.251 C 
ATOM     39  H   UNL A   1      47.768  25.733  23.869  1.00  0.00     0.163 HD
ATOM     40  O   UNL A   1      47.005  28.036  23.775  1.00  0.00    -0.269 OA
BRANCH  38  41
ATOM     41  C   UNL A   1      46.133  27.769  25.935  1.00  0.00     0.039 A 
ATOM     42  C   UNL A   1      46.895  28.280  26.989  1.00  0.00     0.014 A 
ATOM     43  C   UNL A   1      44.739  27.731  26.022  1.00  0.00     0.014 A 
ATOM     44  C   UNL A   1      46.253  28.800  28.113  1.00  0.00     0.010 A 
ATOM     45  C   UNL A   1      44.100  28.313  27.112  1.00  0.00     0.010 A 
ATOM     46  C   UNL A   1      44.851  28.845  28.172  1.00  0.00    -0.014 A 
BRANCH  46  47
ATOM     47  C   UNL A   1      44.150  29.421  29.344  1.00  0.00     0.031 A 
ATOM     48  C   UNL A   1      43.773  30.877  29.349  1.00  0.00     0.074 A 
ATOM     49  C   UNL A   1      43.907  28.655  30.424  1.00  0.00     0.049 A 
ATOM     50  N   UNL A   1      43.210  31.581  30.299  1.00  0.00    -0.248 NA
ATOM     51  C   UNL A   1      44.095  31.650  28.139  1.00  0.00     0.031 C 
ATOM     52  C   UNL A   1      44.258  27.239  30.557  1.00  0.00     0.029 A 
ATOM     53  N   UNL A   1      43.309  28.962  31.619  1.00  0.00    -0.354 N 
ATOM     54  C   UNL A   1      43.132  32.878  29.810  1.00  0.00     0.074 A 
ATOM     55  C   UNL A   1      43.749  32.875  28.501  1.00  0.00     0.031 C 
ATOM     56  C   UNL A   1      43.845  26.795  31.756  1.00  0.00     0.029 A 
ATOM     57  C   UNL A   1      43.236  27.901  32.488  1.00  0.00     0.049 A 
ATOM     58  H   UNL A   1      42.966  29.860  31.836  1.00  0.00     0.167 HD
ATOM     59  C   UNL A   1      42.577  33.970  30.386  1.00  0.00     0.031 A 
ATOM     60  C   UNL A   1      42.736  27.827  33.735  1.00  0.00     0.031 A 
ATOM     61  C   UNL A   1      41.949  33.969  31.679  1.00  0.00     0.049 A 
ATOM     62  C   UNL A   1      42.128  29.055  34.356  1.00  0.00     0.074 A 
ATOM     63  C   UNL A   1      41.307  35.008  32.328  1.00  0.00     0.029 A 
ATOM     64  N   UNL A   1      41.882  32.868  32.521  1.00  0.00    -0.354 N 
ATOM     65  N   UNL A   1      42.000  30.259  33.852  1.00  0.00    -0.248 NA
ATOM     66  C   UNL A   1      41.581  28.908  35.711  1.00  0.00     0.031 C 
ATOM     67  C   UNL A   1      40.892  34.551  33.582  1.00  0.00     0.029 A 
ATOM     68  C   UNL A   1      41.227  33.210  33.691  1.00  0.00     0.049 A 
ATOM     69  H   UNL A   1      42.247  31.978  32.316  1.00  0.00     0.167 HD
ATOM     70  C   UNL A   1      41.334  31.004  34.817  1.00  0.00     0.074 A 
ATOM     71  C   UNL A   1      41.070  30.112  35.927  1.00  0.00     0.031 C 
ATOM     72  C   UNL A   1      40.970  32.309  34.784  1.00  0.00     0.031 A 
BRANCH  59  73
ATOM     73  C   UNL A   1      42.631  35.260  29.617  1.00  0.00    -0.014 A 
ATOM     74  C   UNL A   1      43.648  36.201  29.843  1.00  0.00     0.009 A 
ATOM     75  C   UNL A   1      41.665  35.528  28.635  1.00  0.00     0.009 A 
ATOM     76  C   UNL A   1      43.673  37.402  29.131  1.00  0.00     0.001 A 
ATOM     77  C   UNL A   1      41.710  36.716  27.902  1.00  0.00     0.001 A 
ATOM     78  C   UNL A   1      42.708  37.656  28.158  1.00  0.00     0.000 A 
ENDBRANCH  59  73
BRANCH  60  79
ATOM     79  C   UNL A   1      42.766  26.540  34.476  1.00  0.00    -0.014 A 
ATOM     80  C   UNL A   1      41.571  25.881  34.806  1.00  0.00     0.009 A 
ATOM     81  C   UNL A   1      43.987  25.969  34.869  1.00  0.00     0.009 A 
ATOM     82  C   UNL A   1      41.597  24.691  35.537  1.00  0.00     0.001 A 
ATOM     83  C   UNL A   1      44.010  24.765  35.575  1.00  0.00     0.001 A 
ATOM     84  C   UNL A   1      42.815  24.132  35.918  1.00  0.00     0.000 A 
ENDBRANCH  60  79
BRANCH  72  85
ATOM     85  C   UNL A   1      40.214  32.841  35.967  1.00  0.00    -0.014 A 
ATOM     86  C   UNL A   1      40.879  33.366  37.085  1.00  0.00     0.009 A 
ATOM     87  C   UNL A   1      38.810  32.853  35.943  1.00  0.00     0.009 A 
ATOM     88  C   UNL A   1      40.153  33.865  38.168  1.00  0.00     0.001 A 
ATOM     89  C   UNL A   1      38.087  33.378  37.015  1.00  0.00     0.001 A 
ATOM     90  C   UNL A   1      38.760  33.874  38.130  1.00  0.00     0.000 A 
ENDBRANCH  72  85
ENDBRANCH  46  47
ENDBRANCH  38  41
ENDBRANCH  36  37
ENDBRANCH  35  36
ENDBRANCH   1  35
TORSDOF 16
ENDMDL
MODEL 3
REMARK VINA RESULT:      -8.9      4.239      9.985
REMARK SMILES CS(=O)(=O)c1ccc(/C=C(/C(=O)NCCCCNC(=O)c2ccc(-c3c4nc(c(-c5ccccc5)c5ccc([nH]5)c(-c5ccccc5)c5nc(c(-c6ccccc6)c6ccc3[nH]6)C=C5)C=C4)cc2)c2cccc(-c3ccc(S(C)(=O)=O)cc3)c2)cc1
REMARK SMILES IDX 15 1 14 2 13 3 11 4 12 5 10 7 9 8 8 9 5 10 6 11 86 12 7 13
REMARK SMILES IDX 85 14 2 15 1 16 3 17 4 18 69 19 70 20 84 21 71 22 73 23
REMARK SMILES IDX 72 24 74 25 75 26 83 27 76 28 82 29 77 30 78 31 79 32 80 33
REMARK SMILES IDX 81 34 16 35 17 36 18 37 19 38 20 40 21 41 22 42 68 43 23 44
REMARK SMILES IDX 67 45 24 46 25 47 26 48 61 49 27 50 66 51 60 52 62 53 28 54
REMARK SMILES IDX 65 55 59 56 58 57 29 59 51 60 36 61 50 62 37 63 40 64 49 65
REMARK SMILES IDX 63 66 38 67 39 68 48 70 64 71 41 72 30 73 31 74 35 75 32 76
REMARK SMILES IDX 34 77 33 78 52 79 53 80 57 81 54 82 56 83 55 84 42 85 43 86
REMARK SMILES IDX 47 87 44 88 46 89 45 90
REMARK H PARENT 13 6 18 39 62 58 40 69
REMARK Flexibility Score: inf
ROOT
ATOM      1  C   UNL A   1      44.973  24.720  25.949  1.00  0.00     0.023 C 
ENDROOT
BRANCH   1   2
ATOM      2  C   UNL A   1      43.726  24.773  25.062  1.00  0.00     0.116 C 
BRANCH   2   3
ATOM      3  N   UNL A   1      43.422  26.145  24.711  1.00  0.00    -0.352 N 
ATOM      4  C   UNL A   1      42.555  27.072  25.197  1.00  0.00     0.251 C 
ATOM      5  O   UNL A   1      42.532  28.144  24.585  1.00  0.00    -0.269 OA
ATOM      6  H   UNL A   1      43.961  26.478  23.958  1.00  0.00     0.163 HD
BRANCH   4   7
ATOM      7  C   UNL A   1      41.723  26.880  26.450  1.00  0.00     0.047 C 
ATOM      8  C   UNL A   1      41.502  27.893  27.321  1.00  0.00     0.022 C 
BRANCH   8   9
ATOM      9  C   UNL A   1      40.624  27.964  28.511  1.00  0.00    -0.025 A 
ATOM     10  C   UNL A   1      39.038  28.322  30.805  1.00  0.00     0.067 A 
ATOM     11  C   UNL A   1      38.508  27.679  29.688  1.00  0.00     0.021 A 
ATOM     12  C   UNL A   1      40.367  28.752  30.803  1.00  0.00     0.021 A 
ATOM     13  C   UNL A   1      39.314  27.476  28.558  1.00  0.00     0.009 A 
ATOM     14  C   UNL A   1      41.152  28.572  29.662  1.00  0.00     0.009 A 
BRANCH  10  15
ATOM     15  S   UNL A   1      38.077  28.643  32.265  1.00  0.00     0.175 S 
ATOM     16  C   UNL A   1      38.918  29.899  33.188  1.00  0.00     0.163 C 
ATOM     17  O   UNL A   1      38.117  27.428  33.058  1.00  0.00    -0.224 OA
ATOM     18  O   UNL A   1      36.818  29.196  31.805  1.00  0.00    -0.224 OA
ENDBRANCH  10  15
ENDBRANCH   8   9
BRANCH   7  19
ATOM     19  C   UNL A   1      41.304  25.489  26.776  1.00  0.00    -0.012 A 
ATOM     20  C   UNL A   1      41.935  24.831  27.846  1.00  0.00     0.009 A 
ATOM     21  C   UNL A   1      40.221  24.859  26.144  1.00  0.00     0.017 A 
ATOM     22  C   UNL A   1      41.494  23.588  28.284  1.00  0.00     0.001 A 
ATOM     23  C   UNL A   1      39.705  23.644  26.635  1.00  0.00    -0.018 A 
ATOM     24  C   UNL A   1      40.378  23.006  27.691  1.00  0.00     0.009 A 
BRANCH  23  25
ATOM     25  C   UNL A   1      38.415  23.127  26.154  1.00  0.00    -0.018 A 
ATOM     26  C   UNL A   1      38.312  21.782  25.749  1.00  0.00     0.010 A 
ATOM     27  C   UNL A   1      37.254  23.917  26.142  1.00  0.00     0.010 A 
ATOM     28  C   UNL A   1      37.093  21.237  25.348  1.00  0.00     0.021 A 
ATOM     29  C   UNL A   1      36.026  23.381  25.737  1.00  0.00     0.021 A 
ATOM     30  C   UNL A   1      35.957  22.046  25.339  1.00  0.00     0.067 A 
BRANCH  30  31
ATOM     31  S   UNL A   1      34.406  21.326  24.862  1.00  0.00     0.175 S 
ATOM     32  C   UNL A   1      33.414  21.458  26.327  1.00  0.00     0.163 C 
ATOM     33  O   UNL A   1      33.840  22.193  23.847  1.00  0.00    -0.224 OA
ATOM     34  O   UNL A   1      34.631  19.915  24.606  1.00  0.00    -0.224 OA
ENDBRANCH  30  31
ENDBRANCH  23  25
ENDBRANCH   7  19
ENDBRANCH   4   7
ENDBRANCH   2   3
ENDBRANCH   1   2
BRANCH   1  35
ATOM     35  C   UNL A   1      46.280  24.478  25.184  1.00  0.00     0.023 C 
BRANCH  35  36
ATOM     36  C   UNL A   1      47.528  25.054  25.843  1.00  0.00     0.116 C 
BRANCH  36  37
ATOM     37  N   UNL A   1      48.169  26.085  25.043  1.00  0.00    -0.352 N 
ATOM     38  C   UNL A   1      48.061  27.449  25.156  1.00  0.00     0.251 C 
ATOM     39  H   UNL A   1      48.759  25.761  24.323  1.00  0.00     0.163 HD
ATOM     40  O   UNL A   1      48.578  28.183  24.322  1.00  0.00    -0.269 OA
BRANCH  38  41
ATOM     41  C   UNL A   1      47.287  28.025  26.273  1.00  0.00     0.039 A 
ATOM     42  C   UNL A   1      45.899  28.123  26.147  1.00  0.00     0.014 A 
ATOM     43  C   UNL A   1      47.924  28.454  27.439  1.00  0.00     0.014 A 
ATOM     44  C   UNL A   1      45.144  28.607  27.215  1.00  0.00     0.010 A 
ATOM     45  C   UNL A   1      47.165  28.870  28.528  1.00  0.00     0.010 A 
ATOM     46  C   UNL A   1      45.768  28.960  28.423  1.00  0.00    -0.014 A 
BRANCH  46  47
ATOM     47  C   UNL A   1      44.981  29.447  29.580  1.00  0.00     0.031 A 
ATOM     48  C   UNL A   1      44.447  30.853  29.584  1.00  0.00     0.074 A 
ATOM     49  C   UNL A   1      44.796  28.650  30.649  1.00  0.00     0.049 A 
ATOM     50  N   UNL A   1      43.788  31.484  30.524  1.00  0.00    -0.248 NA
ATOM     51  C   UNL A   1      44.712  31.667  28.387  1.00  0.00     0.031 C 
ATOM     52  C   UNL A   1      45.296  27.280  30.783  1.00  0.00     0.029 A 
ATOM     53  N   UNL A   1      44.140  28.881  31.831  1.00  0.00    -0.354 N 
ATOM     54  C   UNL A   1      43.580  32.769  30.040  1.00  0.00     0.074 A 
ATOM     55  C   UNL A   1      44.225  32.844  28.746  1.00  0.00     0.031 C 
ATOM     56  C   UNL A   1      44.906  26.784  31.969  1.00  0.00     0.029 A 
ATOM     57  C   UNL A   1      44.162  27.811  32.692  1.00  0.00     0.049 A 
ATOM     58  H   UNL A   1      43.696  29.734  32.044  1.00  0.00     0.167 HD
ATOM     59  C   UNL A   1      42.896  33.789  30.608  1.00  0.00     0.031 A 
ATOM     60  C   UNL A   1      43.643  27.673  33.926  1.00  0.00     0.031 A 
ATOM     61  C   UNL A   1      42.241  33.709  31.885  1.00  0.00     0.049 A 
ATOM     62  C   UNL A   1      42.890  28.823  34.538  1.00  0.00     0.074 A 
ATOM     63  C   UNL A   1      41.474  34.667  32.523  1.00  0.00     0.029 A 
ATOM     64  N   UNL A   1      42.274  32.601  32.719  1.00  0.00    -0.354 N 
ATOM     65  N   UNL A   1      42.645  30.009  34.038  1.00  0.00    -0.248 NA
ATOM     66  C   UNL A   1      42.330  28.605  35.879  1.00  0.00     0.031 C 
ATOM     67  C   UNL A   1      41.081  34.157  33.765  1.00  0.00     0.029 A 
ATOM     68  C   UNL A   1      41.558  32.860  33.875  1.00  0.00     0.049 A 
ATOM     69  H   UNL A   1      42.739  31.757  32.518  1.00  0.00     0.167 HD
ATOM     70  C   UNL A   1      41.878  30.670  34.990  1.00  0.00     0.074 A 
ATOM     71  C   UNL A   1      41.686  29.745  36.089  1.00  0.00     0.031 C 
ATOM     72  C   UNL A   1      41.375  31.927  34.955  1.00  0.00     0.031 A 
BRANCH  59  73
ATOM     73  C   UNL A   1      42.828  35.083  29.847  1.00  0.00    -0.014 A 
ATOM     74  C   UNL A   1      43.765  36.107  30.064  1.00  0.00     0.009 A 
ATOM     75  C   UNL A   1      41.826  35.274  28.883  1.00  0.00     0.009 A 
ATOM     76  C   UNL A   1      43.675  37.310  29.361  1.00  0.00     0.001 A 
ATOM     77  C   UNL A   1      41.758  36.466  28.158  1.00  0.00     0.001 A 
ATOM     78  C   UNL A   1      42.676  37.486  28.405  1.00  0.00     0.000 A 
ENDBRANCH  59  73
BRANCH  60  79
ATOM     79  C   UNL A   1      43.796  26.391  34.661  1.00  0.00    -0.014 A 
ATOM     80  C   UNL A   1      42.748  25.457  34.687  1.00  0.00     0.009 A 
ATOM     81  C   UNL A   1      44.983  26.097  35.349  1.00  0.00     0.009 A 
ATOM     82  C   UNL A   1      42.876  24.269  35.410  1.00  0.00     0.001 A 
ATOM     83  C   UNL A   1      45.119  24.896  36.048  1.00  0.00     0.001 A 
ATOM     84  C   UNL A   1      44.061  23.987  36.086  1.00  0.00     0.000 A 
ENDBRANCH  60  79
BRANCH  72  85
ATOM     85  C   UNL A   1      40.536  32.364  36.123  1.00  0.00    -0.014 A 
ATOM     86  C   UNL A   1      39.154  32.125  36.160  1.00  0.00     0.009 A 
ATOM     87  C   UNL A   1      41.150  32.988  37.220  1.00  0.00     0.009 A 
ATOM     88  C   UNL A   1      38.398  32.531  37.262  1.00  0.00     0.001 A 
ATOM     89  C   UNL A   1      40.396  33.367  38.332  1.00  0.00     0.001 A 
ATOM     90  C   UNL A   1      39.021  33.147  38.347  1.00  0.00     0.000 A 
ENDBRANCH  72  85
ENDBRANCH  46  47
ENDBRANCH  38  41
ENDBRANCH  36  37
ENDBRANCH  35  36
ENDBRANCH   1  35
TORSDOF 16
ENDMDL
