MODEL 1
REMARK VINA RESULT:     -10.4      0.000      0.000
REMARK SMILES Cc1ccnc(NC2(CC(=O)NCCCCNC(=O)c3ccc(-c4c5nc(c(-c6ccccc6)c6ccc([nH]6)c(-c6ccccc6)c6nc(c(-c7ccccc7)c7ccc4[nH]7)C=C6)C=C5)cc3)CCC2)n1
REMARK SMILES IDX 14 1 13 2 12 3 10 4 11 5 9 7 8 8 68 9 70 10 69 11 7 12 6 14
REMARK SMILES IDX 1 15 2 16 3 17 71 18 4 19 5 20 15 21 16 22 17 23 18 24 19 26
REMARK SMILES IDX 20 27 21 28 67 29 22 30 66 31 23 32 24 33 25 34 60 35 26 36
REMARK SMILES IDX 65 37 59 38 61 39 27 40 64 41 58 42 57 43 28 45 50 46 35 47
REMARK SMILES IDX 49 48 36 49 39 50 48 51 62 52 37 53 38 54 47 56 63 57 40 58
REMARK SMILES IDX 29 59 30 60 34 61 31 62 33 63 32 64 51 65 52 66 56 67 53 68
REMARK SMILES IDX 55 69 54 70 41 71 42 72 46 73 43 74 45 75 44 76
REMARK H PARENT 12 6 7 13 17 25 61 44 39 55
REMARK Flexibility Score: inf
ROOT
ATOM      1  C   UNL A   1      31.488  27.640  25.880  1.00  0.00     0.023 C 
ENDROOT
BRANCH   1   2
ATOM      2  C   UNL A   1      30.697  26.330  25.855  1.00  0.00     0.116 C 
BRANCH   2   3
ATOM      3  N   UNL A   1      31.238  25.374  26.795  1.00  0.00    -0.356 N 
ATOM      4  C   UNL A   1      31.635  24.093  26.567  1.00  0.00     0.222 C 
ATOM      5  O   UNL A   1      31.907  23.384  27.539  1.00  0.00    -0.275 OA
ATOM      6  H   UNL A   1      31.331  25.692  27.722  1.00  0.00     0.163 HD
BRANCH   4   7
ATOM      7  C   UNL A   1      31.738  23.542  25.158  1.00  0.00     0.128 C 
BRANCH   7   8
ATOM      8  C   UNL A   1      33.161  23.362  24.601  1.00  0.00     0.049 C 
ATOM      9  C   UNL A   1      33.687  24.607  23.816  1.00  0.00     0.029 C 
ATOM     10  C   UNL A   1      33.255  22.587  23.249  1.00  0.00     0.029 C 
ATOM     11  C   UNL A   1      33.225  23.935  22.514  1.00  0.00     0.005 C 
BRANCH   8  12
ATOM     12  N   UNL A   1      34.076  22.968  25.628  1.00  0.00    -0.348 N 
ATOM     13  H   UNL A   1      33.662  22.887  26.517  1.00  0.00     0.164 HD
BRANCH  12  14
ATOM     14  C   UNL A   1      35.434  22.677  25.614  1.00  0.00     0.223 A 
ATOM     15  C   UNL A   1      37.670  19.888  24.856  1.00  0.00     0.067 C 
ATOM     16  C   UNL A   1      37.214  21.259  25.247  1.00  0.00     0.043 A 
ATOM     17  C   UNL A   1      38.112  22.238  25.608  1.00  0.00     0.044 A 
ATOM     18  N   UNL A   1      35.883  21.472  25.240  1.00  0.00    -0.218 NA
ATOM     19  C   UNL A   1      37.562  23.442  25.970  1.00  0.00     0.117 A 
ATOM     20  N   UNL A   1      36.239  23.681  25.987  1.00  0.00    -0.222 NA
ENDBRANCH  12  14
ENDBRANCH   8  12
ENDBRANCH   7   8
ENDBRANCH   4   7
ENDBRANCH   2   3
ENDBRANCH   1   2
BRANCH   1  21
ATOM     21  C   UNL A   1      31.979  28.079  27.257  1.00  0.00     0.023 C 
BRANCH  21  22
ATOM     22  C   UNL A   1      33.367  28.703  27.275  1.00  0.00     0.116 C 
BRANCH  22  23
ATOM     23  N   UNL A   1      33.383  30.099  27.685  1.00  0.00    -0.352 N 
ATOM     24  C   UNL A   1      34.423  30.820  28.228  1.00  0.00     0.251 C 
ATOM     25  H   UNL A   1      32.541  30.594  27.557  1.00  0.00     0.163 HD
ATOM     26  O   UNL A   1      34.264  31.973  28.591  1.00  0.00    -0.269 OA
BRANCH  24  27
ATOM     27  C   UNL A   1      35.730  30.152  28.412  1.00  0.00     0.039 A 
ATOM     28  C   UNL A   1      36.641  30.162  27.353  1.00  0.00     0.014 A 
ATOM     29  C   UNL A   1      36.072  29.580  29.638  1.00  0.00     0.014 A 
ATOM     30  C   UNL A   1      37.929  29.666  27.553  1.00  0.00     0.010 A 
ATOM     31  C   UNL A   1      37.378  29.160  29.859  1.00  0.00     0.010 A 
ATOM     32  C   UNL A   1      38.319  29.201  28.820  1.00  0.00    -0.014 A 
BRANCH  32  33
ATOM     33  C   UNL A   1      39.709  28.757  29.084  1.00  0.00     0.031 A 
ATOM     34  C   UNL A   1      40.690  29.697  29.725  1.00  0.00     0.074 A 
ATOM     35  C   UNL A   1      40.106  27.534  28.679  1.00  0.00     0.049 A 
ATOM     36  N   UNL A   1      41.962  29.517  29.976  1.00  0.00    -0.248 NA
ATOM     37  C   UNL A   1      40.182  31.025  30.107  1.00  0.00     0.031 C 
ATOM     38  C   UNL A   1      39.264  26.547  28.000  1.00  0.00     0.029 A 
ATOM     39  N   UNL A   1      41.328  26.918  28.778  1.00  0.00    -0.354 N 
ATOM     40  C   UNL A   1      42.408  30.713  30.524  1.00  0.00     0.074 A 
ATOM     41  C   UNL A   1      41.286  31.626  30.523  1.00  0.00     0.031 C 
ATOM     42  C   UNL A   1      39.985  25.436  27.773  1.00  0.00     0.029 A 
ATOM     43  C   UNL A   1      41.346  25.647  28.255  1.00  0.00     0.049 A 
ATOM     44  H   UNL A   1      42.116  27.345  29.183  1.00  0.00     0.167 HD
ATOM     45  C   UNL A   1      43.636  31.018  31.005  1.00  0.00     0.031 A 
ATOM     46  C   UNL A   1      42.347  24.752  28.175  1.00  0.00     0.031 A 
ATOM     47  C   UNL A   1      44.746  30.104  31.026  1.00  0.00     0.049 A 
ATOM     48  C   UNL A   1      43.699  25.111  28.724  1.00  0.00     0.074 A 
ATOM     49  C   UNL A   1      46.013  30.299  31.546  1.00  0.00     0.029 A 
ATOM     50  N   UNL A   1      44.717  28.820  30.505  1.00  0.00    -0.354 N 
ATOM     51  N   UNL A   1      44.088  26.223  29.298  1.00  0.00    -0.248 NA
ATOM     52  C   UNL A   1      44.746  24.084  28.625  1.00  0.00     0.031 C 
ATOM     53  C   UNL A   1      46.764  29.143  31.307  1.00  0.00     0.029 A 
ATOM     54  C   UNL A   1      45.950  28.214  30.678  1.00  0.00     0.049 A 
ATOM     55  H   UNL A   1      43.937  28.402  30.076  1.00  0.00     0.167 HD
ATOM     56  C   UNL A   1      45.416  26.023  29.652  1.00  0.00     0.074 A 
ATOM     57  C   UNL A   1      45.761  24.677  29.240  1.00  0.00     0.031 C 
ATOM     58  C   UNL A   1      46.273  26.875  30.264  1.00  0.00     0.031 A 
BRANCH  45  59
ATOM     59  C   UNL A   1      43.836  32.404  31.550  1.00  0.00    -0.014 A 
ATOM     60  C   UNL A   1      43.606  32.690  32.905  1.00  0.00     0.009 A 
ATOM     61  C   UNL A   1      44.279  33.431  30.703  1.00  0.00     0.009 A 
ATOM     62  C   UNL A   1      43.780  33.986  33.393  1.00  0.00     0.001 A 
ATOM     63  C   UNL A   1      44.479  34.720  31.200  1.00  0.00     0.001 A 
ATOM     64  C   UNL A   1      44.220  34.999  32.542  1.00  0.00     0.000 A 
ENDBRANCH  45  59
BRANCH  46  65
ATOM     65  C   UNL A   1      42.105  23.414  27.578  1.00  0.00    -0.014 A 
ATOM     66  C   UNL A   1      42.434  23.168  26.235  1.00  0.00     0.009 A 
ATOM     67  C   UNL A   1      41.542  22.379  28.340  1.00  0.00     0.009 A 
ATOM     68  C   UNL A   1      42.178  21.922  25.661  1.00  0.00     0.001 A 
ATOM     69  C   UNL A   1      41.311  21.126  27.769  1.00  0.00     0.001 A 
ATOM     70  C   UNL A   1      41.620  20.900  26.428  1.00  0.00     0.000 A 
ENDBRANCH  46  65
BRANCH  58  71
ATOM     71  C   UNL A   1      47.654  26.365  30.555  1.00  0.00    -0.014 A 
ATOM     72  C   UNL A   1      48.680  26.455  29.602  1.00  0.00     0.009 A 
ATOM     73  C   UNL A   1      47.939  25.819  31.816  1.00  0.00     0.009 A 
ATOM     74  C   UNL A   1      49.959  25.980  29.898  1.00  0.00     0.001 A 
ATOM     75  C   UNL A   1      49.226  25.370  32.117  1.00  0.00     0.001 A 
ATOM     76  C   UNL A   1      50.231  25.443  31.155  1.00  0.00     0.000 A 
ENDBRANCH  58  71
ENDBRANCH  32  33
ENDBRANCH  24  27
ENDBRANCH  22  23
ENDBRANCH  21  22
ENDBRANCH   1  21
TORSDOF 14
ENDMDL
MODEL 2
REMARK VINA RESULT:     -10.3      3.907      6.295
REMARK SMILES Cc1ccnc(NC2(CC(=O)NCCCCNC(=O)c3ccc(-c4c5nc(c(-c6ccccc6)c6ccc([nH]6)c(-c6ccccc6)c6nc(c(-c7ccccc7)c7ccc4[nH]7)C=C6)C=C5)cc3)CCC2)n1
REMARK SMILES IDX 14 1 13 2 12 3 10 4 11 5 9 7 8 8 68 9 70 10 69 11 7 12 6 14
REMARK SMILES IDX 1 15 2 16 3 17 71 18 4 19 5 20 15 21 16 22 17 23 18 24 19 26
REMARK SMILES IDX 20 27 21 28 67 29 22 30 66 31 23 32 24 33 25 34 60 35 26 36
REMARK SMILES IDX 65 37 59 38 61 39 27 40 64 41 58 42 57 43 28 45 50 46 35 47
REMARK SMILES IDX 49 48 36 49 39 50 48 51 62 52 37 53 38 54 47 56 63 57 40 58
REMARK SMILES IDX 29 59 30 60 34 61 31 62 33 63 32 64 51 65 52 66 56 67 53 68
REMARK SMILES IDX 55 69 54 70 41 71 42 72 46 73 43 74 45 75 44 76
REMARK H PARENT 12 6 7 13 17 25 61 44 39 55
REMARK Flexibility Score: inf
ROOT
ATOM      1  C   UNL A   1      31.534  30.485  26.700  1.00  0.00     0.023 C 
ENDROOT
BRANCH   1   2
ATOM      2  C   UNL A   1      32.858  29.775  26.410  1.00  0.00     0.116 C 
BRANCH   2   3
ATOM      3  N   UNL A   1      33.229  29.911  25.019  1.00  0.00    -0.356 N 
ATOM      4  C   UNL A   1      33.075  29.013  24.009  1.00  0.00     0.222 C 
ATOM      5  O   UNL A   1      33.616  29.254  22.926  1.00  0.00    -0.275 OA
ATOM      6  H   UNL A   1      33.650  30.767  24.771  1.00  0.00     0.163 HD
BRANCH   4   7
ATOM      7  C   UNL A   1      32.265  27.746  24.201  1.00  0.00     0.128 C 
BRANCH   7   8
ATOM      8  C   UNL A   1      31.159  27.482  23.166  1.00  0.00     0.049 C 
ATOM      9  C   UNL A   1      29.826  26.961  23.794  1.00  0.00     0.029 C 
ATOM     10  C   UNL A   1      31.243  26.106  22.434  1.00  0.00     0.029 C 
ATOM     11  C   UNL A   1      30.285  25.528  23.486  1.00  0.00     0.005 C 
BRANCH   8  12
ATOM     12  N   UNL A   1      30.933  28.630  22.341  1.00  0.00    -0.348 N 
ATOM     13  H   UNL A   1      31.545  28.693  21.574  1.00  0.00     0.164 HD
BRANCH  12  14
ATOM     14  C   UNL A   1      30.018  29.673  22.415  1.00  0.00     0.223 A 
ATOM     15  C   UNL A   1      27.900  31.671  20.207  1.00  0.00     0.067 C 
ATOM     16  C   UNL A   1      28.531  31.155  21.463  1.00  0.00     0.043 A 
ATOM     17  C   UNL A   1      28.235  31.699  22.691  1.00  0.00     0.044 A 
ATOM     18  N   UNL A   1      29.409  30.142  21.319  1.00  0.00    -0.218 NA
ATOM     19  C   UNL A   1      28.901  31.152  23.759  1.00  0.00     0.117 A 
ATOM     20  N   UNL A   1      29.794  30.153  23.646  1.00  0.00    -0.222 NA
ENDBRANCH  12  14
ENDBRANCH   8  12
ENDBRANCH   7   8
ENDBRANCH   4   7
ENDBRANCH   2   3
ENDBRANCH   1   2
BRANCH   1  21
ATOM     21  C   UNL A   1      31.552  32.000  26.517  1.00  0.00     0.023 C 
BRANCH  21  22
ATOM     22  C   UNL A   1      32.651  32.726  27.282  1.00  0.00     0.116 C 
BRANCH  22  23
ATOM     23  N   UNL A   1      32.315  34.094  27.645  1.00  0.00    -0.352 N 
ATOM     24  C   UNL A   1      32.958  34.926  28.534  1.00  0.00     0.251 C 
ATOM     25  H   UNL A   1      31.526  34.476  27.195  1.00  0.00     0.163 HD
ATOM     26  O   UNL A   1      32.513  36.033  28.790  1.00  0.00    -0.269 OA
BRANCH  24  27
ATOM     27  C   UNL A   1      34.174  34.433  29.215  1.00  0.00     0.039 A 
ATOM     28  C   UNL A   1      34.033  33.756  30.429  1.00  0.00     0.014 A 
ATOM     29  C   UNL A   1      35.431  34.582  28.628  1.00  0.00     0.014 A 
ATOM     30  C   UNL A   1      35.149  33.158  31.015  1.00  0.00     0.010 A 
ATOM     31  C   UNL A   1      36.526  33.920  29.170  1.00  0.00     0.010 A 
ATOM     32  C   UNL A   1      36.394  33.200  30.367  1.00  0.00    -0.014 A 
BRANCH  32  33
ATOM     33  C   UNL A   1      37.574  32.493  30.920  1.00  0.00     0.031 A 
ATOM     34  C   UNL A   1      38.234  32.997  32.172  1.00  0.00     0.074 A 
ATOM     35  C   UNL A   1      38.096  31.444  30.254  1.00  0.00     0.049 A 
ATOM     36  N   UNL A   1      39.311  32.557  32.773  1.00  0.00    -0.248 NA
ATOM     37  C   UNL A   1      37.619  34.167  32.820  1.00  0.00     0.031 C 
ATOM     38  C   UNL A   1      37.579  30.889  29.001  1.00  0.00     0.029 A 
ATOM     39  N   UNL A   1      39.184  30.659  30.541  1.00  0.00    -0.354 N 
ATOM     40  C   UNL A   1      39.512  33.407  33.851  1.00  0.00     0.074 A 
ATOM     41  C   UNL A   1      38.479  34.417  33.795  1.00  0.00     0.031 C 
ATOM     42  C   UNL A   1      38.331  29.834  28.644  1.00  0.00     0.029 A 
ATOM     43  C   UNL A   1      39.401  29.662  29.621  1.00  0.00     0.049 A 
ATOM     44  H   UNL A   1      39.756  30.799  31.329  1.00  0.00     0.167 HD
ATOM     45  C   UNL A   1      40.461  33.342  34.815  1.00  0.00     0.031 A 
ATOM     46  C   UNL A   1      40.355  28.715  29.571  1.00  0.00     0.031 A 
ATOM     47  C   UNL A   1      41.476  32.327  34.883  1.00  0.00     0.049 A 
ATOM     48  C   UNL A   1      41.391  28.658  30.658  1.00  0.00     0.074 A 
ATOM     49  C   UNL A   1      42.445  32.140  35.853  1.00  0.00     0.029 A 
ATOM     50  N   UNL A   1      41.648  31.323  33.943  1.00  0.00    -0.354 N 
ATOM     51  N   UNL A   1      41.530  29.431  31.707  1.00  0.00    -0.248 NA
ATOM     52  C   UNL A   1      42.395  27.589  30.558  1.00  0.00     0.031 C 
ATOM     53  C   UNL A   1      43.229  31.044  35.480  1.00  0.00     0.029 A 
ATOM     54  C   UNL A   1      42.719  30.522  34.301  1.00  0.00     0.049 A 
ATOM     55  H   UNL A   1      41.093  31.200  33.140  1.00  0.00     0.167 HD
ATOM     56  C   UNL A   1      42.619  28.928  32.407  1.00  0.00     0.074 A 
ATOM     57  C   UNL A   1      43.094  27.775  31.670  1.00  0.00     0.031 C 
ATOM     58  C   UNL A   1      43.175  29.379  33.557  1.00  0.00     0.031 A 
BRANCH  45  59
ATOM     59  C   UNL A   1      40.437  34.407  35.875  1.00  0.00    -0.014 A 
ATOM     60  C   UNL A   1      39.649  34.263  37.029  1.00  0.00     0.009 A 
ATOM     61  C   UNL A   1      41.226  35.558  35.729  1.00  0.00     0.009 A 
ATOM     62  C   UNL A   1      39.625  35.268  37.997  1.00  0.00     0.001 A 
ATOM     63  C   UNL A   1      41.220  36.548  36.713  1.00  0.00     0.001 A 
ATOM     64  C   UNL A   1      40.413  36.408  37.841  1.00  0.00     0.000 A 
ENDBRANCH  45  59
BRANCH  46  65
ATOM     65  C   UNL A   1      40.360  27.719  28.469  1.00  0.00    -0.014 A 
ATOM     66  C   UNL A   1      39.679  26.500  28.613  1.00  0.00     0.009 A 
ATOM     67  C   UNL A   1      41.047  27.976  27.273  1.00  0.00     0.009 A 
ATOM     68  C   UNL A   1      39.709  25.547  27.593  1.00  0.00     0.001 A 
ATOM     69  C   UNL A   1      41.053  27.032  26.244  1.00  0.00     0.001 A 
ATOM     70  C   UNL A   1      40.392  25.815  26.408  1.00  0.00     0.000 A 
ENDBRANCH  46  65
BRANCH  58  71
ATOM     71  C   UNL A   1      44.337  28.602  34.105  1.00  0.00    -0.014 A 
ATOM     72  C   UNL A   1      45.658  28.939  33.774  1.00  0.00     0.009 A 
ATOM     73  C   UNL A   1      44.103  27.542  34.995  1.00  0.00     0.009 A 
ATOM     74  C   UNL A   1      46.724  28.207  34.302  1.00  0.00     0.001 A 
ATOM     75  C   UNL A   1      45.172  26.830  35.541  1.00  0.00     0.001 A 
ATOM     76  C   UNL A   1      46.480  27.158  35.188  1.00  0.00     0.000 A 
ENDBRANCH  58  71
ENDBRANCH  32  33
ENDBRANCH  24  27
ENDBRANCH  22  23
ENDBRANCH  21  22
ENDBRANCH   1  21
TORSDOF 14
ENDMDL
MODEL 3
REMARK VINA RESULT:     -10.3      2.581      7.579
REMARK SMILES Cc1ccnc(NC2(CC(=O)NCCCCNC(=O)c3ccc(-c4c5nc(c(-c6ccccc6)c6ccc([nH]6)c(-c6ccccc6)c6nc(c(-c7ccccc7)c7ccc4[nH]7)C=C6)C=C5)cc3)CCC2)n1
REMARK SMILES IDX 14 1 13 2 12 3 10 4 11 5 9 7 8 8 68 9 70 10 69 11 7 12 6 14
REMARK SMILES IDX 1 15 2 16 3 17 71 18 4 19 5 20 15 21 16 22 17 23 18 24 19 26
REMARK SMILES IDX 20 27 21 28 67 29 22 30 66 31 23 32 24 33 25 34 60 35 26 36
REMARK SMILES IDX 65 37 59 38 61 39 27 40 64 41 58 42 57 43 28 45 50 46 35 47
REMARK SMILES IDX 49 48 36 49 39 50 48 51 62 52 37 53 38 54 47 56 63 57 40 58
REMARK SMILES IDX 29 59 30 60 34 61 31 62 33 63 32 64 51 65 52 66 56 67 53 68
REMARK SMILES IDX 55 69 54 70 41 71 42 72 46 73 43 74 45 75 44 76
REMARK H PARENT 12 6 7 13 17 25 61 44 39 55
REMARK Flexibility Score: inf
ROOT
ATOM      1  C   UNL A   1      37.090  21.256  24.502  1.00  0.00     0.023 C 
ENDROOT
BRANCH   1   2
ATOM      2  C   UNL A   1      36.577  22.211  25.581  1.00  0.00     0.116 C 
BRANCH   2   3
ATOM      3  N   UNL A   1      35.663  21.542  26.479  1.00  0.00    -0.356 N 
ATOM      4  C   UNL A   1      34.349  21.813  26.709  1.00  0.00     0.222 C 
ATOM      5  O   UNL A   1      33.788  21.235  27.643  1.00  0.00    -0.275 OA
ATOM      6  H   UNL A   1      36.041  20.792  26.994  1.00  0.00     0.163 HD
BRANCH   4   7
ATOM      7  C   UNL A   1      33.589  22.801  25.845  1.00  0.00     0.128 C 
BRANCH   7   8
ATOM      8  C   UNL A   1      32.831  22.212  24.643  1.00  0.00     0.049 C 
ATOM      9  C   UNL A   1      33.597  22.359  23.288  1.00  0.00     0.029 C 
ATOM     10  C   UNL A   1      31.741  23.139  24.021  1.00  0.00     0.029 C 
ATOM     11  C   UNL A   1      32.789  23.637  23.014  1.00  0.00     0.005 C 
BRANCH   8  12
ATOM     12  N   UNL A   1      32.452  20.853  24.883  1.00  0.00    -0.348 N 
ATOM     13  H   UNL A   1      31.841  20.741  25.646  1.00  0.00     0.164 HD
BRANCH  12  14
ATOM     14  C   UNL A   1      32.779  19.661  24.248  1.00  0.00     0.223 A 
ATOM     15  C   UNL A   1      35.061  16.836  24.650  1.00  0.00     0.067 C 
ATOM     16  C   UNL A   1      33.982  17.702  24.079  1.00  0.00     0.043 A 
ATOM     17  C   UNL A   1      33.313  17.351  22.929  1.00  0.00     0.044 A 
ATOM     18  N   UNL A   1      33.716  18.844  24.744  1.00  0.00    -0.218 NA
ATOM     19  C   UNL A   1      32.365  18.245  22.498  1.00  0.00     0.117 A 
ATOM     20  N   UNL A   1      32.088  19.399  23.131  1.00  0.00    -0.222 NA
ENDBRANCH  12  14
ENDBRANCH   8  12
ENDBRANCH   7   8
ENDBRANCH   4   7
ENDBRANCH   2   3
ENDBRANCH   1   2
BRANCH   1  21
ATOM     21  C   UNL A   1      37.819  20.018  25.019  1.00  0.00     0.023 C 
BRANCH  21  22
ATOM     22  C   UNL A   1      39.064  20.305  25.846  1.00  0.00     0.116 C 
BRANCH  22  23
ATOM     23  N   UNL A   1      40.057  19.242  25.812  1.00  0.00    -0.352 N 
ATOM     24  C   UNL A   1      41.406  19.322  26.076  1.00  0.00     0.251 C 
ATOM     25  H   UNL A   1      39.720  18.349  25.569  1.00  0.00     0.163 HD
ATOM     26  O   UNL A   1      42.130  18.351  25.935  1.00  0.00    -0.269 OA
BRANCH  24  27
ATOM     27  C   UNL A   1      41.974  20.625  26.485  1.00  0.00     0.039 A 
ATOM     28  C   UNL A   1      42.477  21.474  25.498  1.00  0.00     0.014 A 
ATOM     29  C   UNL A   1      41.948  21.026  27.822  1.00  0.00     0.014 A 
ATOM     30  C   UNL A   1      42.884  22.763  25.844  1.00  0.00     0.010 A 
ATOM     31  C   UNL A   1      42.278  22.334  28.152  1.00  0.00     0.010 A 
ATOM     32  C   UNL A   1      42.746  23.216  27.167  1.00  0.00    -0.014 A 
BRANCH  32  33
ATOM     33  C   UNL A   1      43.081  24.610  27.543  1.00  0.00     0.031 A 
ATOM     34  C   UNL A   1      44.518  25.044  27.616  1.00  0.00     0.074 A 
ATOM     35  C   UNL A   1      42.097  25.462  27.890  1.00  0.00     0.049 A 
ATOM     36  N   UNL A   1      45.014  26.197  27.987  1.00  0.00    -0.248 NA
ATOM     37  C   UNL A   1      45.532  24.042  27.250  1.00  0.00     0.031 C 
ATOM     38  C   UNL A   1      40.666  25.148  27.909  1.00  0.00     0.029 A 
ATOM     39  N   UNL A   1      42.155  26.770  28.299  1.00  0.00    -0.354 N 
ATOM     40  C   UNL A   1      46.393  26.050  27.922  1.00  0.00     0.074 A 
ATOM     41  C   UNL A   1      46.657  24.685  27.523  1.00  0.00     0.031 C 
ATOM     42  C   UNL A   1      39.981  26.243  28.278  1.00  0.00     0.029 A 
ATOM     43  C   UNL A   1      40.923  27.321  28.556  1.00  0.00     0.049 A 
ATOM     44  H   UNL A   1      42.999  27.266  28.401  1.00  0.00     0.167 HD
ATOM     45  C   UNL A   1      47.355  26.975  28.151  1.00  0.00     0.031 A 
ATOM     46  C   UNL A   1      40.591  28.558  28.969  1.00  0.00     0.031 A 
ATOM     47  C   UNL A   1      47.093  28.338  28.527  1.00  0.00     0.049 A 
ATOM     48  C   UNL A   1      41.677  29.569  29.209  1.00  0.00     0.074 A 
ATOM     49  C   UNL A   1      47.997  29.366  28.724  1.00  0.00     0.029 A 
ATOM     50  N   UNL A   1      45.831  28.861  28.757  1.00  0.00    -0.354 N 
ATOM     51  N   UNL A   1      42.974  29.434  29.080  1.00  0.00    -0.248 NA
ATOM     52  C   UNL A   1      41.249  30.908  29.639  1.00  0.00     0.031 C 
ATOM     53  C   UNL A   1      47.283  30.505  29.111  1.00  0.00     0.029 A 
ATOM     54  C   UNL A   1      45.932  30.196  29.110  1.00  0.00     0.049 A 
ATOM     55  H   UNL A   1      44.988  28.358  28.682  1.00  0.00     0.167 HD
ATOM     56  C   UNL A   1      43.516  30.674  29.387  1.00  0.00     0.074 A 
ATOM     57  C   UNL A   1      42.406  31.553  29.695  1.00  0.00     0.031 C 
ATOM     58  C   UNL A   1      44.817  31.054  29.411  1.00  0.00     0.031 A 
BRANCH  45  59
ATOM     59  C   UNL A   1      48.783  26.533  27.999  1.00  0.00    -0.014 A 
ATOM     60  C   UNL A   1      49.522  26.075  29.102  1.00  0.00     0.009 A 
ATOM     61  C   UNL A   1      49.391  26.555  26.734  1.00  0.00     0.009 A 
ATOM     62  C   UNL A   1      50.853  25.684  28.947  1.00  0.00     0.001 A 
ATOM     63  C   UNL A   1      50.713  26.136  26.579  1.00  0.00     0.001 A 
ATOM     64  C   UNL A   1      51.446  25.710  27.685  1.00  0.00     0.000 A 
ENDBRANCH  45  59
BRANCH  46  65
ATOM     65  C   UNL A   1      39.164  28.924  29.154  1.00  0.00    -0.014 A 
ATOM     66  C   UNL A   1      38.539  28.734  30.397  1.00  0.00     0.009 A 
ATOM     67  C   UNL A   1      38.416  29.458  28.093  1.00  0.00     0.009 A 
ATOM     68  C   UNL A   1      37.189  29.046  30.565  1.00  0.00     0.001 A 
ATOM     69  C   UNL A   1      37.073  29.793  28.272  1.00  0.00     0.001 A 
ATOM     70  C   UNL A   1      36.457  29.579  29.505  1.00  0.00     0.000 A 
ENDBRANCH  46  65
BRANCH  58  71
ATOM     71  C   UNL A   1      45.106  32.487  29.749  1.00  0.00    -0.014 A 
ATOM     72  C   UNL A   1      45.129  33.478  28.756  1.00  0.00     0.009 A 
ATOM     73  C   UNL A   1      45.321  32.854  31.086  1.00  0.00     0.009 A 
ATOM     74  C   UNL A   1      45.392  34.807  29.095  1.00  0.00     0.001 A 
ATOM     75  C   UNL A   1      45.557  34.187  31.424  1.00  0.00     0.001 A 
ATOM     76  C   UNL A   1      45.601  35.160  30.428  1.00  0.00     0.000 A 
ENDBRANCH  58  71
ENDBRANCH  32  33
ENDBRANCH  24  27
ENDBRANCH  22  23
ENDBRANCH  21  22
ENDBRANCH   1  21
TORSDOF 14
ENDMDL
