MODEL 1
REMARK VINA RESULT:     -10.9      0.000      0.000
REMARK SMILES CC(C)[NH2+][C@@]1(C(=O)NCCCCNC(=O)c2ccc(-c3c4nc(c(-c5ccccc5)c5ccc([nH]5)c(-c5ccccc5)c5nc(c(-c6ccccc6)c6ccc3[nH]6)C=C5)C=C4)cc2)CC[C@H](Oc2ccccc2F)C1
REMARK SMILES IDX 10 1 9 2 8 3 6 4 7 5 5 7 64 8 75 9 65 10 66 11 4 12 2 15
REMARK SMILES IDX 1 16 3 17 67 18 68 19 69 20 73 21 70 22 72 23 74 24 71 25
REMARK SMILES IDX 11 26 12 27 13 28 14 29 15 31 16 32 17 33 63 34 18 35 62 36
REMARK SMILES IDX 19 37 20 38 21 39 56 40 22 41 61 42 55 43 57 44 23 45 60 46
REMARK SMILES IDX 54 47 53 48 24 50 46 51 31 52 45 53 32 54 35 55 44 56 58 57
REMARK SMILES IDX 33 58 34 59 43 61 59 62 36 63 25 64 26 65 30 66 27 67 29 68
REMARK SMILES IDX 28 69 47 70 48 71 52 72 49 73 51 74 50 75 37 76 38 77 42 78
REMARK SMILES IDX 39 79 41 80 40 81
REMARK H PARENT 8 6 4 13 4 14 13 30 57 49 35 60
REMARK Flexibility Score: inf
ROOT
ATOM      1  C   UNL A   1      31.743  29.245  27.146  1.00  0.00     0.023 C 
ENDROOT
BRANCH   1   2
ATOM      2  C   UNL A   1      32.278  27.834  26.950  1.00  0.00     0.116 C 
BRANCH   2   3
ATOM      3  N   UNL A   1      31.240  26.842  27.038  1.00  0.00    -0.351 N 
ATOM      4  C   UNL A   1      30.607  26.103  26.090  1.00  0.00     0.281 C 
ATOM      5  O   UNL A   1      29.628  25.471  26.514  1.00  0.00    -0.268 OA
ATOM      6  H   UNL A   1      30.930  26.667  27.956  1.00  0.00     0.163 HD
BRANCH   4   7
ATOM      7  C   UNL A   1      31.022  26.045  24.542  1.00  0.00     0.179 C 
ATOM      8  C   UNL A   1      30.038  25.201  23.722  1.00  0.00     0.083 C 
ATOM      9  C   UNL A   1      32.399  25.387  24.390  1.00  0.00     0.124 C 
ATOM     10  C   UNL A   1      30.769  23.942  23.261  1.00  0.00     0.052 C 
ATOM     11  C   UNL A   1      32.269  24.178  23.442  1.00  0.00     0.180 C 
BRANCH   7  12
ATOM     12  N   UNL A   1      31.017  27.467  24.145  1.00  0.00    -0.332 N 
ATOM     13  H   UNL A   1      30.044  27.765  24.233  1.00  0.00     0.347 HD
ATOM     14  H   UNL A   1      31.757  27.820  24.751  1.00  0.00     0.347 HD
BRANCH  12  15
ATOM     15  C   UNL A   1      31.463  27.999  22.874  1.00  0.00     0.176 C 
ATOM     16  C   UNL A   1      30.326  28.896  22.361  1.00  0.00     0.075 C 
ATOM     17  C   UNL A   1      32.749  28.815  22.941  1.00  0.00     0.075 C 
ENDBRANCH  12  15
ENDBRANCH   7  12
BRANCH  11  18
ATOM     18  O   UNL A   1      33.086  23.163  24.030  1.00  0.00    -0.487 OA
BRANCH  18  19
ATOM     19  C   UNL A   1      34.431  23.182  24.204  1.00  0.00     0.155 A 
ATOM     20  C   UNL A   1      35.408  23.098  23.220  1.00  0.00     0.049 A 
ATOM     21  C   UNL A   1      34.843  23.251  25.545  1.00  0.00     0.165 A 
ATOM     22  C   UNL A   1      36.756  22.968  23.581  1.00  0.00     0.004 A 
ATOM     23  C   UNL A   1      36.179  23.131  25.912  1.00  0.00     0.043 A 
ATOM     24  F   UNL A   1      33.927  23.365  26.521  1.00  0.00    -0.203 F 
ATOM     25  C   UNL A   1      37.141  22.965  24.923  1.00  0.00     0.003 A 
ENDBRANCH  18  19
ENDBRANCH  11  18
ENDBRANCH   4   7
ENDBRANCH   2   3
ENDBRANCH   1   2
BRANCH   1  26
ATOM     26  C   UNL A   1      32.490  30.330  26.388  1.00  0.00     0.023 C 
BRANCH  26  27
ATOM     27  C   UNL A   1      33.300  31.288  27.253  1.00  0.00     0.116 C 
BRANCH  27  28
ATOM     28  N   UNL A   1      32.680  32.587  27.497  1.00  0.00    -0.352 N 
ATOM     29  C   UNL A   1      33.192  33.652  28.213  1.00  0.00     0.251 C 
ATOM     30  H   UNL A   1      31.788  32.719  27.103  1.00  0.00     0.163 HD
ATOM     31  O   UNL A   1      32.568  34.684  28.364  1.00  0.00    -0.269 OA
BRANCH  29  32
ATOM     32  C   UNL A   1      34.511  33.477  28.854  1.00  0.00     0.039 A 
ATOM     33  C   UNL A   1      34.585  32.752  30.044  1.00  0.00     0.014 A 
ATOM     34  C   UNL A   1      35.665  33.908  28.200  1.00  0.00     0.014 A 
ATOM     35  C   UNL A   1      35.834  32.365  30.529  1.00  0.00     0.010 A 
ATOM     36  C   UNL A   1      36.898  33.441  28.632  1.00  0.00     0.010 A 
ATOM     37  C   UNL A   1      36.993  32.658  29.794  1.00  0.00    -0.014 A 
BRANCH  37  38
ATOM     38  C   UNL A   1      38.328  32.165  30.209  1.00  0.00     0.031 A 
ATOM     39  C   UNL A   1      38.844  30.874  29.642  1.00  0.00     0.074 A 
ATOM     40  C   UNL A   1      39.018  32.814  31.168  1.00  0.00     0.049 A 
ATOM     41  N   UNL A   1      39.897  30.179  29.988  1.00  0.00    -0.248 NA
ATOM     42  C   UNL A   1      38.041  30.260  28.571  1.00  0.00     0.031 C 
ATOM     43  C   UNL A   1      38.601  34.050  31.834  1.00  0.00     0.029 A 
ATOM     44  N   UNL A   1      40.217  32.508  31.762  1.00  0.00    -0.354 N 
ATOM     45  C   UNL A   1      39.853  29.027  29.214  1.00  0.00     0.074 A 
ATOM     46  C   UNL A   1      38.652  29.096  28.412  1.00  0.00     0.031 C 
ATOM     47  C   UNL A   1      39.541  34.411  32.724  1.00  0.00     0.029 A 
ATOM     48  C   UNL A   1      40.604  33.412  32.722  1.00  0.00     0.049 A 
ATOM     49  H   UNL A   1      40.751  31.716  31.522  1.00  0.00     0.167 HD
ATOM     50  C   UNL A   1      40.744  28.010  29.161  1.00  0.00     0.031 A 
ATOM     51  C   UNL A   1      41.689  33.426  33.517  1.00  0.00     0.031 A 
ATOM     52  C   UNL A   1      41.960  27.969  29.925  1.00  0.00     0.049 A 
ATOM     53  C   UNL A   1      42.690  32.310  33.405  1.00  0.00     0.074 A 
ATOM     54  C   UNL A   1      42.965  27.020  29.897  1.00  0.00     0.029 A 
ATOM     55  N   UNL A   1      42.340  28.933  30.845  1.00  0.00    -0.354 N 
ATOM     56  N   UNL A   1      42.659  31.249  32.636  1.00  0.00    -0.248 NA
ATOM     57  C   UNL A   1      43.878  32.398  34.266  1.00  0.00     0.031 C 
ATOM     58  C   UNL A   1      43.945  27.397  30.821  1.00  0.00     0.029 A 
ATOM     59  C   UNL A   1      43.565  28.600  31.395  1.00  0.00     0.049 A 
ATOM     60  H   UNL A   1      41.817  29.735  31.073  1.00  0.00     0.167 HD
ATOM     61  C   UNL A   1      43.832  30.556  32.901  1.00  0.00     0.074 A 
ATOM     62  C   UNL A   1      44.559  31.324  33.891  1.00  0.00     0.031 C 
ATOM     63  C   UNL A   1      44.269  29.387  32.373  1.00  0.00     0.031 A 
BRANCH  50  64
ATOM     64  C   UNL A   1      40.424  26.865  28.242  1.00  0.00    -0.014 A 
ATOM     65  C   UNL A   1      40.943  26.813  26.938  1.00  0.00     0.009 A 
ATOM     66  C   UNL A   1      39.594  25.826  28.686  1.00  0.00     0.009 A 
ATOM     67  C   UNL A   1      40.600  25.765  26.083  1.00  0.00     0.001 A 
ATOM     68  C   UNL A   1      39.276  24.763  27.838  1.00  0.00     0.001 A 
ATOM     69  C   UNL A   1      39.770  24.739  26.533  1.00  0.00     0.000 A 
ENDBRANCH  50  64
BRANCH  51  70
ATOM     70  C   UNL A   1      41.904  34.546  34.471  1.00  0.00    -0.014 A 
ATOM     71  C   UNL A   1      41.415  34.458  35.784  1.00  0.00     0.009 A 
ATOM     72  C   UNL A   1      42.593  35.702  34.079  1.00  0.00     0.009 A 
ATOM     73  C   UNL A   1      41.589  35.518  36.676  1.00  0.00     0.001 A 
ATOM     74  C   UNL A   1      42.788  36.751  34.982  1.00  0.00     0.001 A 
ATOM     75  C   UNL A   1      42.279  36.661  36.277  1.00  0.00     0.000 A 
ENDBRANCH  51  70
BRANCH  63  76
ATOM     76  C   UNL A   1      45.610  28.892  32.830  1.00  0.00    -0.014 A 
ATOM     77  C   UNL A   1      45.727  28.009  33.914  1.00  0.00     0.009 A 
ATOM     78  C   UNL A   1      46.765  29.278  32.133  1.00  0.00     0.009 A 
ATOM     79  C   UNL A   1      46.982  27.544  34.309  1.00  0.00     0.001 A 
ATOM     80  C   UNL A   1      48.016  28.793  32.515  1.00  0.00     0.001 A 
ATOM     81  C   UNL A   1      48.123  27.933  33.608  1.00  0.00     0.000 A 
ENDBRANCH  63  76
ENDBRANCH  37  38
ENDBRANCH  29  32
ENDBRANCH  27  28
ENDBRANCH  26  27
ENDBRANCH   1  26
TORSDOF 15
ENDMDL
MODEL 2
REMARK VINA RESULT:     -10.9      1.679      3.934
REMARK SMILES CC(C)[NH2+][C@@]1(C(=O)NCCCCNC(=O)c2ccc(-c3c4nc(c(-c5ccccc5)c5ccc([nH]5)c(-c5ccccc5)c5nc(c(-c6ccccc6)c6ccc3[nH]6)C=C5)C=C4)cc2)CC[C@H](Oc2ccccc2F)C1
REMARK SMILES IDX 10 1 9 2 8 3 6 4 7 5 5 7 64 8 75 9 65 10 66 11 4 12 2 15
REMARK SMILES IDX 1 16 3 17 67 18 68 19 69 20 73 21 70 22 72 23 74 24 71 25
REMARK SMILES IDX 11 26 12 27 13 28 14 29 15 31 16 32 17 33 63 34 18 35 62 36
REMARK SMILES IDX 19 37 20 38 21 39 56 40 22 41 61 42 55 43 57 44 23 45 60 46
REMARK SMILES IDX 54 47 53 48 24 50 46 51 31 52 45 53 32 54 35 55 44 56 58 57
REMARK SMILES IDX 33 58 34 59 43 61 59 62 36 63 25 64 26 65 30 66 27 67 29 68
REMARK SMILES IDX 28 69 47 70 48 71 52 72 49 73 51 74 50 75 37 76 38 77 42 78
REMARK SMILES IDX 39 79 41 80 40 81
REMARK H PARENT 8 6 4 13 4 14 13 30 57 49 35 60
REMARK Flexibility Score: inf
ROOT
ATOM      1  C   UNL A   1      31.892  29.159  27.250  1.00  0.00     0.023 C 
ENDROOT
BRANCH   1   2
ATOM      2  C   UNL A   1      32.374  27.816  26.721  1.00  0.00     0.116 C 
BRANCH   2   3
ATOM      3  N   UNL A   1      31.389  26.780  26.890  1.00  0.00    -0.351 N 
ATOM      4  C   UNL A   1      30.602  26.122  26.000  1.00  0.00     0.281 C 
ATOM      5  O   UNL A   1      29.733  25.411  26.525  1.00  0.00    -0.268 OA
ATOM      6  H   UNL A   1      31.263  26.496  27.824  1.00  0.00     0.163 HD
BRANCH   4   7
ATOM      7  C   UNL A   1      30.716  26.246  24.405  1.00  0.00     0.179 C 
ATOM      8  C   UNL A   1      31.913  27.110  23.986  1.00  0.00     0.083 C 
ATOM      9  C   UNL A   1      29.464  26.925  23.838  1.00  0.00     0.124 C 
ATOM     10  C   UNL A   1      31.371  28.395  23.363  1.00  0.00     0.052 C 
ATOM     11  C   UNL A   1      29.895  28.169  23.034  1.00  0.00     0.180 C 
BRANCH   7  12
ATOM     12  N   UNL A   1      30.854  24.841  23.974  1.00  0.00    -0.332 N 
ATOM     13  H   UNL A   1      30.098  24.342  24.443  1.00  0.00     0.347 HD
ATOM     14  H   UNL A   1      30.884  24.971  22.962  1.00  0.00     0.347 HD
BRANCH  12  15
ATOM     15  C   UNL A   1      32.025  24.006  24.149  1.00  0.00     0.176 C 
ATOM     16  C   UNL A   1      31.525  22.691  24.767  1.00  0.00     0.075 C 
ATOM     17  C   UNL A   1      32.784  23.695  22.864  1.00  0.00     0.075 C 
ENDBRANCH  12  15
ENDBRANCH   7  12
BRANCH  11  18
ATOM     18  O   UNL A   1      28.928  29.170  23.364  1.00  0.00    -0.487 OA
BRANCH  18  19
ATOM     19  C   UNL A   1      28.579  30.255  22.630  1.00  0.00     0.155 A 
ATOM     20  C   UNL A   1      28.030  30.268  21.354  1.00  0.00     0.049 A 
ATOM     21  C   UNL A   1      28.859  31.488  23.244  1.00  0.00     0.165 A 
ATOM     22  C   UNL A   1      27.878  31.481  20.669  1.00  0.00     0.004 A 
ATOM     23  C   UNL A   1      28.704  32.696  22.575  1.00  0.00     0.043 A 
ATOM     24  F   UNL A   1      29.361  31.514  24.490  1.00  0.00    -0.203 F 
ATOM     25  C   UNL A   1      28.231  32.691  21.269  1.00  0.00     0.003 A 
ENDBRANCH  18  19
ENDBRANCH  11  18
ENDBRANCH   4   7
ENDBRANCH   2   3
ENDBRANCH   1   2
BRANCH   1  26
ATOM     26  C   UNL A   1      32.414  30.374  26.502  1.00  0.00     0.023 C 
BRANCH  26  27
ATOM     27  C   UNL A   1      33.258  31.335  27.329  1.00  0.00     0.116 C 
BRANCH  27  28
ATOM     28  N   UNL A   1      32.661  32.646  27.565  1.00  0.00    -0.352 N 
ATOM     29  C   UNL A   1      33.190  33.705  28.277  1.00  0.00     0.251 C 
ATOM     30  H   UNL A   1      31.772  32.792  27.170  1.00  0.00     0.163 HD
ATOM     31  O   UNL A   1      32.585  34.749  28.422  1.00  0.00    -0.269 OA
BRANCH  29  32
ATOM     32  C   UNL A   1      34.505  33.510  28.921  1.00  0.00     0.039 A 
ATOM     33  C   UNL A   1      34.579  32.709  30.061  1.00  0.00     0.014 A 
ATOM     34  C   UNL A   1      35.659  34.002  28.310  1.00  0.00     0.014 A 
ATOM     35  C   UNL A   1      35.829  32.311  30.534  1.00  0.00     0.010 A 
ATOM     36  C   UNL A   1      36.895  33.529  28.725  1.00  0.00     0.010 A 
ATOM     37  C   UNL A   1      36.991  32.672  29.834  1.00  0.00    -0.014 A 
BRANCH  37  38
ATOM     38  C   UNL A   1      38.329  32.175  30.232  1.00  0.00     0.031 A 
ATOM     39  C   UNL A   1      38.833  30.881  29.659  1.00  0.00     0.074 A 
ATOM     40  C   UNL A   1      39.035  32.822  31.180  1.00  0.00     0.049 A 
ATOM     41  N   UNL A   1      39.888  30.183  29.992  1.00  0.00    -0.248 NA
ATOM     42  C   UNL A   1      38.013  30.268  28.600  1.00  0.00     0.031 C 
ATOM     43  C   UNL A   1      38.631  34.061  31.850  1.00  0.00     0.029 A 
ATOM     44  N   UNL A   1      40.241  32.513  31.757  1.00  0.00    -0.354 N 
ATOM     45  C   UNL A   1      39.829  29.029  29.220  1.00  0.00     0.074 A 
ATOM     46  C   UNL A   1      38.618  29.102  28.435  1.00  0.00     0.031 C 
ATOM     47  C   UNL A   1      39.585  34.420  32.725  1.00  0.00     0.029 A 
ATOM     48  C   UNL A   1      40.644  33.417  32.711  1.00  0.00     0.049 A 
ATOM     49  H   UNL A   1      40.769  31.718  31.511  1.00  0.00     0.167 HD
ATOM     50  C   UNL A   1      40.715  28.009  29.157  1.00  0.00     0.031 A 
ATOM     51  C   UNL A   1      41.741  33.428  33.491  1.00  0.00     0.031 A 
ATOM     52  C   UNL A   1      41.942  27.965  29.904  1.00  0.00     0.049 A 
ATOM     53  C   UNL A   1      42.736  32.308  33.367  1.00  0.00     0.074 A 
ATOM     54  C   UNL A   1      42.943  27.012  29.863  1.00  0.00     0.029 A 
ATOM     55  N   UNL A   1      42.338  28.929  30.817  1.00  0.00    -0.354 N 
ATOM     56  N   UNL A   1      42.690  31.246  32.600  1.00  0.00    -0.248 NA
ATOM     57  C   UNL A   1      43.935  32.393  34.211  1.00  0.00     0.031 C 
ATOM     58  C   UNL A   1      43.936  27.386  30.773  1.00  0.00     0.029 A 
ATOM     59  C   UNL A   1      43.569  28.592  31.351  1.00  0.00     0.049 A 
ATOM     60  H   UNL A   1      41.821  29.732  31.051  1.00  0.00     0.167 HD
ATOM     61  C   UNL A   1      43.864  30.549  32.850  1.00  0.00     0.074 A 
ATOM     62  C   UNL A   1      44.608  31.316  33.829  1.00  0.00     0.031 C 
ATOM     63  C   UNL A   1      44.290  29.378  32.318  1.00  0.00     0.031 A 
BRANCH  50  64
ATOM     64  C   UNL A   1      40.379  26.864  28.245  1.00  0.00    -0.014 A 
ATOM     65  C   UNL A   1      39.565  25.805  28.678  1.00  0.00     0.009 A 
ATOM     66  C   UNL A   1      40.882  26.845  26.935  1.00  0.00     0.009 A 
ATOM     67  C   UNL A   1      39.299  24.727  27.831  1.00  0.00     0.001 A 
ATOM     68  C   UNL A   1      40.590  25.779  26.082  1.00  0.00     0.001 A 
ATOM     69  C   UNL A   1      39.808  24.715  26.534  1.00  0.00     0.000 A 
ENDBRANCH  50  64
BRANCH  51  70
ATOM     70  C   UNL A   1      41.973  34.548  34.440  1.00  0.00    -0.014 A 
ATOM     71  C   UNL A   1      41.559  34.438  35.777  1.00  0.00     0.009 A 
ATOM     72  C   UNL A   1      42.604  35.728  34.020  1.00  0.00     0.009 A 
ATOM     73  C   UNL A   1      41.749  35.498  36.666  1.00  0.00     0.001 A 
ATOM     74  C   UNL A   1      42.815  36.777  34.919  1.00  0.00     0.001 A 
ATOM     75  C   UNL A   1      42.380  36.664  36.239  1.00  0.00     0.000 A 
ENDBRANCH  51  70
BRANCH  63  76
ATOM     76  C   UNL A   1      45.634  28.878  32.757  1.00  0.00    -0.014 A 
ATOM     77  C   UNL A   1      46.806  29.265  32.089  1.00  0.00     0.009 A 
ATOM     78  C   UNL A   1      45.731  28.047  33.884  1.00  0.00     0.009 A 
ATOM     79  C   UNL A   1      48.049  28.805  32.527  1.00  0.00     0.001 A 
ATOM     80  C   UNL A   1      46.976  27.607  34.333  1.00  0.00     0.001 A 
ATOM     81  C   UNL A   1      48.133  27.981  33.649  1.00  0.00     0.000 A 
ENDBRANCH  63  76
ENDBRANCH  37  38
ENDBRANCH  29  32
ENDBRANCH  27  28
ENDBRANCH  26  27
ENDBRANCH   1  26
TORSDOF 15
ENDMDL
MODEL 3
REMARK VINA RESULT:     -10.8      1.663      6.912
REMARK SMILES CC(C)[NH2+][C@@]1(C(=O)NCCCCNC(=O)c2ccc(-c3c4nc(c(-c5ccccc5)c5ccc([nH]5)c(-c5ccccc5)c5nc(c(-c6ccccc6)c6ccc3[nH]6)C=C5)C=C4)cc2)CC[C@H](Oc2ccccc2F)C1
REMARK SMILES IDX 10 1 9 2 8 3 6 4 7 5 5 7 64 8 75 9 65 10 66 11 4 12 2 15
REMARK SMILES IDX 1 16 3 17 67 18 68 19 69 20 73 21 70 22 72 23 74 24 71 25
REMARK SMILES IDX 11 26 12 27 13 28 14 29 15 31 16 32 17 33 63 34 18 35 62 36
REMARK SMILES IDX 19 37 20 38 21 39 56 40 22 41 61 42 55 43 57 44 23 45 60 46
REMARK SMILES IDX 54 47 53 48 24 50 46 51 31 52 45 53 32 54 35 55 44 56 58 57
REMARK SMILES IDX 33 58 34 59 43 61 59 62 36 63 25 64 26 65 30 66 27 67 29 68
REMARK SMILES IDX 28 69 47 70 48 71 52 72 49 73 51 74 50 75 37 76 38 77 42 78
REMARK SMILES IDX 39 79 41 80 40 81
REMARK H PARENT 8 6 4 13 4 14 13 30 57 49 35 60
REMARK Flexibility Score: inf
ROOT
ATOM      1  C   UNL A   1      32.253  29.517  26.854  1.00  0.00     0.023 C 
ENDROOT
BRANCH   1   2
ATOM      2  C   UNL A   1      33.620  28.988  26.444  1.00  0.00     0.116 C 
BRANCH   2   3
ATOM      3  N   UNL A   1      33.847  29.108  25.028  1.00  0.00    -0.351 N 
ATOM      4  C   UNL A   1      33.723  28.217  24.011  1.00  0.00     0.281 C 
ATOM      5  O   UNL A   1      34.181  28.618  22.931  1.00  0.00    -0.268 OA
ATOM      6  H   UNL A   1      34.148  30.001  24.745  1.00  0.00     0.163 HD
BRANCH   4   7
ATOM      7  C   UNL A   1      33.086  26.751  24.145  1.00  0.00     0.179 C 
ATOM      8  C   UNL A   1      32.920  26.077  22.777  1.00  0.00     0.083 C 
ATOM      9  C   UNL A   1      31.686  26.840  24.764  1.00  0.00     0.124 C 
ATOM     10  C   UNL A   1      31.425  25.956  22.490  1.00  0.00     0.052 C 
ATOM     11  C   UNL A   1      30.676  26.178  23.804  1.00  0.00     0.180 C 
BRANCH   7  12
ATOM     12  N   UNL A   1      34.054  26.048  25.009  1.00  0.00    -0.332 N 
ATOM     13  H   UNL A   1      34.970  26.388  24.716  1.00  0.00     0.347 HD
ATOM     14  H   UNL A   1      33.656  26.259  25.924  1.00  0.00     0.347 HD
BRANCH  12  15
ATOM     15  C   UNL A   1      34.203  24.612  25.130  1.00  0.00     0.176 C 
ATOM     16  C   UNL A   1      35.685  24.361  25.451  1.00  0.00     0.075 C 
ATOM     17  C   UNL A   1      33.344  23.971  26.214  1.00  0.00     0.075 C 
ENDBRANCH  12  15
ENDBRANCH   7  12
BRANCH  11  18
ATOM     18  O   UNL A   1      29.528  27.030  23.837  1.00  0.00    -0.487 OA
BRANCH  18  19
ATOM     19  C   UNL A   1      29.306  28.146  23.100  1.00  0.00     0.155 A 
ATOM     20  C   UNL A   1      30.248  28.914  22.430  1.00  0.00     0.049 A 
ATOM     21  C   UNL A   1      27.965  28.566  23.071  1.00  0.00     0.165 A 
ATOM     22  C   UNL A   1      29.874  30.132  21.847  1.00  0.00     0.004 A 
ATOM     23  C   UNL A   1      27.583  29.769  22.488  1.00  0.00     0.043 A 
ATOM     24  F   UNL A   1      27.021  27.831  23.682  1.00  0.00    -0.203 F 
ATOM     25  C   UNL A   1      28.549  30.570  21.891  1.00  0.00     0.003 A 
ENDBRANCH  18  19
ENDBRANCH  11  18
ENDBRANCH   4   7
ENDBRANCH   2   3
ENDBRANCH   1   2
BRANCH   1  26
ATOM     26  C   UNL A   1      32.044  31.006  26.636  1.00  0.00     0.023 C 
BRANCH  26  27
ATOM     27  C   UNL A   1      33.068  31.913  27.306  1.00  0.00     0.116 C 
BRANCH  27  28
ATOM     28  N   UNL A   1      32.585  33.242  27.667  1.00  0.00    -0.352 N 
ATOM     29  C   UNL A   1      33.204  34.183  28.468  1.00  0.00     0.251 C 
ATOM     30  H   UNL A   1      31.710  33.498  27.296  1.00  0.00     0.163 HD
ATOM     31  O   UNL A   1      32.689  35.257  28.713  1.00  0.00    -0.269 OA
BRANCH  29  32
ATOM     32  C   UNL A   1      34.499  33.820  29.077  1.00  0.00     0.039 A 
ATOM     33  C   UNL A   1      34.497  33.070  30.254  1.00  0.00     0.014 A 
ATOM     34  C   UNL A   1      35.688  34.103  28.405  1.00  0.00     0.014 A 
ATOM     35  C   UNL A   1      35.690  32.509  30.706  1.00  0.00     0.010 A 
ATOM     36  C   UNL A   1      36.855  33.466  28.804  1.00  0.00     0.010 A 
ATOM     37  C   UNL A   1      36.865  32.656  29.951  1.00  0.00    -0.014 A 
BRANCH  37  38
ATOM     38  C   UNL A   1      38.128  31.980  30.331  1.00  0.00     0.031 A 
ATOM     39  C   UNL A   1      39.090  32.681  31.248  1.00  0.00     0.074 A 
ATOM     40  C   UNL A   1      38.457  30.800  29.769  1.00  0.00     0.049 A 
ATOM     41  N   UNL A   1      40.313  32.353  31.573  1.00  0.00    -0.248 NA
ATOM     42  C   UNL A   1      38.625  33.946  31.844  1.00  0.00     0.031 C 
ATOM     43  C   UNL A   1      37.632  30.043  28.825  1.00  0.00     0.029 A 
ATOM     44  N   UNL A   1      39.590  30.038  29.903  1.00  0.00    -0.354 N 
ATOM     45  C   UNL A   1      40.778  33.392  32.368  1.00  0.00     0.074 A 
ATOM     46  C   UNL A   1      39.724  34.378  32.443  1.00  0.00     0.031 C 
ATOM     47  C   UNL A   1      38.274  28.912  28.486  1.00  0.00     0.029 A 
ATOM     48  C   UNL A   1      39.571  28.885  29.154  1.00  0.00     0.049 A 
ATOM     49  H   UNL A   1      40.346  30.291  30.482  1.00  0.00     0.167 HD
ATOM     50  C   UNL A   1      41.971  33.507  32.995  1.00  0.00     0.031 A 
ATOM     51  C   UNL A   1      40.500  27.921  29.016  1.00  0.00     0.031 A 
ATOM     52  C   UNL A   1      42.998  32.502  32.957  1.00  0.00     0.049 A 
ATOM     53  C   UNL A   1      41.798  28.047  29.763  1.00  0.00     0.074 A 
ATOM     54  C   UNL A   1      44.215  32.487  33.612  1.00  0.00     0.029 A 
ATOM     55  N   UNL A   1      42.915  31.325  32.231  1.00  0.00    -0.354 N 
ATOM     56  N   UNL A   1      42.207  29.014  30.548  1.00  0.00    -0.248 NA
ATOM     57  C   UNL A   1      42.758  26.946  29.610  1.00  0.00     0.031 C 
ATOM     58  C   UNL A   1      44.882  31.309  33.261  1.00  0.00     0.029 A 
ATOM     59  C   UNL A   1      44.062  30.575  32.418  1.00  0.00     0.049 A 
ATOM     60  H   UNL A   1      42.153  31.061  31.666  1.00  0.00     0.167 HD
ATOM     61  C   UNL A   1      43.461  28.628  31.002  1.00  0.00     0.074 A 
ATOM     62  C   UNL A   1      43.738  27.331  30.416  1.00  0.00     0.031 C 
ATOM     63  C   UNL A   1      44.308  29.286  31.829  1.00  0.00     0.031 A 
BRANCH  50  64
ATOM     64  C   UNL A   1      42.217  34.768  33.775  1.00  0.00    -0.014 A 
ATOM     65  C   UNL A   1      41.893  34.854  35.139  1.00  0.00     0.009 A 
ATOM     66  C   UNL A   1      42.781  35.883  33.137  1.00  0.00     0.009 A 
ATOM     67  C   UNL A   1      42.087  36.047  35.836  1.00  0.00     0.001 A 
ATOM     68  C   UNL A   1      43.001  37.065  33.846  1.00  0.00     0.001 A 
ATOM     69  C   UNL A   1      42.644  37.151  35.191  1.00  0.00     0.000 A 
ENDBRANCH  50  64
BRANCH  51  70
ATOM     70  C   UNL A   1      40.229  26.739  28.158  1.00  0.00    -0.014 A 
ATOM     71  C   UNL A   1      40.720  26.693  26.843  1.00  0.00     0.009 A 
ATOM     72  C   UNL A   1      39.483  25.654  28.641  1.00  0.00     0.009 A 
ATOM     73  C   UNL A   1      40.446  25.597  26.023  1.00  0.00     0.001 A 
ATOM     74  C   UNL A   1      39.231  24.548  27.826  1.00  0.00     0.001 A 
ATOM     75  C   UNL A   1      39.706  24.524  26.515  1.00  0.00     0.000 A 
ENDBRANCH  51  70
BRANCH  63  76
ATOM     76  C   UNL A   1      45.595  28.597  32.177  1.00  0.00    -0.014 A 
ATOM     77  C   UNL A   1      46.757  28.804  31.419  1.00  0.00     0.009 A 
ATOM     78  C   UNL A   1      45.653  27.767  33.307  1.00  0.00     0.009 A 
ATOM     79  C   UNL A   1      47.948  28.169  31.771  1.00  0.00     0.001 A 
ATOM     80  C   UNL A   1      46.851  27.152  33.671  1.00  0.00     0.001 A 
ATOM     81  C   UNL A   1      47.995  27.348  32.899  1.00  0.00     0.000 A 
ENDBRANCH  63  76
ENDBRANCH  37  38
ENDBRANCH  29  32
ENDBRANCH  27  28
ENDBRANCH  26  27
ENDBRANCH   1  26
TORSDOF 15
ENDMDL
