MODEL 1
REMARK VINA RESULT:     -10.3      0.000      0.000
REMARK SMILES CC[C@@](C)(NC(=O)NCCc1cscn1)C(=O)NCCCCNC(=O)c1ccc(-c2c3nc(c(-c4ccccc4)c4ccc([nH]4)c(-c4ccccc4)c4nc(c(-c5ccccc5)c5ccc2[nH]5)C=C4)C=C3)cc1
REMARK SMILES IDX 19 1 18 2 16 3 17 4 3 6 4 7 2 8 1 9 5 10 6 11 7 13 8 14 9 16
REMARK SMILES IDX 10 17 11 18 12 19 15 20 13 21 14 22 20 23 21 24 22 25 23 26
REMARK SMILES IDX 24 27 25 29 26 30 27 31 73 32 28 33 72 34 29 35 30 36 31 37
REMARK SMILES IDX 66 38 32 39 71 40 65 41 67 42 33 43 70 44 64 45 63 46 34 48
REMARK SMILES IDX 56 49 41 50 55 51 42 52 45 53 54 54 68 55 43 56 44 57 53 59
REMARK SMILES IDX 69 60 46 61 35 62 36 63 40 64 37 65 39 66 38 67 57 68 58 69
REMARK SMILES IDX 62 70 59 71 61 72 60 73 47 74 48 75 52 76 49 77 51 78 50 79
REMARK H PARENT 18 5 5 12 8 15 23 28 67 47 45 58
REMARK Flexibility Score: inf
ROOT
ATOM      1  C   UNL A   1      36.032  21.426  25.295  1.00  0.00     0.116 C 
ENDROOT
BRANCH   1   2
ATOM      2  N   UNL A   1      35.266  21.723  26.499  1.00  0.00    -0.354 N 
ATOM      3  C   UNL A   1      33.928  21.823  26.783  1.00  0.00     0.245 C 
ATOM      4  O   UNL A   1      33.644  21.832  27.987  1.00  0.00    -0.272 OA
ATOM      5  H   UNL A   1      35.837  21.888  27.284  1.00  0.00     0.163 HD
BRANCH   3   6
ATOM      6  C   UNL A   1      32.821  21.813  25.692  1.00  0.00     0.117 C 
ATOM      7  C   UNL A   1      33.261  22.834  24.610  1.00  0.00     0.045 C 
BRANCH   6   8
ATOM      8  C   UNL A   1      32.561  20.475  24.937  1.00  0.00     0.035 C 
ATOM      9  C   UNL A   1      32.824  19.175  25.689  1.00  0.00     0.007 C 
ENDBRANCH   6   8
BRANCH   6  10
ATOM     10  N   UNL A   1      31.551  22.252  26.296  1.00  0.00    -0.324 N 
ATOM     11  C   UNL A   1      31.061  23.405  26.767  1.00  0.00     0.315 C 
ATOM     12  H   UNL A   1      30.902  21.516  26.373  1.00  0.00     0.166 HD
ATOM     13  O   UNL A   1      29.956  23.340  27.316  1.00  0.00    -0.249 OA
ATOM     14  N   UNL A   1      31.605  24.616  26.629  1.00  0.00    -0.338 N 
ATOM     15  H   UNL A   1      30.935  25.321  26.780  1.00  0.00     0.165 HD
BRANCH  14  16
ATOM     16  C   UNL A   1      32.909  25.195  26.320  1.00  0.00     0.124 C 
BRANCH  16  17
ATOM     17  C   UNL A   1      32.978  26.721  26.240  1.00  0.00     0.078 C 
BRANCH  17  18
ATOM     18  C   UNL A   1      33.165  27.352  24.895  1.00  0.00     0.053 A 
ATOM     19  C   UNL A   1      33.464  26.644  23.741  1.00  0.00     0.090 A 
ATOM     20  N   UNL A   1      33.051  28.719  24.719  1.00  0.00    -0.250 NA
ATOM     21  S   UNL A   1      33.592  27.704  22.405  1.00  0.00    -0.130 S 
ATOM     22  C   UNL A   1      33.268  29.019  23.455  1.00  0.00     0.175 A 
ENDBRANCH  17  18
ENDBRANCH  16  17
ENDBRANCH  14  16
ENDBRANCH   6  10
ENDBRANCH   3   6
ENDBRANCH   1   2
BRANCH   1  23
ATOM     23  C   UNL A   1      36.305  19.960  24.950  1.00  0.00     0.023 C 
BRANCH  23  24
ATOM     24  C   UNL A   1      37.748  19.528  24.707  1.00  0.00     0.023 C 
BRANCH  24  25
ATOM     25  C   UNL A   1      38.783  20.045  25.693  1.00  0.00     0.116 C 
BRANCH  25  26
ATOM     26  N   UNL A   1      39.979  19.224  25.737  1.00  0.00    -0.352 N 
ATOM     27  C   UNL A   1      41.264  19.563  26.080  1.00  0.00     0.251 C 
ATOM     28  H   UNL A   1      39.848  18.282  25.481  1.00  0.00     0.163 HD
ATOM     29  O   UNL A   1      42.169  18.750  25.914  1.00  0.00    -0.269 OA
BRANCH  27  30
ATOM     30  C   UNL A   1      41.578  20.901  26.634  1.00  0.00     0.039 A 
ATOM     31  C   UNL A   1      42.027  21.894  25.756  1.00  0.00     0.014 A 
ATOM     32  C   UNL A   1      41.489  21.173  28.003  1.00  0.00     0.014 A 
ATOM     33  C   UNL A   1      42.348  23.164  26.241  1.00  0.00     0.010 A 
ATOM     34  C   UNL A   1      41.754  22.458  28.477  1.00  0.00     0.010 A 
ATOM     35  C   UNL A   1      42.196  23.463  27.604  1.00  0.00    -0.014 A 
BRANCH  35  36
ATOM     36  C   UNL A   1      42.511  24.818  28.126  1.00  0.00     0.031 A 
ATOM     37  C   UNL A   1      43.919  25.177  28.517  1.00  0.00     0.074 A 
ATOM     38  C   UNL A   1      41.523  25.719  28.286  1.00  0.00     0.049 A 
ATOM     39  N   UNL A   1      44.378  26.297  29.016  1.00  0.00    -0.248 NA
ATOM     40  C   UNL A   1      44.942  24.134  28.341  1.00  0.00     0.031 C 
ATOM     41  C   UNL A   1      40.111  25.494  27.971  1.00  0.00     0.029 A 
ATOM     42  N   UNL A   1      41.559  27.009  28.756  1.00  0.00    -0.354 N 
ATOM     43  C   UNL A   1      45.735  26.089  29.229  1.00  0.00     0.074 A 
ATOM     44  C   UNL A   1      46.018  24.724  28.844  1.00  0.00     0.031 C 
ATOM     45  C   UNL A   1      39.421  26.617  28.230  1.00  0.00     0.029 A 
ATOM     46  C   UNL A   1      40.331  27.626  28.763  1.00  0.00     0.049 A 
ATOM     47  H   UNL A   1      42.385  27.449  29.060  1.00  0.00     0.167 HD
ATOM     48  C   UNL A   1      46.666  26.959  29.691  1.00  0.00     0.031 A 
ATOM     49  C   UNL A   1      39.977  28.863  29.156  1.00  0.00     0.031 A 
ATOM     50  C   UNL A   1      46.394  28.323  30.062  1.00  0.00     0.049 A 
ATOM     51  C   UNL A   1      41.027  29.804  29.682  1.00  0.00     0.074 A 
ATOM     52  C   UNL A   1      47.285  29.295  30.482  1.00  0.00     0.029 A 
ATOM     53  N   UNL A   1      45.137  28.905  30.061  1.00  0.00    -0.354 N 
ATOM     54  N   UNL A   1      42.316  29.611  29.816  1.00  0.00    -0.248 NA
ATOM     55  C   UNL A   1      40.569  31.137  30.101  1.00  0.00     0.031 C 
ATOM     56  C   UNL A   1      46.558  30.453  30.783  1.00  0.00     0.029 A 
ATOM     57  C   UNL A   1      45.224  30.216  30.500  1.00  0.00     0.049 A 
ATOM     58  H   UNL A   1      44.305  28.454  29.789  1.00  0.00     0.167 HD
ATOM     59  C   UNL A   1      42.826  30.805  30.308  1.00  0.00     0.074 A 
ATOM     60  C   UNL A   1      41.711  31.719  30.436  1.00  0.00     0.031 C 
ATOM     61  C   UNL A   1      44.108  31.116  30.623  1.00  0.00     0.031 A 
BRANCH  48  62
ATOM     62  C   UNL A   1      48.075  26.455  29.831  1.00  0.00    -0.014 A 
ATOM     63  C   UNL A   1      48.515  25.842  31.016  1.00  0.00     0.009 A 
ATOM     64  C   UNL A   1      48.964  26.557  28.749  1.00  0.00     0.009 A 
ATOM     65  C   UNL A   1      49.827  25.376  31.125  1.00  0.00     0.001 A 
ATOM     66  C   UNL A   1      50.266  26.064  28.852  1.00  0.00     0.001 A 
ATOM     67  C   UNL A   1      50.699  25.483  30.043  1.00  0.00     0.000 A 
ENDBRANCH  48  62
BRANCH  49  68
ATOM     68  C   UNL A   1      38.560  29.299  29.055  1.00  0.00    -0.014 A 
ATOM     69  C   UNL A   1      38.070  29.850  27.862  1.00  0.00     0.009 A 
ATOM     70  C   UNL A   1      37.694  29.173  30.152  1.00  0.00     0.009 A 
ATOM     71  C   UNL A   1      36.748  30.292  27.777  1.00  0.00     0.001 A 
ATOM     72  C   UNL A   1      36.365  29.591  30.055  1.00  0.00     0.001 A 
ATOM     73  C   UNL A   1      35.896  30.158  28.872  1.00  0.00     0.000 A 
ENDBRANCH  49  68
BRANCH  61  74
ATOM     74  C   UNL A   1      44.377  32.513  31.107  1.00  0.00    -0.014 A 
ATOM     75  C   UNL A   1      44.612  33.563  30.208  1.00  0.00     0.009 A 
ATOM     76  C   UNL A   1      44.358  32.786  32.484  1.00  0.00     0.009 A 
ATOM     77  C   UNL A   1      44.853  34.856  30.681  1.00  0.00     0.001 A 
ATOM     78  C   UNL A   1      44.573  34.083  32.952  1.00  0.00     0.001 A 
ATOM     79  C   UNL A   1      44.829  35.115  32.051  1.00  0.00     0.000 A 
ENDBRANCH  61  74
ENDBRANCH  35  36
ENDBRANCH  27  30
ENDBRANCH  25  26
ENDBRANCH  24  25
ENDBRANCH  23  24
ENDBRANCH   1  23
TORSDOF 16
ENDMDL
MODEL 2
REMARK VINA RESULT:     -10.3      3.831      8.965
REMARK SMILES CC[C@@](C)(NC(=O)NCCc1cscn1)C(=O)NCCCCNC(=O)c1ccc(-c2c3nc(c(-c4ccccc4)c4ccc([nH]4)c(-c4ccccc4)c4nc(c(-c5ccccc5)c5ccc2[nH]5)C=C4)C=C3)cc1
REMARK SMILES IDX 19 1 18 2 16 3 17 4 3 6 4 7 2 8 1 9 5 10 6 11 7 13 8 14 9 16
REMARK SMILES IDX 10 17 11 18 12 19 15 20 13 21 14 22 20 23 21 24 22 25 23 26
REMARK SMILES IDX 24 27 25 29 26 30 27 31 73 32 28 33 72 34 29 35 30 36 31 37
REMARK SMILES IDX 66 38 32 39 71 40 65 41 67 42 33 43 70 44 64 45 63 46 34 48
REMARK SMILES IDX 56 49 41 50 55 51 42 52 45 53 54 54 68 55 43 56 44 57 53 59
REMARK SMILES IDX 69 60 46 61 35 62 36 63 40 64 37 65 39 66 38 67 57 68 58 69
REMARK SMILES IDX 62 70 59 71 61 72 60 73 47 74 48 75 52 76 49 77 51 78 50 79
REMARK H PARENT 18 5 5 12 8 15 23 28 67 47 45 58
REMARK Flexibility Score: inf
ROOT
ATOM      1  C   UNL A   1      32.389  29.848  25.377  1.00  0.00     0.116 C 
ENDROOT
BRANCH   1   2
ATOM      2  N   UNL A   1      31.694  29.471  24.154  1.00  0.00    -0.354 N 
ATOM      3  C   UNL A   1      31.887  28.501  23.203  1.00  0.00     0.245 C 
ATOM      4  O   UNL A   1      30.932  28.316  22.438  1.00  0.00    -0.272 OA
ATOM      5  H   UNL A   1      30.912  30.039  23.967  1.00  0.00     0.163 HD
BRANCH   3   6
ATOM      6  C   UNL A   1      33.156  27.605  23.142  1.00  0.00     0.117 C 
ATOM      7  C   UNL A   1      34.372  28.557  23.300  1.00  0.00     0.045 C 
BRANCH   6   8
ATOM      8  C   UNL A   1      33.323  26.512  24.239  1.00  0.00     0.035 C 
ATOM      9  C   UNL A   1      33.904  26.939  25.582  1.00  0.00     0.007 C 
ENDBRANCH   6   8
BRANCH   6  10
ATOM     10  N   UNL A   1      33.213  26.947  21.825  1.00  0.00    -0.324 N 
ATOM     11  C   UNL A   1      32.616  25.896  21.252  1.00  0.00     0.315 C 
ATOM     12  H   UNL A   1      33.846  27.391  21.216  1.00  0.00     0.166 HD
ATOM     13  O   UNL A   1      33.029  25.583  20.130  1.00  0.00    -0.249 OA
ATOM     14  N   UNL A   1      31.576  25.211  21.733  1.00  0.00    -0.338 N 
ATOM     15  H   UNL A   1      31.131  24.700  21.018  1.00  0.00     0.165 HD
BRANCH  14  16
ATOM     16  C   UNL A   1      30.909  25.002  23.015  1.00  0.00     0.124 C 
BRANCH  16  17
ATOM     17  C   UNL A   1      30.939  23.579  23.577  1.00  0.00     0.078 C 
BRANCH  17  18
ATOM     18  C   UNL A   1      31.701  23.335  24.842  1.00  0.00     0.053 A 
ATOM     19  C   UNL A   1      32.986  22.817  24.887  1.00  0.00     0.090 A 
ATOM     20  N   UNL A   1      31.150  23.617  26.079  1.00  0.00    -0.250 NA
ATOM     21  S   UNL A   1      33.525  22.691  26.505  1.00  0.00    -0.130 S 
ATOM     22  C   UNL A   1      32.013  23.306  27.026  1.00  0.00     0.175 A 
ENDBRANCH  17  18
ENDBRANCH  16  17
ENDBRANCH  14  16
ENDBRANCH   6  10
ENDBRANCH   3   6
ENDBRANCH   1   2
BRANCH   1  23
ATOM     23  C   UNL A   1      31.562  30.390  26.546  1.00  0.00     0.023 C 
BRANCH  23  24
ATOM     24  C   UNL A   1      31.413  31.900  26.693  1.00  0.00     0.023 C 
BRANCH  24  25
ATOM     25  C   UNL A   1      32.690  32.681  26.963  1.00  0.00     0.116 C 
BRANCH  25  26
ATOM     26  N   UNL A   1      32.449  33.925  27.672  1.00  0.00    -0.352 N 
ATOM     27  C   UNL A   1      33.160  34.503  28.694  1.00  0.00     0.251 C 
ATOM     28  H   UNL A   1      31.657  34.429  27.375  1.00  0.00     0.163 HD
ATOM     29  O   UNL A   1      32.708  35.495  29.259  1.00  0.00    -0.269 OA
BRANCH  27  30
ATOM     30  C   UNL A   1      34.456  33.939  29.137  1.00  0.00     0.039 A 
ATOM     31  C   UNL A   1      34.461  33.067  30.232  1.00  0.00     0.014 A 
ATOM     32  C   UNL A   1      35.663  34.296  28.529  1.00  0.00     0.014 A 
ATOM     33  C   UNL A   1      35.665  32.525  30.690  1.00  0.00     0.010 A 
ATOM     34  C   UNL A   1      36.857  33.710  28.950  1.00  0.00     0.010 A 
ATOM     35  C   UNL A   1      36.872  32.827  30.040  1.00  0.00    -0.014 A 
BRANCH  35  36
ATOM     36  C   UNL A   1      38.155  32.237  30.504  1.00  0.00     0.031 A 
ATOM     37  C   UNL A   1      38.659  30.949  29.913  1.00  0.00     0.074 A 
ATOM     38  C   UNL A   1      38.851  32.840  31.486  1.00  0.00     0.049 A 
ATOM     39  N   UNL A   1      39.740  30.271  30.212  1.00  0.00    -0.248 NA
ATOM     40  C   UNL A   1      37.833  30.331  28.865  1.00  0.00     0.031 C 
ATOM     41  C   UNL A   1      38.464  34.080  32.163  1.00  0.00     0.029 A 
ATOM     42  N   UNL A   1      40.035  32.489  32.086  1.00  0.00    -0.354 N 
ATOM     43  C   UNL A   1      39.714  29.143  29.402  1.00  0.00     0.074 A 
ATOM     44  C   UNL A   1      38.492  29.205  28.629  1.00  0.00     0.031 C 
ATOM     45  C   UNL A   1      39.406  34.399  33.064  1.00  0.00     0.029 A 
ATOM     46  C   UNL A   1      40.443  33.372  33.057  1.00  0.00     0.049 A 
ATOM     47  H   UNL A   1      40.543  31.681  31.844  1.00  0.00     0.167 HD
ATOM     48  C   UNL A   1      40.631  28.149  29.297  1.00  0.00     0.031 A 
ATOM     49  C   UNL A   1      41.528  33.354  33.853  1.00  0.00     0.031 A 
ATOM     50  C   UNL A   1      41.855  28.088  30.052  1.00  0.00     0.049 A 
ATOM     51  C   UNL A   1      42.521  32.232  33.731  1.00  0.00     0.074 A 
ATOM     52  C   UNL A   1      42.872  27.153  29.970  1.00  0.00     0.029 A 
ATOM     53  N   UNL A   1      42.226  28.998  31.029  1.00  0.00    -0.354 N 
ATOM     54  N   UNL A   1      42.513  31.207  32.915  1.00  0.00    -0.248 NA
ATOM     55  C   UNL A   1      43.678  32.272  34.638  1.00  0.00     0.031 C 
ATOM     56  C   UNL A   1      43.836  27.470  30.933  1.00  0.00     0.029 A 
ATOM     57  C   UNL A   1      43.443  28.631  31.578  1.00  0.00     0.049 A 
ATOM     58  H   UNL A   1      41.701  29.788  31.295  1.00  0.00     0.167 HD
ATOM     59  C   UNL A   1      43.674  30.497  33.189  1.00  0.00     0.074 A 
ATOM     60  C   UNL A   1      44.369  31.214  34.237  1.00  0.00     0.031 C 
ATOM     61  C   UNL A   1      44.125  29.352  32.620  1.00  0.00     0.031 A 
BRANCH  48  62
ATOM     62  C   UNL A   1      40.337  27.034  28.334  1.00  0.00    -0.014 A 
ATOM     63  C   UNL A   1      40.858  27.040  27.030  1.00  0.00     0.009 A 
ATOM     64  C   UNL A   1      39.560  25.940  28.749  1.00  0.00     0.009 A 
ATOM     65  C   UNL A   1      40.577  25.992  26.151  1.00  0.00     0.001 A 
ATOM     66  C   UNL A   1      39.305  24.880  27.877  1.00  0.00     0.001 A 
ATOM     67  C   UNL A   1      39.805  24.912  26.576  1.00  0.00     0.000 A 
ENDBRANCH  48  62
BRANCH  49  68
ATOM     68  C   UNL A   1      41.747  34.449  34.835  1.00  0.00    -0.014 A 
ATOM     69  C   UNL A   1      41.245  34.343  36.140  1.00  0.00     0.009 A 
ATOM     70  C   UNL A   1      42.449  35.607  34.468  1.00  0.00     0.009 A 
ATOM     71  C   UNL A   1      41.419  35.385  37.053  1.00  0.00     0.001 A 
ATOM     72  C   UNL A   1      42.645  36.637  35.391  1.00  0.00     0.001 A 
ATOM     73  C   UNL A   1      42.123  36.530  36.679  1.00  0.00     0.000 A 
ENDBRANCH  49  68
BRANCH  61  74
ATOM     74  C   UNL A   1      45.447  28.821  33.097  1.00  0.00    -0.014 A 
ATOM     75  C   UNL A   1      46.653  29.233  32.510  1.00  0.00     0.009 A 
ATOM     76  C   UNL A   1      45.486  27.925  34.176  1.00  0.00     0.009 A 
ATOM     77  C   UNL A   1      47.871  28.731  32.975  1.00  0.00     0.001 A 
ATOM     78  C   UNL A   1      46.707  27.446  34.656  1.00  0.00     0.001 A 
ATOM     79  C   UNL A   1      47.897  27.843  34.049  1.00  0.00     0.000 A 
ENDBRANCH  61  74
ENDBRANCH  35  36
ENDBRANCH  27  30
ENDBRANCH  25  26
ENDBRANCH  24  25
ENDBRANCH  23  24
ENDBRANCH   1  23
TORSDOF 16
ENDMDL
MODEL 3
REMARK VINA RESULT:     -10.3      1.829      6.838
REMARK SMILES CC[C@@](C)(NC(=O)NCCc1cscn1)C(=O)NCCCCNC(=O)c1ccc(-c2c3nc(c(-c4ccccc4)c4ccc([nH]4)c(-c4ccccc4)c4nc(c(-c5ccccc5)c5ccc2[nH]5)C=C4)C=C3)cc1
REMARK SMILES IDX 19 1 18 2 16 3 17 4 3 6 4 7 2 8 1 9 5 10 6 11 7 13 8 14 9 16
REMARK SMILES IDX 10 17 11 18 12 19 15 20 13 21 14 22 20 23 21 24 22 25 23 26
REMARK SMILES IDX 24 27 25 29 26 30 27 31 73 32 28 33 72 34 29 35 30 36 31 37
REMARK SMILES IDX 66 38 32 39 71 40 65 41 67 42 33 43 70 44 64 45 63 46 34 48
REMARK SMILES IDX 56 49 41 50 55 51 42 52 45 53 54 54 68 55 43 56 44 57 53 59
REMARK SMILES IDX 69 60 46 61 35 62 36 63 40 64 37 65 39 66 38 67 57 68 58 69
REMARK SMILES IDX 62 70 59 71 61 72 60 73 47 74 48 75 52 76 49 77 51 78 50 79
REMARK H PARENT 18 5 5 12 8 15 23 28 67 47 45 58
REMARK Flexibility Score: inf
ROOT
ATOM      1  C   UNL A   1      36.761  22.864  25.334  1.00  0.00     0.116 C 
ENDROOT
BRANCH   1   2
ATOM      2  N   UNL A   1      35.861  22.862  26.480  1.00  0.00    -0.354 N 
ATOM      3  C   UNL A   1      34.544  23.199  26.664  1.00  0.00     0.245 C 
ATOM      4  O   UNL A   1      34.046  22.813  27.728  1.00  0.00    -0.272 OA
ATOM      5  H   UNL A   1      36.295  22.550  27.306  1.00  0.00     0.163 HD
BRANCH   3   6
ATOM      6  C   UNL A   1      33.685  23.910  25.581  1.00  0.00     0.117 C 
ATOM      7  C   UNL A   1      34.013  25.423  25.685  1.00  0.00     0.045 C 
BRANCH   6   8
ATOM      8  C   UNL A   1      33.929  23.520  24.092  1.00  0.00     0.035 C 
ATOM      9  C   UNL A   1      33.289  24.393  23.018  1.00  0.00     0.007 C 
ENDBRANCH   6   8
BRANCH   6  10
ATOM     10  N   UNL A   1      32.260  23.693  25.884  1.00  0.00    -0.324 N 
ATOM     11  C   UNL A   1      31.432  22.642  25.900  1.00  0.00     0.315 C 
ATOM     12  H   UNL A   1      31.804  24.527  26.139  1.00  0.00     0.166 HD
ATOM     13  O   UNL A   1      30.239  22.894  26.105  1.00  0.00    -0.249 OA
ATOM     14  N   UNL A   1      31.775  21.356  25.798  1.00  0.00    -0.338 N 
ATOM     15  H   UNL A   1      31.057  20.773  26.136  1.00  0.00     0.165 HD
BRANCH  14  16
ATOM     16  C   UNL A   1      32.910  20.566  25.329  1.00  0.00     0.124 C 
BRANCH  16  17
ATOM     17  C   UNL A   1      32.596  19.433  24.351  1.00  0.00     0.078 C 
BRANCH  17  18
ATOM     18  C   UNL A   1      32.979  18.038  24.737  1.00  0.00     0.053 A 
ATOM     19  C   UNL A   1      34.202  17.457  24.436  1.00  0.00     0.090 A 
ATOM     20  N   UNL A   1      32.109  17.220  25.435  1.00  0.00    -0.250 NA
ATOM     21  S   UNL A   1      34.274  15.862  25.048  1.00  0.00    -0.130 S 
ATOM     22  C   UNL A   1      32.678  16.050  25.642  1.00  0.00     0.175 A 
ENDBRANCH  17  18
ENDBRANCH  16  17
ENDBRANCH  14  16
ENDBRANCH   6  10
ENDBRANCH   3   6
ENDBRANCH   1   2
BRANCH   1  23
ATOM     23  C   UNL A   1      38.203  22.395  25.541  1.00  0.00     0.023 C 
BRANCH  23  24
ATOM     24  C   UNL A   1      38.592  21.004  25.050  1.00  0.00     0.023 C 
BRANCH  24  25
ATOM     25  C   UNL A   1      38.869  19.962  26.122  1.00  0.00     0.116 C 
BRANCH  25  26
ATOM     26  N   UNL A   1      40.087  19.211  25.875  1.00  0.00    -0.352 N 
ATOM     27  C   UNL A   1      41.397  19.613  25.957  1.00  0.00     0.251 C 
ATOM     28  H   UNL A   1      39.952  18.272  25.610  1.00  0.00     0.163 HD
ATOM     29  O   UNL A   1      42.285  18.861  25.566  1.00  0.00    -0.269 OA
BRANCH  27  30
ATOM     30  C   UNL A   1      41.754  20.947  26.492  1.00  0.00     0.039 A 
ATOM     31  C   UNL A   1      41.688  21.147  27.876  1.00  0.00     0.014 A 
ATOM     32  C   UNL A   1      42.099  22.012  25.653  1.00  0.00     0.014 A 
ATOM     33  C   UNL A   1      42.003  22.395  28.419  1.00  0.00     0.010 A 
ATOM     34  C   UNL A   1      42.469  23.241  26.201  1.00  0.00     0.010 A 
ATOM     35  C   UNL A   1      42.415  23.448  27.588  1.00  0.00    -0.014 A 
BRANCH  35  36
ATOM     36  C   UNL A   1      42.775  24.772  28.157  1.00  0.00     0.031 A 
ATOM     37  C   UNL A   1      41.719  25.822  28.376  1.00  0.00     0.074 A 
ATOM     38  C   UNL A   1      44.062  25.049  28.445  1.00  0.00     0.049 A 
ATOM     39  N   UNL A   1      41.850  27.041  28.836  1.00  0.00    -0.248 NA
ATOM     40  C   UNL A   1      40.340  25.461  28.014  1.00  0.00     0.031 C 
ATOM     41  C   UNL A   1      45.188  24.131  28.258  1.00  0.00     0.029 A 
ATOM     42  N   UNL A   1      44.638  26.185  28.956  1.00  0.00    -0.354 N 
ATOM     43  C   UNL A   1      40.577  27.597  28.802  1.00  0.00     0.074 A 
ATOM     44  C   UNL A   1      39.695  26.597  28.239  1.00  0.00     0.031 C 
ATOM     45  C   UNL A   1      46.314  24.731  28.675  1.00  0.00     0.029 A 
ATOM     46  C   UNL A   1      45.998  26.084  29.123  1.00  0.00     0.049 A 
ATOM     47  H   UNL A   1      44.125  26.995  29.182  1.00  0.00     0.167 HD
ATOM     48  C   UNL A   1      40.173  28.823  29.215  1.00  0.00     0.031 A 
ATOM     49  C   UNL A   1      46.891  26.981  29.582  1.00  0.00     0.031 A 
ATOM     50  C   UNL A   1      41.042  29.816  29.788  1.00  0.00     0.049 A 
ATOM     51  C   UNL A   1      46.420  28.342  30.017  1.00  0.00     0.074 A 
ATOM     52  C   UNL A   1      40.712  31.063  30.290  1.00  0.00     0.029 A 
ATOM     53  N   UNL A   1      42.413  29.677  29.932  1.00  0.00    -0.354 N 
ATOM     54  N   UNL A   1      45.203  28.827  30.038  1.00  0.00    -0.248 NA
ATOM     55  C   UNL A   1      47.449  29.274  30.500  1.00  0.00     0.031 C 
ATOM     56  C   UNL A   1      41.891  31.699  30.694  1.00  0.00     0.029 A 
ATOM     57  C   UNL A   1      42.948  30.827  30.490  1.00  0.00     0.049 A 
ATOM     58  H   UNL A   1      42.931  28.880  29.676  1.00  0.00     0.167 HD
ATOM     59  C   UNL A   1      45.316  30.108  30.561  1.00  0.00     0.074 A 
ATOM     60  C   UNL A   1      46.717  30.320  30.856  1.00  0.00     0.031 C 
ATOM     61  C   UNL A   1      44.343  31.026  30.779  1.00  0.00     0.031 A 
BRANCH  48  62
ATOM     62  C   UNL A   1      38.719  29.165  29.049  1.00  0.00    -0.014 A 
ATOM     63  C   UNL A   1      37.818  29.057  30.121  1.00  0.00     0.009 A 
ATOM     64  C   UNL A   1      38.250  29.640  27.814  1.00  0.00     0.009 A 
ATOM     65  C   UNL A   1      36.471  29.385  29.948  1.00  0.00     0.001 A 
ATOM     66  C   UNL A   1      36.910  29.993  27.652  1.00  0.00     0.001 A 
ATOM     67  C   UNL A   1      36.019  29.856  28.717  1.00  0.00     0.000 A 
ENDBRANCH  48  62
BRANCH  49  68
ATOM     68  C   UNL A   1      48.329  26.619  29.672  1.00  0.00    -0.014 A 
ATOM     69  C   UNL A   1      49.200  26.904  28.610  1.00  0.00     0.009 A 
ATOM     70  C   UNL A   1      48.835  25.979  30.813  1.00  0.00     0.009 A 
ATOM     71  C   UNL A   1      50.545  26.533  28.678  1.00  0.00     0.001 A 
ATOM     72  C   UNL A   1      50.186  25.633  30.890  1.00  0.00     0.001 A 
ATOM     73  C   UNL A   1      51.037  25.901  29.820  1.00  0.00     0.000 A 
ENDBRANCH  49  68
BRANCH  61  74
ATOM     74  C   UNL A   1      44.757  32.333  31.396  1.00  0.00    -0.014 A 
ATOM     75  C   UNL A   1      45.110  33.434  30.603  1.00  0.00     0.009 A 
ATOM     76  C   UNL A   1      44.755  32.472  32.793  1.00  0.00     0.009 A 
ATOM     77  C   UNL A   1      45.484  34.642  31.198  1.00  0.00     0.001 A 
ATOM     78  C   UNL A   1      45.103  33.687  33.384  1.00  0.00     0.001 A 
ATOM     79  C   UNL A   1      45.476  34.768  32.587  1.00  0.00     0.000 A 
ENDBRANCH  61  74
ENDBRANCH  35  36
ENDBRANCH  27  30
ENDBRANCH  25  26
ENDBRANCH  24  25
ENDBRANCH  23  24
ENDBRANCH   1  23
TORSDOF 16
ENDMDL
