MODEL 1
REMARK VINA RESULT:     -11.4      0.000      0.000
REMARK SMILES CCNC(=O)c1ccc(N2C[C@@H](C)[C@H](C(=O)NCCCCNC(=O)c3ccc(-c4c5nc(c(-c6ccccc6)c6ccc([nH]6)c(-c6ccccc6)c6nc(c(-c7ccccc7)c7ccc4[nH]7)C=C6)C=C5)cc3)C2)nn1
REMARK SMILES IDX 19 1 18 2 17 3 15 4 16 5 14 7 10 8 11 9 73 10 12 11 13 12
REMARK SMILES IDX 9 13 6 14 7 15 75 16 8 17 74 18 4 19 3 20 5 22 2 23 1 24
REMARK SMILES IDX 20 25 21 26 22 27 23 28 24 30 25 31 26 32 72 33 27 34 71 35
REMARK SMILES IDX 28 36 29 37 30 38 65 39 31 40 70 41 64 42 66 43 32 44 69 45
REMARK SMILES IDX 63 46 62 47 33 49 55 50 40 51 54 52 41 53 44 54 53 55 67 56
REMARK SMILES IDX 42 57 43 58 52 60 68 61 45 62 34 63 35 64 39 65 36 66 38 67
REMARK SMILES IDX 37 68 56 69 57 70 61 71 58 72 60 73 59 74 46 75 47 76 51 77
REMARK SMILES IDX 48 78 50 79 49 80
REMARK H PARENT 17 6 3 21 22 29 66 48 44 59
REMARK Flexibility Score: inf
ROOT
ATOM      1  C   UNL A   1      31.738  30.637  26.671  1.00  0.00     0.023 C 
ENDROOT
BRANCH   1   2
ATOM      2  C   UNL A   1      31.561  29.883  25.357  1.00  0.00     0.116 C 
BRANCH   2   3
ATOM      3  N   UNL A   1      32.548  28.849  25.141  1.00  0.00    -0.356 N 
ATOM      4  C   UNL A   1      32.393  27.513  24.918  1.00  0.00     0.225 C 
ATOM      5  O   UNL A   1      33.417  26.873  24.659  1.00  0.00    -0.275 OA
ATOM      6  H   UNL A   1      33.482  29.160  25.156  1.00  0.00     0.163 HD
BRANCH   4   7
ATOM      7  C   UNL A   1      31.045  26.789  24.975  1.00  0.00     0.102 C 
ATOM      8  N   UNL A   1      30.915  24.483  24.492  1.00  0.00    -0.354 N 
ATOM      9  C   UNL A   1      30.103  25.099  23.456  1.00  0.00     0.122 C 
ATOM     10  C   UNL A   1      31.143  25.400  25.604  1.00  0.00     0.132 C 
ATOM     11  C   UNL A   1      30.359  26.611  23.610  1.00  0.00     0.019 C 
ATOM     12  C   UNL A   1      29.076  27.431  23.500  1.00  0.00     0.010 C 
BRANCH   8  13
ATOM     13  C   UNL A   1      31.591  23.289  24.460  1.00  0.00     0.151 A 
ATOM     14  C   UNL A   1      33.181  21.044  24.550  1.00  0.00     0.150 A 
ATOM     15  C   UNL A   1      32.927  21.616  23.322  1.00  0.00     0.040 A 
ATOM     16  N   UNL A   1      32.685  21.549  25.692  1.00  0.00    -0.143 NA
ATOM     17  C   UNL A   1      32.107  22.747  23.284  1.00  0.00     0.051 A 
ATOM     18  N   UNL A   1      31.891  22.677  25.631  1.00  0.00    -0.132 NA
BRANCH  14  19
ATOM     19  C   UNL A   1      34.022  19.836  24.664  1.00  0.00     0.271 C 
ATOM     20  N   UNL A   1      35.320  19.951  25.105  1.00  0.00    -0.351 N 
ATOM     21  H   UNL A   1      35.801  19.105  25.250  1.00  0.00     0.163 HD
ATOM     22  O   UNL A   1      33.572  18.743  24.333  1.00  0.00    -0.267 OA
BRANCH  20  23
ATOM     23  C   UNL A   1      36.068  21.158  25.382  1.00  0.00     0.113 C 
ATOM     24  C   UNL A   1      37.024  21.495  24.253  1.00  0.00     0.027 C 
ENDBRANCH  20  23
ENDBRANCH  14  19
ENDBRANCH   8  13
ENDBRANCH   4   7
ENDBRANCH   2   3
ENDBRANCH   1   2
BRANCH   1  25
ATOM     25  C   UNL A   1      31.756  32.156  26.542  1.00  0.00     0.023 C 
BRANCH  25  26
ATOM     26  C   UNL A   1      32.715  32.886  27.477  1.00  0.00     0.116 C 
BRANCH  26  27
ATOM     27  N   UNL A   1      32.383  34.280  27.730  1.00  0.00    -0.352 N 
ATOM     28  C   UNL A   1      32.972  35.148  28.628  1.00  0.00     0.251 C 
ATOM     29  H   UNL A   1      31.645  34.650  27.193  1.00  0.00     0.163 HD
ATOM     30  O   UNL A   1      32.562  36.288  28.753  1.00  0.00    -0.269 OA
BRANCH  28  31
ATOM     31  C   UNL A   1      34.097  34.657  29.459  1.00  0.00     0.039 A 
ATOM     32  C   UNL A   1      33.840  34.201  30.755  1.00  0.00     0.014 A 
ATOM     33  C   UNL A   1      35.387  34.584  28.928  1.00  0.00     0.014 A 
ATOM     34  C   UNL A   1      34.859  33.572  31.478  1.00  0.00     0.010 A 
ATOM     35  C   UNL A   1      36.382  33.912  29.622  1.00  0.00     0.010 A 
ATOM     36  C   UNL A   1      36.119  33.381  30.892  1.00  0.00    -0.014 A 
BRANCH  36  37
ATOM     37  C   UNL A   1      37.183  32.583  31.541  1.00  0.00     0.031 A 
ATOM     38  C   UNL A   1      37.755  33.028  32.854  1.00  0.00     0.074 A 
ATOM     39  C   UNL A   1      37.734  31.558  30.864  1.00  0.00     0.049 A 
ATOM     40  N   UNL A   1      38.790  32.561  33.503  1.00  0.00    -0.248 NA
ATOM     41  C   UNL A   1      37.100  34.174  33.503  1.00  0.00     0.031 C 
ATOM     42  C   UNL A   1      37.301  31.079  29.548  1.00  0.00     0.029 A 
ATOM     43  N   UNL A   1      38.802  30.756  31.176  1.00  0.00    -0.354 N 
ATOM     44  C   UNL A   1      38.920  33.365  34.627  1.00  0.00     0.074 A 
ATOM     45  C   UNL A   1      37.888  34.377  34.549  1.00  0.00     0.031 C 
ATOM     46  C   UNL A   1      38.095  30.065  29.167  1.00  0.00     0.029 A 
ATOM     47  C   UNL A   1      39.109  29.845  30.194  1.00  0.00     0.049 A 
ATOM     48  H   UNL A   1      39.300  30.826  32.022  1.00  0.00     0.167 HD
ATOM     49  C   UNL A   1      39.813  33.261  35.639  1.00  0.00     0.031 A 
ATOM     50  C   UNL A   1      40.104  28.942  30.125  1.00  0.00     0.031 A 
ATOM     51  C   UNL A   1      40.835  32.253  35.710  1.00  0.00     0.049 A 
ATOM     52  C   UNL A   1      41.074  28.837  31.266  1.00  0.00     0.074 A 
ATOM     53  C   UNL A   1      41.750  32.019  36.721  1.00  0.00     0.029 A 
ATOM     54  N   UNL A   1      41.078  31.309  34.723  1.00  0.00    -0.354 N 
ATOM     55  N   UNL A   1      41.135  29.552  32.364  1.00  0.00    -0.248 NA
ATOM     56  C   UNL A   1      42.100  27.790  31.169  1.00  0.00     0.031 C 
ATOM     57  C   UNL A   1      42.571  30.957  36.329  1.00  0.00     0.029 A 
ATOM     58  C   UNL A   1      42.137  30.499  35.095  1.00  0.00     0.049 A 
ATOM     59  H   UNL A   1      40.571  31.227  33.883  1.00  0.00     0.167 HD
ATOM     60  C   UNL A   1      42.184  29.021  33.103  1.00  0.00     0.074 A 
ATOM     61  C   UNL A   1      42.725  27.920  32.331  1.00  0.00     0.031 C 
ATOM     62  C   UNL A   1      42.651  29.405  34.315  1.00  0.00     0.031 A 
BRANCH  49  63
ATOM     63  C   UNL A   1      39.718  34.271  36.748  1.00  0.00    -0.014 A 
ATOM     64  C   UNL A   1      38.998  33.991  37.922  1.00  0.00     0.009 A 
ATOM     65  C   UNL A   1      40.373  35.505  36.632  1.00  0.00     0.009 A 
ATOM     66  C   UNL A   1      38.903  34.944  38.938  1.00  0.00     0.001 A 
ATOM     67  C   UNL A   1      40.300  36.445  37.661  1.00  0.00     0.001 A 
ATOM     68  C   UNL A   1      39.558  36.169  38.808  1.00  0.00     0.000 A 
ENDBRANCH  49  63
BRANCH  50  69
ATOM     69  C   UNL A   1      40.211  28.043  28.947  1.00  0.00    -0.014 A 
ATOM     70  C   UNL A   1      39.578  26.790  28.957  1.00  0.00     0.009 A 
ATOM     71  C   UNL A   1      40.931  28.432  27.808  1.00  0.00     0.009 A 
ATOM     72  C   UNL A   1      39.685  25.935  27.858  1.00  0.00     0.001 A 
ATOM     73  C   UNL A   1      41.016  27.584  26.701  1.00  0.00     0.001 A 
ATOM     74  C   UNL A   1      40.400  26.333  26.730  1.00  0.00     0.000 A 
ENDBRANCH  50  69
BRANCH  62  75
ATOM     75  C   UNL A   1      43.773  28.599  34.902  1.00  0.00    -0.014 A 
ATOM     76  C   UNL A   1      45.114  28.952  34.692  1.00  0.00     0.009 A 
ATOM     77  C   UNL A   1      43.476  27.496  35.719  1.00  0.00     0.009 A 
ATOM     78  C   UNL A   1      46.138  28.199  35.270  1.00  0.00     0.001 A 
ATOM     79  C   UNL A   1      44.501  26.761  36.315  1.00  0.00     0.001 A 
ATOM     80  C   UNL A   1      45.830  27.108  36.084  1.00  0.00     0.000 A 
ENDBRANCH  62  75
ENDBRANCH  36  37
ENDBRANCH  28  31
ENDBRANCH  26  27
ENDBRANCH  25  26
ENDBRANCH   1  25
TORSDOF 14
ENDMDL
MODEL 2
REMARK VINA RESULT:     -11.4      1.321      6.177
REMARK SMILES CCNC(=O)c1ccc(N2C[C@@H](C)[C@H](C(=O)NCCCCNC(=O)c3ccc(-c4c5nc(c(-c6ccccc6)c6ccc([nH]6)c(-c6ccccc6)c6nc(c(-c7ccccc7)c7ccc4[nH]7)C=C6)C=C5)cc3)C2)nn1
REMARK SMILES IDX 19 1 18 2 17 3 15 4 16 5 14 7 10 8 11 9 73 10 12 11 13 12
REMARK SMILES IDX 9 13 6 14 7 15 75 16 8 17 74 18 4 19 3 20 5 22 2 23 1 24
REMARK SMILES IDX 20 25 21 26 22 27 23 28 24 30 25 31 26 32 72 33 27 34 71 35
REMARK SMILES IDX 28 36 29 37 30 38 65 39 31 40 70 41 64 42 66 43 32 44 69 45
REMARK SMILES IDX 63 46 62 47 33 49 55 50 40 51 54 52 41 53 44 54 53 55 67 56
REMARK SMILES IDX 42 57 43 58 52 60 68 61 45 62 34 63 35 64 39 65 36 66 38 67
REMARK SMILES IDX 37 68 56 69 57 70 61 71 58 72 60 73 59 74 46 75 47 76 51 77
REMARK SMILES IDX 48 78 50 79 49 80
REMARK H PARENT 17 6 3 21 22 29 66 48 44 59
REMARK Flexibility Score: inf
ROOT
ATOM      1  C   UNL A   1      31.460  30.725  26.107  1.00  0.00     0.023 C 
ENDROOT
BRANCH   1   2
ATOM      2  C   UNL A   1      32.820  30.084  26.364  1.00  0.00     0.116 C 
BRANCH   2   3
ATOM      3  N   UNL A   1      33.466  29.590  25.169  1.00  0.00    -0.356 N 
ATOM      4  C   UNL A   1      33.077  28.623  24.290  1.00  0.00     0.225 C 
ATOM      5  O   UNL A   1      33.780  28.475  23.285  1.00  0.00    -0.275 OA
ATOM      6  H   UNL A   1      34.325  30.022  24.955  1.00  0.00     0.163 HD
BRANCH   4   7
ATOM      7  C   UNL A   1      31.845  27.737  24.487  1.00  0.00     0.102 C 
ATOM      8  N   UNL A   1      32.062  25.387  24.497  1.00  0.00    -0.354 N 
ATOM      9  C   UNL A   1      31.211  25.650  23.349  1.00  0.00     0.122 C 
ATOM     10  C   UNL A   1      32.114  26.537  25.394  1.00  0.00     0.132 C 
ATOM     11  C   UNL A   1      31.244  27.182  23.184  1.00  0.00     0.019 C 
ATOM     12  C   UNL A   1      29.863  27.763  22.894  1.00  0.00     0.010 C 
BRANCH   8  13
ATOM     13  C   UNL A   1      32.901  24.324  24.722  1.00  0.00     0.151 A 
ATOM     14  C   UNL A   1      34.384  22.021  24.998  1.00  0.00     0.150 A 
ATOM     15  C   UNL A   1      33.767  22.539  26.117  1.00  0.00     0.040 A 
ATOM     16  N   UNL A   1      34.277  22.599  23.789  1.00  0.00    -0.143 NA
ATOM     17  C   UNL A   1      33.029  23.717  25.970  1.00  0.00     0.051 A 
ATOM     18  N   UNL A   1      33.528  23.752  23.666  1.00  0.00    -0.132 NA
BRANCH  14  19
ATOM     19  C   UNL A   1      35.196  20.792  25.080  1.00  0.00     0.271 C 
ATOM     20  N   UNL A   1      34.574  19.565  25.073  1.00  0.00    -0.351 N 
ATOM     21  H   UNL A   1      35.169  18.782  25.036  1.00  0.00     0.163 HD
ATOM     22  O   UNL A   1      36.416  20.870  25.190  1.00  0.00    -0.267 OA
BRANCH  20  23
ATOM     23  C   UNL A   1      33.156  19.279  25.114  1.00  0.00     0.113 C 
ATOM     24  C   UNL A   1      32.585  19.082  23.723  1.00  0.00     0.027 C 
ENDBRANCH  20  23
ENDBRANCH  14  19
ENDBRANCH   8  13
ENDBRANCH   4   7
ENDBRANCH   2   3
ENDBRANCH   1   2
BRANCH   1  25
ATOM     25  C   UNL A   1      31.226  32.047  26.830  1.00  0.00     0.023 C 
BRANCH  25  26
ATOM     26  C   UNL A   1      32.402  33.018  26.824  1.00  0.00     0.116 C 
BRANCH  26  27
ATOM     27  N   UNL A   1      32.217  34.210  27.639  1.00  0.00    -0.352 N 
ATOM     28  C   UNL A   1      33.036  34.695  28.640  1.00  0.00     0.251 C 
ATOM     29  H   UNL A   1      31.405  34.736  27.453  1.00  0.00     0.163 HD
ATOM     30  O   UNL A   1      32.732  35.696  29.263  1.00  0.00    -0.269 OA
BRANCH  28  31
ATOM     31  C   UNL A   1      34.280  33.956  28.961  1.00  0.00     0.039 A 
ATOM     32  C   UNL A   1      35.467  34.302  28.308  1.00  0.00     0.014 A 
ATOM     33  C   UNL A   1      34.281  32.974  29.954  1.00  0.00     0.014 A 
ATOM     34  C   UNL A   1      36.674  33.736  28.730  1.00  0.00     0.010 A 
ATOM     35  C   UNL A   1      35.484  32.454  30.410  1.00  0.00     0.010 A 
ATOM     36  C   UNL A   1      36.691  32.848  29.816  1.00  0.00    -0.014 A 
BRANCH  36  37
ATOM     37  C   UNL A   1      37.949  32.345  30.411  1.00  0.00     0.031 A 
ATOM     38  C   UNL A   1      38.595  31.110  29.857  1.00  0.00     0.074 A 
ATOM     39  C   UNL A   1      38.407  32.911  31.543  1.00  0.00     0.049 A 
ATOM     40  N   UNL A   1      39.604  30.425  30.329  1.00  0.00    -0.248 NA
ATOM     41  C   UNL A   1      38.005  30.551  28.630  1.00  0.00     0.031 C 
ATOM     42  C   UNL A   1      37.819  34.077  32.209  1.00  0.00     0.029 A 
ATOM     43  N   UNL A   1      39.456  32.559  32.354  1.00  0.00    -0.354 N 
ATOM     44  C   UNL A   1      39.758  29.345  29.470  1.00  0.00     0.074 A 
ATOM     45  C   UNL A   1      38.712  29.442  28.474  1.00  0.00     0.031 C 
ATOM     46  C   UNL A   1      38.517  34.343  33.325  1.00  0.00     0.029 A 
ATOM     47  C   UNL A   1      39.578  33.352  33.469  1.00  0.00     0.049 A 
ATOM     48  H   UNL A   1      40.064  31.810  32.156  1.00  0.00     0.167 HD
ATOM     49  C   UNL A   1      40.694  28.369  29.501  1.00  0.00     0.031 A 
ATOM     50  C   UNL A   1      40.442  33.279  34.498  1.00  0.00     0.031 A 
ATOM     51  C   UNL A   1      41.731  28.280  30.494  1.00  0.00     0.049 A 
ATOM     52  C   UNL A   1      41.480  32.195  34.504  1.00  0.00     0.074 A 
ATOM     53  C   UNL A   1      42.768  27.369  30.582  1.00  0.00     0.029 A 
ATOM     54  N   UNL A   1      41.858  29.139  31.576  1.00  0.00    -0.354 N 
ATOM     55  N   UNL A   1      41.666  31.227  33.639  1.00  0.00    -0.248 NA
ATOM     56  C   UNL A   1      42.439  32.204  35.617  1.00  0.00     0.031 C 
ATOM     57  C   UNL A   1      43.501  27.653  31.739  1.00  0.00     0.029 A 
ATOM     58  C   UNL A   1      42.948  28.770  32.345  1.00  0.00     0.049 A 
ATOM     59  H   UNL A   1      41.261  29.897  31.768  1.00  0.00     0.167 HD
ATOM     60  C   UNL A   1      42.782  30.532  34.084  1.00  0.00     0.074 A 
ATOM     61  C   UNL A   1      43.234  31.193  35.292  1.00  0.00     0.031 C 
ATOM     62  C   UNL A   1      43.383  29.448  33.538  1.00  0.00     0.031 A 
BRANCH  49  63
ATOM     63  C   UNL A   1      40.633  27.320  28.427  1.00  0.00    -0.014 A 
ATOM     64  C   UNL A   1      41.328  27.481  27.217  1.00  0.00     0.009 A 
ATOM     65  C   UNL A   1      39.894  26.147  28.633  1.00  0.00     0.009 A 
ATOM     66  C   UNL A   1      41.250  26.507  26.220  1.00  0.00     0.001 A 
ATOM     67  C   UNL A   1      39.840  25.161  27.646  1.00  0.00     0.001 A 
ATOM     68  C   UNL A   1      40.508  25.345  26.437  1.00  0.00     0.000 A 
ENDBRANCH  49  63
BRANCH  50  69
ATOM     69  C   UNL A   1      40.381  34.285  35.590  1.00  0.00    -0.014 A 
ATOM     70  C   UNL A   1      41.091  35.491  35.478  1.00  0.00     0.009 A 
ATOM     71  C   UNL A   1      39.612  34.053  36.740  1.00  0.00     0.009 A 
ATOM     72  C   UNL A   1      41.049  36.435  36.506  1.00  0.00     0.001 A 
ATOM     73  C   UNL A   1      39.552  35.010  37.756  1.00  0.00     0.001 A 
ATOM     74  C   UNL A   1      40.277  36.196  37.642  1.00  0.00     0.000 A 
ENDBRANCH  50  69
BRANCH  62  75
ATOM     75  C   UNL A   1      44.622  28.939  34.214  1.00  0.00    -0.014 A 
ATOM     76  C   UNL A   1      44.560  27.941  35.198  1.00  0.00     0.009 A 
ATOM     77  C   UNL A   1      45.876  29.435  33.822  1.00  0.00     0.009 A 
ATOM     78  C   UNL A   1      45.730  27.468  35.795  1.00  0.00     0.001 A 
ATOM     79  C   UNL A   1      47.044  28.943  34.403  1.00  0.00     0.001 A 
ATOM     80  C   UNL A   1      46.971  27.966  35.394  1.00  0.00     0.000 A 
ENDBRANCH  62  75
ENDBRANCH  36  37
ENDBRANCH  28  31
ENDBRANCH  26  27
ENDBRANCH  25  26
ENDBRANCH   1  25
TORSDOF 14
ENDMDL
MODEL 3
REMARK VINA RESULT:     -11.2      1.794      2.304
REMARK SMILES CCNC(=O)c1ccc(N2C[C@@H](C)[C@H](C(=O)NCCCCNC(=O)c3ccc(-c4c5nc(c(-c6ccccc6)c6ccc([nH]6)c(-c6ccccc6)c6nc(c(-c7ccccc7)c7ccc4[nH]7)C=C6)C=C5)cc3)C2)nn1
REMARK SMILES IDX 19 1 18 2 17 3 15 4 16 5 14 7 10 8 11 9 73 10 12 11 13 12
REMARK SMILES IDX 9 13 6 14 7 15 75 16 8 17 74 18 4 19 3 20 5 22 2 23 1 24
REMARK SMILES IDX 20 25 21 26 22 27 23 28 24 30 25 31 26 32 72 33 27 34 71 35
REMARK SMILES IDX 28 36 29 37 30 38 65 39 31 40 70 41 64 42 66 43 32 44 69 45
REMARK SMILES IDX 63 46 62 47 33 49 55 50 40 51 54 52 41 53 44 54 53 55 67 56
REMARK SMILES IDX 42 57 43 58 52 60 68 61 45 62 34 63 35 64 39 65 36 66 38 67
REMARK SMILES IDX 37 68 56 69 57 70 61 71 58 72 60 73 59 74 46 75 47 76 51 77
REMARK SMILES IDX 48 78 50 79 49 80
REMARK H PARENT 17 6 3 21 22 29 66 48 44 59
REMARK Flexibility Score: inf
ROOT
ATOM      1  C   UNL A   1      31.477  31.137  26.106  1.00  0.00     0.023 C 
ENDROOT
BRANCH   1   2
ATOM      2  C   UNL A   1      32.681  30.224  26.311  1.00  0.00     0.116 C 
BRANCH   2   3
ATOM      3  N   UNL A   1      33.114  29.551  25.107  1.00  0.00    -0.356 N 
ATOM      4  C   UNL A   1      32.450  28.683  24.293  1.00  0.00     0.225 C 
ATOM      5  O   UNL A   1      33.033  28.338  23.259  1.00  0.00    -0.275 OA
ATOM      6  H   UNL A   1      34.037  29.755  24.829  1.00  0.00     0.163 HD
BRANCH   4   7
ATOM      7  C   UNL A   1      31.055  28.129  24.593  1.00  0.00     0.102 C 
ATOM      8  N   UNL A   1      30.706  25.799  24.730  1.00  0.00    -0.354 N 
ATOM      9  C   UNL A   1      29.881  26.206  23.605  1.00  0.00     0.122 C 
ATOM     10  C   UNL A   1      31.080  26.943  25.556  1.00  0.00     0.132 C 
ATOM     11  C   UNL A   1      30.268  27.676  23.350  1.00  0.00     0.019 C 
ATOM     12  C   UNL A   1      29.052  28.559  23.086  1.00  0.00     0.010 C 
BRANCH   8  13
ATOM     13  C   UNL A   1      31.279  24.577  24.980  1.00  0.00     0.151 A 
ATOM     14  C   UNL A   1      32.213  22.005  25.282  1.00  0.00     0.150 A 
ATOM     15  C   UNL A   1      31.616  22.616  26.365  1.00  0.00     0.040 A 
ATOM     16  N   UNL A   1      32.344  22.622  24.096  1.00  0.00    -0.143 NA
ATOM     17  C   UNL A   1      31.159  23.927  26.207  1.00  0.00     0.051 A 
ATOM     18  N   UNL A   1      31.869  23.911  23.958  1.00  0.00    -0.132 NA
BRANCH  14  19
ATOM     19  C   UNL A   1      32.739  20.630  25.381  1.00  0.00     0.271 C 
ATOM     20  N   UNL A   1      34.032  20.426  25.803  1.00  0.00    -0.351 N 
ATOM     21  H   UNL A   1      34.296  19.487  25.939  1.00  0.00     0.163 HD
ATOM     22  O   UNL A   1      32.033  19.680  25.055  1.00  0.00    -0.267 OA
BRANCH  20  23
ATOM     23  C   UNL A   1      35.054  21.414  26.071  1.00  0.00     0.113 C 
ATOM     24  C   UNL A   1      36.308  21.157  25.258  1.00  0.00     0.027 C 
ENDBRANCH  20  23
ENDBRANCH  14  19
ENDBRANCH   8  13
ENDBRANCH   4   7
ENDBRANCH   2   3
ENDBRANCH   1   2
BRANCH   1  25
ATOM     25  C   UNL A   1      31.402  32.325  27.058  1.00  0.00     0.023 C 
BRANCH  25  26
ATOM     26  C   UNL A   1      32.585  33.287  27.006  1.00  0.00     0.116 C 
BRANCH  26  27
ATOM     27  N   UNL A   1      32.513  34.397  27.944  1.00  0.00    -0.352 N 
ATOM     28  C   UNL A   1      33.377  34.696  28.980  1.00  0.00     0.251 C 
ATOM     29  H   UNL A   1      31.754  35.012  27.826  1.00  0.00     0.163 HD
ATOM     30  O   UNL A   1      33.169  35.649  29.709  1.00  0.00    -0.269 OA
BRANCH  28  31
ATOM     31  C   UNL A   1      34.549  33.816  29.205  1.00  0.00     0.039 A 
ATOM     32  C   UNL A   1      35.710  34.022  28.456  1.00  0.00     0.014 A 
ATOM     33  C   UNL A   1      34.516  32.840  30.203  1.00  0.00     0.014 A 
ATOM     34  C   UNL A   1      36.874  33.318  28.783  1.00  0.00     0.010 A 
ATOM     35  C   UNL A   1      35.682  32.183  30.565  1.00  0.00     0.010 A 
ATOM     36  C   UNL A   1      36.874  32.433  29.872  1.00  0.00    -0.014 A 
BRANCH  36  37
ATOM     37  C   UNL A   1      38.110  31.785  30.367  1.00  0.00     0.031 A 
ATOM     38  C   UNL A   1      38.996  32.508  31.337  1.00  0.00     0.074 A 
ATOM     39  C   UNL A   1      38.502  30.621  29.814  1.00  0.00     0.049 A 
ATOM     40  N   UNL A   1      40.187  32.183  31.766  1.00  0.00    -0.248 NA
ATOM     41  C   UNL A   1      38.490  33.785  31.865  1.00  0.00     0.031 C 
ATOM     42  C   UNL A   1      37.751  29.861  28.811  1.00  0.00     0.029 A 
ATOM     43  N   UNL A   1      39.649  29.892  29.994  1.00  0.00    -0.354 N 
ATOM     44  C   UNL A   1      40.582  33.221  32.598  1.00  0.00     0.074 A 
ATOM     45  C   UNL A   1      39.523  34.207  32.580  1.00  0.00     0.031 C 
ATOM     46  C   UNL A   1      38.457  28.772  28.466  1.00  0.00     0.029 A 
ATOM     47  C   UNL A   1      39.719  28.774  29.198  1.00  0.00     0.049 A 
ATOM     48  H   UNL A   1      40.355  30.145  30.633  1.00  0.00     0.167 HD
ATOM     49  C   UNL A   1      41.719  33.336  33.323  1.00  0.00     0.031 A 
ATOM     50  C   UNL A   1      40.699  27.861  29.065  1.00  0.00     0.031 A 
ATOM     51  C   UNL A   1      42.767  32.351  33.337  1.00  0.00     0.049 A 
ATOM     52  C   UNL A   1      41.946  28.003  29.889  1.00  0.00     0.074 A 
ATOM     53  C   UNL A   1      43.931  32.338  34.084  1.00  0.00     0.029 A 
ATOM     54  N   UNL A   1      42.775  31.201  32.561  1.00  0.00    -0.354 N 
ATOM     55  N   UNL A   1      42.270  28.949  30.737  1.00  0.00    -0.248 NA
ATOM     56  C   UNL A   1      42.952  26.941  29.753  1.00  0.00     0.031 C 
ATOM     57  C   UNL A   1      44.662  31.198  33.732  1.00  0.00     0.029 A 
ATOM     58  C   UNL A   1      43.930  30.478  32.801  1.00  0.00     0.049 A 
ATOM     59  H   UNL A   1      42.063  30.938  31.933  1.00  0.00     0.167 HD
ATOM     60  C   UNL A   1      43.502  28.581  31.260  1.00  0.00     0.074 A 
ATOM     61  C   UNL A   1      43.862  27.322  30.639  1.00  0.00     0.031 C 
ATOM     62  C   UNL A   1      44.263  29.224  32.178  1.00  0.00     0.031 A 
BRANCH  49  63
ATOM     63  C   UNL A   1      41.883  34.574  34.158  1.00  0.00    -0.014 A 
ATOM     64  C   UNL A   1      41.434  34.615  35.488  1.00  0.00     0.009 A 
ATOM     65  C   UNL A   1      42.513  35.705  33.619  1.00  0.00     0.009 A 
ATOM     66  C   UNL A   1      41.577  35.777  36.249  1.00  0.00     0.001 A 
ATOM     67  C   UNL A   1      42.680  36.857  34.390  1.00  0.00     0.001 A 
ATOM     68  C   UNL A   1      42.203  36.897  35.700  1.00  0.00     0.000 A 
ENDBRANCH  49  63
BRANCH  50  69
ATOM     69  C   UNL A   1      40.522  26.714  28.138  1.00  0.00    -0.014 A 
ATOM     70  C   UNL A   1      39.840  25.563  28.562  1.00  0.00     0.009 A 
ATOM     71  C   UNL A   1      41.021  26.763  26.828  1.00  0.00     0.009 A 
ATOM     72  C   UNL A   1      39.681  24.475  27.700  1.00  0.00     0.001 A 
ATOM     73  C   UNL A   1      40.840  25.684  25.960  1.00  0.00     0.001 A 
ATOM     74  C   UNL A   1      40.178  24.538  26.399  1.00  0.00     0.000 A 
ENDBRANCH  50  69
BRANCH  62  75
ATOM     75  C   UNL A   1      45.537  28.554  32.602  1.00  0.00    -0.014 A 
ATOM     76  C   UNL A   1      46.752  28.817  31.952  1.00  0.00     0.009 A 
ATOM     77  C   UNL A   1      45.524  27.681  33.701  1.00  0.00     0.009 A 
ATOM     78  C   UNL A   1      47.927  28.198  32.381  1.00  0.00     0.001 A 
ATOM     79  C   UNL A   1      46.704  27.083  34.143  1.00  0.00     0.001 A 
ATOM     80  C   UNL A   1      47.903  27.335  33.479  1.00  0.00     0.000 A 
ENDBRANCH  62  75
ENDBRANCH  36  37
ENDBRANCH  28  31
ENDBRANCH  26  27
ENDBRANCH  25  26
ENDBRANCH   1  25
TORSDOF 14
ENDMDL
