MODEL 1
REMARK VINA RESULT:     -11.4      0.000      0.000
REMARK SMILES Cc1cc(N(C)[C@H]2CC[C@@H](C)CC2)cc(C(=O)NCCCCNC(=O)c2ccc(-c3c4nc(c(-c5ccccc5)c5ccc([nH]5)c(-c5ccccc5)c5nc(c(-c6ccccc6)c6ccc3[nH]6)C=C5)C=C4)cc2)c1N
REMARK SMILES IDX 20 1 19 2 18 3 16 4 17 5 15 7 1 8 2 9 3 10 74 11 4 12 14 13
REMARK SMILES IDX 75 14 5 17 6 18 7 19 8 20 13 21 9 22 12 23 10 24 11 25 21 26
REMARK SMILES IDX 22 27 23 28 24 29 25 31 26 32 27 33 73 34 28 35 72 36 29 37
REMARK SMILES IDX 30 38 31 39 66 40 32 41 71 42 65 43 67 44 33 45 70 46 64 47
REMARK SMILES IDX 63 48 34 50 56 51 41 52 55 53 42 54 45 55 54 56 68 57 43 58
REMARK SMILES IDX 44 59 53 61 69 62 46 63 35 64 36 65 40 66 37 67 39 68 38 69
REMARK SMILES IDX 57 70 58 71 62 72 59 73 61 74 60 75 47 76 48 77 52 78 49 79
REMARK SMILES IDX 51 80 50 81
REMARK H PARENT 18 6 75 15 75 16 23 30 67 49 45 60
REMARK Flexibility Score: inf
ROOT
ATOM      1  C   UNL A   1      31.910  30.117  26.923  1.00  0.00     0.023 C 
ENDROOT
BRANCH   1   2
ATOM      2  C   UNL A   1      33.288  29.500  26.672  1.00  0.00     0.116 C 
BRANCH   2   3
ATOM      3  N   UNL A   1      33.634  29.653  25.275  1.00  0.00    -0.352 N 
ATOM      4  C   UNL A   1      33.299  28.904  24.171  1.00  0.00     0.253 C 
ATOM      5  O   UNL A   1      33.836  29.202  23.102  1.00  0.00    -0.269 OA
ATOM      6  H   UNL A   1      34.209  30.428  25.080  1.00  0.00     0.163 HD
BRANCH   4   7
ATOM      7  C   UNL A   1      32.248  27.841  24.227  1.00  0.00     0.065 A 
ATOM      8  C   UNL A   1      28.548  27.365  23.484  1.00  0.00     0.046 C 
ATOM      9  C   UNL A   1      29.926  27.236  24.070  1.00  0.00    -0.025 A 
ATOM     10  C   UNL A   1      30.217  26.090  24.826  1.00  0.00     0.031 A 
ATOM     11  C   UNL A   1      30.950  28.141  23.766  1.00  0.00     0.047 A 
ATOM     12  C   UNL A   1      31.515  25.616  24.969  1.00  0.00     0.038 A 
ATOM     13  C   UNL A   1      32.529  26.538  24.679  1.00  0.00     0.042 A 
BRANCH  11  14
ATOM     14  N   UNL A   1      30.653  29.345  23.131  1.00  0.00    -0.398 N 
ATOM     15  H   UNL A   1      29.773  29.473  22.708  1.00  0.00     0.156 HD
ATOM     16  H   UNL A   1      31.322  30.067  23.107  1.00  0.00     0.156 HD
ENDBRANCH  11  14
BRANCH  12  17
ATOM     17  N   UNL A   1      31.797  24.296  25.297  1.00  0.00    -0.372 N 
ATOM     18  C   UNL A   1      31.906  23.979  26.726  1.00  0.00     0.144 C 
BRANCH  17  19
ATOM     19  C   UNL A   1      31.731  23.127  24.356  1.00  0.00     0.082 C 
ATOM     20  C   UNL A   1      32.550  21.922  24.875  1.00  0.00     0.025 C 
ATOM     21  C   UNL A   1      32.201  23.328  22.904  1.00  0.00     0.025 C 
ATOM     22  C   UNL A   1      34.072  22.079  24.730  1.00  0.00     0.005 C 
ATOM     23  C   UNL A   1      33.670  23.719  22.815  1.00  0.00     0.005 C 
ATOM     24  C   UNL A   1      34.562  22.615  23.371  1.00  0.00    -0.014 C 
ATOM     25  C   UNL A   1      36.000  23.130  23.478  1.00  0.00     0.007 C 
ENDBRANCH  17  19
ENDBRANCH  12  17
ENDBRANCH   4   7
ENDBRANCH   2   3
ENDBRANCH   1   2
BRANCH   1  26
ATOM     26  C   UNL A   1      31.865  31.627  26.683  1.00  0.00     0.023 C 
BRANCH  26  27
ATOM     27  C   UNL A   1      32.932  32.411  27.433  1.00  0.00     0.116 C 
BRANCH  27  28
ATOM     28  N   UNL A   1      32.529  33.776  27.743  1.00  0.00    -0.352 N 
ATOM     29  C   UNL A   1      33.143  34.653  28.602  1.00  0.00     0.251 C 
ATOM     30  H   UNL A   1      31.724  34.107  27.284  1.00  0.00     0.163 HD
ATOM     31  O   UNL A   1      32.650  35.747  28.856  1.00  0.00    -0.269 OA
BRANCH  29  32
ATOM     32  C   UNL A   1      34.392  34.223  29.253  1.00  0.00     0.039 A 
ATOM     33  C   UNL A   1      34.318  33.557  30.476  1.00  0.00     0.014 A 
ATOM     34  C   UNL A   1      35.610  34.375  28.586  1.00  0.00     0.014 A 
ATOM     35  C   UNL A   1      35.470  32.974  31.003  1.00  0.00     0.010 A 
ATOM     36  C   UNL A   1      36.739  33.733  29.077  1.00  0.00     0.010 A 
ATOM     37  C   UNL A   1      36.678  33.022  30.285  1.00  0.00    -0.014 A 
BRANCH  37  38
ATOM     38  C   UNL A   1      37.883  32.312  30.771  1.00  0.00     0.031 A 
ATOM     39  C   UNL A   1      38.686  32.885  31.904  1.00  0.00     0.074 A 
ATOM     40  C   UNL A   1      38.294  31.193  30.145  1.00  0.00     0.049 A 
ATOM     41  N   UNL A   1      39.793  32.438  32.437  1.00  0.00    -0.248 NA
ATOM     42  C   UNL A   1      38.194  34.139  32.497  1.00  0.00     0.031 C 
ATOM     43  C   UNL A   1      37.628  30.566  29.001  1.00  0.00     0.029 A 
ATOM     44  N   UNL A   1      39.378  30.385  30.381  1.00  0.00    -0.354 N 
ATOM     45  C   UNL A   1      40.138  33.361  33.415  1.00  0.00     0.074 A 
ATOM     46  C   UNL A   1      39.153  34.420  33.365  1.00  0.00     0.031 C 
ATOM     47  C   UNL A   1      38.301  29.457  28.654  1.00  0.00     0.029 A 
ATOM     48  C   UNL A   1      39.463  29.315  29.525  1.00  0.00     0.049 A 
ATOM     49  H   UNL A   1      40.032  30.557  31.097  1.00  0.00     0.167 HD
ATOM     50  C   UNL A   1      41.170  33.322  34.289  1.00  0.00     0.031 A 
ATOM     51  C   UNL A   1      40.376  28.329  29.449  1.00  0.00     0.031 A 
ATOM     52  C   UNL A   1      42.145  32.266  34.341  1.00  0.00     0.049 A 
ATOM     53  C   UNL A   1      41.517  28.311  30.427  1.00  0.00     0.074 A 
ATOM     54  C   UNL A   1      43.194  32.104  35.228  1.00  0.00     0.029 A 
ATOM     55  N   UNL A   1      42.190  31.193  33.465  1.00  0.00    -0.354 N 
ATOM     56  N   UNL A   1      41.786  29.150  31.397  1.00  0.00    -0.248 NA
ATOM     57  C   UNL A   1      42.471  27.200  30.308  1.00  0.00     0.031 C 
ATOM     58  C   UNL A   1      43.904  30.957  34.858  1.00  0.00     0.029 A 
ATOM     59  C   UNL A   1      43.263  30.376  33.776  1.00  0.00     0.049 A 
ATOM     60  H   UNL A   1      41.554  31.035  32.730  1.00  0.00     0.167 HD
ATOM     61  C   UNL A   1      42.925  28.656  32.021  1.00  0.00     0.074 A 
ATOM     62  C   UNL A   1      43.285  27.436  31.328  1.00  0.00     0.031 C 
ATOM     63  C   UNL A   1      43.608  29.165  33.075  1.00  0.00     0.031 A 
BRANCH  50  64
ATOM     64  C   UNL A   1      41.296  34.466  35.255  1.00  0.00    -0.014 A 
ATOM     65  C   UNL A   1      40.662  34.435  36.506  1.00  0.00     0.009 A 
ATOM     66  C   UNL A   1      42.077  35.583  34.917  1.00  0.00     0.009 A 
ATOM     67  C   UNL A   1      40.771  35.516  37.384  1.00  0.00     0.001 A 
ATOM     68  C   UNL A   1      42.209  36.650  35.809  1.00  0.00     0.001 A 
ATOM     69  C   UNL A   1      41.547  36.620  37.036  1.00  0.00     0.000 A 
ENDBRANCH  50  64
BRANCH  51  70
ATOM     70  C   UNL A   1      40.237  27.264  28.424  1.00  0.00    -0.014 A 
ATOM     71  C   UNL A   1      40.826  27.412  27.159  1.00  0.00     0.009 A 
ATOM     72  C   UNL A   1      39.515  26.092  28.703  1.00  0.00     0.009 A 
ATOM     73  C   UNL A   1      40.676  26.421  26.187  1.00  0.00     0.001 A 
ATOM     74  C   UNL A   1      39.389  25.091  27.738  1.00  0.00     0.001 A 
ATOM     75  C   UNL A   1      39.962  25.260  26.478  1.00  0.00     0.000 A 
ENDBRANCH  51  70
BRANCH  63  76
ATOM     76  C   UNL A   1      44.795  28.386  33.565  1.00  0.00    -0.014 A 
ATOM     77  C   UNL A   1      46.079  28.613  33.051  1.00  0.00     0.009 A 
ATOM     78  C   UNL A   1      44.626  27.440  34.588  1.00  0.00     0.009 A 
ATOM     79  C   UNL A   1      47.169  27.885  33.532  1.00  0.00     0.001 A 
ATOM     80  C   UNL A   1      45.722  26.734  35.087  1.00  0.00     0.001 A 
ATOM     81  C   UNL A   1      46.991  26.951  34.553  1.00  0.00     0.000 A 
ENDBRANCH  63  76
ENDBRANCH  37  38
ENDBRANCH  29  32
ENDBRANCH  27  28
ENDBRANCH  26  27
ENDBRANCH   1  26
TORSDOF 14
ENDMDL
MODEL 2
REMARK VINA RESULT:     -11.3      0.723      5.953
REMARK SMILES Cc1cc(N(C)[C@H]2CC[C@@H](C)CC2)cc(C(=O)NCCCCNC(=O)c2ccc(-c3c4nc(c(-c5ccccc5)c5ccc([nH]5)c(-c5ccccc5)c5nc(c(-c6ccccc6)c6ccc3[nH]6)C=C5)C=C4)cc2)c1N
REMARK SMILES IDX 20 1 19 2 18 3 16 4 17 5 15 7 1 8 2 9 3 10 74 11 4 12 14 13
REMARK SMILES IDX 75 14 5 17 6 18 7 19 8 20 13 21 9 22 12 23 10 24 11 25 21 26
REMARK SMILES IDX 22 27 23 28 24 29 25 31 26 32 27 33 73 34 28 35 72 36 29 37
REMARK SMILES IDX 30 38 31 39 66 40 32 41 71 42 65 43 67 44 33 45 70 46 64 47
REMARK SMILES IDX 63 48 34 50 56 51 41 52 55 53 42 54 45 55 54 56 68 57 43 58
REMARK SMILES IDX 44 59 53 61 69 62 46 63 35 64 36 65 40 66 37 67 39 68 38 69
REMARK SMILES IDX 57 70 58 71 62 72 59 73 61 74 60 75 47 76 48 77 52 78 49 79
REMARK SMILES IDX 51 80 50 81
REMARK H PARENT 18 6 75 15 75 16 23 30 67 49 45 60
REMARK Flexibility Score: inf
ROOT
ATOM      1  C   UNL A   1      32.307  29.483  27.179  1.00  0.00     0.023 C 
ENDROOT
BRANCH   1   2
ATOM      2  C   UNL A   1      33.625  28.843  26.735  1.00  0.00     0.116 C 
BRANCH   2   3
ATOM      3  N   UNL A   1      33.841  29.119  25.330  1.00  0.00    -0.352 N 
ATOM      4  C   UNL A   1      33.484  28.416  24.203  1.00  0.00     0.253 C 
ATOM      5  O   UNL A   1      33.905  28.831  23.122  1.00  0.00    -0.269 OA
ATOM      6  H   UNL A   1      34.329  29.954  25.149  1.00  0.00     0.163 HD
BRANCH   4   7
ATOM      7  C   UNL A   1      32.537  27.260  24.261  1.00  0.00     0.065 A 
ATOM      8  C   UNL A   1      28.824  26.517  23.893  1.00  0.00     0.046 C 
ATOM      9  C   UNL A   1      30.270  26.459  24.302  1.00  0.00    -0.025 A 
ATOM     10  C   UNL A   1      30.742  25.276  24.889  1.00  0.00     0.031 A 
ATOM     11  C   UNL A   1      31.173  27.482  23.985  1.00  0.00     0.047 A 
ATOM     12  C   UNL A   1      32.083  24.913  24.831  1.00  0.00     0.038 A 
ATOM     13  C   UNL A   1      32.975  25.950  24.532  1.00  0.00     0.042 A 
BRANCH  11  14
ATOM     14  N   UNL A   1      30.704  28.709  23.524  1.00  0.00    -0.398 N 
ATOM     15  H   UNL A   1      30.517  29.436  24.162  1.00  0.00     0.156 HD
ATOM     16  H   UNL A   1      30.559  28.850  22.560  1.00  0.00     0.156 HD
ENDBRANCH  11  14
BRANCH  12  17
ATOM     17  N   UNL A   1      32.508  23.599  24.979  1.00  0.00    -0.372 N 
ATOM     18  C   UNL A   1      32.299  22.980  26.292  1.00  0.00     0.144 C 
BRANCH  17  19
ATOM     19  C   UNL A   1      32.906  22.678  23.861  1.00  0.00     0.082 C 
ATOM     20  C   UNL A   1      33.523  21.362  24.391  1.00  0.00     0.025 C 
ATOM     21  C   UNL A   1      33.909  23.189  22.811  1.00  0.00     0.025 C 
ATOM     22  C   UNL A   1      34.960  21.501  24.919  1.00  0.00     0.005 C 
ATOM     23  C   UNL A   1      35.259  23.545  23.419  1.00  0.00     0.005 C 
ATOM     24  C   UNL A   1      35.921  22.317  24.034  1.00  0.00    -0.014 C 
ATOM     25  C   UNL A   1      37.155  22.750  24.830  1.00  0.00     0.007 C 
ENDBRANCH  17  19
ENDBRANCH  12  17
ENDBRANCH   4   7
ENDBRANCH   2   3
ENDBRANCH   1   2
BRANCH   1  26
ATOM     26  C   UNL A   1      32.172  30.950  26.764  1.00  0.00     0.023 C 
BRANCH  26  27
ATOM     27  C   UNL A   1      33.215  31.872  27.378  1.00  0.00     0.116 C 
BRANCH  27  28
ATOM     28  N   UNL A   1      32.699  33.200  27.681  1.00  0.00    -0.352 N 
ATOM     29  C   UNL A   1      33.250  34.139  28.518  1.00  0.00     0.251 C 
ATOM     30  H   UNL A   1      31.860  33.453  27.235  1.00  0.00     0.163 HD
ATOM     31  O   UNL A   1      32.667  35.189  28.769  1.00  0.00    -0.269 OA
BRANCH  29  32
ATOM     32  C   UNL A   1      34.544  33.828  29.148  1.00  0.00     0.039 A 
ATOM     33  C   UNL A   1      34.557  33.069  30.319  1.00  0.00     0.014 A 
ATOM     34  C   UNL A   1      35.732  34.187  28.507  1.00  0.00     0.014 A 
ATOM     35  C   UNL A   1      35.775  32.604  30.813  1.00  0.00     0.010 A 
ATOM     36  C   UNL A   1      36.936  33.663  28.962  1.00  0.00     0.010 A 
ATOM     37  C   UNL A   1      36.966  32.862  30.114  1.00  0.00    -0.014 A 
BRANCH  37  38
ATOM     38  C   UNL A   1      38.254  32.282  30.560  1.00  0.00     0.031 A 
ATOM     39  C   UNL A   1      38.735  30.984  29.976  1.00  0.00     0.074 A 
ATOM     40  C   UNL A   1      38.951  32.886  31.541  1.00  0.00     0.049 A 
ATOM     41  N   UNL A   1      39.808  30.296  30.271  1.00  0.00    -0.248 NA
ATOM     42  C   UNL A   1      37.886  30.365  28.945  1.00  0.00     0.031 C 
ATOM     43  C   UNL A   1      38.562  34.123  32.222  1.00  0.00     0.029 A 
ATOM     44  N   UNL A   1      40.134  32.535  32.141  1.00  0.00    -0.354 N 
ATOM     45  C   UNL A   1      39.754  29.160  29.476  1.00  0.00     0.074 A 
ATOM     46  C   UNL A   1      38.518  29.223  28.727  1.00  0.00     0.031 C 
ATOM     47  C   UNL A   1      39.503  34.442  33.125  1.00  0.00     0.029 A 
ATOM     48  C   UNL A   1      40.541  33.416  33.113  1.00  0.00     0.049 A 
ATOM     49  H   UNL A   1      40.643  31.728  31.897  1.00  0.00     0.167 HD
ATOM     50  C   UNL A   1      40.661  28.162  29.365  1.00  0.00     0.031 A 
ATOM     51  C   UNL A   1      41.628  33.399  33.906  1.00  0.00     0.031 A 
ATOM     52  C   UNL A   1      41.892  28.103  30.106  1.00  0.00     0.049 A 
ATOM     53  C   UNL A   1      42.618  32.277  33.768  1.00  0.00     0.074 A 
ATOM     54  C   UNL A   1      42.905  27.164  30.022  1.00  0.00     0.029 A 
ATOM     55  N   UNL A   1      42.274  29.020  31.072  1.00  0.00    -0.354 N 
ATOM     56  N   UNL A   1      42.591  31.248  32.956  1.00  0.00    -0.248 NA
ATOM     57  C   UNL A   1      43.794  32.322  34.647  1.00  0.00     0.031 C 
ATOM     58  C   UNL A   1      43.879  27.488  30.972  1.00  0.00     0.029 A 
ATOM     59  C   UNL A   1      43.498  28.659  31.608  1.00  0.00     0.049 A 
ATOM     60  H   UNL A   1      41.753  29.812  31.338  1.00  0.00     0.167 HD
ATOM     61  C   UNL A   1      43.758  30.537  33.206  1.00  0.00     0.074 A 
ATOM     62  C   UNL A   1      44.476  31.262  34.235  1.00  0.00     0.031 C 
ATOM     63  C   UNL A   1      44.197  29.391  32.633  1.00  0.00     0.031 A 
BRANCH  50  64
ATOM     64  C   UNL A   1      40.344  27.048  28.407  1.00  0.00    -0.014 A 
ATOM     65  C   UNL A   1      39.539  25.964  28.793  1.00  0.00     0.009 A 
ATOM     66  C   UNL A   1      40.839  27.092  27.094  1.00  0.00     0.009 A 
ATOM     67  C   UNL A   1      39.272  24.926  27.898  1.00  0.00     0.001 A 
ATOM     68  C   UNL A   1      40.544  26.068  26.192  1.00  0.00     0.001 A 
ATOM     69  C   UNL A   1      39.770  24.981  26.598  1.00  0.00     0.000 A 
ENDBRANCH  50  64
BRANCH  51  70
ATOM     70  C   UNL A   1      41.851  34.493  34.885  1.00  0.00    -0.014 A 
ATOM     71  C   UNL A   1      42.557  35.648  34.512  1.00  0.00     0.009 A 
ATOM     72  C   UNL A   1      41.360  34.391  36.197  1.00  0.00     0.009 A 
ATOM     73  C   UNL A   1      42.786  36.667  35.439  1.00  0.00     0.001 A 
ATOM     74  C   UNL A   1      41.569  35.424  37.113  1.00  0.00     0.001 A 
ATOM     75  C   UNL A   1      42.289  36.557  36.736  1.00  0.00     0.000 A 
ENDBRANCH  51  70
BRANCH  63  76
ATOM     76  C   UNL A   1      45.532  28.866  33.081  1.00  0.00    -0.014 A 
ATOM     77  C   UNL A   1      45.637  27.946  34.134  1.00  0.00     0.009 A 
ATOM     78  C   UNL A   1      46.695  29.269  32.408  1.00  0.00     0.009 A 
ATOM     79  C   UNL A   1      46.887  27.462  34.524  1.00  0.00     0.001 A 
ATOM     80  C   UNL A   1      47.941  28.763  32.782  1.00  0.00     0.001 A 
ATOM     81  C   UNL A   1      48.037  27.866  33.844  1.00  0.00     0.000 A 
ENDBRANCH  63  76
ENDBRANCH  37  38
ENDBRANCH  29  32
ENDBRANCH  27  28
ENDBRANCH  26  27
ENDBRANCH   1  26
TORSDOF 14
ENDMDL
MODEL 3
REMARK VINA RESULT:     -11.2      1.796      2.349
REMARK SMILES Cc1cc(N(C)[C@H]2CC[C@@H](C)CC2)cc(C(=O)NCCCCNC(=O)c2ccc(-c3c4nc(c(-c5ccccc5)c5ccc([nH]5)c(-c5ccccc5)c5nc(c(-c6ccccc6)c6ccc3[nH]6)C=C5)C=C4)cc2)c1N
REMARK SMILES IDX 20 1 19 2 18 3 16 4 17 5 15 7 1 8 2 9 3 10 74 11 4 12 14 13
REMARK SMILES IDX 75 14 5 17 6 18 7 19 8 20 13 21 9 22 12 23 10 24 11 25 21 26
REMARK SMILES IDX 22 27 23 28 24 29 25 31 26 32 27 33 73 34 28 35 72 36 29 37
REMARK SMILES IDX 30 38 31 39 66 40 32 41 71 42 65 43 67 44 33 45 70 46 64 47
REMARK SMILES IDX 63 48 34 50 56 51 41 52 55 53 42 54 45 55 54 56 68 57 43 58
REMARK SMILES IDX 44 59 53 61 69 62 46 63 35 64 36 65 40 66 37 67 39 68 38 69
REMARK SMILES IDX 57 70 58 71 62 72 59 73 61 74 60 75 47 76 48 77 52 78 49 79
REMARK SMILES IDX 51 80 50 81
REMARK H PARENT 18 6 75 15 75 16 23 30 67 49 45 60
REMARK Flexibility Score: inf
ROOT
ATOM      1  C   UNL A   1      35.271  30.846  27.650  1.00  0.00     0.023 C 
ENDROOT
BRANCH   1   2
ATOM      2  C   UNL A   1      35.005  29.339  27.694  1.00  0.00     0.116 C 
BRANCH   2   3
ATOM      3  N   UNL A   1      33.584  29.108  27.849  1.00  0.00    -0.352 N 
ATOM      4  C   UNL A   1      32.682  28.446  27.049  1.00  0.00     0.253 C 
ATOM      5  O   UNL A   1      31.493  28.504  27.372  1.00  0.00    -0.269 OA
ATOM      6  H   UNL A   1      33.196  29.491  28.668  1.00  0.00     0.163 HD
BRANCH   4   7
ATOM      7  C   UNL A   1      33.120  27.599  25.897  1.00  0.00     0.065 A 
ATOM      8  C   UNL A   1      33.815  27.888  22.169  1.00  0.00     0.046 C 
ATOM      9  C   UNL A   1      33.445  27.360  23.527  1.00  0.00    -0.025 A 
ATOM     10  C   UNL A   1      33.390  25.969  23.701  1.00  0.00     0.031 A 
ATOM     11  C   UNL A   1      33.300  28.202  24.636  1.00  0.00     0.047 A 
ATOM     12  C   UNL A   1      33.572  25.379  24.946  1.00  0.00     0.038 A 
ATOM     13  C   UNL A   1      33.405  26.229  26.046  1.00  0.00     0.042 A 
BRANCH  11  14
ATOM     14  N   UNL A   1      33.221  29.581  24.461  1.00  0.00    -0.398 N 
ATOM     15  H   UNL A   1      32.419  30.070  24.756  1.00  0.00     0.156 HD
ATOM     16  H   UNL A   1      33.968  30.067  24.042  1.00  0.00     0.156 HD
ENDBRANCH  11  14
BRANCH  12  17
ATOM     17  N   UNL A   1      33.972  24.056  25.095  1.00  0.00    -0.372 N 
ATOM     18  C   UNL A   1      33.925  23.500  26.451  1.00  0.00     0.144 C 
BRANCH  17  19
ATOM     19  C   UNL A   1      34.183  23.076  23.977  1.00  0.00     0.082 C 
ATOM     20  C   UNL A   1      34.222  21.617  24.490  1.00  0.00     0.025 C 
ATOM     21  C   UNL A   1      35.442  23.221  23.102  1.00  0.00     0.025 C 
ATOM     22  C   UNL A   1      35.525  21.230  25.207  1.00  0.00     0.005 C 
ATOM     23  C   UNL A   1      36.729  23.066  23.902  1.00  0.00     0.005 C 
ATOM     24  C   UNL A   1      36.827  21.672  24.511  1.00  0.00    -0.014 C 
ATOM     25  C   UNL A   1      38.006  21.625  25.487  1.00  0.00     0.007 C 
ENDBRANCH  17  19
ENDBRANCH  12  17
ENDBRANCH   4   7
ENDBRANCH   2   3
ENDBRANCH   1   2
BRANCH   1  26
ATOM     26  C   UNL A   1      34.056  31.690  28.043  1.00  0.00     0.023 C 
BRANCH  26  27
ATOM     27  C   UNL A   1      34.273  33.191  27.918  1.00  0.00     0.116 C 
BRANCH  27  28
ATOM     28  N   UNL A   1      33.564  33.959  28.933  1.00  0.00    -0.352 N 
ATOM     29  C   UNL A   1      33.924  34.139  30.246  1.00  0.00     0.251 C 
ATOM     30  H   UNL A   1      32.733  34.398  28.645  1.00  0.00     0.163 HD
ATOM     31  O   UNL A   1      33.190  34.729  31.032  1.00  0.00    -0.269 OA
BRANCH  29  32
ATOM     32  C   UNL A   1      35.199  33.559  30.699  1.00  0.00     0.039 A 
ATOM     33  C   UNL A   1      35.172  32.486  31.590  1.00  0.00     0.014 A 
ATOM     34  C   UNL A   1      36.401  34.004  30.141  1.00  0.00     0.014 A 
ATOM     35  C   UNL A   1      36.356  31.805  31.870  1.00  0.00     0.010 A 
ATOM     36  C   UNL A   1      37.565  33.280  30.367  1.00  0.00     0.010 A 
ATOM     37  C   UNL A   1      37.551  32.171  31.227  1.00  0.00    -0.014 A 
BRANCH  37  38
ATOM     38  C   UNL A   1      38.793  31.390  31.424  1.00  0.00     0.031 A 
ATOM     39  C   UNL A   1      39.804  31.831  32.443  1.00  0.00     0.074 A 
ATOM     40  C   UNL A   1      39.044  30.327  30.634  1.00  0.00     0.049 A 
ATOM     41  N   UNL A   1      40.969  31.309  32.727  1.00  0.00    -0.248 NA
ATOM     42  C   UNL A   1      39.474  33.033  33.227  1.00  0.00     0.031 C 
ATOM     43  C   UNL A   1      38.163  29.831  29.574  1.00  0.00     0.029 A 
ATOM     44  N   UNL A   1      40.119  29.476  30.599  1.00  0.00    -0.354 N 
ATOM     45  C   UNL A   1      41.516  32.124  33.708  1.00  0.00     0.074 A 
ATOM     46  C   UNL A   1      40.581  33.205  33.932  1.00  0.00     0.031 C 
ATOM     47  C   UNL A   1      38.720  28.746  29.013  1.00  0.00     0.029 A 
ATOM     48  C   UNL A   1      40.010  28.492  29.646  1.00  0.00     0.049 A 
ATOM     49  H   UNL A   1      40.894  29.563  31.199  1.00  0.00     0.167 HD
ATOM     50  C   UNL A   1      42.683  31.977  34.378  1.00  0.00     0.031 A 
ATOM     51  C   UNL A   1      40.856  27.498  29.319  1.00  0.00     0.031 A 
ATOM     52  C   UNL A   1      43.609  30.898  34.158  1.00  0.00     0.049 A 
ATOM     53  C   UNL A   1      42.148  27.358  30.073  1.00  0.00     0.074 A 
ATOM     54  C   UNL A   1      44.790  30.626  34.825  1.00  0.00     0.029 A 
ATOM     55  N   UNL A   1      43.457  29.915  33.194  1.00  0.00    -0.354 N 
ATOM     56  N   UNL A   1      42.617  28.093  31.052  1.00  0.00    -0.248 NA
ATOM     57  C   UNL A   1      43.022  26.243  29.684  1.00  0.00     0.031 C 
ATOM     58  C   UNL A   1      45.378  29.505  34.232  1.00  0.00     0.029 A 
ATOM     59  C   UNL A   1      44.535  29.047  33.232  1.00  0.00     0.049 A 
ATOM     60  H   UNL A   1      42.696  29.844  32.573  1.00  0.00     0.167 HD
ATOM     61  C   UNL A   1      43.826  27.515  31.415  1.00  0.00     0.074 A 
ATOM     62  C   UNL A   1      44.011  26.360  30.560  1.00  0.00     0.031 C 
ATOM     63  C   UNL A   1      44.703  27.903  32.373  1.00  0.00     0.031 A 
BRANCH  50  64
ATOM     64  C   UNL A   1      43.022  33.018  35.406  1.00  0.00    -0.014 A 
ATOM     65  C   UNL A   1      43.756  34.165  35.066  1.00  0.00     0.009 A 
ATOM     66  C   UNL A   1      42.584  32.861  36.731  1.00  0.00     0.009 A 
ATOM     67  C   UNL A   1      44.081  35.113  36.038  1.00  0.00     0.001 A 
ATOM     68  C   UNL A   1      42.885  33.825  37.695  1.00  0.00     0.001 A 
ATOM     69  C   UNL A   1      43.642  34.945  37.351  1.00  0.00     0.000 A 
ENDBRANCH  50  64
BRANCH  51  70
ATOM     70  C   UNL A   1      40.496  26.541  28.242  1.00  0.00    -0.014 A 
ATOM     71  C   UNL A   1      39.638  25.462  28.507  1.00  0.00     0.009 A 
ATOM     72  C   UNL A   1      41.007  26.699  26.944  1.00  0.00     0.009 A 
ATOM     73  C   UNL A   1      39.318  24.548  27.501  1.00  0.00     0.001 A 
ATOM     74  C   UNL A   1      40.663  25.798  25.933  1.00  0.00     0.001 A 
ATOM     75  C   UNL A   1      39.826  24.719  26.215  1.00  0.00     0.000 A 
ENDBRANCH  51  70
BRANCH  63  76
ATOM     76  C   UNL A   1      45.925  27.052  32.570  1.00  0.00    -0.014 A 
ATOM     77  C   UNL A   1      47.128  27.339  31.908  1.00  0.00     0.009 A 
ATOM     78  C   UNL A   1      45.880  25.974  33.467  1.00  0.00     0.009 A 
ATOM     79  C   UNL A   1      48.254  26.541  32.118  1.00  0.00     0.001 A 
ATOM     80  C   UNL A   1      47.015  25.195  33.697  1.00  0.00     0.001 A 
ATOM     81  C   UNL A   1      48.199  25.475  33.016  1.00  0.00     0.000 A 
ENDBRANCH  63  76
ENDBRANCH  37  38
ENDBRANCH  29  32
ENDBRANCH  27  28
ENDBRANCH  26  27
ENDBRANCH   1  26
TORSDOF 14
ENDMDL
