MODEL 1
REMARK VINA RESULT:      -8.8      0.000      0.000
REMARK SMILES CCC[NH2+][C@H]1C[C@@H](C(=O)NCCCCNC(=O)c2ccc(-c3c4nc(c(-c5ccccc5)c5ccc([nH]5)c(-c5ccccc5)c5nc(c(-c6ccccc6)c6ccc3[nH]6)C=C5)C=C4)cc2)C1
REMARK SMILES IDX 12 1 11 2 10 3 8 4 9 5 7 7 5 8 66 9 6 10 4 11 3 14 2 15 1 16
REMARK SMILES IDX 13 17 14 18 15 19 16 20 17 22 18 23 19 24 65 25 20 26 64 27
REMARK SMILES IDX 21 28 22 29 23 30 58 31 24 32 63 33 57 34 59 35 25 36 62 37
REMARK SMILES IDX 56 38 55 39 26 41 48 42 33 43 47 44 34 45 37 46 46 47 60 48
REMARK SMILES IDX 35 49 36 50 45 52 61 53 38 54 27 55 28 56 32 57 29 58 31 59
REMARK SMILES IDX 30 60 49 61 50 62 54 63 51 64 53 65 52 66 39 67 40 68 44 69
REMARK SMILES IDX 41 70 43 71 42 72
REMARK H PARENT 10 6 4 12 4 13 15 21 59 40 37 51
REMARK Flexibility Score: inf
ROOT
ATOM      1  C   UNL A   1      44.815  20.590  24.078  1.00  0.00     0.023 C 
ENDROOT
BRANCH   1   2
ATOM      2  C   UNL A   1      45.550  21.594  24.956  1.00  0.00     0.116 C 
BRANCH   2   3
ATOM      3  N   UNL A   1      46.374  22.512  24.210  1.00  0.00    -0.356 N 
ATOM      4  C   UNL A   1      46.545  23.868  24.371  1.00  0.00     0.223 C 
ATOM      5  O   UNL A   1      47.366  24.391  23.601  1.00  0.00    -0.275 OA
ATOM      6  H   UNL A   1      46.891  22.109  23.477  1.00  0.00     0.163 HD
BRANCH   4   7
ATOM      7  C   UNL A   1      45.766  24.695  25.416  1.00  0.00     0.090 C 
ATOM      8  C   UNL A   1      44.865  26.505  26.110  1.00  0.00     0.183 C 
ATOM      9  C   UNL A   1      44.434  25.432  25.090  1.00  0.00     0.078 C 
ATOM     10  C   UNL A   1      46.326  26.047  25.933  1.00  0.00     0.078 C 
BRANCH   8  11
ATOM     11  N   UNL A   1      44.548  27.874  25.692  1.00  0.00    -0.344 N 
ATOM     12  H   UNL A   1      45.401  28.275  25.304  1.00  0.00     0.346 HD
ATOM     13  H   UNL A   1      43.767  27.762  25.046  1.00  0.00     0.346 HD
BRANCH  11  14
ATOM     14  C   UNL A   1      44.049  28.813  26.692  1.00  0.00     0.260 C 
BRANCH  14  15
ATOM     15  C   UNL A   1      42.591  29.232  26.457  1.00  0.00     0.058 C 
ATOM     16  C   UNL A   1      41.815  28.289  25.552  1.00  0.00     0.010 C 
ENDBRANCH  14  15
ENDBRANCH  11  14
ENDBRANCH   8  11
ENDBRANCH   4   7
ENDBRANCH   2   3
ENDBRANCH   1   2
BRANCH   1  17
ATOM     17  C   UNL A   1      44.766  19.175  24.642  1.00  0.00     0.023 C 
BRANCH  17  18
ATOM     18  C   UNL A   1      43.929  19.012  25.905  1.00  0.00     0.116 C 
BRANCH  18  19
ATOM     19  N   UNL A   1      42.522  18.764  25.637  1.00  0.00    -0.352 N 
ATOM     20  C   UNL A   1      41.434  19.543  25.950  1.00  0.00     0.251 C 
ATOM     21  H   UNL A   1      42.320  17.922  25.170  1.00  0.00     0.163 HD
ATOM     22  O   UNL A   1      40.298  19.119  25.759  1.00  0.00    -0.269 OA
BRANCH  20  23
ATOM     23  C   UNL A   1      41.633  20.882  26.544  1.00  0.00     0.039 A 
ATOM     24  C   UNL A   1      41.526  21.025  27.930  1.00  0.00     0.014 A 
ATOM     25  C   UNL A   1      41.931  21.990  25.745  1.00  0.00     0.014 A 
ATOM     26  C   UNL A   1      41.763  22.270  28.515  1.00  0.00     0.010 A 
ATOM     27  C   UNL A   1      42.257  23.205  26.338  1.00  0.00     0.010 A 
ATOM     28  C   UNL A   1      42.157  23.365  27.727  1.00  0.00    -0.014 A 
BRANCH  28  29
ATOM     29  C   UNL A   1      42.433  24.688  28.343  1.00  0.00     0.031 A 
ATOM     30  C   UNL A   1      43.806  25.007  28.869  1.00  0.00     0.074 A 
ATOM     31  C   UNL A   1      41.441  25.593  28.455  1.00  0.00     0.049 A 
ATOM     32  N   UNL A   1      44.242  26.109  29.427  1.00  0.00    -0.248 NA
ATOM     33  C   UNL A   1      44.818  23.940  28.783  1.00  0.00     0.031 C 
ATOM     34  C   UNL A   1      40.054  25.391  28.032  1.00  0.00     0.029 A 
ATOM     35  N   UNL A   1      41.452  26.871  28.957  1.00  0.00    -0.354 N 
ATOM     36  C   UNL A   1      45.567  25.862  29.767  1.00  0.00     0.074 A 
ATOM     37  C   UNL A   1      45.845  24.488  29.413  1.00  0.00     0.031 C 
ATOM     38  C   UNL A   1      39.358  26.519  28.251  1.00  0.00     0.029 A 
ATOM     39  C   UNL A   1      40.239  27.509  28.862  1.00  0.00     0.049 A 
ATOM     40  H   UNL A   1      42.252  27.289  29.347  1.00  0.00     0.167 HD
ATOM     41  C   UNL A   1      46.479  26.707  30.300  1.00  0.00     0.031 A 
ATOM     42  C   UNL A   1      39.879  28.755  29.223  1.00  0.00     0.031 A 
ATOM     43  C   UNL A   1      46.207  28.077  30.644  1.00  0.00     0.049 A 
ATOM     44  C   UNL A   1      40.910  29.674  29.818  1.00  0.00     0.074 A 
ATOM     45  C   UNL A   1      47.078  29.033  31.136  1.00  0.00     0.029 A 
ATOM     46  N   UNL A   1      44.966  28.685  30.535  1.00  0.00    -0.354 N 
ATOM     47  N   UNL A   1      42.179  29.450  30.055  1.00  0.00    -0.248 NA
ATOM     48  C   UNL A   1      40.458  31.025  30.177  1.00  0.00     0.031 C 
ATOM     49  C   UNL A   1      46.351  30.203  31.377  1.00  0.00     0.029 A 
ATOM     50  C   UNL A   1      45.042  29.996  30.975  1.00  0.00     0.049 A 
ATOM     51  H   UNL A   1      44.151  28.249  30.194  1.00  0.00     0.167 HD
ATOM     52  C   UNL A   1      42.683  30.639  30.567  1.00  0.00     0.074 A 
ATOM     53  C   UNL A   1      41.588  31.587  30.579  1.00  0.00     0.031 C 
ATOM     54  C   UNL A   1      43.939  30.922  30.991  1.00  0.00     0.031 A 
BRANCH  41  55
ATOM     55  C   UNL A   1      47.862  26.166  30.546  1.00  0.00    -0.014 A 
ATOM     56  C   UNL A   1      48.260  25.731  31.821  1.00  0.00     0.009 A 
ATOM     57  C   UNL A   1      48.772  26.067  29.483  1.00  0.00     0.009 A 
ATOM     58  C   UNL A   1      49.552  25.250  32.035  1.00  0.00     0.001 A 
ATOM     59  C   UNL A   1      50.054  25.554  29.693  1.00  0.00     0.001 A 
ATOM     60  C   UNL A   1      50.447  25.156  30.970  1.00  0.00     0.000 A 
ENDBRANCH  41  55
BRANCH  42  61
ATOM     61  C   UNL A   1      38.482  29.221  29.009  1.00  0.00    -0.014 A 
ATOM     62  C   UNL A   1      38.079  29.717  27.759  1.00  0.00     0.009 A 
ATOM     63  C   UNL A   1      37.549  29.187  30.057  1.00  0.00     0.009 A 
ATOM     64  C   UNL A   1      36.782  30.200  27.573  1.00  0.00     0.001 A 
ATOM     65  C   UNL A   1      36.244  29.640  29.859  1.00  0.00     0.001 A 
ATOM     66  C   UNL A   1      35.864  30.157  28.622  1.00  0.00     0.000 A 
ENDBRANCH  42  61
BRANCH  54  67
ATOM     67  C   UNL A   1      44.197  32.322  31.478  1.00  0.00    -0.014 A 
ATOM     68  C   UNL A   1      44.031  32.669  32.828  1.00  0.00     0.009 A 
ATOM     69  C   UNL A   1      44.631  33.303  30.572  1.00  0.00     0.009 A 
ATOM     70  C   UNL A   1      44.247  33.981  33.251  1.00  0.00     0.001 A 
ATOM     71  C   UNL A   1      44.880  34.606  31.005  1.00  0.00     0.001 A 
ATOM     72  C   UNL A   1      44.675  34.947  32.341  1.00  0.00     0.000 A 
ENDBRANCH  54  67
ENDBRANCH  28  29
ENDBRANCH  20  23
ENDBRANCH  18  19
ENDBRANCH  17  18
ENDBRANCH   1  17
TORSDOF 14
ENDMDL
MODEL 2
REMARK VINA RESULT:      -8.1      3.339      5.559
REMARK SMILES CCC[NH2+][C@H]1C[C@@H](C(=O)NCCCCNC(=O)c2ccc(-c3c4nc(c(-c5ccccc5)c5ccc([nH]5)c(-c5ccccc5)c5nc(c(-c6ccccc6)c6ccc3[nH]6)C=C5)C=C4)cc2)C1
REMARK SMILES IDX 12 1 11 2 10 3 8 4 9 5 7 7 5 8 66 9 6 10 4 11 3 14 2 15 1 16
REMARK SMILES IDX 13 17 14 18 15 19 16 20 17 22 18 23 19 24 65 25 20 26 64 27
REMARK SMILES IDX 21 28 22 29 23 30 58 31 24 32 63 33 57 34 59 35 25 36 62 37
REMARK SMILES IDX 56 38 55 39 26 41 48 42 33 43 47 44 34 45 37 46 46 47 60 48
REMARK SMILES IDX 35 49 36 50 45 52 61 53 38 54 27 55 28 56 32 57 29 58 31 59
REMARK SMILES IDX 30 60 49 61 50 62 54 63 51 64 53 65 52 66 39 67 40 68 44 69
REMARK SMILES IDX 41 70 43 71 42 72
REMARK H PARENT 10 6 4 12 4 13 15 21 59 40 37 51
REMARK Flexibility Score: inf
ROOT
ATOM      1  C   UNL A   1      39.020  22.456  26.141  1.00  0.00     0.023 C 
ENDROOT
BRANCH   1   2
ATOM      2  C   UNL A   1      37.750  23.265  25.909  1.00  0.00     0.116 C 
BRANCH   2   3
ATOM      3  N   UNL A   1      37.346  23.311  24.527  1.00  0.00    -0.356 N 
ATOM      4  C   UNL A   1      36.208  22.820  23.928  1.00  0.00     0.223 C 
ATOM      5  O   UNL A   1      36.108  23.054  22.713  1.00  0.00    -0.275 OA
ATOM      6  H   UNL A   1      37.978  23.761  23.920  1.00  0.00     0.163 HD
BRANCH   4   7
ATOM      7  C   UNL A   1      35.135  22.020  24.694  1.00  0.00     0.090 C 
ATOM      8  C   UNL A   1      33.679  20.461  24.841  1.00  0.00     0.183 C 
ATOM      9  C   UNL A   1      35.220  20.480  24.908  1.00  0.00     0.078 C 
ATOM     10  C   UNL A   1      33.723  21.803  24.086  1.00  0.00     0.078 C 
BRANCH   8  11
ATOM     11  N   UNL A   1      33.137  19.310  24.109  1.00  0.00    -0.344 N 
ATOM     12  H   UNL A   1      32.357  19.651  23.549  1.00  0.00     0.346 HD
ATOM     13  H   UNL A   1      33.938  18.944  23.594  1.00  0.00     0.346 HD
BRANCH  11  14
ATOM     14  C   UNL A   1      32.652  18.163  24.871  1.00  0.00     0.260 C 
BRANCH  14  15
ATOM     15  C   UNL A   1      32.974  16.816  24.210  1.00  0.00     0.058 C 
ATOM     16  C   UNL A   1      34.163  16.860  23.263  1.00  0.00     0.010 C 
ENDBRANCH  14  15
ENDBRANCH  11  14
ENDBRANCH   8  11
ENDBRANCH   4   7
ENDBRANCH   2   3
ENDBRANCH   1   2
BRANCH   1  17
ATOM     17  C   UNL A   1      39.050  21.110  25.425  1.00  0.00     0.023 C 
BRANCH  17  18
ATOM     18  C   UNL A   1      39.464  19.927  26.292  1.00  0.00     0.116 C 
BRANCH  18  19
ATOM     19  N   UNL A   1      40.673  19.266  25.828  1.00  0.00    -0.352 N 
ATOM     20  C   UNL A   1      41.962  19.740  25.807  1.00  0.00     0.251 C 
ATOM     21  H   UNL A   1      40.551  18.353  25.480  1.00  0.00     0.163 HD
ATOM     22  O   UNL A   1      42.849  19.089  25.262  1.00  0.00    -0.269 OA
BRANCH  20  23
ATOM     23  C   UNL A   1      42.275  21.050  26.415  1.00  0.00     0.039 A 
ATOM     24  C   UNL A   1      42.669  22.101  25.583  1.00  0.00     0.014 A 
ATOM     25  C   UNL A   1      42.174  21.249  27.795  1.00  0.00     0.014 A 
ATOM     26  C   UNL A   1      42.917  23.360  26.132  1.00  0.00     0.010 A 
ATOM     27  C   UNL A   1      42.332  22.524  28.327  1.00  0.00     0.010 A 
ATOM     28  C   UNL A   1      42.725  23.590  27.505  1.00  0.00    -0.014 A 
BRANCH  28  29
ATOM     29  C   UNL A   1      42.965  24.931  28.095  1.00  0.00     0.031 A 
ATOM     30  C   UNL A   1      44.353  25.339  28.508  1.00  0.00     0.074 A 
ATOM     31  C   UNL A   1      41.930  25.772  28.287  1.00  0.00     0.049 A 
ATOM     32  N   UNL A   1      44.762  26.470  29.029  1.00  0.00    -0.248 NA
ATOM     33  C   UNL A   1      45.420  24.338  28.341  1.00  0.00     0.031 C 
ATOM     34  C   UNL A   1      40.528  25.481  27.978  1.00  0.00     0.029 A 
ATOM     35  N   UNL A   1      41.900  27.051  28.785  1.00  0.00    -0.354 N 
ATOM     36  C   UNL A   1      46.123  26.309  29.259  1.00  0.00     0.074 A 
ATOM     37  C   UNL A   1      46.459  24.954  28.885  1.00  0.00     0.031 C 
ATOM     38  C   UNL A   1      39.783  26.563  28.252  1.00  0.00     0.029 A 
ATOM     39  C   UNL A   1      40.646  27.611  28.790  1.00  0.00     0.049 A 
ATOM     40  H   UNL A   1      42.702  27.521  29.109  1.00  0.00     0.167 HD
ATOM     41  C   UNL A   1      47.020  27.213  29.717  1.00  0.00     0.031 A 
ATOM     42  C   UNL A   1      40.237  28.834  29.177  1.00  0.00     0.031 A 
ATOM     43  C   UNL A   1      46.690  28.565  30.081  1.00  0.00     0.049 A 
ATOM     44  C   UNL A   1      41.253  29.819  29.686  1.00  0.00     0.074 A 
ATOM     45  C   UNL A   1      47.536  29.577  30.500  1.00  0.00     0.029 A 
ATOM     46  N   UNL A   1      45.409  29.093  30.072  1.00  0.00    -0.354 N 
ATOM     47  N   UNL A   1      42.549  29.677  29.820  1.00  0.00    -0.248 NA
ATOM     48  C   UNL A   1      40.747  31.141  30.079  1.00  0.00     0.031 C 
ATOM     49  C   UNL A   1      46.758  30.700  30.798  1.00  0.00     0.029 A 
ATOM     50  C   UNL A   1      45.437  30.408  30.504  1.00  0.00     0.049 A 
ATOM     51  H   UNL A   1      44.598  28.604  29.799  1.00  0.00     0.167 HD
ATOM     52  C   UNL A   1      43.016  30.899  30.288  1.00  0.00     0.074 A 
ATOM     53  C   UNL A   1      41.868  31.775  30.389  1.00  0.00     0.031 C 
ATOM     54  C   UNL A   1      44.282  31.263  30.609  1.00  0.00     0.031 A 
BRANCH  41  55
ATOM     55  C   UNL A   1      48.450  26.762  29.850  1.00  0.00    -0.014 A 
ATOM     56  C   UNL A   1      48.924  26.180  31.037  1.00  0.00     0.009 A 
ATOM     57  C   UNL A   1      49.329  26.899  28.765  1.00  0.00     0.009 A 
ATOM     58  C   UNL A   1      50.258  25.784  31.149  1.00  0.00     0.001 A 
ATOM     59  C   UNL A   1      50.655  26.472  28.869  1.00  0.00     0.001 A 
ATOM     60  C   UNL A   1      51.121  25.925  30.063  1.00  0.00     0.000 A 
ENDBRANCH  41  55
BRANCH  42  61
ATOM     61  C   UNL A   1      38.802  29.209  29.077  1.00  0.00    -0.014 A 
ATOM     62  C   UNL A   1      37.939  29.026  30.170  1.00  0.00     0.009 A 
ATOM     63  C   UNL A   1      38.282  29.736  27.885  1.00  0.00     0.009 A 
ATOM     64  C   UNL A   1      36.581  29.332  30.059  1.00  0.00     0.001 A 
ATOM     65  C   UNL A   1      36.930  30.071  27.788  1.00  0.00     0.001 A 
ATOM     66  C   UNL A   1      36.078  29.858  28.870  1.00  0.00     0.000 A 
ENDBRANCH  42  61
BRANCH  54  67
ATOM     67  C   UNL A   1      44.489  32.679  31.072  1.00  0.00    -0.014 A 
ATOM     68  C   UNL A   1      44.436  33.018  32.433  1.00  0.00     0.009 A 
ATOM     69  C   UNL A   1      44.759  33.685  30.131  1.00  0.00     0.009 A 
ATOM     70  C   UNL A   1      44.602  34.344  32.838  1.00  0.00     0.001 A 
ATOM     71  C   UNL A   1      44.959  35.004  30.541  1.00  0.00     0.001 A 
ATOM     72  C   UNL A   1      44.866  35.334  31.892  1.00  0.00     0.000 A 
ENDBRANCH  54  67
ENDBRANCH  28  29
ENDBRANCH  20  23
ENDBRANCH  18  19
ENDBRANCH  17  18
ENDBRANCH   1  17
TORSDOF 14
ENDMDL
MODEL 3
REMARK VINA RESULT:      -7.8      3.510      8.334
REMARK SMILES CCC[NH2+][C@H]1C[C@@H](C(=O)NCCCCNC(=O)c2ccc(-c3c4nc(c(-c5ccccc5)c5ccc([nH]5)c(-c5ccccc5)c5nc(c(-c6ccccc6)c6ccc3[nH]6)C=C5)C=C4)cc2)C1
REMARK SMILES IDX 12 1 11 2 10 3 8 4 9 5 7 7 5 8 66 9 6 10 4 11 3 14 2 15 1 16
REMARK SMILES IDX 13 17 14 18 15 19 16 20 17 22 18 23 19 24 65 25 20 26 64 27
REMARK SMILES IDX 21 28 22 29 23 30 58 31 24 32 63 33 57 34 59 35 25 36 62 37
REMARK SMILES IDX 56 38 55 39 26 41 48 42 33 43 47 44 34 45 37 46 46 47 60 48
REMARK SMILES IDX 35 49 36 50 45 52 61 53 38 54 27 55 28 56 32 57 29 58 31 59
REMARK SMILES IDX 30 60 49 61 50 62 54 63 51 64 53 65 52 66 39 67 40 68 44 69
REMARK SMILES IDX 41 70 43 71 42 72
REMARK H PARENT 10 6 4 12 4 13 15 21 59 40 37 51
REMARK Flexibility Score: inf
ROOT
ATOM      1  C   UNL A   1      39.251  22.601  26.406  1.00  0.00     0.023 C 
ENDROOT
BRANCH   1   2
ATOM      2  C   UNL A   1      37.997  23.413  26.110  1.00  0.00     0.116 C 
BRANCH   2   3
ATOM      3  N   UNL A   1      37.604  23.375  24.724  1.00  0.00    -0.356 N 
ATOM      4  C   UNL A   1      36.516  22.773  24.136  1.00  0.00     0.223 C 
ATOM      5  O   UNL A   1      36.410  22.952  22.913  1.00  0.00    -0.275 OA
ATOM      6  H   UNL A   1      38.204  23.851  24.106  1.00  0.00     0.163 HD
BRANCH   4   7
ATOM      7  C   UNL A   1      35.501  21.918  24.924  1.00  0.00     0.090 C 
ATOM      8  C   UNL A   1      33.974  20.427  25.051  1.00  0.00     0.183 C 
ATOM      9  C   UNL A   1      35.507  20.361  24.900  1.00  0.00     0.078 C 
ATOM     10  C   UNL A   1      34.009  21.865  24.499  1.00  0.00     0.078 C 
BRANCH   8  11
ATOM     11  N   UNL A   1      33.261  19.430  24.246  1.00  0.00    -0.344 N 
ATOM     12  H   UNL A   1      32.465  19.902  23.818  1.00  0.00     0.346 HD
ATOM     13  H   UNL A   1      33.971  19.071  23.609  1.00  0.00     0.346 HD
BRANCH  11  14
ATOM     14  C   UNL A   1      32.746  18.235  24.909  1.00  0.00     0.260 C 
BRANCH  14  15
ATOM     15  C   UNL A   1      33.714  17.046  24.854  1.00  0.00     0.058 C 
ATOM     16  C   UNL A   1      34.041  16.579  23.445  1.00  0.00     0.010 C 
ENDBRANCH  14  15
ENDBRANCH  11  14
ENDBRANCH   8  11
ENDBRANCH   4   7
ENDBRANCH   2   3
ENDBRANCH   1   2
BRANCH   1  17
ATOM     17  C   UNL A   1      39.272  21.216  25.768  1.00  0.00     0.023 C 
BRANCH  17  18
ATOM     18  C   UNL A   1      39.839  20.109  26.647  1.00  0.00     0.116 C 
BRANCH  18  19
ATOM     19  N   UNL A   1      40.957  19.405  26.040  1.00  0.00    -0.352 N 
ATOM     20  C   UNL A   1      42.217  19.871  25.753  1.00  0.00     0.251 C 
ATOM     21  H   UNL A   1      40.788  18.465  25.801  1.00  0.00     0.163 HD
ATOM     22  O   UNL A   1      43.004  19.170  25.121  1.00  0.00    -0.269 OA
BRANCH  20  23
ATOM     23  C   UNL A   1      42.615  21.229  26.179  1.00  0.00     0.039 A 
ATOM     24  C   UNL A   1      42.808  22.211  25.204  1.00  0.00     0.014 A 
ATOM     25  C   UNL A   1      42.791  21.539  27.531  1.00  0.00     0.014 A 
ATOM     26  C   UNL A   1      43.132  23.512  25.590  1.00  0.00     0.010 A 
ATOM     27  C   UNL A   1      43.022  22.855  27.917  1.00  0.00     0.010 A 
ATOM     28  C   UNL A   1      43.216  23.852  26.951  1.00  0.00    -0.014 A 
BRANCH  28  29
ATOM     29  C   UNL A   1      43.538  25.239  27.372  1.00  0.00     0.031 A 
ATOM     30  C   UNL A   1      42.439  26.178  27.790  1.00  0.00     0.074 A 
ATOM     31  C   UNL A   1      44.816  25.664  27.352  1.00  0.00     0.049 A 
ATOM     32  N   UNL A   1      42.524  27.419  28.201  1.00  0.00    -0.248 NA
ATOM     33  C   UNL A   1      41.059  25.669  27.711  1.00  0.00     0.031 C 
ATOM     34  C   UNL A   1      45.969  24.871  26.920  1.00  0.00     0.029 A 
ATOM     35  N   UNL A   1      45.360  26.872  27.711  1.00  0.00    -0.354 N 
ATOM     36  C   UNL A   1      41.216  27.837  28.415  1.00  0.00     0.074 A 
ATOM     37  C   UNL A   1      40.354  26.743  28.029  1.00  0.00     0.031 C 
ATOM     38  C   UNL A   1      47.087  25.597  27.080  1.00  0.00     0.029 A 
ATOM     39  C   UNL A   1      46.728  26.917  27.590  1.00  0.00     0.049 A 
ATOM     40  H   UNL A   1      44.822  27.634  28.024  1.00  0.00     0.167 HD
ATOM     41  C   UNL A   1      40.770  29.014  28.914  1.00  0.00     0.031 A 
ATOM     42  C   UNL A   1      47.596  27.909  27.865  1.00  0.00     0.031 A 
ATOM     43  C   UNL A   1      41.626  30.100  29.308  1.00  0.00     0.049 A 
ATOM     44  C   UNL A   1      47.075  29.208  28.414  1.00  0.00     0.074 A 
ATOM     45  C   UNL A   1      41.277  31.311  29.879  1.00  0.00     0.029 A 
ATOM     46  N   UNL A   1      43.005  30.106  29.169  1.00  0.00    -0.354 N 
ATOM     47  N   UNL A   1      45.842  29.556  28.688  1.00  0.00    -0.248 NA
ATOM     48  C   UNL A   1      48.074  30.245  28.707  1.00  0.00     0.031 C 
ATOM     49  C   UNL A   1      42.439  32.073  30.033  1.00  0.00     0.029 A 
ATOM     50  C   UNL A   1      43.519  31.311  29.618  1.00  0.00     0.049 A 
ATOM     51  H   UNL A   1      43.540  29.364  28.804  1.00  0.00     0.167 HD
ATOM     52  C   UNL A   1      45.919  30.841  29.210  1.00  0.00     0.074 A 
ATOM     53  C   UNL A   1      47.322  31.198  29.238  1.00  0.00     0.031 C 
ATOM     54  C   UNL A   1      44.918  31.655  29.628  1.00  0.00     0.031 A 
BRANCH  41  55
ATOM     55  C   UNL A   1      39.281  29.183  29.057  1.00  0.00    -0.014 A 
ATOM     56  C   UNL A   1      38.620  28.848  30.250  1.00  0.00     0.009 A 
ATOM     57  C   UNL A   1      38.532  29.708  27.993  1.00  0.00     0.009 A 
ATOM     58  C   UNL A   1      37.236  28.994  30.359  1.00  0.00     0.001 A 
ATOM     59  C   UNL A   1      37.152  29.884  28.116  1.00  0.00     0.001 A 
ATOM     60  C   UNL A   1      36.504  29.517  29.294  1.00  0.00     0.000 A 
ENDBRANCH  41  55
BRANCH  42  61
ATOM     61  C   UNL A   1      49.054  27.706  27.651  1.00  0.00    -0.014 A 
ATOM     62  C   UNL A   1      49.644  28.021  26.416  1.00  0.00     0.009 A 
ATOM     63  C   UNL A   1      49.860  27.182  28.673  1.00  0.00     0.009 A 
ATOM     64  C   UNL A   1      51.004  27.785  26.200  1.00  0.00     0.001 A 
ATOM     65  C   UNL A   1      51.225  26.977  28.464  1.00  0.00     0.001 A 
ATOM     66  C   UNL A   1      51.794  27.267  27.225  1.00  0.00     0.000 A 
ENDBRANCH  42  61
BRANCH  54  67
ATOM     67  C   UNL A   1      45.314  32.999  30.174  1.00  0.00    -0.014 A 
ATOM     68  C   UNL A   1      45.612  33.175  31.535  1.00  0.00     0.009 A 
ATOM     69  C   UNL A   1      45.405  34.101  29.310  1.00  0.00     0.009 A 
ATOM     70  C   UNL A   1      45.948  34.439  32.026  1.00  0.00     0.001 A 
ATOM     71  C   UNL A   1      45.775  35.356  29.797  1.00  0.00     0.001 A 
ATOM     72  C   UNL A   1      46.032  35.526  31.157  1.00  0.00     0.000 A 
ENDBRANCH  54  67
ENDBRANCH  28  29
ENDBRANCH  20  23
ENDBRANCH  18  19
ENDBRANCH  17  18
ENDBRANCH   1  17
TORSDOF 14
ENDMDL
