MODEL 1
REMARK VINA RESULT:     -12.3      0.000      0.000
REMARK SMILES Cc1cc(C)c(S(=O)(=O)Nc2ccc(N3CC[NH+](C)CC3)c(C(=O)NCCCCNC(=O)c3ccc(-c4c5nc(c(-c6ccccc6)c6ccc([nH]6)c(-c6ccccc6)c6nc(c(-c7ccccc7)c7ccc4[nH]7)C=C6)C=C5)cc3)c2)c(C)c1
REMARK SMILES IDX 27 1 26 2 25 3 23 4 24 5 22 7 11 8 12 9 81 10 13 11 14 12
REMARK SMILES IDX 10 13 7 15 8 16 9 17 6 18 1 19 2 20 3 21 84 22 4 23 82 24
REMARK SMILES IDX 5 25 83 26 15 27 16 28 21 29 17 30 20 31 18 32 19 33 28 35
REMARK SMILES IDX 29 36 30 37 31 38 32 40 33 41 34 42 80 43 35 44 79 45 36 46
REMARK SMILES IDX 37 47 38 48 73 49 39 50 78 51 72 52 74 53 40 54 77 55 71 56
REMARK SMILES IDX 70 57 41 59 63 60 48 61 62 62 49 63 52 64 61 65 75 66 50 67
REMARK SMILES IDX 51 68 60 70 76 71 53 72 42 73 43 74 47 75 44 76 46 77 45 78
REMARK SMILES IDX 64 79 65 80 69 81 66 82 68 83 67 84 54 85 55 86 59 87 56 88
REMARK SMILES IDX 58 89 57 90
REMARK H PARENT 25 6 10 14 18 34 30 39 74 58 52 69
REMARK Flexibility Score: inf
ROOT
ATOM      1  C   UNL A   1      36.814  20.574  24.862  1.00  0.00     0.023 C 
ENDROOT
BRANCH   1   2
ATOM      2  C   UNL A   1      37.231  22.031  24.646  1.00  0.00     0.116 C 
BRANCH   2   3
ATOM      3  N   UNL A   1      36.476  22.607  23.555  1.00  0.00    -0.352 N 
ATOM      4  C   UNL A   1      35.242  23.207  23.473  1.00  0.00     0.253 C 
ATOM      5  O   UNL A   1      34.834  23.348  22.320  1.00  0.00    -0.269 OA
ATOM      6  H   UNL A   1      36.944  22.558  22.690  1.00  0.00     0.163 HD
BRANCH   4   7
ATOM      7  C   UNL A   1      34.434  23.660  24.665  1.00  0.00     0.065 A 
ATOM      8  C   UNL A   1      33.671  25.484  26.090  1.00  0.00     0.050 A 
ATOM      9  C   UNL A   1      32.880  24.606  26.816  1.00  0.00     0.029 A 
ATOM     10  C   UNL A   1      34.566  24.973  25.157  1.00  0.00     0.042 A 
ATOM     11  C   UNL A   1      32.788  23.280  26.411  1.00  0.00     0.029 A 
ATOM     12  C   UNL A   1      33.457  22.813  25.261  1.00  0.00     0.050 A 
BRANCH   8  13
ATOM     13  N   UNL A   1      33.413  26.869  26.271  1.00  0.00    -0.280 N 
ATOM     14  H   UNL A   1      33.932  27.324  26.973  1.00  0.00     0.180 HD
BRANCH  13  15
ATOM     15  S   UNL A   1      32.322  27.807  25.418  1.00  0.00     0.262 S 
ATOM     16  O   UNL A   1      32.879  29.148  25.389  1.00  0.00    -0.201 OA
ATOM     17  O   UNL A   1      31.042  27.545  26.038  1.00  0.00    -0.201 OA
BRANCH  15  18
ATOM     18  C   UNL A   1      32.155  27.295  23.693  1.00  0.00     0.093 A 
ATOM     19  C   UNL A   1      32.564  25.261  19.884  1.00  0.00     0.044 C 
ATOM     20  C   UNL A   1      32.408  25.996  21.181  1.00  0.00    -0.051 A 
ATOM     21  C   UNL A   1      33.371  26.910  21.599  1.00  0.00     0.008 A 
ATOM     22  C   UNL A   1      31.253  25.858  21.951  1.00  0.00     0.008 A 
ATOM     23  C   UNL A   1      33.265  27.566  22.843  1.00  0.00    -0.030 A 
ATOM     24  C   UNL A   1      31.083  26.537  23.181  1.00  0.00    -0.030 A 
ATOM     25  C   UNL A   1      34.312  28.621  23.113  1.00  0.00     0.046 C 
ATOM     26  C   UNL A   1      29.715  26.424  23.782  1.00  0.00     0.046 C 
ENDBRANCH  15  18
ENDBRANCH  13  15
ENDBRANCH   8  13
BRANCH  12  27
ATOM     27  N   UNL A   1      33.003  21.634  24.694  1.00  0.00    -0.360 N 
ATOM     28  C   UNL A   1      33.050  20.357  25.417  1.00  0.00     0.178 C 
ATOM     29  C   UNL A   1      31.968  21.680  23.650  1.00  0.00     0.178 C 
ATOM     30  C   UNL A   1      33.272  19.215  24.393  1.00  0.00     0.283 C 
ATOM     31  C   UNL A   1      32.161  20.506  22.667  1.00  0.00     0.283 C 
ATOM     32  N   UNL A   1      32.224  19.187  23.335  1.00  0.00    -0.334 N 
ATOM     33  C   UNL A   1      32.517  18.145  22.352  1.00  0.00     0.332 C 
ATOM     34  H   UNL A   1      31.323  18.979  23.766  1.00  0.00     0.347 HD
ENDBRANCH  12  27
ENDBRANCH   4   7
ENDBRANCH   2   3
ENDBRANCH   1   2
BRANCH   1  35
ATOM     35  C   UNL A   1      37.989  19.596  24.930  1.00  0.00     0.023 C 
BRANCH  35  36
ATOM     36  C   UNL A   1      39.117  20.033  25.853  1.00  0.00     0.116 C 
BRANCH  36  37
ATOM     37  N   UNL A   1      40.295  19.187  25.755  1.00  0.00    -0.352 N 
ATOM     38  C   UNL A   1      41.598  19.513  26.033  1.00  0.00     0.251 C 
ATOM     39  H   UNL A   1      40.138  18.264  25.452  1.00  0.00     0.163 HD
ATOM     40  O   UNL A   1      42.506  18.720  25.810  1.00  0.00    -0.269 OA
BRANCH  38  41
ATOM     41  C   UNL A   1      41.900  20.851  26.578  1.00  0.00     0.039 A 
ATOM     42  C   UNL A   1      42.335  21.848  25.702  1.00  0.00     0.014 A 
ATOM     43  C   UNL A   1      41.745  21.117  27.940  1.00  0.00     0.014 A 
ATOM     44  C   UNL A   1      42.582  23.131  26.191  1.00  0.00     0.010 A 
ATOM     45  C   UNL A   1      41.934  22.409  28.415  1.00  0.00     0.010 A 
ATOM     46  C   UNL A   1      42.368  23.422  27.548  1.00  0.00    -0.014 A 
BRANCH  46  47
ATOM     47  C   UNL A   1      42.644  24.773  28.087  1.00  0.00     0.031 A 
ATOM     48  C   UNL A   1      44.045  25.142  28.487  1.00  0.00     0.074 A 
ATOM     49  C   UNL A   1      41.635  25.644  28.266  1.00  0.00     0.049 A 
ATOM     50  N   UNL A   1      44.487  26.253  29.017  1.00  0.00    -0.248 NA
ATOM     51  C   UNL A   1      45.081  24.115  28.289  1.00  0.00     0.031 C 
ATOM     52  C   UNL A   1      40.226  25.388  27.957  1.00  0.00     0.029 A 
ATOM     53  N   UNL A   1      41.643  26.924  28.755  1.00  0.00    -0.354 N 
ATOM     54  C   UNL A   1      45.842  26.049  29.243  1.00  0.00     0.074 A 
ATOM     55  C   UNL A   1      46.143  24.696  28.828  1.00  0.00     0.031 C 
ATOM     56  C   UNL A   1      39.509  26.490  28.237  1.00  0.00     0.029 A 
ATOM     57  C   UNL A   1      40.403  27.516  28.765  1.00  0.00     0.049 A 
ATOM     58  H   UNL A   1      42.459  27.377  29.067  1.00  0.00     0.167 HD
ATOM     59  C   UNL A   1      46.759  26.913  29.736  1.00  0.00     0.031 A 
ATOM     60  C   UNL A   1      40.034  28.752  29.148  1.00  0.00     0.031 A 
ATOM     61  C   UNL A   1      46.468  28.268  30.116  1.00  0.00     0.049 A 
ATOM     62  C   UNL A   1      41.079  29.711  29.643  1.00  0.00     0.074 A 
ATOM     63  C   UNL A   1      47.336  29.242  30.578  1.00  0.00     0.029 A 
ATOM     64  N   UNL A   1      45.208  28.843  30.067  1.00  0.00    -0.354 N 
ATOM     65  N   UNL A   1      42.367  29.521  29.800  1.00  0.00    -0.248 NA
ATOM     66  C   UNL A   1      40.620  31.063  29.993  1.00  0.00     0.031 C 
ATOM     67  C   UNL A   1      46.597  30.403  30.827  1.00  0.00     0.029 A 
ATOM     68  C   UNL A   1      45.276  30.159  30.488  1.00  0.00     0.049 A 
ATOM     69  H   UNL A   1      44.388  28.384  29.775  1.00  0.00     0.167 HD
ATOM     70  C   UNL A   1      42.878  30.737  30.234  1.00  0.00     0.074 A 
ATOM     71  C   UNL A   1      41.763  31.658  30.310  1.00  0.00     0.031 C 
ATOM     72  C   UNL A   1      44.156  31.062  30.541  1.00  0.00     0.031 A 
BRANCH  59  73
ATOM     73  C   UNL A   1      48.164  26.408  29.888  1.00  0.00    -0.014 A 
ATOM     74  C   UNL A   1      49.099  26.538  28.848  1.00  0.00     0.009 A 
ATOM     75  C   UNL A   1      48.560  25.802  31.089  1.00  0.00     0.009 A 
ATOM     76  C   UNL A   1      50.393  26.037  28.996  1.00  0.00     0.001 A 
ATOM     77  C   UNL A   1      49.863  25.323  31.243  1.00  0.00     0.001 A 
ATOM     78  C   UNL A   1      50.775  25.432  30.193  1.00  0.00     0.000 A 
ENDBRANCH  59  73
BRANCH  60  79
ATOM     79  C   UNL A   1      38.617  29.175  29.029  1.00  0.00    -0.014 A 
ATOM     80  C   UNL A   1      38.131  29.678  27.813  1.00  0.00     0.009 A 
ATOM     81  C   UNL A   1      37.748  29.084  30.126  1.00  0.00     0.009 A 
ATOM     82  C   UNL A   1      36.807  30.108  27.705  1.00  0.00     0.001 A 
ATOM     83  C   UNL A   1      36.418  29.496  30.008  1.00  0.00     0.001 A 
ATOM     84  C   UNL A   1      35.952  30.015  28.801  1.00  0.00     0.000 A 
ENDBRANCH  60  79
BRANCH  72  85
ATOM     85  C   UNL A   1      44.421  32.485  30.933  1.00  0.00    -0.014 A 
ATOM     86  C   UNL A   1      44.375  32.891  32.275  1.00  0.00     0.009 A 
ATOM     87  C   UNL A   1      44.753  33.423  29.944  1.00  0.00     0.009 A 
ATOM     88  C   UNL A   1      44.625  34.221  32.615  1.00  0.00     0.001 A 
ATOM     89  C   UNL A   1      45.024  34.747  30.291  1.00  0.00     0.001 A 
ATOM     90  C   UNL A   1      44.952  35.146  31.625  1.00  0.00     0.000 A 
ENDBRANCH  72  85
ENDBRANCH  46  47
ENDBRANCH  38  41
ENDBRANCH  36  37
ENDBRANCH  35  36
ENDBRANCH   1  35
TORSDOF 15
ENDMDL
MODEL 2
REMARK VINA RESULT:     -12.1      3.254      9.027
REMARK SMILES Cc1cc(C)c(S(=O)(=O)Nc2ccc(N3CC[NH+](C)CC3)c(C(=O)NCCCCNC(=O)c3ccc(-c4c5nc(c(-c6ccccc6)c6ccc([nH]6)c(-c6ccccc6)c6nc(c(-c7ccccc7)c7ccc4[nH]7)C=C6)C=C5)cc3)c2)c(C)c1
REMARK SMILES IDX 27 1 26 2 25 3 23 4 24 5 22 7 11 8 12 9 81 10 13 11 14 12
REMARK SMILES IDX 10 13 7 15 8 16 9 17 6 18 1 19 2 20 3 21 84 22 4 23 82 24
REMARK SMILES IDX 5 25 83 26 15 27 16 28 21 29 17 30 20 31 18 32 19 33 28 35
REMARK SMILES IDX 29 36 30 37 31 38 32 40 33 41 34 42 80 43 35 44 79 45 36 46
REMARK SMILES IDX 37 47 38 48 73 49 39 50 78 51 72 52 74 53 40 54 77 55 71 56
REMARK SMILES IDX 70 57 41 59 63 60 48 61 62 62 49 63 52 64 61 65 75 66 50 67
REMARK SMILES IDX 51 68 60 70 76 71 53 72 42 73 43 74 47 75 44 76 46 77 45 78
REMARK SMILES IDX 64 79 65 80 69 81 66 82 68 83 67 84 54 85 55 86 59 87 56 88
REMARK SMILES IDX 58 89 57 90
REMARK H PARENT 25 6 10 14 18 34 30 39 74 58 52 69
REMARK Flexibility Score: inf
ROOT
ATOM      1  C   UNL A   1      31.605  30.648  26.069  1.00  0.00     0.023 C 
ENDROOT
BRANCH   1   2
ATOM      2  C   UNL A   1      32.381  29.662  26.946  1.00  0.00     0.116 C 
BRANCH   2   3
ATOM      3  N   UNL A   1      31.610  28.455  27.137  1.00  0.00    -0.352 N 
ATOM      4  C   UNL A   1      31.509  27.277  26.436  1.00  0.00     0.253 C 
ATOM      5  O   UNL A   1      30.555  26.576  26.776  1.00  0.00    -0.269 OA
ATOM      6  H   UNL A   1      31.036  28.482  27.938  1.00  0.00     0.163 HD
BRANCH   4   7
ATOM      7  C   UNL A   1      32.460  26.852  25.343  1.00  0.00     0.065 A 
ATOM      8  C   UNL A   1      34.305  25.432  24.626  1.00  0.00     0.050 A 
ATOM      9  C   UNL A   1      34.210  25.933  23.336  1.00  0.00     0.029 A 
ATOM     10  C   UNL A   1      33.561  26.026  25.638  1.00  0.00     0.042 A 
ATOM     11  C   UNL A   1      33.185  26.817  23.024  1.00  0.00     0.029 A 
ATOM     12  C   UNL A   1      32.220  27.193  23.981  1.00  0.00     0.050 A 
BRANCH   8  13
ATOM     13  N   UNL A   1      35.074  24.249  24.791  1.00  0.00    -0.280 N 
ATOM     14  H   UNL A   1      35.596  24.177  25.623  1.00  0.00     0.180 HD
BRANCH  13  15
ATOM     15  S   UNL A   1      35.187  22.967  23.723  1.00  0.00     0.262 S 
ATOM     16  O   UNL A   1      36.606  22.716  23.541  1.00  0.00    -0.201 OA
ATOM     17  O   UNL A   1      34.346  23.338  22.607  1.00  0.00    -0.201 OA
BRANCH  15  18
ATOM     18  C   UNL A   1      34.488  21.438  24.387  1.00  0.00     0.093 A 
ATOM     19  C   UNL A   1      32.496  17.613  24.846  1.00  0.00     0.044 C 
ATOM     20  C   UNL A   1      33.179  18.942  24.727  1.00  0.00    -0.051 A 
ATOM     21  C   UNL A   1      32.438  20.114  24.612  1.00  0.00     0.008 A 
ATOM     22  C   UNL A   1      34.567  19.048  24.825  1.00  0.00     0.008 A 
ATOM     23  C   UNL A   1      33.068  21.364  24.442  1.00  0.00    -0.030 A 
ATOM     24  C   UNL A   1      35.236  20.289  24.713  1.00  0.00    -0.030 A 
ATOM     25  C   UNL A   1      32.148  22.563  24.458  1.00  0.00     0.046 C 
ATOM     26  C   UNL A   1      36.700  20.249  25.030  1.00  0.00     0.046 C 
ENDBRANCH  15  18
ENDBRANCH  13  15
ENDBRANCH   8  13
BRANCH  12  27
ATOM     27  N   UNL A   1      31.028  27.720  23.512  1.00  0.00    -0.360 N 
ATOM     28  C   UNL A   1      30.984  28.966  22.736  1.00  0.00     0.178 C 
ATOM     29  C   UNL A   1      29.889  26.827  23.254  1.00  0.00     0.178 C 
ATOM     30  C   UNL A   1      29.652  29.697  23.045  1.00  0.00     0.283 C 
ATOM     31  C   UNL A   1      28.565  27.579  23.509  1.00  0.00     0.283 C 
ATOM     32  N   UNL A   1      28.460  28.852  22.759  1.00  0.00    -0.334 N 
ATOM     33  C   UNL A   1      27.234  29.552  23.138  1.00  0.00     0.332 C 
ATOM     34  H   UNL A   1      28.424  28.657  21.759  1.00  0.00     0.347 HD
ENDBRANCH  12  27
ENDBRANCH   4   7
ENDBRANCH   2   3
ENDBRANCH   1   2
BRANCH   1  35
ATOM     35  C   UNL A   1      31.394  32.020  26.713  1.00  0.00     0.023 C 
BRANCH  35  36
ATOM     36  C   UNL A   1      32.673  32.694  27.188  1.00  0.00     0.116 C 
BRANCH  36  37
ATOM     37  N   UNL A   1      32.441  33.993  27.798  1.00  0.00    -0.352 N 
ATOM     38  C   UNL A   1      33.192  34.627  28.754  1.00  0.00     0.251 C 
ATOM     39  H   UNL A   1      31.645  34.479  27.485  1.00  0.00     0.163 HD
ATOM     40  O   UNL A   1      32.820  35.684  29.248  1.00  0.00    -0.269 OA
BRANCH  38  41
ATOM     41  C   UNL A   1      34.450  34.000  29.207  1.00  0.00     0.039 A 
ATOM     42  C   UNL A   1      34.409  33.131  30.300  1.00  0.00     0.014 A 
ATOM     43  C   UNL A   1      35.654  34.263  28.550  1.00  0.00     0.014 A 
ATOM     44  C   UNL A   1      35.579  32.495  30.714  1.00  0.00     0.010 A 
ATOM     45  C   UNL A   1      36.806  33.582  28.925  1.00  0.00     0.010 A 
ATOM     46  C   UNL A   1      36.781  32.705  30.020  1.00  0.00    -0.014 A 
BRANCH  46  47
ATOM     47  C   UNL A   1      38.036  32.053  30.458  1.00  0.00     0.031 A 
ATOM     48  C   UNL A   1      38.865  32.687  31.539  1.00  0.00     0.074 A 
ATOM     49  C   UNL A   1      38.454  30.927  29.852  1.00  0.00     0.049 A 
ATOM     50  N   UNL A   1      40.012  32.299  32.034  1.00  0.00    -0.248 NA
ATOM     51  C   UNL A   1      38.349  33.937  32.121  1.00  0.00     0.031 C 
ATOM     52  C   UNL A   1      37.759  30.240  28.761  1.00  0.00     0.029 A 
ATOM     53  N   UNL A   1      39.571  30.163  30.072  1.00  0.00    -0.354 N 
ATOM     54  C   UNL A   1      40.368  33.270  32.961  1.00  0.00     0.074 A 
ATOM     55  C   UNL A   1      39.336  34.283  32.935  1.00  0.00     0.031 C 
ATOM     56  C   UNL A   1      38.453  29.138  28.426  1.00  0.00     0.029 A 
ATOM     57  C   UNL A   1      39.648  29.057  29.261  1.00  0.00     0.049 A 
ATOM     58  H   UNL A   1      40.253  30.386  30.746  1.00  0.00     0.167 HD
ATOM     59  C   UNL A   1      41.448  33.308  33.776  1.00  0.00     0.031 A 
ATOM     60  C   UNL A   1      40.574  28.082  29.208  1.00  0.00     0.031 A 
ATOM     61  C   UNL A   1      42.457  32.286  33.828  1.00  0.00     0.049 A 
ATOM     62  C   UNL A   1      41.737  28.120  30.158  1.00  0.00     0.074 A 
ATOM     63  C   UNL A   1      43.563  32.205  34.655  1.00  0.00     0.029 A 
ATOM     64  N   UNL A   1      42.472  31.158  33.024  1.00  0.00    -0.354 N 
ATOM     65  N   UNL A   1      42.031  29.017  31.067  1.00  0.00    -0.248 NA
ATOM     66  C   UNL A   1      42.683  26.998  30.086  1.00  0.00     0.031 C 
ATOM     67  C   UNL A   1      44.261  31.034  34.336  1.00  0.00     0.029 A 
ATOM     68  C   UNL A   1      43.568  30.373  33.335  1.00  0.00     0.049 A 
ATOM     69  H   UNL A   1      41.803  30.946  32.333  1.00  0.00     0.167 HD
ATOM     70  C   UNL A   1      43.177  28.551  31.700  1.00  0.00     0.074 A 
ATOM     71  C   UNL A   1      43.519  27.291  31.074  1.00  0.00     0.031 C 
ATOM     72  C   UNL A   1      43.881  29.116  32.710  1.00  0.00     0.031 A 
BRANCH  59  73
ATOM     73  C   UNL A   1      41.586  34.502  34.675  1.00  0.00    -0.014 A 
ATOM     74  C   UNL A   1      42.269  35.654  34.252  1.00  0.00     0.009 A 
ATOM     75  C   UNL A   1      41.019  34.479  35.957  1.00  0.00     0.009 A 
ATOM     76  C   UNL A   1      42.413  36.744  35.111  1.00  0.00     0.001 A 
ATOM     77  C   UNL A   1      41.143  35.581  36.806  1.00  0.00     0.001 A 
ATOM     78  C   UNL A   1      41.849  36.708  36.386  1.00  0.00     0.000 A 
ENDBRANCH  59  73
BRANCH  60  79
ATOM     79  C   UNL A   1      40.413  26.956  28.255  1.00  0.00    -0.014 A 
ATOM     80  C   UNL A   1      40.961  27.042  26.965  1.00  0.00     0.009 A 
ATOM     81  C   UNL A   1      39.711  25.800  28.622  1.00  0.00     0.009 A 
ATOM     82  C   UNL A   1      40.785  26.000  26.052  1.00  0.00     0.001 A 
ATOM     83  C   UNL A   1      39.555  24.751  27.713  1.00  0.00     0.001 A 
ATOM     84  C   UNL A   1      40.084  24.856  26.427  1.00  0.00     0.000 A 
ENDBRANCH  60  79
BRANCH  72  85
ATOM     85  C   UNL A   1      45.057  28.346  33.232  1.00  0.00    -0.014 A 
ATOM     86  C   UNL A   1      44.910  27.397  34.254  1.00  0.00     0.009 A 
ATOM     87  C   UNL A   1      46.325  28.555  32.668  1.00  0.00     0.009 A 
ATOM     88  C   UNL A   1      46.020  26.693  34.725  1.00  0.00     0.001 A 
ATOM     89  C   UNL A   1      47.428  27.834  33.125  1.00  0.00     0.001 A 
ATOM     90  C   UNL A   1      47.276  26.909  34.158  1.00  0.00     0.000 A 
ENDBRANCH  72  85
ENDBRANCH  46  47
ENDBRANCH  38  41
ENDBRANCH  36  37
ENDBRANCH  35  36
ENDBRANCH   1  35
TORSDOF 15
ENDMDL
MODEL 3
REMARK VINA RESULT:     -12.1      1.281      5.636
REMARK SMILES Cc1cc(C)c(S(=O)(=O)Nc2ccc(N3CC[NH+](C)CC3)c(C(=O)NCCCCNC(=O)c3ccc(-c4c5nc(c(-c6ccccc6)c6ccc([nH]6)c(-c6ccccc6)c6nc(c(-c7ccccc7)c7ccc4[nH]7)C=C6)C=C5)cc3)c2)c(C)c1
REMARK SMILES IDX 27 1 26 2 25 3 23 4 24 5 22 7 11 8 12 9 81 10 13 11 14 12
REMARK SMILES IDX 10 13 7 15 8 16 9 17 6 18 1 19 2 20 3 21 84 22 4 23 82 24
REMARK SMILES IDX 5 25 83 26 15 27 16 28 21 29 17 30 20 31 18 32 19 33 28 35
REMARK SMILES IDX 29 36 30 37 31 38 32 40 33 41 34 42 80 43 35 44 79 45 36 46
REMARK SMILES IDX 37 47 38 48 73 49 39 50 78 51 72 52 74 53 40 54 77 55 71 56
REMARK SMILES IDX 70 57 41 59 63 60 48 61 62 62 49 63 52 64 61 65 75 66 50 67
REMARK SMILES IDX 51 68 60 70 76 71 53 72 42 73 43 74 47 75 44 76 46 77 45 78
REMARK SMILES IDX 64 79 65 80 69 81 66 82 68 83 67 84 54 85 55 86 59 87 56 88
REMARK SMILES IDX 58 89 57 90
REMARK H PARENT 25 6 10 14 18 34 30 39 74 58 52 69
REMARK Flexibility Score: inf
ROOT
ATOM      1  C   UNL A   1      36.765  20.664  24.995  1.00  0.00     0.023 C 
ENDROOT
BRANCH   1   2
ATOM      2  C   UNL A   1      37.237  22.086  24.679  1.00  0.00     0.116 C 
BRANCH   2   3
ATOM      3  N   UNL A   1      36.463  22.634  23.588  1.00  0.00    -0.352 N 
ATOM      4  C   UNL A   1      35.216  23.206  23.508  1.00  0.00     0.253 C 
ATOM      5  O   UNL A   1      34.798  23.328  22.357  1.00  0.00    -0.269 OA
ATOM      6  H   UNL A   1      36.927  22.588  22.720  1.00  0.00     0.163 HD
BRANCH   4   7
ATOM      7  C   UNL A   1      34.405  23.651  24.701  1.00  0.00     0.065 A 
ATOM      8  C   UNL A   1      33.624  25.467  26.126  1.00  0.00     0.050 A 
ATOM      9  C   UNL A   1      32.843  24.581  26.854  1.00  0.00     0.029 A 
ATOM     10  C   UNL A   1      34.523  24.965  25.193  1.00  0.00     0.042 A 
ATOM     11  C   UNL A   1      32.765  23.254  26.449  1.00  0.00     0.029 A 
ATOM     12  C   UNL A   1      33.438  22.794  25.300  1.00  0.00     0.050 A 
BRANCH   8  13
ATOM     13  N   UNL A   1      33.351  26.849  26.307  1.00  0.00    -0.280 N 
ATOM     14  H   UNL A   1      33.861  27.309  27.013  1.00  0.00     0.180 HD
BRANCH  13  15
ATOM     15  S   UNL A   1      32.257  27.777  25.448  1.00  0.00     0.262 S 
ATOM     16  O   UNL A   1      32.803  29.124  25.420  1.00  0.00    -0.201 OA
ATOM     17  O   UNL A   1      30.976  27.505  26.062  1.00  0.00    -0.201 OA
BRANCH  15  18
ATOM     18  C   UNL A   1      32.103  27.263  23.723  1.00  0.00     0.093 A 
ATOM     19  C   UNL A   1      32.527  25.213  19.924  1.00  0.00     0.044 C 
ATOM     20  C   UNL A   1      32.367  25.954  21.218  1.00  0.00    -0.051 A 
ATOM     21  C   UNL A   1      33.336  26.857  21.644  1.00  0.00     0.008 A 
ATOM     22  C   UNL A   1      31.201  25.833  21.975  1.00  0.00     0.008 A 
ATOM     23  C   UNL A   1      33.225  27.517  22.885  1.00  0.00    -0.030 A 
ATOM     24  C   UNL A   1      31.026  26.518  23.200  1.00  0.00    -0.030 A 
ATOM     25  C   UNL A   1      34.283  28.560  23.163  1.00  0.00     0.046 C 
ATOM     26  C   UNL A   1      29.651  26.424  23.786  1.00  0.00     0.046 C 
ENDBRANCH  15  18
ENDBRANCH  13  15
ENDBRANCH   8  13
BRANCH  12  27
ATOM     27  N   UNL A   1      32.995  21.610  24.733  1.00  0.00    -0.360 N 
ATOM     28  C   UNL A   1      33.067  20.332  25.452  1.00  0.00     0.178 C 
ATOM     29  C   UNL A   1      31.950  21.643  23.699  1.00  0.00     0.178 C 
ATOM     30  C   UNL A   1      33.296  19.195  24.424  1.00  0.00     0.283 C 
ATOM     31  C   UNL A   1      32.151  20.475  22.711  1.00  0.00     0.283 C 
ATOM     32  N   UNL A   1      32.239  19.154  23.376  1.00  0.00    -0.334 N 
ATOM     33  C   UNL A   1      32.538  18.119  22.387  1.00  0.00     0.332 C 
ATOM     34  H   UNL A   1      31.345  18.933  23.815  1.00  0.00     0.347 HD
ENDBRANCH  12  27
ENDBRANCH   4   7
ENDBRANCH   2   3
ENDBRANCH   1   2
BRANCH   1  35
ATOM     35  C   UNL A   1      37.890  19.627  25.020  1.00  0.00     0.023 C 
BRANCH  35  36
ATOM     36  C   UNL A   1      39.139  20.074  25.766  1.00  0.00     0.116 C 
BRANCH  36  37
ATOM     37  N   UNL A   1      40.165  19.047  25.827  1.00  0.00    -0.352 N 
ATOM     38  C   UNL A   1      41.505  19.200  26.079  1.00  0.00     0.251 C 
ATOM     39  H   UNL A   1      39.861  18.124  25.669  1.00  0.00     0.163 HD
ATOM     40  O   UNL A   1      42.272  18.248  26.003  1.00  0.00    -0.269 OA
BRANCH  38  41
ATOM     41  C   UNL A   1      42.020  20.542  26.414  1.00  0.00     0.039 A 
ATOM     42  C   UNL A   1      42.247  21.451  25.378  1.00  0.00     0.014 A 
ATOM     43  C   UNL A   1      42.267  20.899  27.742  1.00  0.00     0.014 A 
ATOM     44  C   UNL A   1      42.690  22.738  25.679  1.00  0.00     0.010 A 
ATOM     45  C   UNL A   1      42.651  22.200  28.045  1.00  0.00     0.010 A 
ATOM     46  C   UNL A   1      42.881  23.125  27.016  1.00  0.00    -0.014 A 
BRANCH  46  47
ATOM     47  C   UNL A   1      43.370  24.481  27.352  1.00  0.00     0.031 A 
ATOM     48  C   UNL A   1      42.396  25.531  27.804  1.00  0.00     0.074 A 
ATOM     49  C   UNL A   1      44.673  24.781  27.203  1.00  0.00     0.049 A 
ATOM     50  N   UNL A   1      42.614  26.786  28.105  1.00  0.00    -0.248 NA
ATOM     51  C   UNL A   1      40.984  25.125  27.906  1.00  0.00     0.031 C 
ATOM     52  C   UNL A   1      45.709  23.860  26.731  1.00  0.00     0.029 A 
ATOM     53  N   UNL A   1      45.346  25.953  27.433  1.00  0.00    -0.354 N 
ATOM     54  C   UNL A   1      41.368  27.324  28.400  1.00  0.00     0.074 A 
ATOM     55  C   UNL A   1      40.394  26.271  28.208  1.00  0.00     0.031 C 
ATOM     56  C   UNL A   1      46.894  24.495  26.735  1.00  0.00     0.029 A 
ATOM     57  C   UNL A   1      46.694  25.869  27.186  1.00  0.00     0.049 A 
ATOM     58  H   UNL A   1      44.905  26.775  27.748  1.00  0.00     0.167 HD
ATOM     59  C   UNL A   1      41.061  28.576  28.812  1.00  0.00     0.031 A 
ATOM     60  C   UNL A   1      47.661  26.796  27.320  1.00  0.00     0.031 A 
ATOM     61  C   UNL A   1      42.031  29.612  29.036  1.00  0.00     0.049 A 
ATOM     62  C   UNL A   1      47.303  28.163  27.828  1.00  0.00     0.074 A 
ATOM     63  C   UNL A   1      41.829  30.899  29.503  1.00  0.00     0.029 A 
ATOM     64  N   UNL A   1      43.393  29.472  28.819  1.00  0.00    -0.354 N 
ATOM     65  N   UNL A   1      46.127  28.641  28.155  1.00  0.00    -0.248 NA
ATOM     66  C   UNL A   1      48.411  29.112  28.004  1.00  0.00     0.031 C 
ATOM     67  C   UNL A   1      43.070  31.546  29.550  1.00  0.00     0.029 A 
ATOM     68  C   UNL A   1      44.044  30.648  29.144  1.00  0.00     0.049 A 
ATOM     69  H   UNL A   1      43.831  28.657  28.484  1.00  0.00     0.167 HD
ATOM     70  C   UNL A   1      46.357  29.933  28.608  1.00  0.00     0.074 A 
ATOM     71  C   UNL A   1      47.785  30.161  28.519  1.00  0.00     0.031 C 
ATOM     72  C   UNL A   1      45.467  30.848  29.061  1.00  0.00     0.031 A 
BRANCH  59  73
ATOM     73  C   UNL A   1      39.611  28.885  29.043  1.00  0.00    -0.014 A 
ATOM     74  C   UNL A   1      38.796  29.363  28.004  1.00  0.00     0.009 A 
ATOM     75  C   UNL A   1      39.050  28.689  30.314  1.00  0.00     0.009 A 
ATOM     76  C   UNL A   1      37.456  29.673  28.244  1.00  0.00     0.001 A 
ATOM     77  C   UNL A   1      37.704  28.977  30.545  1.00  0.00     0.001 A 
ATOM     78  C   UNL A   1      36.911  29.478  29.512  1.00  0.00     0.000 A 
ENDBRANCH  59  73
BRANCH  60  79
ATOM     79  C   UNL A   1      49.071  26.447  27.018  1.00  0.00    -0.014 A 
ATOM     80  C   UNL A   1      49.577  26.623  25.721  1.00  0.00     0.009 A 
ATOM     81  C   UNL A   1      49.912  25.933  28.015  1.00  0.00     0.009 A 
ATOM     82  C   UNL A   1      50.894  26.266  25.423  1.00  0.00     0.001 A 
ATOM     83  C   UNL A   1      51.235  25.597  27.718  1.00  0.00     0.001 A 
ATOM     84  C   UNL A   1      51.722  25.755  26.420  1.00  0.00     0.000 A 
ENDBRANCH  60  79
BRANCH  72  85
ATOM     85  C   UNL A   1      46.020  32.157  29.541  1.00  0.00    -0.014 A 
ATOM     86  C   UNL A   1      46.544  32.295  30.835  1.00  0.00     0.009 A 
ATOM     87  C   UNL A   1      46.044  33.257  28.671  1.00  0.00     0.009 A 
ATOM     88  C   UNL A   1      47.053  33.523  31.259  1.00  0.00     0.001 A 
ATOM     89  C   UNL A   1      46.574  34.477  29.092  1.00  0.00     0.001 A 
ATOM     90  C   UNL A   1      47.071  34.611  30.387  1.00  0.00     0.000 A 
ENDBRANCH  72  85
ENDBRANCH  46  47
ENDBRANCH  38  41
ENDBRANCH  36  37
ENDBRANCH  35  36
ENDBRANCH   1  35
TORSDOF 15
ENDMDL
