MODEL 1
REMARK VINA RESULT:     -10.9      0.000      0.000
REMARK SMILES CC1(C)C[C@@H]([NH2+]C[C@@H]2CCCC[C@@H]2C(=O)NCCCCNC(=O)c2ccc(-c3c4nc(c(-c5ccccc5)c5ccc([nH]5)c(-c5ccccc5)c5nc(c(-c6ccccc6)c6ccc3[nH]6)C=C5)C=C4)cc2)C(C)(C)O1
REMARK SMILES IDX 18 1 17 2 16 3 14 4 15 5 13 7 8 8 9 9 10 10 12 11 11 12 7 13
REMARK SMILES IDX 6 14 5 17 1 18 2 19 3 20 4 21 75 22 72 23 73 24 74 25 19 26
REMARK SMILES IDX 20 27 21 28 22 29 23 31 24 32 25 33 71 34 26 35 70 36 27 37
REMARK SMILES IDX 28 38 29 39 64 40 30 41 69 42 63 43 65 44 31 45 68 46 62 47
REMARK SMILES IDX 61 48 32 50 54 51 39 52 53 53 40 54 43 55 52 56 66 57 41 58
REMARK SMILES IDX 42 59 51 61 67 62 44 63 33 64 34 65 38 66 35 67 37 68 36 69
REMARK SMILES IDX 55 70 56 71 60 72 57 73 59 74 58 75 45 76 46 77 50 78 47 79
REMARK SMILES IDX 49 80 48 81
REMARK H PARENT 16 6 6 15 6 16 21 30 65 49 43 60
REMARK Flexibility Score: inf
ROOT
ATOM      1  C   UNL A   1      38.871  22.842  26.119  1.00  0.00     0.023 C 
ENDROOT
BRANCH   1   2
ATOM      2  C   UNL A   1      37.488  23.498  26.091  1.00  0.00     0.116 C 
BRANCH   2   3
ATOM      3  N   UNL A   1      36.457  22.561  26.495  1.00  0.00    -0.356 N 
ATOM      4  C   UNL A   1      35.210  22.627  25.932  1.00  0.00     0.223 C 
ATOM      5  O   UNL A   1      34.347  23.280  26.518  1.00  0.00    -0.275 OA
ATOM      6  H   UNL A   1      36.654  21.877  27.175  1.00  0.00     0.163 HD
BRANCH   4   7
ATOM      7  C   UNL A   1      34.896  21.879  24.631  1.00  0.00     0.087 C 
ATOM      8  C   UNL A   1      33.864  22.474  23.664  1.00  0.00     0.056 C 
ATOM      9  C   UNL A   1      32.427  22.254  24.168  1.00  0.00     0.010 C 
ATOM     10  C   UNL A   1      32.160  20.796  24.599  1.00  0.00     0.001 C 
ATOM     11  C   UNL A   1      34.652  20.397  24.905  1.00  0.00     0.014 C 
ATOM     12  C   UNL A   1      33.256  20.101  25.410  1.00  0.00     0.001 C 
BRANCH   8  13
ATOM     13  C   UNL A   1      34.171  23.901  23.087  1.00  0.00     0.265 C 
BRANCH  13  14
ATOM     14  N   UNL A   1      33.195  24.986  23.183  1.00  0.00    -0.341 N 
ATOM     15  H   UNL A   1      32.929  25.241  22.231  1.00  0.00     0.346 HD
ATOM     16  H   UNL A   1      32.448  24.608  23.765  1.00  0.00     0.346 HD
BRANCH  14  17
ATOM     17  C   UNL A   1      33.608  26.231  23.873  1.00  0.00     0.217 C 
ATOM     18  C   UNL A   1      31.465  27.348  26.554  1.00  0.00     0.042 C 
ATOM     19  C   UNL A   1      32.766  27.568  25.770  1.00  0.00     0.069 C 
ATOM     20  C   UNL A   1      33.703  28.445  26.597  1.00  0.00     0.042 C 
ATOM     21  C   UNL A   1      33.425  26.251  25.382  1.00  0.00     0.103 C 
ATOM     22  O   UNL A   1      32.425  28.259  24.569  1.00  0.00    -0.363 OA
ATOM     23  C   UNL A   1      32.895  27.543  23.410  1.00  0.00     0.115 C 
ATOM     24  C   UNL A   1      31.672  27.328  22.515  1.00  0.00     0.048 C 
ATOM     25  C   UNL A   1      33.880  28.487  22.712  1.00  0.00     0.048 C 
ENDBRANCH  14  17
ENDBRANCH  13  14
ENDBRANCH   8  13
ENDBRANCH   4   7
ENDBRANCH   2   3
ENDBRANCH   1   2
BRANCH   1  26
ATOM     26  C   UNL A   1      38.867  21.422  25.556  1.00  0.00     0.023 C 
BRANCH  26  27
ATOM     27  C   UNL A   1      39.425  20.375  26.513  1.00  0.00     0.116 C 
BRANCH  27  28
ATOM     28  N   UNL A   1      40.492  19.569  25.931  1.00  0.00    -0.352 N 
ATOM     29  C   UNL A   1      41.832  19.846  25.850  1.00  0.00     0.251 C 
ATOM     30  H   UNL A   1      40.212  18.707  25.546  1.00  0.00     0.163 HD
ATOM     31  O   UNL A   1      42.602  19.090  25.282  1.00  0.00    -0.269 OA
BRANCH  29  32
ATOM     32  C   UNL A   1      42.302  21.114  26.425  1.00  0.00     0.039 A 
ATOM     33  C   UNL A   1      42.581  22.168  25.557  1.00  0.00     0.014 A 
ATOM     34  C   UNL A   1      42.350  21.275  27.812  1.00  0.00     0.014 A 
ATOM     35  C   UNL A   1      42.851  23.424  26.088  1.00  0.00     0.010 A 
ATOM     36  C   UNL A   1      42.543  22.542  28.336  1.00  0.00     0.010 A 
ATOM     37  C   UNL A   1      42.798  23.623  27.477  1.00  0.00    -0.014 A 
BRANCH  37  38
ATOM     38  C   UNL A   1      43.028  24.964  28.053  1.00  0.00     0.031 A 
ATOM     39  C   UNL A   1      44.416  25.363  28.456  1.00  0.00     0.074 A 
ATOM     40  C   UNL A   1      41.982  25.785  28.256  1.00  0.00     0.049 A 
ATOM     41  N   UNL A   1      44.826  26.477  29.003  1.00  0.00    -0.248 NA
ATOM     42  C   UNL A   1      45.481  24.367  28.243  1.00  0.00     0.031 C 
ATOM     43  C   UNL A   1      40.583  25.475  27.946  1.00  0.00     0.029 A 
ATOM     44  N   UNL A   1      41.936  27.055  28.768  1.00  0.00    -0.354 N 
ATOM     45  C   UNL A   1      46.185  26.306  29.221  1.00  0.00     0.074 A 
ATOM     46  C   UNL A   1      46.524  24.967  28.796  1.00  0.00     0.031 C 
ATOM     47  C   UNL A   1      39.822  26.542  28.241  1.00  0.00     0.029 A 
ATOM     48  C   UNL A   1      40.672  27.594  28.786  1.00  0.00     0.049 A 
ATOM     49  H   UNL A   1      42.732  27.535  29.092  1.00  0.00     0.167 HD
ATOM     50  C   UNL A   1      47.079  27.197  29.711  1.00  0.00     0.031 A 
ATOM     51  C   UNL A   1      40.255  28.806  29.192  1.00  0.00     0.031 A 
ATOM     52  C   UNL A   1      46.737  28.535  30.104  1.00  0.00     0.049 A 
ATOM     53  C   UNL A   1      41.270  29.785  29.711  1.00  0.00     0.074 A 
ATOM     54  C   UNL A   1      47.572  29.542  30.551  1.00  0.00     0.029 A 
ATOM     55  N   UNL A   1      45.451  29.051  30.090  1.00  0.00    -0.354 N 
ATOM     56  N   UNL A   1      42.567  29.637  29.844  1.00  0.00    -0.248 NA
ATOM     57  C   UNL A   1      40.766  31.102  30.124  1.00  0.00     0.031 C 
ATOM     58  C   UNL A   1      46.783  30.660  30.842  1.00  0.00     0.029 A 
ATOM     59  C   UNL A   1      45.465  30.360  30.536  1.00  0.00     0.049 A 
ATOM     60  H   UNL A   1      44.647  28.559  29.806  1.00  0.00     0.167 HD
ATOM     61  C   UNL A   1      43.037  30.848  30.330  1.00  0.00     0.074 A 
ATOM     62  C   UNL A   1      41.889  31.725  30.455  1.00  0.00     0.031 C 
ATOM     63  C   UNL A   1      44.306  31.206  30.645  1.00  0.00     0.031 A 
BRANCH  50  64
ATOM     64  C   UNL A   1      48.502  26.737  29.847  1.00  0.00    -0.014 A 
ATOM     65  C   UNL A   1      49.435  26.952  28.819  1.00  0.00     0.009 A 
ATOM     66  C   UNL A   1      48.916  26.085  31.017  1.00  0.00     0.009 A 
ATOM     67  C   UNL A   1      50.746  26.486  28.946  1.00  0.00     0.001 A 
ATOM     68  C   UNL A   1      50.234  25.645  31.152  1.00  0.00     0.001 A 
ATOM     69  C   UNL A   1      51.144  25.836  30.114  1.00  0.00     0.000 A 
ENDBRANCH  50  64
BRANCH  51  70
ATOM     70  C   UNL A   1      38.820  29.176  29.090  1.00  0.00    -0.014 A 
ATOM     71  C   UNL A   1      37.974  29.046  30.203  1.00  0.00     0.009 A 
ATOM     72  C   UNL A   1      38.286  29.656  27.885  1.00  0.00     0.009 A 
ATOM     73  C   UNL A   1      36.618  29.365  30.104  1.00  0.00     0.001 A 
ATOM     74  C   UNL A   1      36.934  29.997  27.795  1.00  0.00     0.001 A 
ATOM     75  C   UNL A   1      36.100  29.843  28.901  1.00  0.00     0.000 A 
ENDBRANCH  51  70
BRANCH  63  76
ATOM     76  C   UNL A   1      44.517  32.612  31.126  1.00  0.00    -0.014 A 
ATOM     77  C   UNL A   1      44.472  32.926  32.493  1.00  0.00     0.009 A 
ATOM     78  C   UNL A   1      44.808  33.625  30.198  1.00  0.00     0.009 A 
ATOM     79  C   UNL A   1      44.689  34.237  32.919  1.00  0.00     0.001 A 
ATOM     80  C   UNL A   1      45.050  34.928  30.631  1.00  0.00     0.001 A 
ATOM     81  C   UNL A   1      44.983  35.234  31.989  1.00  0.00     0.000 A 
ENDBRANCH  63  76
ENDBRANCH  37  38
ENDBRANCH  29  32
ENDBRANCH  27  28
ENDBRANCH  26  27
ENDBRANCH   1  26
TORSDOF 14
ENDMDL
MODEL 2
REMARK VINA RESULT:     -10.6      2.127      3.662
REMARK SMILES CC1(C)C[C@@H]([NH2+]C[C@@H]2CCCC[C@@H]2C(=O)NCCCCNC(=O)c2ccc(-c3c4nc(c(-c5ccccc5)c5ccc([nH]5)c(-c5ccccc5)c5nc(c(-c6ccccc6)c6ccc3[nH]6)C=C5)C=C4)cc2)C(C)(C)O1
REMARK SMILES IDX 18 1 17 2 16 3 14 4 15 5 13 7 8 8 9 9 10 10 12 11 11 12 7 13
REMARK SMILES IDX 6 14 5 17 1 18 2 19 3 20 4 21 75 22 72 23 73 24 74 25 19 26
REMARK SMILES IDX 20 27 21 28 22 29 23 31 24 32 25 33 71 34 26 35 70 36 27 37
REMARK SMILES IDX 28 38 29 39 64 40 30 41 69 42 63 43 65 44 31 45 68 46 62 47
REMARK SMILES IDX 61 48 32 50 54 51 39 52 53 53 40 54 43 55 52 56 66 57 41 58
REMARK SMILES IDX 42 59 51 61 67 62 44 63 33 64 34 65 38 66 35 67 37 68 36 69
REMARK SMILES IDX 55 70 56 71 60 72 57 73 59 74 58 75 45 76 46 77 50 78 47 79
REMARK SMILES IDX 49 80 48 81
REMARK H PARENT 16 6 6 15 6 16 21 30 65 49 43 60
REMARK Flexibility Score: inf
ROOT
ATOM      1  C   UNL A   1      35.180  22.993  23.328  1.00  0.00     0.023 C 
ENDROOT
BRANCH   1   2
ATOM      2  C   UNL A   1      34.276  24.095  23.886  1.00  0.00     0.116 C 
BRANCH   2   3
ATOM      3  N   UNL A   1      32.880  23.813  23.612  1.00  0.00    -0.356 N 
ATOM      4  C   UNL A   1      32.429  22.521  23.602  1.00  0.00     0.223 C 
ATOM      5  O   UNL A   1      32.391  21.930  22.523  1.00  0.00    -0.275 OA
ATOM      6  H   UNL A   1      32.256  24.553  23.431  1.00  0.00     0.163 HD
BRANCH   4   7
ATOM      7  C   UNL A   1      31.952  21.847  24.895  1.00  0.00     0.087 C 
ATOM      8  C   UNL A   1      31.919  22.669  26.191  1.00  0.00     0.056 C 
ATOM      9  C   UNL A   1      33.330  22.855  26.776  1.00  0.00     0.010 C 
ATOM     10  C   UNL A   1      34.124  21.534  26.856  1.00  0.00     0.001 C 
ATOM     11  C   UNL A   1      32.630  20.492  25.082  1.00  0.00     0.014 C 
ATOM     12  C   UNL A   1      34.029  20.594  25.652  1.00  0.00     0.001 C 
BRANCH   8  13
ATOM     13  C   UNL A   1      31.007  23.947  26.199  1.00  0.00     0.265 C 
BRANCH  13  14
ATOM     14  N   UNL A   1      31.488  25.222  26.728  1.00  0.00    -0.341 N 
ATOM     15  H   UNL A   1      31.254  25.247  27.721  1.00  0.00     0.346 HD
ATOM     16  H   UNL A   1      32.484  25.230  26.509  1.00  0.00     0.346 HD
BRANCH  14  17
ATOM     17  C   UNL A   1      30.964  26.468  26.120  1.00  0.00     0.217 C 
ATOM     18  C   UNL A   1      31.326  26.765  22.541  1.00  0.00     0.042 C 
ATOM     19  C   UNL A   1      30.768  27.377  23.833  1.00  0.00     0.069 C 
ATOM     20  C   UNL A   1      29.684  28.391  23.476  1.00  0.00     0.042 C 
ATOM     21  C   UNL A   1      30.248  26.311  24.789  1.00  0.00     0.103 C 
ATOM     22  O   UNL A   1      31.843  28.057  24.479  1.00  0.00    -0.363 OA
ATOM     23  C   UNL A   1      32.015  27.587  25.830  1.00  0.00     0.115 C 
ATOM     24  C   UNL A   1      33.476  27.143  25.946  1.00  0.00     0.048 C 
ATOM     25  C   UNL A   1      31.779  28.808  26.725  1.00  0.00     0.048 C 
ENDBRANCH  14  17
ENDBRANCH  13  14
ENDBRANCH   8  13
ENDBRANCH   4   7
ENDBRANCH   2   3
ENDBRANCH   1   2
BRANCH   1  26
ATOM     26  C   UNL A   1      36.661  23.239  23.610  1.00  0.00     0.023 C 
BRANCH  26  27
ATOM     27  C   UNL A   1      37.005  23.319  25.093  1.00  0.00     0.116 C 
BRANCH  27  28
ATOM     28  N   UNL A   1      38.063  22.399  25.493  1.00  0.00    -0.352 N 
ATOM     29  C   UNL A   1      39.190  22.654  26.231  1.00  0.00     0.251 C 
ATOM     30  H   UNL A   1      37.953  21.467  25.194  1.00  0.00     0.163 HD
ATOM     31  O   UNL A   1      40.019  21.785  26.443  1.00  0.00    -0.269 OA
BRANCH  29  32
ATOM     32  C   UNL A   1      39.392  24.027  26.714  1.00  0.00     0.039 A 
ATOM     33  C   UNL A   1      38.947  24.346  27.996  1.00  0.00     0.014 A 
ATOM     34  C   UNL A   1      40.115  24.939  25.942  1.00  0.00     0.014 A 
ATOM     35  C   UNL A   1      39.287  25.580  28.538  1.00  0.00     0.010 A 
ATOM     36  C   UNL A   1      40.517  26.135  26.514  1.00  0.00     0.010 A 
ATOM     37  C   UNL A   1      40.102  26.463  27.814  1.00  0.00    -0.014 A 
BRANCH  37  38
ATOM     38  C   UNL A   1      40.518  27.754  28.399  1.00  0.00     0.031 A 
ATOM     39  C   UNL A   1      41.954  27.960  28.779  1.00  0.00     0.074 A 
ATOM     40  C   UNL A   1      39.595  28.705  28.628  1.00  0.00     0.049 A 
ATOM     41  N   UNL A   1      42.518  29.004  29.330  1.00  0.00    -0.248 NA
ATOM     42  C   UNL A   1      42.873  26.835  28.537  1.00  0.00     0.031 C 
ATOM     43  C   UNL A   1      38.162  28.588  28.341  1.00  0.00     0.029 A 
ATOM     44  N   UNL A   1      39.727  29.963  29.153  1.00  0.00    -0.354 N 
ATOM     45  C   UNL A   1      43.846  28.651  29.521  1.00  0.00     0.074 A 
ATOM     46  C   UNL A   1      43.996  27.283  29.077  1.00  0.00     0.031 C 
ATOM     47  C   UNL A   1      37.555  29.743  28.660  1.00  0.00     0.029 A 
ATOM     48  C   UNL A   1      38.547  30.665  29.200  1.00  0.00     0.049 A 
ATOM     49  H   UNL A   1      40.585  30.329  29.467  1.00  0.00     0.167 HD
ATOM     50  C   UNL A   1      44.858  29.408  30.003  1.00  0.00     0.031 A 
ATOM     51  C   UNL A   1      38.302  31.918  29.625  1.00  0.00     0.031 A 
ATOM     52  C   UNL A   1      44.705  30.775  30.415  1.00  0.00     0.049 A 
ATOM     53  C   UNL A   1      39.447  32.746  30.135  1.00  0.00     0.074 A 
ATOM     54  C   UNL A   1      45.674  31.657  30.856  1.00  0.00     0.029 A 
ATOM     55  N   UNL A   1      43.499  31.458  30.430  1.00  0.00    -0.354 N 
ATOM     56  N   UNL A   1      40.714  32.425  30.242  1.00  0.00    -0.248 NA
ATOM     57  C   UNL A   1      39.130  34.113  30.570  1.00  0.00     0.031 C 
ATOM     58  C   UNL A   1      45.045  32.866  31.173  1.00  0.00     0.029 A 
ATOM     59  C   UNL A   1      43.694  32.748  30.888  1.00  0.00     0.049 A 
ATOM     60  H   UNL A   1      42.631  31.081  30.156  1.00  0.00     0.167 HD
ATOM     61  C   UNL A   1      41.350  33.558  30.732  1.00  0.00     0.074 A 
ATOM     62  C   UNL A   1      40.331  34.577  30.886  1.00  0.00     0.031 C 
ATOM     63  C   UNL A   1      42.661  33.740  31.027  1.00  0.00     0.031 A 
BRANCH  50  64
ATOM     64  C   UNL A   1      46.209  28.762  30.108  1.00  0.00    -0.014 A 
ATOM     65  C   UNL A   1      46.606  28.097  31.280  1.00  0.00     0.009 A 
ATOM     66  C   UNL A   1      47.095  28.815  29.022  1.00  0.00     0.009 A 
ATOM     67  C   UNL A   1      47.881  27.532  31.374  1.00  0.00     0.001 A 
ATOM     68  C   UNL A   1      48.357  28.225  29.110  1.00  0.00     0.001 A 
ATOM     69  C   UNL A   1      48.753  27.594  30.288  1.00  0.00     0.000 A 
ENDBRANCH  50  64
BRANCH  51  70
ATOM     70  C   UNL A   1      36.927  32.476  29.553  1.00  0.00    -0.014 A 
ATOM     71  C   UNL A   1      36.479  33.106  28.382  1.00  0.00     0.009 A 
ATOM     72  C   UNL A   1      36.057  32.386  30.650  1.00  0.00     0.009 A 
ATOM     73  C   UNL A   1      35.197  33.658  28.320  1.00  0.00     0.001 A 
ATOM     74  C   UNL A   1      34.767  32.917  30.577  1.00  0.00     0.001 A 
ATOM     75  C   UNL A   1      34.342  33.560  29.416  1.00  0.00     0.000 A 
ENDBRANCH  51  70
BRANCH  63  76
ATOM     76  C   UNL A   1      43.065  35.099  31.517  1.00  0.00    -0.014 A 
ATOM     77  C   UNL A   1      43.061  35.407  32.886  1.00  0.00     0.009 A 
ATOM     78  C   UNL A   1      43.497  36.067  30.597  1.00  0.00     0.009 A 
ATOM     79  C   UNL A   1      43.458  36.672  33.322  1.00  0.00     0.001 A 
ATOM     80  C   UNL A   1      43.919  37.321  31.039  1.00  0.00     0.001 A 
ATOM     81  C   UNL A   1      43.892  37.625  32.399  1.00  0.00     0.000 A 
ENDBRANCH  63  76
ENDBRANCH  37  38
ENDBRANCH  29  32
ENDBRANCH  27  28
ENDBRANCH  26  27
ENDBRANCH   1  26
TORSDOF 14
ENDMDL
MODEL 3
REMARK VINA RESULT:     -10.6      3.066      8.722
REMARK SMILES CC1(C)C[C@@H]([NH2+]C[C@@H]2CCCC[C@@H]2C(=O)NCCCCNC(=O)c2ccc(-c3c4nc(c(-c5ccccc5)c5ccc([nH]5)c(-c5ccccc5)c5nc(c(-c6ccccc6)c6ccc3[nH]6)C=C5)C=C4)cc2)C(C)(C)O1
REMARK SMILES IDX 18 1 17 2 16 3 14 4 15 5 13 7 8 8 9 9 10 10 12 11 11 12 7 13
REMARK SMILES IDX 6 14 5 17 1 18 2 19 3 20 4 21 75 22 72 23 73 24 74 25 19 26
REMARK SMILES IDX 20 27 21 28 22 29 23 31 24 32 25 33 71 34 26 35 70 36 27 37
REMARK SMILES IDX 28 38 29 39 64 40 30 41 69 42 63 43 65 44 31 45 68 46 62 47
REMARK SMILES IDX 61 48 32 50 54 51 39 52 53 53 40 54 43 55 52 56 66 57 41 58
REMARK SMILES IDX 42 59 51 61 67 62 44 63 33 64 34 65 38 66 35 67 37 68 36 69
REMARK SMILES IDX 55 70 56 71 60 72 57 73 59 74 58 75 45 76 46 77 50 78 47 79
REMARK SMILES IDX 49 80 48 81
REMARK H PARENT 16 6 6 15 6 16 21 30 65 49 43 60
REMARK Flexibility Score: inf
ROOT
ATOM      1  C   UNL A   1      34.501  30.503  27.705  1.00  0.00     0.023 C 
ENDROOT
BRANCH   1   2
ATOM      2  C   UNL A   1      34.440  29.232  26.853  1.00  0.00     0.116 C 
BRANCH   2   3
ATOM      3  N   UNL A   1      33.865  29.505  25.550  1.00  0.00    -0.356 N 
ATOM      4  C   UNL A   1      33.216  28.513  24.864  1.00  0.00     0.223 C 
ATOM      5  O   UNL A   1      33.862  27.857  24.047  1.00  0.00    -0.275 OA
ATOM      6  H   UNL A   1      33.943  30.404  25.157  1.00  0.00     0.163 HD
BRANCH   4   7
ATOM      7  C   UNL A   1      31.720  28.255  25.087  1.00  0.00     0.087 C 
ATOM      8  C   UNL A   1      31.156  26.859  24.790  1.00  0.00     0.056 C 
ATOM      9  C   UNL A   1      30.999  26.624  23.278  1.00  0.00     0.010 C 
ATOM     10  C   UNL A   1      30.281  27.788  22.563  1.00  0.00     0.001 C 
ATOM     11  C   UNL A   1      30.881  29.367  24.462  1.00  0.00     0.014 C 
ATOM     12  C   UNL A   1      30.686  29.207  22.970  1.00  0.00     0.001 C 
BRANCH   8  13
ATOM     13  C   UNL A   1      31.760  25.661  25.605  1.00  0.00     0.265 C 
BRANCH  13  14
ATOM     14  N   UNL A   1      33.177  25.312  25.506  1.00  0.00    -0.341 N 
ATOM     15  H   UNL A   1      33.550  25.787  24.684  1.00  0.00     0.346 HD
ATOM     16  H   UNL A   1      33.574  25.599  26.401  1.00  0.00     0.346 HD
BRANCH  14  17
ATOM     17  C   UNL A   1      33.532  23.878  25.385  1.00  0.00     0.217 C 
ATOM     18  C   UNL A   1      37.032  23.141  24.909  1.00  0.00     0.042 C 
ATOM     19  C   UNL A   1      35.618  22.585  25.123  1.00  0.00     0.069 C 
ATOM     20  C   UNL A   1      35.719  21.141  25.607  1.00  0.00     0.042 C 
ATOM     21  C   UNL A   1      34.809  23.445  26.086  1.00  0.00     0.103 C 
ATOM     22  O   UNL A   1      34.959  22.605  23.858  1.00  0.00    -0.363 OA
ATOM     23  C   UNL A   1      33.720  23.336  23.932  1.00  0.00     0.115 C 
ATOM     24  C   UNL A   1      33.794  24.415  22.848  1.00  0.00     0.048 C 
ATOM     25  C   UNL A   1      32.623  22.328  23.575  1.00  0.00     0.048 C 
ENDBRANCH  14  17
ENDBRANCH  13  14
ENDBRANCH   8  13
ENDBRANCH   4   7
ENDBRANCH   2   3
ENDBRANCH   1   2
BRANCH   1  26
ATOM     26  C   UNL A   1      33.201  31.304  27.672  1.00  0.00     0.023 C 
BRANCH  26  27
ATOM     27  C   UNL A   1      33.356  32.715  27.118  1.00  0.00     0.116 C 
BRANCH  27  28
ATOM     28  N   UNL A   1      32.755  33.740  27.963  1.00  0.00    -0.352 N 
ATOM     29  C   UNL A   1      33.256  34.320  29.100  1.00  0.00     0.251 C 
ATOM     30  H   UNL A   1      31.869  34.060  27.678  1.00  0.00     0.163 HD
ATOM     31  O   UNL A   1      32.608  35.134  29.735  1.00  0.00    -0.269 OA
BRANCH  29  32
ATOM     32  C   UNL A   1      34.583  33.886  29.558  1.00  0.00     0.039 A 
ATOM     33  C   UNL A   1      34.655  33.035  30.660  1.00  0.00     0.014 A 
ATOM     34  C   UNL A   1      35.722  34.234  28.826  1.00  0.00     0.014 A 
ATOM     35  C   UNL A   1      35.880  32.472  30.996  1.00  0.00     0.010 A 
ATOM     36  C   UNL A   1      36.924  33.611  29.116  1.00  0.00     0.010 A 
ATOM     37  C   UNL A   1      37.011  32.730  30.205  1.00  0.00    -0.014 A 
BRANCH  37  38
ATOM     38  C   UNL A   1      38.308  32.095  30.517  1.00  0.00     0.031 A 
ATOM     39  C   UNL A   1      39.245  32.769  31.474  1.00  0.00     0.074 A 
ATOM     40  C   UNL A   1      38.649  30.949  29.900  1.00  0.00     0.049 A 
ATOM     41  N   UNL A   1      40.437  32.394  31.859  1.00  0.00    -0.248 NA
ATOM     42  C   UNL A   1      38.798  34.048  32.050  1.00  0.00     0.031 C 
ATOM     43  C   UNL A   1      37.831  30.236  28.915  1.00  0.00     0.029 A 
ATOM     44  N   UNL A   1      39.776  30.179  30.016  1.00  0.00    -0.354 N 
ATOM     45  C   UNL A   1      40.889  33.401  32.700  1.00  0.00     0.074 A 
ATOM     46  C   UNL A   1      39.869  34.426  32.732  1.00  0.00     0.031 C 
ATOM     47  C   UNL A   1      38.469  29.113  28.544  1.00  0.00     0.029 A 
ATOM     48  C   UNL A   1      39.748  29.045  29.241  1.00  0.00     0.049 A 
ATOM     49  H   UNL A   1      40.533  30.416  30.599  1.00  0.00     0.167 HD
ATOM     50  C   UNL A   1      42.043  33.456  33.405  1.00  0.00     0.031 A 
ATOM     51  C   UNL A   1      40.655  28.059  29.118  1.00  0.00     0.031 A 
ATOM     52  C   UNL A   1      43.036  32.420  33.389  1.00  0.00     0.049 A 
ATOM     53  C   UNL A   1      41.918  28.133  29.928  1.00  0.00     0.074 A 
ATOM     54  C   UNL A   1      44.211  32.340  34.114  1.00  0.00     0.029 A 
ATOM     55  N   UNL A   1      42.965  31.277  32.607  1.00  0.00    -0.354 N 
ATOM     56  N   UNL A   1      42.302  29.055  30.778  1.00  0.00    -0.248 NA
ATOM     57  C   UNL A   1      42.868  27.023  29.771  1.00  0.00     0.031 C 
ATOM     58  C   UNL A   1      44.869  31.162  33.743  1.00  0.00     0.029 A 
ATOM     59  C   UNL A   1      44.083  30.491  32.819  1.00  0.00     0.049 A 
ATOM     60  H   UNL A   1      42.228  31.058  31.992  1.00  0.00     0.167 HD
ATOM     61  C   UNL A   1      43.523  28.625  31.277  1.00  0.00     0.074 A 
ATOM     62  C   UNL A   1      43.809  27.352  30.646  1.00  0.00     0.031 C 
ATOM     63  C   UNL A   1      44.337  29.228  32.178  1.00  0.00     0.031 A 
BRANCH  50  64
ATOM     64  C   UNL A   1      42.279  34.680  34.241  1.00  0.00    -0.014 A 
ATOM     65  C   UNL A   1      42.890  35.823  33.698  1.00  0.00     0.009 A 
ATOM     66  C   UNL A   1      41.882  34.695  35.586  1.00  0.00     0.009 A 
ATOM     67  C   UNL A   1      43.136  36.941  34.499  1.00  0.00     0.001 A 
ATOM     68  C   UNL A   1      42.104  35.824  36.376  1.00  0.00     0.001 A 
ATOM     69  C   UNL A   1      42.739  36.941  35.835  1.00  0.00     0.000 A 
ENDBRANCH  50  64
BRANCH  51  70
ATOM     70  C   UNL A   1      40.387  26.905  28.223  1.00  0.00    -0.014 A 
ATOM     71  C   UNL A   1      40.922  26.875  26.925  1.00  0.00     0.009 A 
ATOM     72  C   UNL A   1      39.597  25.830  28.655  1.00  0.00     0.009 A 
ATOM     73  C   UNL A   1      40.648  25.805  26.070  1.00  0.00     0.001 A 
ATOM     74  C   UNL A   1      39.345  24.749  27.806  1.00  0.00     0.001 A 
ATOM     75  C   UNL A   1      39.863  24.742  26.513  1.00  0.00     0.000 A 
ENDBRANCH  51  70
BRANCH  63  76
ATOM     76  C   UNL A   1      45.595  28.501  32.552  1.00  0.00    -0.014 A 
ATOM     77  C   UNL A   1      46.795  28.725  31.861  1.00  0.00     0.009 A 
ATOM     78  C   UNL A   1      45.585  27.614  33.640  1.00  0.00     0.009 A 
ATOM     79  C   UNL A   1      47.958  28.051  32.237  1.00  0.00     0.001 A 
ATOM     80  C   UNL A   1      46.755  26.963  34.030  1.00  0.00     0.001 A 
ATOM     81  C   UNL A   1      47.938  27.176  33.323  1.00  0.00     0.000 A 
ENDBRANCH  63  76
ENDBRANCH  37  38
ENDBRANCH  29  32
ENDBRANCH  27  28
ENDBRANCH  26  27
ENDBRANCH   1  26
TORSDOF 14
ENDMDL
