MODEL 1
REMARK VINA RESULT:     -13.2      0.000      0.000
REMARK SMILES C[NH+]1CCC(C(=O)N2C[C@@H](C(=O)NCCCCNC(=O)c3ccc(-c4c5nc(c(-c6ccccc6)c6ccc([nH]6)c(-c6ccccc6)c6nc(c(-c7ccccc7)c7ccc4[nH]7)C=C6)C=C5)cc3)[C@H](c3ccc4c(c3)OCO4)C2)CC1
REMARK SMILES IDX 15 1 14 2 13 3 11 4 12 5 10 7 8 8 9 9 79 10 69 11 6 12 7 13
REMARK SMILES IDX 5 14 1 15 2 16 3 17 81 18 4 20 80 21 70 22 71 23 75 24 72 25
REMARK SMILES IDX 74 26 73 27 76 28 78 29 77 30 16 31 17 32 18 33 19 34 20 36
REMARK SMILES IDX 21 37 22 38 68 39 23 40 67 41 24 42 25 43 26 44 61 45 27 46
REMARK SMILES IDX 66 47 60 48 62 49 28 50 65 51 59 52 58 53 29 55 51 56 36 57
REMARK SMILES IDX 50 58 37 59 40 60 49 61 63 62 38 63 39 64 48 66 64 67 41 68
REMARK SMILES IDX 30 69 31 70 35 71 32 72 34 73 33 74 52 75 53 76 57 77 54 78
REMARK SMILES IDX 56 79 55 80 42 81 43 82 47 83 44 84 46 85 45 86
REMARK H PARENT 13 6 2 19 18 35 62 54 40 65
REMARK Flexibility Score: inf
ROOT
ATOM      1  C   UNL A   1      31.784  30.448  26.886  1.00  0.00     0.023 C 
ENDROOT
BRANCH   1   2
ATOM      2  C   UNL A   1      33.177  29.898  26.602  1.00  0.00     0.116 C 
BRANCH   2   3
ATOM      3  N   UNL A   1      33.463  29.757  25.184  1.00  0.00    -0.356 N 
ATOM      4  C   UNL A   1      32.720  29.164  24.203  1.00  0.00     0.225 C 
ATOM      5  O   UNL A   1      33.089  29.291  23.035  1.00  0.00    -0.275 OA
ATOM      6  H   UNL A   1      34.318  30.144  24.887  1.00  0.00     0.163 HD
BRANCH   4   7
ATOM      7  C   UNL A   1      31.481  28.378  24.569  1.00  0.00     0.107 C 
ATOM      8  N   UNL A   1      30.540  26.298  24.887  1.00  0.00    -0.341 N 
ATOM      9  C   UNL A   1      31.832  26.946  24.914  1.00  0.00     0.133 C 
ATOM     10  C   UNL A   1      29.749  26.864  23.794  1.00  0.00     0.128 C 
ATOM     11  C   UNL A   1      30.476  28.181  23.410  1.00  0.00     0.053 C 
BRANCH   8  12
ATOM     12  C   UNL A   1      30.022  25.304  25.677  1.00  0.00     0.226 C 
ATOM     13  O   UNL A   1      29.137  25.576  26.500  1.00  0.00    -0.275 OA
BRANCH  12  14
ATOM     14  C   UNL A   1      30.711  23.935  25.785  1.00  0.00     0.090 C 
ATOM     15  C   UNL A   1      33.724  20.893  26.184  1.00  0.00     0.332 C 
ATOM     16  N   UNL A   1      32.990  22.127  25.908  1.00  0.00    -0.337 N 
ATOM     17  C   UNL A   1      32.445  22.692  27.148  1.00  0.00     0.262 C 
ATOM     18  C   UNL A   1      31.917  21.892  24.928  1.00  0.00     0.262 C 
ATOM     19  H   UNL A   1      33.641  22.801  25.506  1.00  0.00     0.347 HD
ATOM     20  C   UNL A   1      31.790  24.042  26.873  1.00  0.00     0.075 C 
ATOM     21  C   UNL A   1      31.262  23.226  24.550  1.00  0.00     0.075 C 
ENDBRANCH  12  14
ENDBRANCH   8  12
BRANCH  11  22
ATOM     22  C   UNL A   1      29.651  29.439  23.219  1.00  0.00    -0.038 A 
ATOM     23  C   UNL A   1      29.697  30.525  24.125  1.00  0.00     0.008 A 
ATOM     24  C   UNL A   1      28.967  29.599  21.996  1.00  0.00     0.054 A 
ATOM     25  C   UNL A   1      29.119  31.760  23.803  1.00  0.00     0.051 A 
ATOM     26  C   UNL A   1      28.447  30.839  21.690  1.00  0.00     0.166 A 
ATOM     27  C   UNL A   1      28.531  31.892  22.564  1.00  0.00     0.165 A 
ATOM     28  O   UNL A   1      27.907  31.198  20.493  1.00  0.00    -0.454 OA
ATOM     29  O   UNL A   1      28.038  33.044  22.035  1.00  0.00    -0.454 OA
ATOM     30  C   UNL A   1      27.763  32.622  20.683  1.00  0.00     0.468 C 
ENDBRANCH  11  22
ENDBRANCH   4   7
ENDBRANCH   2   3
ENDBRANCH   1   2
BRANCH   1  31
ATOM     31  C   UNL A   1      31.639  31.966  26.761  1.00  0.00     0.023 C 
BRANCH  31  32
ATOM     32  C   UNL A   1      32.818  32.804  27.253  1.00  0.00     0.116 C 
BRANCH  32  33
ATOM     33  N   UNL A   1      32.461  34.158  27.643  1.00  0.00    -0.352 N 
ATOM     34  C   UNL A   1      33.051  34.978  28.579  1.00  0.00     0.251 C 
ATOM     35  H   UNL A   1      31.687  34.544  27.172  1.00  0.00     0.163 HD
ATOM     36  O   UNL A   1      32.599  36.097  28.785  1.00  0.00    -0.269 OA
BRANCH  34  37
ATOM     37  C   UNL A   1      34.207  34.496  29.369  1.00  0.00     0.039 A 
ATOM     38  C   UNL A   1      33.964  33.934  30.626  1.00  0.00     0.014 A 
ATOM     39  C   UNL A   1      35.512  34.576  28.878  1.00  0.00     0.014 A 
ATOM     40  C   UNL A   1      35.015  33.368  31.350  1.00  0.00     0.010 A 
ATOM     41  C   UNL A   1      36.553  33.964  29.577  1.00  0.00     0.010 A 
ATOM     42  C   UNL A   1      36.310  33.336  30.808  1.00  0.00    -0.014 A 
BRANCH  42  43
ATOM     43  C   UNL A   1      37.401  32.593  31.486  1.00  0.00     0.031 A 
ATOM     44  C   UNL A   1      37.936  33.048  32.813  1.00  0.00     0.074 A 
ATOM     45  C   UNL A   1      37.971  31.545  30.859  1.00  0.00     0.049 A 
ATOM     46  N   UNL A   1      38.916  32.545  33.522  1.00  0.00    -0.248 NA
ATOM     47  C   UNL A   1      37.306  34.234  33.409  1.00  0.00     0.031 C 
ATOM     48  C   UNL A   1      37.582  31.035  29.541  1.00  0.00     0.029 A 
ATOM     49  N   UNL A   1      39.007  30.729  31.239  1.00  0.00    -0.354 N 
ATOM     50  C   UNL A   1      39.031  33.362  34.639  1.00  0.00     0.074 A 
ATOM     51  C   UNL A   1      38.045  34.412  34.496  1.00  0.00     0.031 C 
ATOM     52  C   UNL A   1      38.363  29.988  29.229  1.00  0.00     0.029 A 
ATOM     53  C   UNL A   1      39.323  29.771  30.307  1.00  0.00     0.049 A 
ATOM     54  H   UNL A   1      39.478  30.823  32.098  1.00  0.00     0.167 HD
ATOM     55  C   UNL A   1      39.874  33.242  35.692  1.00  0.00     0.031 A 
ATOM     56  C   UNL A   1      40.281  28.826  30.312  1.00  0.00     0.031 A 
ATOM     57  C   UNL A   1      40.850  32.197  35.841  1.00  0.00     0.049 A 
ATOM     58  C   UNL A   1      41.195  28.706  31.497  1.00  0.00     0.074 A 
ATOM     59  C   UNL A   1      41.695  31.951  36.911  1.00  0.00     0.029 A 
ATOM     60  N   UNL A   1      41.121  31.228  34.888  1.00  0.00    -0.354 N 
ATOM     61  N   UNL A   1      41.230  29.432  32.587  1.00  0.00    -0.248 NA
ATOM     62  C   UNL A   1      42.192  27.627  31.457  1.00  0.00     0.031 C 
ATOM     63  C   UNL A   1      42.509  30.860  36.584  1.00  0.00     0.029 A 
ATOM     64  C   UNL A   1      42.138  30.399  35.332  1.00  0.00     0.049 A 
ATOM     65  H   UNL A   1      40.658  31.140  34.024  1.00  0.00     0.167 HD
ATOM     66  C   UNL A   1      42.238  28.888  33.372  1.00  0.00     0.074 A 
ATOM     67  C   UNL A   1      42.779  27.760  32.639  1.00  0.00     0.031 C 
ATOM     68  C   UNL A   1      42.674  29.286  34.591  1.00  0.00     0.031 A 
BRANCH  55  69
ATOM     69  C   UNL A   1      39.782  34.289  36.768  1.00  0.00    -0.014 A 
ATOM     70  C   UNL A   1      38.990  34.091  37.910  1.00  0.00     0.009 A 
ATOM     71  C   UNL A   1      40.519  35.476  36.649  1.00  0.00     0.009 A 
ATOM     72  C   UNL A   1      38.907  35.079  38.892  1.00  0.00     0.001 A 
ATOM     73  C   UNL A   1      40.455  36.453  37.645  1.00  0.00     0.001 A 
ATOM     74  C   UNL A   1      39.640  36.258  38.761  1.00  0.00     0.000 A 
ENDBRANCH  55  69
BRANCH  56  75
ATOM     75  C   UNL A   1      40.416  27.908  29.153  1.00  0.00    -0.014 A 
ATOM     76  C   UNL A   1      39.687  26.711  29.106  1.00  0.00     0.009 A 
ATOM     77  C   UNL A   1      41.260  28.234  28.081  1.00  0.00     0.009 A 
ATOM     78  C   UNL A   1      39.818  25.847  28.016  1.00  0.00     0.001 A 
ATOM     79  C   UNL A   1      41.370  27.380  26.982  1.00  0.00     0.001 A 
ATOM     80  C   UNL A   1      40.654  26.185  26.954  1.00  0.00     0.000 A 
ENDBRANCH  56  75
BRANCH  68  81
ATOM     81  C   UNL A   1      43.778  28.485  35.219  1.00  0.00    -0.014 A 
ATOM     82  C   UNL A   1      45.125  28.813  35.005  1.00  0.00     0.009 A 
ATOM     83  C   UNL A   1      43.464  27.411  36.066  1.00  0.00     0.009 A 
ATOM     84  C   UNL A   1      46.137  28.062  35.604  1.00  0.00     0.001 A 
ATOM     85  C   UNL A   1      44.478  26.678  36.684  1.00  0.00     0.001 A 
ATOM     86  C   UNL A   1      45.813  26.999  36.447  1.00  0.00     0.000 A 
ENDBRANCH  68  81
ENDBRANCH  42  43
ENDBRANCH  34  37
ENDBRANCH  32  33
ENDBRANCH  31  32
ENDBRANCH   1  31
TORSDOF 14
ENDMDL
MODEL 2
REMARK VINA RESULT:     -13.1      0.380      5.701
REMARK SMILES C[NH+]1CCC(C(=O)N2C[C@@H](C(=O)NCCCCNC(=O)c3ccc(-c4c5nc(c(-c6ccccc6)c6ccc([nH]6)c(-c6ccccc6)c6nc(c(-c7ccccc7)c7ccc4[nH]7)C=C6)C=C5)cc3)[C@H](c3ccc4c(c3)OCO4)C2)CC1
REMARK SMILES IDX 15 1 14 2 13 3 11 4 12 5 10 7 8 8 9 9 79 10 69 11 6 12 7 13
REMARK SMILES IDX 5 14 1 15 2 16 3 17 81 18 4 20 80 21 70 22 71 23 75 24 72 25
REMARK SMILES IDX 74 26 73 27 76 28 78 29 77 30 16 31 17 32 18 33 19 34 20 36
REMARK SMILES IDX 21 37 22 38 68 39 23 40 67 41 24 42 25 43 26 44 61 45 27 46
REMARK SMILES IDX 66 47 60 48 62 49 28 50 65 51 59 52 58 53 29 55 51 56 36 57
REMARK SMILES IDX 50 58 37 59 40 60 49 61 63 62 38 63 39 64 48 66 64 67 41 68
REMARK SMILES IDX 30 69 31 70 35 71 32 72 34 73 33 74 52 75 53 76 57 77 54 78
REMARK SMILES IDX 56 79 55 80 42 81 43 82 47 83 44 84 46 85 45 86
REMARK H PARENT 13 6 2 19 18 35 62 54 40 65
REMARK Flexibility Score: inf
ROOT
ATOM      1  C   UNL A   1      31.970  30.256  26.898  1.00  0.00     0.023 C 
ENDROOT
BRANCH   1   2
ATOM      2  C   UNL A   1      33.371  29.787  26.522  1.00  0.00     0.116 C 
BRANCH   2   3
ATOM      3  N   UNL A   1      33.585  29.703  25.087  1.00  0.00    -0.356 N 
ATOM      4  C   UNL A   1      32.797  29.141  24.123  1.00  0.00     0.225 C 
ATOM      5  O   UNL A   1      33.105  29.316  22.944  1.00  0.00    -0.275 OA
ATOM      6  H   UNL A   1      34.421  30.109  24.762  1.00  0.00     0.163 HD
BRANCH   4   7
ATOM      7  C   UNL A   1      31.584  28.331  24.520  1.00  0.00     0.107 C 
ATOM      8  N   UNL A   1      30.697  26.233  24.876  1.00  0.00    -0.341 N 
ATOM      9  C   UNL A   1      31.974  26.911  24.871  1.00  0.00     0.133 C 
ATOM     10  C   UNL A   1      29.872  26.770  23.795  1.00  0.00     0.128 C 
ATOM     11  C   UNL A   1      30.560  28.099  23.383  1.00  0.00     0.053 C 
BRANCH   8  12
ATOM     12  C   UNL A   1      30.218  25.234  25.686  1.00  0.00     0.226 C 
ATOM     13  O   UNL A   1      29.440  25.516  26.607  1.00  0.00    -0.275 OA
BRANCH  12  14
ATOM     14  C   UNL A   1      30.846  23.833  25.675  1.00  0.00     0.090 C 
ATOM     15  C   UNL A   1      33.726  20.641  25.792  1.00  0.00     0.332 C 
ATOM     16  N   UNL A   1      33.045  21.924  25.625  1.00  0.00    -0.337 N 
ATOM     17  C   UNL A   1      32.537  22.411  26.913  1.00  0.00     0.262 C 
ATOM     18  C   UNL A   1      31.954  21.814  24.643  1.00  0.00     0.262 C 
ATOM     19  H   UNL A   1      33.722  22.599  25.270  1.00  0.00     0.347 HD
ATOM     20  C   UNL A   1      31.939  23.806  26.754  1.00  0.00     0.075 C 
ATOM     21  C   UNL A   1      31.354  23.201  24.381  1.00  0.00     0.075 C 
ENDBRANCH  12  14
ENDBRANCH   8  12
BRANCH  11  22
ATOM     22  C   UNL A   1      29.703  29.337  23.198  1.00  0.00    -0.038 A 
ATOM     23  C   UNL A   1      29.708  30.411  24.118  1.00  0.00     0.008 A 
ATOM     24  C   UNL A   1      29.030  29.493  21.969  1.00  0.00     0.054 A 
ATOM     25  C   UNL A   1      29.100  31.635  23.803  1.00  0.00     0.051 A 
ATOM     26  C   UNL A   1      28.480  30.722  21.671  1.00  0.00     0.166 A 
ATOM     27  C   UNL A   1      28.523  31.766  22.560  1.00  0.00     0.165 A 
ATOM     28  O   UNL A   1      27.945  31.081  20.473  1.00  0.00    -0.454 OA
ATOM     29  O   UNL A   1      28.006  32.910  22.038  1.00  0.00    -0.454 OA
ATOM     30  C   UNL A   1      27.759  32.499  20.678  1.00  0.00     0.468 C 
ENDBRANCH  11  22
ENDBRANCH   4   7
ENDBRANCH   2   3
ENDBRANCH   1   2
BRANCH   1  31
ATOM     31  C   UNL A   1      31.724  31.760  26.771  1.00  0.00     0.023 C 
BRANCH  31  32
ATOM     32  C   UNL A   1      32.854  32.675  27.239  1.00  0.00     0.116 C 
BRANCH  32  33
ATOM     33  N   UNL A   1      32.416  34.003  27.636  1.00  0.00    -0.352 N 
ATOM     34  C   UNL A   1      32.988  34.876  28.534  1.00  0.00     0.251 C 
ATOM     35  H   UNL A   1      31.593  34.324  27.201  1.00  0.00     0.163 HD
ATOM     36  O   UNL A   1      32.464  35.962  28.753  1.00  0.00    -0.269 OA
BRANCH  34  37
ATOM     37  C   UNL A   1      34.214  34.492  29.269  1.00  0.00     0.039 A 
ATOM     38  C   UNL A   1      34.078  33.959  30.555  1.00  0.00     0.014 A 
ATOM     39  C   UNL A   1      35.482  34.634  28.701  1.00  0.00     0.014 A 
ATOM     40  C   UNL A   1      35.201  33.482  31.233  1.00  0.00     0.010 A 
ATOM     41  C   UNL A   1      36.597  34.109  29.356  1.00  0.00     0.010 A 
ATOM     42  C   UNL A   1      36.463  33.510  30.617  1.00  0.00    -0.014 A 
BRANCH  42  43
ATOM     43  C   UNL A   1      37.635  32.858  31.253  1.00  0.00     0.031 A 
ATOM     44  C   UNL A   1      38.265  31.640  30.643  1.00  0.00     0.074 A 
ATOM     45  C   UNL A   1      38.083  33.322  32.437  1.00  0.00     0.049 A 
ATOM     46  N   UNL A   1      39.263  30.917  31.089  1.00  0.00    -0.248 NA
ATOM     47  C   UNL A   1      37.686  31.156  29.382  1.00  0.00     0.031 C 
ATOM     48  C   UNL A   1      37.523  34.464  33.164  1.00  0.00     0.029 A 
ATOM     49  N   UNL A   1      39.102  32.880  33.243  1.00  0.00    -0.354 N 
ATOM     50  C   UNL A   1      39.420  29.885  30.175  1.00  0.00     0.074 A 
ATOM     51  C   UNL A   1      38.394  30.055  29.168  1.00  0.00     0.031 C 
ATOM     52  C   UNL A   1      38.213  34.638  34.303  1.00  0.00     0.029 A 
ATOM     53  C   UNL A   1      39.241  33.607  34.401  1.00  0.00     0.049 A 
ATOM     54  H   UNL A   1      39.677  32.116  33.014  1.00  0.00     0.167 HD
ATOM     55  C   UNL A   1      40.341  28.892  30.168  1.00  0.00     0.031 A 
ATOM     56  C   UNL A   1      40.094  33.459  35.431  1.00  0.00     0.031 A 
ATOM     57  C   UNL A   1      41.366  28.724  31.162  1.00  0.00     0.049 A 
ATOM     58  C   UNL A   1      41.114  32.359  35.394  1.00  0.00     0.074 A 
ATOM     59  C   UNL A   1      42.391  27.793  31.197  1.00  0.00     0.029 A 
ATOM     60  N   UNL A   1      41.492  29.498  32.305  1.00  0.00    -0.354 N 
ATOM     61  N   UNL A   1      41.307  31.445  34.475  1.00  0.00    -0.248 NA
ATOM     62  C   UNL A   1      42.043  32.278  36.531  1.00  0.00     0.031 C 
ATOM     63  C   UNL A   1      43.109  27.975  32.384  1.00  0.00     0.029 A 
ATOM     64  C   UNL A   1      42.560  29.050  33.065  1.00  0.00     0.049 A 
ATOM     65  H   UNL A   1      40.910  30.256  32.541  1.00  0.00     0.167 HD
ATOM     66  C   UNL A   1      42.390  30.693  34.911  1.00  0.00     0.074 A 
ATOM     67  C   UNL A   1      42.822  31.267  36.170  1.00  0.00     0.031 C 
ATOM     68  C   UNL A   1      42.974  29.623  34.319  1.00  0.00     0.031 A 
BRANCH  55  69
ATOM     69  C   UNL A   1      40.269  27.896  29.044  1.00  0.00    -0.014 A 
ATOM     70  C   UNL A   1      40.935  28.120  27.829  1.00  0.00     0.009 A 
ATOM     71  C   UNL A   1      39.547  26.705  29.216  1.00  0.00     0.009 A 
ATOM     72  C   UNL A   1      40.846  27.189  26.793  1.00  0.00     0.001 A 
ATOM     73  C   UNL A   1      39.481  25.763  28.186  1.00  0.00     0.001 A 
ATOM     74  C   UNL A   1      40.122  26.011  26.972  1.00  0.00     0.000 A 
ENDBRANCH  55  69
BRANCH  56  75
ATOM     75  C   UNL A   1      40.024  34.392  36.584  1.00  0.00    -0.014 A 
ATOM     76  C   UNL A   1      39.269  34.062  37.720  1.00  0.00     0.009 A 
ATOM     77  C   UNL A   1      40.725  35.607  36.561  1.00  0.00     0.009 A 
ATOM     78  C   UNL A   1      39.202  34.942  38.802  1.00  0.00     0.001 A 
ATOM     79  C   UNL A   1      40.675  36.473  37.655  1.00  0.00     0.001 A 
ATOM     80  C   UNL A   1      39.908  36.143  38.770  1.00  0.00     0.000 A 
ENDBRANCH  56  75
BRANCH  68  81
ATOM     81  C   UNL A   1      44.157  29.016  35.017  1.00  0.00    -0.014 A 
ATOM     82  C   UNL A   1      43.998  27.972  35.941  1.00  0.00     0.009 A 
ATOM     83  C   UNL A   1      45.451  29.470  34.717  1.00  0.00     0.009 A 
ATOM     84  C   UNL A   1      45.111  27.415  36.573  1.00  0.00     0.001 A 
ATOM     85  C   UNL A   1      46.563  28.894  35.332  1.00  0.00     0.001 A 
ATOM     86  C   UNL A   1      46.392  27.872  36.265  1.00  0.00     0.000 A 
ENDBRANCH  68  81
ENDBRANCH  42  43
ENDBRANCH  34  37
ENDBRANCH  32  33
ENDBRANCH  31  32
ENDBRANCH   1  31
TORSDOF 14
ENDMDL
MODEL 3
REMARK VINA RESULT:     -12.9      1.984      6.129
REMARK SMILES C[NH+]1CCC(C(=O)N2C[C@@H](C(=O)NCCCCNC(=O)c3ccc(-c4c5nc(c(-c6ccccc6)c6ccc([nH]6)c(-c6ccccc6)c6nc(c(-c7ccccc7)c7ccc4[nH]7)C=C6)C=C5)cc3)[C@H](c3ccc4c(c3)OCO4)C2)CC1
REMARK SMILES IDX 15 1 14 2 13 3 11 4 12 5 10 7 8 8 9 9 79 10 69 11 6 12 7 13
REMARK SMILES IDX 5 14 1 15 2 16 3 17 81 18 4 20 80 21 70 22 71 23 75 24 72 25
REMARK SMILES IDX 74 26 73 27 76 28 78 29 77 30 16 31 17 32 18 33 19 34 20 36
REMARK SMILES IDX 21 37 22 38 68 39 23 40 67 41 24 42 25 43 26 44 61 45 27 46
REMARK SMILES IDX 66 47 60 48 62 49 28 50 65 51 59 52 58 53 29 55 51 56 36 57
REMARK SMILES IDX 50 58 37 59 40 60 49 61 63 62 38 63 39 64 48 66 64 67 41 68
REMARK SMILES IDX 30 69 31 70 35 71 32 72 34 73 33 74 52 75 53 76 57 77 54 78
REMARK SMILES IDX 56 79 55 80 42 81 43 82 47 83 44 84 46 85 45 86
REMARK H PARENT 13 6 2 19 18 35 62 54 40 65
REMARK Flexibility Score: inf
ROOT
ATOM      1  C   UNL A   1      32.504  30.494  27.047  1.00  0.00     0.023 C 
ENDROOT
BRANCH   1   2
ATOM      2  C   UNL A   1      32.128  29.603  25.870  1.00  0.00     0.116 C 
BRANCH   2   3
ATOM      3  N   UNL A   1      33.053  29.700  24.754  1.00  0.00    -0.356 N 
ATOM      4  C   UNL A   1      33.248  28.842  23.709  1.00  0.00     0.225 C 
ATOM      5  O   UNL A   1      33.986  29.198  22.791  1.00  0.00    -0.275 OA
ATOM      6  H   UNL A   1      33.625  30.502  24.750  1.00  0.00     0.163 HD
BRANCH   4   7
ATOM      7  C   UNL A   1      32.560  27.495  23.705  1.00  0.00     0.107 C 
ATOM      8  N   UNL A   1      32.760  25.229  23.331  1.00  0.00    -0.341 N 
ATOM      9  C   UNL A   1      33.575  26.371  23.678  1.00  0.00     0.133 C 
ATOM     10  C   UNL A   1      31.752  25.645  22.356  1.00  0.00     0.128 C 
ATOM     11  C   UNL A   1      31.733  27.196  22.432  1.00  0.00     0.053 C 
BRANCH   8  12
ATOM     12  C   UNL A   1      32.821  23.925  23.754  1.00  0.00     0.226 C 
ATOM     13  O   UNL A   1      31.775  23.274  23.879  1.00  0.00    -0.275 OA
BRANCH  12  14
ATOM     14  C   UNL A   1      34.107  23.347  24.362  1.00  0.00     0.090 C 
ATOM     15  C   UNL A   1      37.623  20.947  24.972  1.00  0.00     0.332 C 
ATOM     16  N   UNL A   1      36.313  21.457  24.572  1.00  0.00    -0.337 N 
ATOM     17  C   UNL A   1      36.458  22.650  23.729  1.00  0.00     0.262 C 
ATOM     18  C   UNL A   1      35.482  21.751  25.751  1.00  0.00     0.262 C 
ATOM     19  H   UNL A   1      35.843  20.734  24.027  1.00  0.00     0.347 HD
ATOM     20  C   UNL A   1      35.096  23.104  23.213  1.00  0.00     0.075 C 
ATOM     21  C   UNL A   1      34.069  22.144  25.301  1.00  0.00     0.075 C 
ENDBRANCH  12  14
ENDBRANCH   8  12
BRANCH  11  22
ATOM     22  C   UNL A   1      30.394  27.905  22.507  1.00  0.00    -0.038 A 
ATOM     23  C   UNL A   1      29.272  27.348  23.163  1.00  0.00     0.008 A 
ATOM     24  C   UNL A   1      30.335  29.245  22.071  1.00  0.00     0.054 A 
ATOM     25  C   UNL A   1      28.132  28.120  23.426  1.00  0.00     0.051 A 
ATOM     26  C   UNL A   1      29.218  29.990  22.383  1.00  0.00     0.166 A 
ATOM     27  C   UNL A   1      28.151  29.445  23.052  1.00  0.00     0.165 A 
ATOM     28  O   UNL A   1      29.075  31.328  22.179  1.00  0.00    -0.454 OA
ATOM     29  O   UNL A   1      27.195  30.368  23.339  1.00  0.00    -0.454 OA
ATOM     30  C   UNL A   1      27.845  31.577  22.895  1.00  0.00     0.468 C 
ENDBRANCH  11  22
ENDBRANCH   4   7
ENDBRANCH   2   3
ENDBRANCH   1   2
BRANCH   1  31
ATOM     31  C   UNL A   1      31.694  31.785  27.180  1.00  0.00     0.023 C 
BRANCH  31  32
ATOM     32  C   UNL A   1      32.383  33.069  26.723  1.00  0.00     0.116 C 
BRANCH  32  33
ATOM     33  N   UNL A   1      32.239  34.182  27.648  1.00  0.00    -0.352 N 
ATOM     34  C   UNL A   1      33.073  34.576  28.670  1.00  0.00     0.251 C 
ATOM     35  H   UNL A   1      31.431  34.731  27.526  1.00  0.00     0.163 HD
ATOM     36  O   UNL A   1      32.779  35.543  29.362  1.00  0.00    -0.269 OA
BRANCH  34  37
ATOM     37  C   UNL A   1      34.305  33.811  28.965  1.00  0.00     0.039 A 
ATOM     38  C   UNL A   1      35.444  34.065  28.195  1.00  0.00     0.014 A 
ATOM     39  C   UNL A   1      34.352  32.868  29.995  1.00  0.00     0.014 A 
ATOM     40  C   UNL A   1      36.654  33.446  28.516  1.00  0.00     0.010 A 
ATOM     41  C   UNL A   1      35.572  32.290  30.349  1.00  0.00     0.010 A 
ATOM     42  C   UNL A   1      36.736  32.589  29.626  1.00  0.00    -0.014 A 
BRANCH  42  43
ATOM     43  C   UNL A   1      38.045  32.056  30.080  1.00  0.00     0.031 A 
ATOM     44  C   UNL A   1      38.572  30.753  29.554  1.00  0.00     0.074 A 
ATOM     45  C   UNL A   1      38.726  32.715  31.039  1.00  0.00     0.049 A 
ATOM     46  N   UNL A   1      39.672  30.119  29.876  1.00  0.00    -0.248 NA
ATOM     47  C   UNL A   1      37.747  30.061  28.554  1.00  0.00     0.031 C 
ATOM     48  C   UNL A   1      38.297  33.963  31.675  1.00  0.00     0.029 A 
ATOM     49  N   UNL A   1      39.915  32.419  31.657  1.00  0.00    -0.354 N 
ATOM     50  C   UNL A   1      39.663  28.946  29.133  1.00  0.00     0.074 A 
ATOM     51  C   UNL A   1      38.433  28.941  28.370  1.00  0.00     0.031 C 
ATOM     52  C   UNL A   1      39.215  34.330  32.584  1.00  0.00     0.029 A 
ATOM     53  C   UNL A   1      40.279  33.332  32.616  1.00  0.00     0.049 A 
ATOM     54  H   UNL A   1      40.455  31.628  31.433  1.00  0.00     0.167 HD
ATOM     55  C   UNL A   1      40.599  27.968  29.083  1.00  0.00     0.031 A 
ATOM     56  C   UNL A   1      41.345  33.362  33.437  1.00  0.00     0.031 A 
ATOM     57  C   UNL A   1      41.825  27.973  29.834  1.00  0.00     0.049 A 
ATOM     58  C   UNL A   1      42.374  32.273  33.353  1.00  0.00     0.074 A 
ATOM     59  C   UNL A   1      42.868  27.063  29.790  1.00  0.00     0.029 A 
ATOM     60  N   UNL A   1      42.170  28.930  30.776  1.00  0.00    -0.354 N 
ATOM     61  N   UNL A   1      42.394  31.217  32.579  1.00  0.00    -0.248 NA
ATOM     62  C   UNL A   1      43.534  32.389  34.249  1.00  0.00     0.031 C 
ATOM     63  C   UNL A   1      43.824  27.445  30.738  1.00  0.00     0.029 A 
ATOM     64  C   UNL A   1      43.397  28.619  31.338  1.00  0.00     0.049 A 
ATOM     65  H   UNL A   1      41.625  29.716  31.008  1.00  0.00     0.167 HD
ATOM     66  C   UNL A   1      43.576  30.552  32.877  1.00  0.00     0.074 A 
ATOM     67  C   UNL A   1      44.253  31.333  33.894  1.00  0.00     0.031 C 
ATOM     68  C   UNL A   1      44.056  29.397  32.355  1.00  0.00     0.031 A 
BRANCH  55  69
ATOM     69  C   UNL A   1      40.319  26.795  28.185  1.00  0.00    -0.014 A 
ATOM     70  C   UNL A   1      39.561  25.701  28.632  1.00  0.00     0.009 A 
ATOM     71  C   UNL A   1      40.796  26.799  26.866  1.00  0.00     0.009 A 
ATOM     72  C   UNL A   1      39.322  24.615  27.788  1.00  0.00     0.001 A 
ATOM     73  C   UNL A   1      40.533  25.723  26.015  1.00  0.00     0.001 A 
ATOM     74  C   UNL A   1      39.806  24.628  26.480  1.00  0.00     0.000 A 
ENDBRANCH  55  69
BRANCH  56  75
ATOM     75  C   UNL A   1      41.495  34.478  34.406  1.00  0.00    -0.014 A 
ATOM     76  C   UNL A   1      42.091  35.685  34.014  1.00  0.00     0.009 A 
ATOM     77  C   UNL A   1      41.028  34.345  35.722  1.00  0.00     0.009 A 
ATOM     78  C   UNL A   1      42.235  36.731  34.928  1.00  0.00     0.001 A 
ATOM     79  C   UNL A   1      41.151  35.401  36.627  1.00  0.00     0.001 A 
ATOM     80  C   UNL A   1      41.760  36.590  36.231  1.00  0.00     0.000 A 
ENDBRANCH  56  75
BRANCH  68  81
ATOM     81  C   UNL A   1      45.388  28.920  32.858  1.00  0.00    -0.014 A 
ATOM     82  C   UNL A   1      46.586  29.383  32.293  1.00  0.00     0.009 A 
ATOM     83  C   UNL A   1      45.444  28.024  33.937  1.00  0.00     0.009 A 
ATOM     84  C   UNL A   1      47.815  28.935  32.781  1.00  0.00     0.001 A 
ATOM     85  C   UNL A   1      46.675  27.597  34.438  1.00  0.00     0.001 A 
ATOM     86  C   UNL A   1      47.858  28.047  33.855  1.00  0.00     0.000 A 
ENDBRANCH  68  81
ENDBRANCH  42  43
ENDBRANCH  34  37
ENDBRANCH  32  33
ENDBRANCH  31  32
ENDBRANCH   1  31
TORSDOF 14
ENDMDL
