MODEL 1
REMARK VINA RESULT:     -11.5      0.000      0.000
REMARK SMILES CC(C)CSc1cc2c(cc1Cl)C=C(C(=O)NCCCCNC(=O)c1ccc(-c3c4nc(c(-c5ccccc5)c5ccc([nH]5)c(-c5ccccc5)c5nc(c(-c6ccccc6)c6ccc3[nH]6)C=C5)C=C4)cc1)[C@@H](C(F)(F)F)O2
REMARK SMILES IDX 19 1 18 2 17 3 15 4 16 5 14 7 6 8 7 9 11 10 8 11 10 12 12 13
REMARK SMILES IDX 9 14 78 15 13 16 73 17 5 18 4 19 2 20 1 21 3 22 74 23 75 24
REMARK SMILES IDX 76 25 77 26 20 27 21 28 22 29 23 30 24 32 25 33 26 34 72 35
REMARK SMILES IDX 27 36 71 37 28 38 29 39 30 40 65 41 31 42 70 43 64 44 66 45
REMARK SMILES IDX 32 46 69 47 63 48 62 49 33 51 55 52 40 53 54 54 41 55 44 56
REMARK SMILES IDX 53 57 67 58 42 59 43 60 52 62 68 63 45 64 34 65 35 66 39 67
REMARK SMILES IDX 36 68 38 69 37 70 56 71 57 72 61 73 58 74 60 75 59 76 46 77
REMARK SMILES IDX 47 78 51 79 48 80 50 81 49 82
REMARK H PARENT 17 6 22 31 66 50 44 61
REMARK Flexibility Score: inf
ROOT
ATOM      1  C   UNL A   1      37.354  22.381  24.410  1.00  0.00     0.023 C 
ENDROOT
BRANCH   1   2
ATOM      2  C   UNL A   1      37.017  23.475  25.417  1.00  0.00     0.116 C 
BRANCH   2   3
ATOM      3  N   UNL A   1      36.036  23.039  26.397  1.00  0.00    -0.352 N 
ATOM      4  C   UNL A   1      34.704  23.188  26.595  1.00  0.00     0.251 C 
ATOM      5  O   UNL A   1      34.251  22.614  27.591  1.00  0.00    -0.270 OA
ATOM      6  H   UNL A   1      36.449  22.491  27.103  1.00  0.00     0.163 HD
BRANCH   4   7
ATOM      7  C   UNL A   1      33.787  23.980  25.721  1.00  0.00     0.067 C 
ATOM      8  C   UNL A   1      31.219  27.784  23.584  1.00  0.00     0.030 A 
ATOM      9  C   UNL A   1      31.472  26.450  23.259  1.00  0.00     0.063 A 
ATOM     10  C   UNL A   1      31.635  28.234  24.853  1.00  0.00     0.055 A 
ATOM     11  C   UNL A   1      32.223  25.632  24.101  1.00  0.00     0.129 A 
ATOM     12  C   UNL A   1      32.354  27.391  25.720  1.00  0.00     0.033 A 
ATOM     13  Cl  UNL A   1      31.323  29.840  25.423  1.00  0.00    -0.083 Cl
ATOM     14  C   UNL A   1      32.679  26.092  25.328  1.00  0.00     0.019 A 
ATOM     15  O   UNL A   1      32.522  24.407  23.595  1.00  0.00    -0.475 OA
ATOM     16  C   UNL A   1      33.532  25.234  26.139  1.00  0.00     0.025 C 
ATOM     17  C   UNL A   1      33.155  23.441  24.470  1.00  0.00     0.314 C 
BRANCH   8  18
ATOM     18  S   UNL A   1      30.422  28.885  22.408  1.00  0.00    -0.124 SA
BRANCH  18  19
ATOM     19  C   UNL A   1      28.682  29.041  22.979  1.00  0.00     0.078 C 
BRANCH  19  20
ATOM     20  C   UNL A   1      27.884  30.250  22.451  1.00  0.00    -0.007 C 
ATOM     21  C   UNL A   1      27.570  31.325  23.491  1.00  0.00     0.008 C 
ATOM     22  C   UNL A   1      28.672  30.900  21.305  1.00  0.00     0.008 C 
ENDBRANCH  19  20
ENDBRANCH  18  19
ENDBRANCH   8  18
BRANCH  17  23
ATOM     23  C   UNL A   1      32.132  22.324  24.738  1.00  0.00     0.429 C 
ATOM     24  F   UNL A   1      31.274  22.702  25.721  1.00  0.00    -0.167 F 
ATOM     25  F   UNL A   1      31.369  22.034  23.660  1.00  0.00    -0.167 F 
ATOM     26  F   UNL A   1      32.718  21.173  25.133  1.00  0.00    -0.167 F 
ENDBRANCH  17  23
ENDBRANCH   4   7
ENDBRANCH   2   3
ENDBRANCH   1   2
BRANCH   1  27
ATOM     27  C   UNL A   1      37.724  21.040  25.045  1.00  0.00     0.023 C 
BRANCH  27  28
ATOM     28  C   UNL A   1      39.002  21.045  25.880  1.00  0.00     0.116 C 
BRANCH  28  29
ATOM     29  N   UNL A   1      39.814  19.843  25.742  1.00  0.00    -0.352 N 
ATOM     30  C   UNL A   1      41.147  19.697  26.057  1.00  0.00     0.251 C 
ATOM     31  H   UNL A   1      39.360  19.047  25.383  1.00  0.00     0.163 HD
ATOM     32  O   UNL A   1      41.743  18.646  25.859  1.00  0.00    -0.269 OA
BRANCH  30  33
ATOM     33  C   UNL A   1      41.851  20.875  26.592  1.00  0.00     0.039 A 
ATOM     34  C   UNL A   1      41.863  21.103  27.970  1.00  0.00     0.014 A 
ATOM     35  C   UNL A   1      42.338  21.829  25.696  1.00  0.00     0.014 A 
ATOM     36  C   UNL A   1      42.205  22.362  28.442  1.00  0.00     0.010 A 
ATOM     37  C   UNL A   1      42.747  23.070  26.183  1.00  0.00     0.010 A 
ATOM     38  C   UNL A   1      42.627  23.363  27.550  1.00  0.00    -0.014 A 
BRANCH  38  39
ATOM     39  C   UNL A   1      42.911  24.724  28.061  1.00  0.00     0.031 A 
ATOM     40  C   UNL A   1      44.325  25.162  28.332  1.00  0.00     0.074 A 
ATOM     41  C   UNL A   1      41.892  25.587  28.227  1.00  0.00     0.049 A 
ATOM     42  N   UNL A   1      44.754  26.303  28.807  1.00  0.00    -0.248 NA
ATOM     43  C   UNL A   1      45.397  24.198  28.030  1.00  0.00     0.031 C 
ATOM     44  C   UNL A   1      40.486  25.292  27.947  1.00  0.00     0.029 A 
ATOM     45  N   UNL A   1      41.885  26.892  28.645  1.00  0.00    -0.354 N 
ATOM     46  C   UNL A   1      46.137  26.189  28.881  1.00  0.00     0.074 A 
ATOM     47  C   UNL A   1      46.478  24.862  28.416  1.00  0.00     0.031 C 
ATOM     48  C   UNL A   1      39.759  26.398  28.151  1.00  0.00     0.029 A 
ATOM     49  C   UNL A   1      40.634  27.456  28.645  1.00  0.00     0.049 A 
ATOM     50  H   UNL A   1      42.697  27.377  28.918  1.00  0.00     0.167 HD
ATOM     51  C   UNL A   1      47.037  27.111  29.294  1.00  0.00     0.031 A 
ATOM     52  C   UNL A   1      40.228  28.682  29.023  1.00  0.00     0.031 A 
ATOM     53  C   UNL A   1      46.695  28.435  29.738  1.00  0.00     0.049 A 
ATOM     54  C   UNL A   1      41.235  29.653  29.561  1.00  0.00     0.074 A 
ATOM     55  C   UNL A   1      47.542  29.448  30.153  1.00  0.00     0.029 A 
ATOM     56  N   UNL A   1      45.403  28.930  29.825  1.00  0.00    -0.354 N 
ATOM     57  N   UNL A   1      42.536  29.520  29.652  1.00  0.00    -0.248 NA
ATOM     58  C   UNL A   1      40.719  30.930  30.072  1.00  0.00     0.031 C 
ATOM     59  C   UNL A   1      46.759  30.541  30.536  1.00  0.00     0.029 A 
ATOM     60  C   UNL A   1      45.428  30.223  30.318  1.00  0.00     0.049 A 
ATOM     61  H   UNL A   1      44.590  28.435  29.574  1.00  0.00     0.167 HD
ATOM     62  C   UNL A   1      42.996  30.692  30.234  1.00  0.00     0.074 A 
ATOM     63  C   UNL A   1      41.837  31.533  30.458  1.00  0.00     0.031 C 
ATOM     64  C   UNL A   1      44.264  31.035  30.555  1.00  0.00     0.031 A 
BRANCH  51  65
ATOM     65  C   UNL A   1      48.488  26.723  29.310  1.00  0.00    -0.014 A 
ATOM     66  C   UNL A   1      49.281  26.952  28.174  1.00  0.00     0.009 A 
ATOM     67  C   UNL A   1      49.048  26.053  30.409  1.00  0.00     0.009 A 
ATOM     68  C   UNL A   1      50.605  26.513  28.134  1.00  0.00     0.001 A 
ATOM     69  C   UNL A   1      50.381  25.631  30.372  1.00  0.00     0.001 A 
ATOM     70  C   UNL A   1      51.154  25.855  29.234  1.00  0.00     0.000 A 
ENDBRANCH  51  65
BRANCH  52  71
ATOM     71  C   UNL A   1      38.789  29.026  28.924  1.00  0.00    -0.014 A 
ATOM     72  C   UNL A   1      38.270  29.582  27.744  1.00  0.00     0.009 A 
ATOM     73  C   UNL A   1      37.948  28.877  30.035  1.00  0.00     0.009 A 
ATOM     74  C   UNL A   1      36.944  30.012  27.687  1.00  0.00     0.001 A 
ATOM     75  C   UNL A   1      36.614  29.288  29.967  1.00  0.00     0.001 A 
ATOM     76  C   UNL A   1      36.118  29.864  28.799  1.00  0.00     0.000 A 
ENDBRANCH  52  71
BRANCH  64  77
ATOM     77  C   UNL A   1      44.478  32.373  31.200  1.00  0.00    -0.014 A 
ATOM     78  C   UNL A   1      44.416  32.495  32.596  1.00  0.00     0.009 A 
ATOM     79  C   UNL A   1      44.646  33.523  30.416  1.00  0.00     0.009 A 
ATOM     80  C   UNL A   1      44.506  33.752  33.197  1.00  0.00     0.001 A 
ATOM     81  C   UNL A   1      44.754  34.775  31.021  1.00  0.00     0.001 A 
ATOM     82  C   UNL A   1      44.677  34.890  32.409  1.00  0.00     0.000 A 
ENDBRANCH  64  77
ENDBRANCH  38  39
ENDBRANCH  30  33
ENDBRANCH  28  29
ENDBRANCH  27  28
ENDBRANCH   1  27
TORSDOF 15
ENDMDL
MODEL 2
REMARK VINA RESULT:     -11.4      4.723      9.722
REMARK SMILES CC(C)CSc1cc2c(cc1Cl)C=C(C(=O)NCCCCNC(=O)c1ccc(-c3c4nc(c(-c5ccccc5)c5ccc([nH]5)c(-c5ccccc5)c5nc(c(-c6ccccc6)c6ccc3[nH]6)C=C5)C=C4)cc1)[C@@H](C(F)(F)F)O2
REMARK SMILES IDX 19 1 18 2 17 3 15 4 16 5 14 7 6 8 7 9 11 10 8 11 10 12 12 13
REMARK SMILES IDX 9 14 78 15 13 16 73 17 5 18 4 19 2 20 1 21 3 22 74 23 75 24
REMARK SMILES IDX 76 25 77 26 20 27 21 28 22 29 23 30 24 32 25 33 26 34 72 35
REMARK SMILES IDX 27 36 71 37 28 38 29 39 30 40 65 41 31 42 70 43 64 44 66 45
REMARK SMILES IDX 32 46 69 47 63 48 62 49 33 51 55 52 40 53 54 54 41 55 44 56
REMARK SMILES IDX 53 57 67 58 42 59 43 60 52 62 68 63 45 64 34 65 35 66 39 67
REMARK SMILES IDX 36 68 38 69 37 70 56 71 57 72 61 73 58 74 60 75 59 76 46 77
REMARK SMILES IDX 47 78 51 79 48 80 50 81 49 82
REMARK H PARENT 17 6 22 31 66 50 44 61
REMARK Flexibility Score: inf
ROOT
ATOM      1  C   UNL A   1      32.323  30.177  27.197  1.00  0.00     0.023 C 
ENDROOT
BRANCH   1   2
ATOM      2  C   UNL A   1      33.590  29.634  26.545  1.00  0.00     0.116 C 
BRANCH   2   3
ATOM      3  N   UNL A   1      33.532  29.693  25.094  1.00  0.00    -0.352 N 
ATOM      4  C   UNL A   1      33.223  28.846  24.083  1.00  0.00     0.251 C 
ATOM      5  O   UNL A   1      33.296  29.331  22.949  1.00  0.00    -0.270 OA
ATOM      6  H   UNL A   1      33.783  30.583  24.758  1.00  0.00     0.163 HD
BRANCH   4   7
ATOM      7  C   UNL A   1      32.825  27.416  24.249  1.00  0.00     0.067 C 
ATOM      8  C   UNL A   1      32.951  22.399  24.921  1.00  0.00     0.030 A 
ATOM      9  C   UNL A   1      31.961  23.383  24.964  1.00  0.00     0.063 A 
ATOM     10  C   UNL A   1      34.229  22.784  24.469  1.00  0.00     0.055 A 
ATOM     11  C   UNL A   1      32.258  24.719  24.699  1.00  0.00     0.129 A 
ATOM     12  C   UNL A   1      34.513  24.126  24.157  1.00  0.00     0.033 A 
ATOM     13  Cl  UNL A   1      35.534  21.657  24.291  1.00  0.00    -0.083 Cl
ATOM     14  C   UNL A   1      33.531  25.106  24.305  1.00  0.00     0.019 A 
ATOM     15  O   UNL A   1      31.239  25.589  24.924  1.00  0.00    -0.475 OA
ATOM     16  C   UNL A   1      33.821  26.520  24.120  1.00  0.00     0.025 C 
ATOM     17  C   UNL A   1      31.415  26.969  24.517  1.00  0.00     0.314 C 
BRANCH   8  18
ATOM     18  S   UNL A   1      32.605  20.718  25.454  1.00  0.00    -0.124 SA
BRANCH  18  19
ATOM     19  C   UNL A   1      32.570  19.711  23.918  1.00  0.00     0.078 C 
BRANCH  19  20
ATOM     20  C   UNL A   1      32.421  18.185  24.091  1.00  0.00    -0.007 C 
ATOM     21  C   UNL A   1      33.286  17.340  23.158  1.00  0.00     0.008 C 
ATOM     22  C   UNL A   1      32.768  17.817  25.541  1.00  0.00     0.008 C 
ENDBRANCH  19  20
ENDBRANCH  18  19
ENDBRANCH   8  18
BRANCH  17  23
ATOM     23  C   UNL A   1      30.462  27.224  23.336  1.00  0.00     0.429 C 
ATOM     24  F   UNL A   1      29.383  26.403  23.419  1.00  0.00    -0.167 F 
ATOM     25  F   UNL A   1      29.978  28.486  23.311  1.00  0.00    -0.167 F 
ATOM     26  F   UNL A   1      31.051  26.999  22.142  1.00  0.00    -0.167 F 
ENDBRANCH  17  23
ENDBRANCH   4   7
ENDBRANCH   2   3
ENDBRANCH   1   2
BRANCH   1  27
ATOM     27  C   UNL A   1      32.026  31.638  26.862  1.00  0.00     0.023 C 
BRANCH  27  28
ATOM     28  C   UNL A   1      33.017  32.652  27.429  1.00  0.00     0.116 C 
BRANCH  28  29
ATOM     29  N   UNL A   1      32.457  33.978  27.654  1.00  0.00    -0.352 N 
ATOM     30  C   UNL A   1      32.940  34.954  28.497  1.00  0.00     0.251 C 
ATOM     31  H   UNL A   1      31.642  34.201  27.148  1.00  0.00     0.163 HD
ATOM     32  O   UNL A   1      32.360  36.024  28.641  1.00  0.00    -0.269 OA
BRANCH  30  33
ATOM     33  C   UNL A   1      34.155  34.644  29.270  1.00  0.00     0.039 A 
ATOM     34  C   UNL A   1      35.400  34.680  28.638  1.00  0.00     0.014 A 
ATOM     35  C   UNL A   1      34.016  34.149  30.568  1.00  0.00     0.014 A 
ATOM     36  C   UNL A   1      36.482  34.060  29.246  1.00  0.00     0.010 A 
ATOM     37  C   UNL A   1      35.123  33.589  31.203  1.00  0.00     0.010 A 
ATOM     38  C   UNL A   1      36.347  33.487  30.522  1.00  0.00    -0.014 A 
BRANCH  38  39
ATOM     39  C   UNL A   1      37.489  32.758  31.121  1.00  0.00     0.031 A 
ATOM     40  C   UNL A   1      38.016  33.142  32.477  1.00  0.00     0.074 A 
ATOM     41  C   UNL A   1      38.015  31.711  30.461  1.00  0.00     0.049 A 
ATOM     42  N   UNL A   1      39.024  32.633  33.140  1.00  0.00    -0.248 NA
ATOM     43  C   UNL A   1      37.325  34.233  33.184  1.00  0.00     0.031 C 
ATOM     44  C   UNL A   1      37.553  31.215  29.164  1.00  0.00     0.029 A 
ATOM     45  N   UNL A   1      39.034  30.860  30.802  1.00  0.00    -0.354 N 
ATOM     46  C   UNL A   1      39.101  33.352  34.326  1.00  0.00     0.074 A 
ATOM     47  C   UNL A   1      38.048  34.343  34.291  1.00  0.00     0.031 C 
ATOM     48  C   UNL A   1      38.250  30.117  28.842  1.00  0.00     0.029 A 
ATOM     49  C   UNL A   1      39.254  29.875  29.873  1.00  0.00     0.049 A 
ATOM     50  H   UNL A   1      39.556  30.947  31.633  1.00  0.00     0.167 HD
ATOM     51  C   UNL A   1      39.969  33.193  35.352  1.00  0.00     0.031 A 
ATOM     52  C   UNL A   1      40.178  28.898  29.837  1.00  0.00     0.031 A 
ATOM     53  C   UNL A   1      41.003  32.194  35.392  1.00  0.00     0.049 A 
ATOM     54  C   UNL A   1      41.184  28.800  30.944  1.00  0.00     0.074 A 
ATOM     55  C   UNL A   1      41.915  31.941  36.401  1.00  0.00     0.029 A 
ATOM     56  N   UNL A   1      41.260  31.284  34.378  1.00  0.00    -0.354 N 
ATOM     57  N   UNL A   1      41.263  29.506  32.046  1.00  0.00    -0.248 NA
ATOM     58  C   UNL A   1      42.243  27.793  30.793  1.00  0.00     0.031 C 
ATOM     59  C   UNL A   1      42.757  30.909  35.978  1.00  0.00     0.029 A 
ATOM     60  C   UNL A   1      42.339  30.490  34.724  1.00  0.00     0.049 A 
ATOM     61  H   UNL A   1      40.752  31.215  33.538  1.00  0.00     0.167 HD
ATOM     62  C   UNL A   1      42.379  29.034  32.719  1.00  0.00     0.074 A 
ATOM     63  C   UNL A   1      42.938  27.968  31.910  1.00  0.00     0.031 C 
ATOM     64  C   UNL A   1      42.895  29.451  33.898  1.00  0.00     0.031 A 
BRANCH  51  65
ATOM     65  C   UNL A   1      39.862  34.132  36.519  1.00  0.00    -0.014 A 
ATOM     66  C   UNL A   1      39.070  33.779  37.624  1.00  0.00     0.009 A 
ATOM     67  C   UNL A   1      40.466  35.398  36.491  1.00  0.00     0.009 A 
ATOM     68  C   UNL A   1      38.880  34.677  38.676  1.00  0.00     0.001 A 
ATOM     69  C   UNL A   1      40.290  36.287  37.555  1.00  0.00     0.001 A 
ATOM     70  C   UNL A   1      39.492  35.929  38.641  1.00  0.00     0.000 A 
ENDBRANCH  51  65
BRANCH  52  71
ATOM     71  C   UNL A   1      40.193  27.963  28.687  1.00  0.00    -0.014 A 
ATOM     72  C   UNL A   1      39.579  26.703  28.786  1.00  0.00     0.009 A 
ATOM     73  C   UNL A   1      40.889  28.292  27.516  1.00  0.00     0.009 A 
ATOM     74  C   UNL A   1      39.690  25.778  27.748  1.00  0.00     0.001 A 
ATOM     75  C   UNL A   1      40.979  27.371  26.468  1.00  0.00     0.001 A 
ATOM     76  C   UNL A   1      40.390  26.113  26.590  1.00  0.00     0.000 A 
ENDBRANCH  52  71
BRANCH  64  77
ATOM     77  C   UNL A   1      44.137  28.769  34.391  1.00  0.00    -0.014 A 
ATOM     78  C   UNL A   1      45.398  29.260  34.024  1.00  0.00     0.009 A 
ATOM     79  C   UNL A   1      44.051  27.586  35.140  1.00  0.00     0.009 A 
ATOM     80  C   UNL A   1      46.555  28.570  34.387  1.00  0.00     0.001 A 
ATOM     81  C   UNL A   1      45.210  26.909  35.518  1.00  0.00     0.001 A 
ATOM     82  C   UNL A   1      46.460  27.396  35.136  1.00  0.00     0.000 A 
ENDBRANCH  64  77
ENDBRANCH  38  39
ENDBRANCH  30  33
ENDBRANCH  28  29
ENDBRANCH  27  28
ENDBRANCH   1  27
TORSDOF 15
ENDMDL
MODEL 3
REMARK VINA RESULT:     -11.4      1.778      6.215
REMARK SMILES CC(C)CSc1cc2c(cc1Cl)C=C(C(=O)NCCCCNC(=O)c1ccc(-c3c4nc(c(-c5ccccc5)c5ccc([nH]5)c(-c5ccccc5)c5nc(c(-c6ccccc6)c6ccc3[nH]6)C=C5)C=C4)cc1)[C@@H](C(F)(F)F)O2
REMARK SMILES IDX 19 1 18 2 17 3 15 4 16 5 14 7 6 8 7 9 11 10 8 11 10 12 12 13
REMARK SMILES IDX 9 14 78 15 13 16 73 17 5 18 4 19 2 20 1 21 3 22 74 23 75 24
REMARK SMILES IDX 76 25 77 26 20 27 21 28 22 29 23 30 24 32 25 33 26 34 72 35
REMARK SMILES IDX 27 36 71 37 28 38 29 39 30 40 65 41 31 42 70 43 64 44 66 45
REMARK SMILES IDX 32 46 69 47 63 48 62 49 33 51 55 52 40 53 54 54 41 55 44 56
REMARK SMILES IDX 53 57 67 58 42 59 43 60 52 62 68 63 45 64 34 65 35 66 39 67
REMARK SMILES IDX 36 68 38 69 37 70 56 71 57 72 61 73 58 74 60 75 59 76 46 77
REMARK SMILES IDX 47 78 51 79 48 80 50 81 49 82
REMARK H PARENT 17 6 22 31 66 50 44 61
REMARK Flexibility Score: inf
ROOT
ATOM      1  C   UNL A   1      36.218  20.947  25.421  1.00  0.00     0.023 C 
ENDROOT
BRANCH   1   2
ATOM      2  C   UNL A   1      35.802  19.714  24.627  1.00  0.00     0.116 C 
BRANCH   2   3
ATOM      3  N   UNL A   1      34.494  19.220  25.022  1.00  0.00    -0.352 N 
ATOM      4  C   UNL A   1      33.255  19.739  25.203  1.00  0.00     0.251 C 
ATOM      5  O   UNL A   1      32.388  18.928  25.545  1.00  0.00    -0.270 OA
ATOM      6  H   UNL A   1      34.512  18.253  25.206  1.00  0.00     0.163 HD
BRANCH   4   7
ATOM      7  C   UNL A   1      32.891  21.177  25.031  1.00  0.00     0.067 C 
ATOM      8  C   UNL A   1      31.772  25.683  23.009  1.00  0.00     0.030 A 
ATOM      9  C   UNL A   1      31.665  25.108  24.277  1.00  0.00     0.063 A 
ATOM     10  C   UNL A   1      32.457  24.949  22.020  1.00  0.00     0.055 A 
ATOM     11  C   UNL A   1      32.101  23.806  24.520  1.00  0.00     0.129 A 
ATOM     12  C   UNL A   1      32.937  23.653  22.282  1.00  0.00     0.033 A 
ATOM     13  Cl  UNL A   1      32.733  25.566  20.424  1.00  0.00    -0.083 Cl
ATOM     14  C   UNL A   1      32.728  23.064  23.530  1.00  0.00     0.019 A 
ATOM     15  O   UNL A   1      31.799  23.320  25.752  1.00  0.00    -0.475 OA
ATOM     16  C   UNL A   1      33.091  21.680  23.798  1.00  0.00     0.025 C 
ATOM     17  C   UNL A   1      32.360  22.041  26.139  1.00  0.00     0.314 C 
BRANCH   8  18
ATOM     18  S   UNL A   1      31.031  27.281  22.655  1.00  0.00    -0.124 SA
BRANCH  18  19
ATOM     19  C   UNL A   1      32.398  28.501  22.802  1.00  0.00     0.078 C 
BRANCH  19  20
ATOM     20  C   UNL A   1      32.668  29.074  24.209  1.00  0.00    -0.007 C 
ATOM     21  C   UNL A   1      31.467  29.061  25.155  1.00  0.00     0.008 C 
ATOM     22  C   UNL A   1      33.805  28.273  24.859  1.00  0.00     0.008 C 
ENDBRANCH  19  20
ENDBRANCH  18  19
ENDBRANCH   8  18
BRANCH  17  23
ATOM     23  C   UNL A   1      33.391  22.309  27.249  1.00  0.00     0.429 C 
ATOM     24  F   UNL A   1      34.011  21.153  27.601  1.00  0.00    -0.167 F 
ATOM     25  F   UNL A   1      34.367  23.163  26.869  1.00  0.00    -0.167 F 
ATOM     26  F   UNL A   1      32.825  22.820  28.364  1.00  0.00    -0.167 F 
ENDBRANCH  17  23
ENDBRANCH   4   7
ENDBRANCH   2   3
ENDBRANCH   1   2
BRANCH   1  27
ATOM     27  C   UNL A   1      37.504  21.606  24.923  1.00  0.00     0.023 C 
BRANCH  27  28
ATOM     28  C   UNL A   1      38.708  21.474  25.853  1.00  0.00     0.116 C 
BRANCH  28  29
ATOM     29  N   UNL A   1      39.469  20.243  25.681  1.00  0.00    -0.352 N 
ATOM     30  C   UNL A   1      40.790  20.028  26.002  1.00  0.00     0.251 C 
ATOM     31  H   UNL A   1      38.984  19.480  25.290  1.00  0.00     0.163 HD
ATOM     32  O   UNL A   1      41.342  18.959  25.773  1.00  0.00    -0.269 OA
BRANCH  30  33
ATOM     33  C   UNL A   1      41.540  21.155  26.583  1.00  0.00     0.039 A 
ATOM     34  C   UNL A   1      41.504  21.366  27.963  1.00  0.00     0.014 A 
ATOM     35  C   UNL A   1      42.121  22.088  25.723  1.00  0.00     0.014 A 
ATOM     36  C   UNL A   1      41.901  22.597  28.468  1.00  0.00     0.010 A 
ATOM     37  C   UNL A   1      42.583  23.296  26.244  1.00  0.00     0.010 A 
ATOM     38  C   UNL A   1      42.421  23.581  27.609  1.00  0.00    -0.014 A 
BRANCH  38  39
ATOM     39  C   UNL A   1      42.763  24.916  28.150  1.00  0.00     0.031 A 
ATOM     40  C   UNL A   1      41.695  25.957  28.353  1.00  0.00     0.074 A 
ATOM     41  C   UNL A   1      44.034  25.170  28.511  1.00  0.00     0.049 A 
ATOM     42  N   UNL A   1      41.819  27.186  28.788  1.00  0.00    -0.248 NA
ATOM     43  C   UNL A   1      40.311  25.573  28.031  1.00  0.00     0.031 C 
ATOM     44  C   UNL A   1      45.144  24.221  28.408  1.00  0.00     0.029 A 
ATOM     45  N   UNL A   1      44.600  26.291  29.060  1.00  0.00    -0.354 N 
ATOM     46  C   UNL A   1      40.539  27.725  28.772  1.00  0.00     0.074 A 
ATOM     47  C   UNL A   1      39.652  26.698  28.272  1.00  0.00     0.031 C 
ATOM     48  C   UNL A   1      46.245  24.780  28.926  1.00  0.00     0.029 A 
ATOM     49  C   UNL A   1      45.938  26.149  29.329  1.00  0.00     0.049 A 
ATOM     50  H   UNL A   1      44.096  27.117  29.244  1.00  0.00     0.167 HD
ATOM     51  C   UNL A   1      40.143  28.964  29.147  1.00  0.00     0.031 A 
ATOM     52  C   UNL A   1      46.829  27.028  29.822  1.00  0.00     0.031 A 
ATOM     53  C   UNL A   1      41.025  29.976  29.661  1.00  0.00     0.049 A 
ATOM     54  C   UNL A   1      46.381  28.421  30.145  1.00  0.00     0.074 A 
ATOM     55  C   UNL A   1      40.711  31.253  30.091  1.00  0.00     0.029 A 
ATOM     56  N   UNL A   1      42.394  29.825  29.816  1.00  0.00    -0.354 N 
ATOM     57  N   UNL A   1      45.172  28.926  30.097  1.00  0.00    -0.248 NA
ATOM     58  C   UNL A   1      47.419  29.373  30.563  1.00  0.00     0.031 C 
ATOM     59  C   UNL A   1      41.897  31.893  30.461  1.00  0.00     0.029 A 
ATOM     60  C   UNL A   1      42.944  30.998  30.304  1.00  0.00     0.049 A 
ATOM     61  H   UNL A   1      42.900  29.006  29.609  1.00  0.00     0.167 HD
ATOM     62  C   UNL A   1      45.302  30.254  30.474  1.00  0.00     0.074 A 
ATOM     63  C   UNL A   1      46.705  30.473  30.766  1.00  0.00     0.031 C 
ATOM     64  C   UNL A   1      44.343  31.205  30.566  1.00  0.00     0.031 A 
BRANCH  51  65
ATOM     65  C   UNL A   1      38.690  29.315  28.999  1.00  0.00    -0.014 A 
ATOM     66  C   UNL A   1      37.819  29.140  30.087  1.00  0.00     0.009 A 
ATOM     67  C   UNL A   1      38.165  29.732  27.766  1.00  0.00     0.009 A 
ATOM     68  C   UNL A   1      36.450  29.369  29.942  1.00  0.00     0.001 A 
ATOM     69  C   UNL A   1      36.797  29.979  27.630  1.00  0.00     0.001 A 
ATOM     70  C   UNL A   1      35.941  29.791  28.715  1.00  0.00     0.000 A 
ENDBRANCH  51  65
BRANCH  52  71
ATOM     71  C   UNL A   1      48.237  26.601  30.004  1.00  0.00    -0.014 A 
ATOM     72  C   UNL A   1      49.166  26.751  28.961  1.00  0.00     0.009 A 
ATOM     73  C   UNL A   1      48.638  25.968  31.188  1.00  0.00     0.009 A 
ATOM     74  C   UNL A   1      50.460  26.246  29.088  1.00  0.00     0.001 A 
ATOM     75  C   UNL A   1      49.942  25.483  31.321  1.00  0.00     0.001 A 
ATOM     76  C   UNL A   1      50.847  25.613  30.268  1.00  0.00     0.000 A 
ENDBRANCH  52  71
BRANCH  64  77
ATOM     77  C   UNL A   1      44.769  32.580  30.986  1.00  0.00    -0.014 A 
ATOM     78  C   UNL A   1      44.764  32.932  32.344  1.00  0.00     0.009 A 
ATOM     79  C   UNL A   1      45.084  33.553  30.026  1.00  0.00     0.009 A 
ATOM     80  C   UNL A   1      45.054  34.240  32.734  1.00  0.00     0.001 A 
ATOM     81  C   UNL A   1      45.392  34.855  30.420  1.00  0.00     0.001 A 
ATOM     82  C   UNL A   1      45.370  35.199  31.772  1.00  0.00     0.000 A 
ENDBRANCH  64  77
ENDBRANCH  38  39
ENDBRANCH  30  33
ENDBRANCH  28  29
ENDBRANCH  27  28
ENDBRANCH   1  27
TORSDOF 15
ENDMDL
