MODEL 1
REMARK VINA RESULT:     -11.5      0.000      0.000
REMARK SMILES Cc1nsc(N[C@H](C)c2cccs2)c1C(=O)NCCCCNC(=O)c1ccc(-c2c3nc(c(-c4ccccc4)c4ccc([nH]4)c(-c4ccccc4)c4nc(c(-c5ccccc5)c5ccc2[nH]5)C=C4)C=C3)cc1
REMARK SMILES IDX 19 1 18 2 17 3 15 4 16 5 14 7 1 8 2 9 3 10 4 11 5 12 6 13
REMARK SMILES IDX 7 15 8 16 9 17 10 18 13 19 11 20 12 21 20 22 21 23 22 24
REMARK SMILES IDX 23 25 24 27 25 28 26 29 72 30 27 31 71 32 28 33 29 34 30 35
REMARK SMILES IDX 65 36 31 37 70 38 64 39 66 40 32 41 69 42 63 43 62 44 33 46
REMARK SMILES IDX 55 47 40 48 54 49 41 50 44 51 53 52 67 53 42 54 43 55 52 57
REMARK SMILES IDX 68 58 45 59 34 60 35 61 39 62 36 63 38 64 37 65 56 66 57 67
REMARK SMILES IDX 61 68 58 69 60 70 59 71 46 72 47 73 51 74 48 75 50 76 49 77
REMARK H PARENT 17 6 6 14 22 26 66 45 44 56
REMARK Flexibility Score: inf
ROOT
ATOM      1  C   UNL A   1      31.541  30.522  26.165  1.00  0.00     0.023 C 
ENDROOT
BRANCH   1   2
ATOM      2  C   UNL A   1      32.938  29.991  25.859  1.00  0.00     0.116 C 
BRANCH   2   3
ATOM      3  N   UNL A   1      33.215  29.663  24.485  1.00  0.00    -0.352 N 
ATOM      4  C   UNL A   1      32.761  28.696  23.616  1.00  0.00     0.256 C 
ATOM      5  O   UNL A   1      33.123  28.906  22.448  1.00  0.00    -0.269 OA
ATOM      6  H   UNL A   1      33.879  30.263  24.075  1.00  0.00     0.163 HD
BRANCH   4   7
ATOM      7  C   UNL A   1      32.013  27.463  23.966  1.00  0.00     0.097 A 
ATOM      8  C   UNL A   1      33.301  26.092  25.896  1.00  0.00     0.069 C 
ATOM      9  C   UNL A   1      32.274  26.317  24.839  1.00  0.00     0.066 A 
ATOM     10  N   UNL A   1      31.433  25.288  24.722  1.00  0.00    -0.195 NA
ATOM     11  S   UNL A   1      30.201  25.695  23.735  1.00  0.00    -0.018 S 
ATOM     12  C   UNL A   1      30.688  27.319  23.479  1.00  0.00     0.123 A 
BRANCH  12  13
ATOM     13  N   UNL A   1      29.943  28.282  22.862  1.00  0.00    -0.368 N 
ATOM     14  H   UNL A   1      30.221  28.501  21.943  1.00  0.00     0.162 HD
BRANCH  13  15
ATOM     15  C   UNL A   1      28.792  29.041  23.356  1.00  0.00     0.117 C 
ATOM     16  C   UNL A   1      27.439  28.322  23.240  1.00  0.00     0.037 C 
BRANCH  15  17
ATOM     17  C   UNL A   1      28.725  30.495  22.941  1.00  0.00     0.027 A 
ATOM     18  C   UNL A   1      28.961  31.645  23.670  1.00  0.00     0.017 A 
ATOM     19  S   UNL A   1      28.228  30.882  21.333  1.00  0.00    -0.147 S 
ATOM     20  C   UNL A   1      28.737  32.833  22.913  1.00  0.00     0.012 A 
ATOM     21  C   UNL A   1      28.330  32.558  21.628  1.00  0.00     0.065 A 
ENDBRANCH  15  17
ENDBRANCH  13  15
ENDBRANCH  12  13
ENDBRANCH   4   7
ENDBRANCH   2   3
ENDBRANCH   1   2
BRANCH   1  22
ATOM     22  C   UNL A   1      31.411  32.000  26.543  1.00  0.00     0.023 C 
BRANCH  22  23
ATOM     23  C   UNL A   1      32.602  32.608  27.275  1.00  0.00     0.116 C 
BRANCH  23  24
ATOM     24  N   UNL A   1      32.412  34.002  27.692  1.00  0.00    -0.352 N 
ATOM     25  C   UNL A   1      33.046  34.660  28.735  1.00  0.00     0.251 C 
ATOM     26  H   UNL A   1      31.762  34.529  27.174  1.00  0.00     0.163 HD
ATOM     27  O   UNL A   1      32.561  35.664  29.251  1.00  0.00    -0.269 OA
BRANCH  25  28
ATOM     28  C   UNL A   1      34.344  34.143  29.199  1.00  0.00     0.039 A 
ATOM     29  C   UNL A   1      34.491  33.376  30.358  1.00  0.00     0.014 A 
ATOM     30  C   UNL A   1      35.432  34.408  28.377  1.00  0.00     0.014 A 
ATOM     31  C   UNL A   1      35.736  32.807  30.627  1.00  0.00     0.010 A 
ATOM     32  C   UNL A   1      36.581  33.688  28.527  1.00  0.00     0.010 A 
ATOM     33  C   UNL A   1      36.771  32.956  29.692  1.00  0.00    -0.014 A 
BRANCH  33  34
ATOM     34  C   UNL A   1      38.061  32.301  29.844  1.00  0.00     0.031 A 
ATOM     35  C   UNL A   1      38.098  30.883  29.406  1.00  0.00     0.074 A 
ATOM     36  C   UNL A   1      39.190  32.998  30.095  1.00  0.00     0.049 A 
ATOM     37  N   UNL A   1      38.251  29.840  30.149  1.00  0.00    -0.248 NA
ATOM     38  C   UNL A   1      37.810  30.573  27.995  1.00  0.00     0.031 C 
ATOM     39  C   UNL A   1      39.361  34.455  30.192  1.00  0.00     0.029 A 
ATOM     40  N   UNL A   1      40.469  32.549  30.172  1.00  0.00    -0.354 N 
ATOM     41  C   UNL A   1      38.285  28.751  29.284  1.00  0.00     0.074 A 
ATOM     42  C   UNL A   1      37.818  29.238  28.011  1.00  0.00     0.031 C 
ATOM     43  C   UNL A   1      40.668  34.767  30.047  1.00  0.00     0.029 A 
ATOM     44  C   UNL A   1      41.436  33.537  30.026  1.00  0.00     0.049 A 
ATOM     45  H   UNL A   1      40.693  31.602  30.318  1.00  0.00     0.167 HD
ATOM     46  C   UNL A   1      38.939  27.603  29.620  1.00  0.00     0.031 A 
ATOM     47  C   UNL A   1      42.769  33.347  29.858  1.00  0.00     0.031 A 
ATOM     48  C   UNL A   1      39.308  27.599  31.015  1.00  0.00     0.049 A 
ATOM     49  C   UNL A   1      43.076  31.966  30.302  1.00  0.00     0.074 A 
ATOM     50  C   UNL A   1      38.615  27.705  32.205  1.00  0.00     0.029 A 
ATOM     51  N   UNL A   1      40.618  27.902  31.313  1.00  0.00    -0.354 N 
ATOM     52  N   UNL A   1      42.989  31.579  31.542  1.00  0.00    -0.248 NA
ATOM     53  C   UNL A   1      43.011  30.902  29.311  1.00  0.00     0.031 C 
ATOM     54  C   UNL A   1      39.428  28.545  33.024  1.00  0.00     0.029 A 
ATOM     55  C   UNL A   1      40.605  28.824  32.328  1.00  0.00     0.049 A 
ATOM     56  H   UNL A   1      41.417  27.526  30.877  1.00  0.00     0.167 HD
ATOM     57  C   UNL A   1      42.400  30.323  31.476  1.00  0.00     0.074 A 
ATOM     58  C   UNL A   1      42.533  29.916  30.077  1.00  0.00     0.031 C 
ATOM     59  C   UNL A   1      41.597  29.865  32.483  1.00  0.00     0.031 A 
BRANCH  46  60
ATOM     60  C   UNL A   1      39.622  26.690  28.632  1.00  0.00    -0.014 A 
ATOM     61  C   UNL A   1      40.544  27.254  27.729  1.00  0.00     0.009 A 
ATOM     62  C   UNL A   1      39.196  25.378  28.359  1.00  0.00     0.009 A 
ATOM     63  C   UNL A   1      40.940  26.577  26.570  1.00  0.00     0.001 A 
ATOM     64  C   UNL A   1      39.625  24.681  27.226  1.00  0.00     0.001 A 
ATOM     65  C   UNL A   1      40.470  25.294  26.314  1.00  0.00     0.000 A 
ENDBRANCH  46  60
BRANCH  47  66
ATOM     66  C   UNL A   1      43.738  34.174  29.107  1.00  0.00    -0.014 A 
ATOM     67  C   UNL A   1      43.528  34.477  27.753  1.00  0.00     0.009 A 
ATOM     68  C   UNL A   1      44.738  34.894  29.789  1.00  0.00     0.009 A 
ATOM     69  C   UNL A   1      44.259  35.491  27.118  1.00  0.00     0.001 A 
ATOM     70  C   UNL A   1      45.470  35.904  29.155  1.00  0.00     0.001 A 
ATOM     71  C   UNL A   1      45.219  36.215  27.823  1.00  0.00     0.000 A 
ENDBRANCH  47  66
BRANCH  59  72
ATOM     72  C   UNL A   1      41.550  30.646  33.775  1.00  0.00    -0.014 A 
ATOM     73  C   UNL A   1      40.674  31.724  34.000  1.00  0.00     0.009 A 
ATOM     74  C   UNL A   1      42.308  30.174  34.857  1.00  0.00     0.009 A 
ATOM     75  C   UNL A   1      40.591  32.330  35.259  1.00  0.00     0.001 A 
ATOM     76  C   UNL A   1      42.207  30.763  36.118  1.00  0.00     0.001 A 
ATOM     77  C   UNL A   1      41.355  31.847  36.318  1.00  0.00     0.000 A 
ENDBRANCH  59  72
ENDBRANCH  33  34
ENDBRANCH  25  28
ENDBRANCH  23  24
ENDBRANCH  22  23
ENDBRANCH   1  22
TORSDOF 14
ENDMDL
MODEL 2
REMARK VINA RESULT:     -11.2      4.538      9.150
REMARK SMILES Cc1nsc(N[C@H](C)c2cccs2)c1C(=O)NCCCCNC(=O)c1ccc(-c2c3nc(c(-c4ccccc4)c4ccc([nH]4)c(-c4ccccc4)c4nc(c(-c5ccccc5)c5ccc2[nH]5)C=C4)C=C3)cc1
REMARK SMILES IDX 19 1 18 2 17 3 15 4 16 5 14 7 1 8 2 9 3 10 4 11 5 12 6 13
REMARK SMILES IDX 7 15 8 16 9 17 10 18 13 19 11 20 12 21 20 22 21 23 22 24
REMARK SMILES IDX 23 25 24 27 25 28 26 29 72 30 27 31 71 32 28 33 29 34 30 35
REMARK SMILES IDX 65 36 31 37 70 38 64 39 66 40 32 41 69 42 63 43 62 44 33 46
REMARK SMILES IDX 55 47 40 48 54 49 41 50 44 51 53 52 67 53 42 54 43 55 52 57
REMARK SMILES IDX 68 58 45 59 34 60 35 61 39 62 36 63 38 64 37 65 56 66 57 67
REMARK SMILES IDX 61 68 58 69 60 70 59 71 46 72 47 73 51 74 48 75 50 76 49 77
REMARK H PARENT 17 6 6 14 22 26 66 45 44 56
REMARK Flexibility Score: inf
ROOT
ATOM      1  C   UNL A   1      39.018  22.086  26.191  1.00  0.00     0.023 C 
ENDROOT
BRANCH   1   2
ATOM      2  C   UNL A   1      37.735  22.783  25.750  1.00  0.00     0.116 C 
BRANCH   2   3
ATOM      3  N   UNL A   1      37.471  22.810  24.336  1.00  0.00    -0.352 N 
ATOM      4  C   UNL A   1      36.327  22.828  23.570  1.00  0.00     0.256 C 
ATOM      5  O   UNL A   1      36.565  23.056  22.374  1.00  0.00    -0.269 OA
ATOM      6  H   UNL A   1      38.293  22.816  23.794  1.00  0.00     0.163 HD
BRANCH   4   7
ATOM      7  C   UNL A   1      34.947  22.519  24.021  1.00  0.00     0.097 A 
ATOM      8  C   UNL A   1      34.808  20.002  24.976  1.00  0.00     0.069 C 
ATOM      9  C   UNL A   1      34.274  21.316  24.513  1.00  0.00     0.066 A 
ATOM     10  N   UNL A   1      32.946  21.390  24.620  1.00  0.00    -0.195 NA
ATOM     11  S   UNL A   1      32.457  22.919  24.335  1.00  0.00    -0.018 S 
ATOM     12  C   UNL A   1      34.023  23.588  24.138  1.00  0.00     0.123 A 
BRANCH  12  13
ATOM     13  N   UNL A   1      34.310  24.921  24.055  1.00  0.00    -0.368 N 
ATOM     14  H   UNL A   1      35.251  25.156  24.226  1.00  0.00     0.162 HD
BRANCH  13  15
ATOM     15  C   UNL A   1      33.434  26.054  23.751  1.00  0.00     0.117 C 
ATOM     16  C   UNL A   1      33.541  26.594  22.317  1.00  0.00     0.037 C 
BRANCH  15  17
ATOM     17  C   UNL A   1      33.381  27.152  24.792  1.00  0.00     0.027 A 
ATOM     18  C   UNL A   1      33.789  28.471  24.723  1.00  0.00     0.017 A 
ATOM     19  S   UNL A   1      32.781  26.780  26.368  1.00  0.00    -0.147 S 
ATOM     20  C   UNL A   1      33.610  29.168  25.955  1.00  0.00     0.012 A 
ATOM     21  C   UNL A   1      33.074  28.362  26.933  1.00  0.00     0.065 A 
ENDBRANCH  15  17
ENDBRANCH  13  15
ENDBRANCH  12  13
ENDBRANCH   4   7
ENDBRANCH   2   3
ENDBRANCH   1   2
BRANCH   1  22
ATOM     22  C   UNL A   1      39.386  20.771  25.499  1.00  0.00     0.023 C 
BRANCH  22  23
ATOM     23  C   UNL A   1      39.925  19.668  26.403  1.00  0.00     0.116 C 
BRANCH  23  24
ATOM     24  N   UNL A   1      41.158  19.035  25.923  1.00  0.00    -0.352 N 
ATOM     25  C   UNL A   1      42.367  19.655  25.648  1.00  0.00     0.251 C 
ATOM     26  H   UNL A   1      41.123  18.062  25.781  1.00  0.00     0.163 HD
ATOM     27  O   UNL A   1      43.197  19.141  24.900  1.00  0.00    -0.269 OA
BRANCH  25  28
ATOM     28  C   UNL A   1      42.655  20.943  26.299  1.00  0.00     0.039 A 
ATOM     29  C   UNL A   1      43.036  22.088  25.594  1.00  0.00     0.014 A 
ATOM     30  C   UNL A   1      42.466  20.983  27.675  1.00  0.00     0.014 A 
ATOM     31  C   UNL A   1      43.136  23.295  26.288  1.00  0.00     0.010 A 
ATOM     32  C   UNL A   1      42.360  22.188  28.306  1.00  0.00     0.010 A 
ATOM     33  C   UNL A   1      42.778  23.335  27.644  1.00  0.00    -0.014 A 
BRANCH  33  34
ATOM     34  C   UNL A   1      42.747  24.573  28.406  1.00  0.00     0.031 A 
ATOM     35  C   UNL A   1      41.599  25.465  28.105  1.00  0.00     0.074 A 
ATOM     36  C   UNL A   1      43.533  24.764  29.489  1.00  0.00     0.049 A 
ATOM     37  N   UNL A   1      41.637  26.620  27.534  1.00  0.00    -0.248 NA
ATOM     38  C   UNL A   1      40.235  24.968  28.355  1.00  0.00     0.031 C 
ATOM     39  C   UNL A   1      44.461  23.816  30.122  1.00  0.00     0.029 A 
ATOM     40  N   UNL A   1      43.555  25.813  30.350  1.00  0.00    -0.354 N 
ATOM     41  C   UNL A   1      40.330  27.094  27.532  1.00  0.00     0.074 A 
ATOM     42  C   UNL A   1      39.497  25.967  27.866  1.00  0.00     0.031 C 
ATOM     43  C   UNL A   1      44.738  24.227  31.379  1.00  0.00     0.029 A 
ATOM     44  C   UNL A   1      44.156  25.541  31.573  1.00  0.00     0.049 A 
ATOM     45  H   UNL A   1      43.176  26.693  30.126  1.00  0.00     0.167 HD
ATOM     46  C   UNL A   1      40.064  28.431  27.511  1.00  0.00     0.031 A 
ATOM     47  C   UNL A   1      44.136  26.328  32.678  1.00  0.00     0.031 A 
ATOM     48  C   UNL A   1      41.251  29.198  27.220  1.00  0.00     0.049 A 
ATOM     49  C   UNL A   1      43.768  27.695  32.238  1.00  0.00     0.074 A 
ATOM     50  C   UNL A   1      42.157  29.230  26.178  1.00  0.00     0.029 A 
ATOM     51  N   UNL A   1      41.882  29.796  28.288  1.00  0.00    -0.354 N 
ATOM     52  N   UNL A   1      44.538  28.437  31.496  1.00  0.00    -0.248 NA
ATOM     53  C   UNL A   1      42.355  28.046  32.218  1.00  0.00     0.031 C 
ATOM     54  C   UNL A   1      43.429  29.376  26.809  1.00  0.00     0.029 A 
ATOM     55  C   UNL A   1      43.220  29.518  28.181  1.00  0.00     0.049 A 
ATOM     56  H   UNL A   1      41.451  30.326  28.997  1.00  0.00     0.167 HD
ATOM     57  C   UNL A   1      43.678  29.025  30.577  1.00  0.00     0.074 A 
ATOM     58  C   UNL A   1      42.339  28.831  31.135  1.00  0.00     0.031 C 
ATOM     59  C   UNL A   1      44.099  29.342  29.316  1.00  0.00     0.031 A 
BRANCH  46  60
ATOM     60  C   UNL A   1      38.863  29.072  28.163  1.00  0.00    -0.014 A 
ATOM     61  C   UNL A   1      38.638  28.829  29.532  1.00  0.00     0.009 A 
ATOM     62  C   UNL A   1      37.806  29.658  27.445  1.00  0.00     0.009 A 
ATOM     63  C   UNL A   1      37.392  29.069  30.122  1.00  0.00     0.001 A 
ATOM     64  C   UNL A   1      36.573  29.941  28.042  1.00  0.00     0.001 A 
ATOM     65  C   UNL A   1      36.357  29.615  29.372  1.00  0.00     0.000 A 
ENDBRANCH  46  60
BRANCH  47  66
ATOM     66  C   UNL A   1      44.158  25.931  34.103  1.00  0.00    -0.014 A 
ATOM     67  C   UNL A   1      43.031  25.351  34.705  1.00  0.00     0.009 A 
ATOM     68  C   UNL A   1      45.376  25.872  34.807  1.00  0.00     0.009 A 
ATOM     69  C   UNL A   1      43.128  24.699  35.942  1.00  0.00     0.001 A 
ATOM     70  C   UNL A   1      45.473  25.225  36.044  1.00  0.00     0.001 A 
ATOM     71  C   UNL A   1      44.351  24.623  36.605  1.00  0.00     0.000 A 
ENDBRANCH  47  66
BRANCH  59  72
ATOM     72  C   UNL A   1      45.577  29.262  29.012  1.00  0.00    -0.014 A 
ATOM     73  C   UNL A   1      46.226  28.079  28.616  1.00  0.00     0.009 A 
ATOM     74  C   UNL A   1      46.305  30.460  28.973  1.00  0.00     0.009 A 
ATOM     75  C   UNL A   1      47.571  28.093  28.231  1.00  0.00     0.001 A 
ATOM     76  C   UNL A   1      47.640  30.478  28.565  1.00  0.00     0.001 A 
ATOM     77  C   UNL A   1      48.276  29.293  28.202  1.00  0.00     0.000 A 
ENDBRANCH  59  72
ENDBRANCH  33  34
ENDBRANCH  25  28
ENDBRANCH  23  24
ENDBRANCH  22  23
ENDBRANCH   1  22
TORSDOF 14
ENDMDL
MODEL 3
REMARK VINA RESULT:     -11.1      4.980      9.906
REMARK SMILES Cc1nsc(N[C@H](C)c2cccs2)c1C(=O)NCCCCNC(=O)c1ccc(-c2c3nc(c(-c4ccccc4)c4ccc([nH]4)c(-c4ccccc4)c4nc(c(-c5ccccc5)c5ccc2[nH]5)C=C4)C=C3)cc1
REMARK SMILES IDX 19 1 18 2 17 3 15 4 16 5 14 7 1 8 2 9 3 10 4 11 5 12 6 13
REMARK SMILES IDX 7 15 8 16 9 17 10 18 13 19 11 20 12 21 20 22 21 23 22 24
REMARK SMILES IDX 23 25 24 27 25 28 26 29 72 30 27 31 71 32 28 33 29 34 30 35
REMARK SMILES IDX 65 36 31 37 70 38 64 39 66 40 32 41 69 42 63 43 62 44 33 46
REMARK SMILES IDX 55 47 40 48 54 49 41 50 44 51 53 52 67 53 42 54 43 55 52 57
REMARK SMILES IDX 68 58 45 59 34 60 35 61 39 62 36 63 38 64 37 65 56 66 57 67
REMARK SMILES IDX 61 68 58 69 60 70 59 71 46 72 47 73 51 74 48 75 50 76 49 77
REMARK H PARENT 17 6 6 14 22 26 66 45 44 56
REMARK Flexibility Score: inf
ROOT
ATOM      1  C   UNL A   1      39.295  22.107  25.967  1.00  0.00     0.023 C 
ENDROOT
BRANCH   1   2
ATOM      2  C   UNL A   1      37.975  22.863  25.851  1.00  0.00     0.116 C 
BRANCH   2   3
ATOM      3  N   UNL A   1      37.316  22.812  24.573  1.00  0.00    -0.352 N 
ATOM      4  C   UNL A   1      36.040  23.093  24.136  1.00  0.00     0.256 C 
ATOM      5  O   UNL A   1      35.959  23.101  22.898  1.00  0.00    -0.269 OA
ATOM      6  H   UNL A   1      37.908  22.506  23.848  1.00  0.00     0.163 HD
BRANCH   4   7
ATOM      7  C   UNL A   1      34.830  23.272  24.975  1.00  0.00     0.097 A 
ATOM      8  C   UNL A   1      34.029  25.846  24.939  1.00  0.00     0.069 C 
ATOM      9  C   UNL A   1      34.039  24.429  25.402  1.00  0.00     0.066 A 
ATOM     10  N   UNL A   1      33.125  24.196  26.345  1.00  0.00    -0.195 NA
ATOM     11  S   UNL A   1      33.021  22.594  26.627  1.00  0.00    -0.018 S 
ATOM     12  C   UNL A   1      34.146  22.114  25.425  1.00  0.00     0.123 A 
BRANCH  12  13
ATOM     13  N   UNL A   1      34.374  20.830  25.020  1.00  0.00    -0.368 N 
ATOM     14  H   UNL A   1      35.133  20.383  25.459  1.00  0.00     0.162 HD
BRANCH  13  15
ATOM     15  C   UNL A   1      33.662  20.015  24.033  1.00  0.00     0.117 C 
ATOM     16  C   UNL A   1      32.330  20.602  23.543  1.00  0.00     0.037 C 
BRANCH  15  17
ATOM     17  C   UNL A   1      33.581  18.533  24.328  1.00  0.00     0.027 A 
ATOM     18  C   UNL A   1      34.081  17.452  23.625  1.00  0.00     0.017 A 
ATOM     19  S   UNL A   1      32.694  18.004  25.712  1.00  0.00    -0.147 S 
ATOM     20  C   UNL A   1      33.738  16.202  24.221  1.00  0.00     0.012 A 
ATOM     21  C   UNL A   1      32.982  16.361  25.359  1.00  0.00     0.065 A 
ENDBRANCH  15  17
ENDBRANCH  13  15
ENDBRANCH  12  13
ENDBRANCH   4   7
ENDBRANCH   2   3
ENDBRANCH   1   2
BRANCH   1  22
ATOM     22  C   UNL A   1      39.327  20.656  25.480  1.00  0.00     0.023 C 
BRANCH  22  23
ATOM     23  C   UNL A   1      39.936  19.642  26.442  1.00  0.00     0.116 C 
BRANCH  23  24
ATOM     24  N   UNL A   1      41.168  19.008  25.959  1.00  0.00    -0.352 N 
ATOM     25  C   UNL A   1      42.375  19.628  25.674  1.00  0.00     0.251 C 
ATOM     26  H   UNL A   1      41.134  18.035  25.822  1.00  0.00     0.163 HD
ATOM     27  O   UNL A   1      43.202  19.112  24.925  1.00  0.00    -0.269 OA
BRANCH  25  28
ATOM     28  C   UNL A   1      42.664  20.920  26.318  1.00  0.00     0.039 A 
ATOM     29  C   UNL A   1      43.051  22.059  25.607  1.00  0.00     0.014 A 
ATOM     30  C   UNL A   1      42.472  20.969  27.693  1.00  0.00     0.014 A 
ATOM     31  C   UNL A   1      43.152  23.270  26.292  1.00  0.00     0.010 A 
ATOM     32  C   UNL A   1      42.367  22.179  28.315  1.00  0.00     0.010 A 
ATOM     33  C   UNL A   1      42.789  23.320  27.646  1.00  0.00    -0.014 A 
BRANCH  33  34
ATOM     34  C   UNL A   1      42.760  24.563  28.401  1.00  0.00     0.031 A 
ATOM     35  C   UNL A   1      41.605  25.448  28.104  1.00  0.00     0.074 A 
ATOM     36  C   UNL A   1      43.554  24.766  29.475  1.00  0.00     0.049 A 
ATOM     37  N   UNL A   1      41.633  26.600  27.524  1.00  0.00    -0.248 NA
ATOM     38  C   UNL A   1      40.246  24.947  28.368  1.00  0.00     0.031 C 
ATOM     39  C   UNL A   1      44.492  23.827  30.106  1.00  0.00     0.029 A 
ATOM     40  N   UNL A   1      43.579  25.821  30.328  1.00  0.00    -0.354 N 
ATOM     41  C   UNL A   1      40.323  27.068  27.530  1.00  0.00     0.074 A 
ATOM     42  C   UNL A   1      39.498  25.939  27.880  1.00  0.00     0.031 C 
ATOM     43  C   UNL A   1      44.779  24.248  31.358  1.00  0.00     0.029 A 
ATOM     44  C   UNL A   1      44.192  25.561  31.548  1.00  0.00     0.049 A 
ATOM     45  H   UNL A   1      43.194  26.698  30.102  1.00  0.00     0.167 HD
ATOM     46  C   UNL A   1      40.051  28.403  27.502  1.00  0.00     0.031 A 
ATOM     47  C   UNL A   1      44.178  26.355  32.647  1.00  0.00     0.031 A 
ATOM     48  C   UNL A   1      41.232  29.173  27.195  1.00  0.00     0.049 A 
ATOM     49  C   UNL A   1      43.800  27.717  32.201  1.00  0.00     0.074 A 
ATOM     50  C   UNL A   1      42.128  29.202  26.145  1.00  0.00     0.029 A 
ATOM     51  N   UNL A   1      41.869  29.782  28.253  1.00  0.00    -0.354 N 
ATOM     52  N   UNL A   1      44.560  28.458  31.447  1.00  0.00    -0.248 NA
ATOM     53  C   UNL A   1      42.385  28.061  32.191  1.00  0.00     0.031 C 
ATOM     54  C   UNL A   1      43.405  29.358  26.764  1.00  0.00     0.029 A 
ATOM     55  C   UNL A   1      43.208  29.509  28.137  1.00  0.00     0.049 A 
ATOM     56  H   UNL A   1      41.443  30.315  28.962  1.00  0.00     0.167 HD
ATOM     57  C   UNL A   1      43.689  29.035  30.532  1.00  0.00     0.074 A 
ATOM     58  C   UNL A   1      42.356  28.839  31.103  1.00  0.00     0.031 C 
ATOM     59  C   UNL A   1      44.097  29.345  29.265  1.00  0.00     0.031 A 
BRANCH  46  60
ATOM     60  C   UNL A   1      38.853  29.043  28.160  1.00  0.00    -0.014 A 
ATOM     61  C   UNL A   1      38.648  28.819  29.535  1.00  0.00     0.009 A 
ATOM     62  C   UNL A   1      37.780  29.608  27.448  1.00  0.00     0.009 A 
ATOM     63  C   UNL A   1      37.408  29.057  30.138  1.00  0.00     0.001 A 
ATOM     64  C   UNL A   1      36.554  29.889  28.056  1.00  0.00     0.001 A 
ATOM     65  C   UNL A   1      36.358  29.582  29.394  1.00  0.00     0.000 A 
ENDBRANCH  46  60
BRANCH  47  66
ATOM     66  C   UNL A   1      44.214  25.968  34.075  1.00  0.00    -0.014 A 
ATOM     67  C   UNL A   1      45.243  26.420  34.917  1.00  0.00     0.009 A 
ATOM     68  C   UNL A   1      43.091  25.373  34.680  1.00  0.00     0.009 A 
ATOM     69  C   UNL A   1      45.131  26.321  36.310  1.00  0.00     0.001 A 
ATOM     70  C   UNL A   1      42.980  25.271  36.071  1.00  0.00     0.001 A 
ATOM     71  C   UNL A   1      43.994  25.760  36.888  1.00  0.00     0.000 A 
ENDBRANCH  47  66
BRANCH  59  72
ATOM     72  C   UNL A   1      45.573  29.270  28.949  1.00  0.00    -0.014 A 
ATOM     73  C   UNL A   1      46.223  28.087  28.553  1.00  0.00     0.009 A 
ATOM     74  C   UNL A   1      46.296  30.471  28.897  1.00  0.00     0.009 A 
ATOM     75  C   UNL A   1      47.565  28.105  28.156  1.00  0.00     0.001 A 
ATOM     76  C   UNL A   1      47.627  30.492  28.477  1.00  0.00     0.001 A 
ATOM     77  C   UNL A   1      48.265  29.308  28.114  1.00  0.00     0.000 A 
ENDBRANCH  59  72
ENDBRANCH  33  34
ENDBRANCH  25  28
ENDBRANCH  23  24
ENDBRANCH  22  23
ENDBRANCH   1  22
TORSDOF 14
ENDMDL
