MODEL 1
REMARK VINA RESULT:     -11.9      0.000      0.000
REMARK SMILES O=C(COc1ccc(N2C[C@@H](C(=O)NCCCCNC(=O)c3ccc(-c4c5nc(c(-c6ccccc6)c6ccc([nH]6)c(-c6ccccc6)c6nc(c(-c7ccccc7)c7ccc4[nH]7)C=C6)C=C5)cc3)CC2=O)cc1)Nc1ccc(Cl)cc1Cl
REMARK SMILES IDX 15 1 14 2 12 3 13 4 11 6 9 7 10 8 71 9 70 10 72 11 8 12 5 13
REMARK SMILES IDX 6 14 74 15 7 16 73 17 4 18 3 19 2 20 1 21 75 22 76 24 77 25
REMARK SMILES IDX 82 26 78 27 81 28 83 29 79 30 80 31 16 32 17 33 18 34 19 35
REMARK SMILES IDX 20 36 21 38 22 39 23 40 69 41 24 42 68 43 25 44 26 45 27 46
REMARK SMILES IDX 62 47 28 48 67 49 61 50 63 51 29 52 66 53 60 54 59 55 30 57
REMARK SMILES IDX 52 58 37 59 51 60 38 61 41 62 50 63 64 64 39 65 40 66 49 68
REMARK SMILES IDX 65 69 42 70 31 71 32 72 36 73 33 74 35 75 34 76 53 77 54 78
REMARK SMILES IDX 58 79 55 80 57 81 56 82 43 83 44 84 48 85 45 86 47 87 46 88
REMARK H PARENT 14 5 75 23 19 37 63 56 41 67
REMARK Flexibility Score: inf
ROOT
ATOM      1  C   UNL A   1      35.991  20.651  25.225  1.00  0.00     0.116 C 
ENDROOT
BRANCH   1   2
ATOM      2  N   UNL A   1      35.353  19.399  24.857  1.00  0.00    -0.356 N 
ATOM      3  C   UNL A   1      34.049  19.028  24.808  1.00  0.00     0.225 C 
ATOM      4  O   UNL A   1      33.806  17.875  24.441  1.00  0.00    -0.275 OA
ATOM      5  H   UNL A   1      35.983  18.689  24.594  1.00  0.00     0.163 HD
BRANCH   3   6
ATOM      6  C   UNL A   1      32.907  19.962  25.150  1.00  0.00     0.107 C 
ATOM      7  N   UNL A   1      32.416  22.185  24.538  1.00  0.00    -0.312 N 
ATOM      8  C   UNL A   1      32.506  20.856  23.989  1.00  0.00     0.139 C 
ATOM      9  C   UNL A   1      32.822  22.248  25.870  1.00  0.00     0.227 C 
ATOM     10  C   UNL A   1      33.166  20.866  26.343  1.00  0.00     0.116 C 
ATOM     11  O   UNL A   1      32.886  23.230  26.600  1.00  0.00    -0.274 OA
BRANCH   7  12
ATOM     12  C   UNL A   1      32.034  23.305  23.763  1.00  0.00     0.044 A 
ATOM     13  C   UNL A   1      31.359  25.613  22.293  1.00  0.00     0.120 A 
ATOM     14  C   UNL A   1      30.416  25.012  23.123  1.00  0.00     0.048 A 
ATOM     15  C   UNL A   1      32.632  25.060  22.194  1.00  0.00     0.048 A 
ATOM     16  C   UNL A   1      30.740  23.842  23.831  1.00  0.00     0.030 A 
ATOM     17  C   UNL A   1      32.965  23.922  22.926  1.00  0.00     0.030 A 
BRANCH  13  18
ATOM     18  O   UNL A   1      31.055  26.817  21.715  1.00  0.00    -0.484 OA
BRANCH  18  19
ATOM     19  C   UNL A   1      30.457  27.746  22.622  1.00  0.00     0.329 C 
BRANCH  19  20
ATOM     20  C   UNL A   1      31.434  28.704  23.313  1.00  0.00     0.262 C 
ATOM     21  O   UNL A   1      32.305  29.285  22.675  1.00  0.00    -0.271 OA
ATOM     22  N   UNL A   1      31.272  28.725  24.694  1.00  0.00    -0.322 N 
ATOM     23  H   UNL A   1      30.504  28.237  25.071  1.00  0.00     0.170 HD
BRANCH  22  24
ATOM     24  C   UNL A   1      32.129  29.396  25.599  1.00  0.00     0.060 A 
ATOM     25  C   UNL A   1      31.757  30.712  25.922  1.00  0.00     0.029 A 
ATOM     26  C   UNL A   1      33.279  28.854  26.202  1.00  0.00     0.066 A 
ATOM     27  C   UNL A   1      32.455  31.435  26.893  1.00  0.00     0.023 A 
ATOM     28  C   UNL A   1      33.971  29.579  27.180  1.00  0.00     0.043 A 
ATOM     29  Cl  UNL A   1      34.034  27.393  25.663  1.00  0.00    -0.082 Cl
ATOM     30  C   UNL A   1      33.547  30.857  27.532  1.00  0.00     0.042 A 
ATOM     31  Cl  UNL A   1      34.397  31.741  28.738  1.00  0.00    -0.084 Cl
ENDBRANCH  22  24
ENDBRANCH  19  20
ENDBRANCH  18  19
ENDBRANCH  13  18
ENDBRANCH   7  12
ENDBRANCH   3   6
ENDBRANCH   1   2
BRANCH   1  32
ATOM     32  C   UNL A   1      37.403  20.764  24.647  1.00  0.00     0.023 C 
BRANCH  32  33
ATOM     33  C   UNL A   1      38.318  19.575  24.946  1.00  0.00     0.023 C 
BRANCH  33  34
ATOM     34  C   UNL A   1      39.357  19.813  26.034  1.00  0.00     0.116 C 
BRANCH  34  35
ATOM     35  N   UNL A   1      40.463  18.870  25.980  1.00  0.00    -0.352 N 
ATOM     36  C   UNL A   1      41.813  19.110  26.076  1.00  0.00     0.251 C 
ATOM     37  H   UNL A   1      40.209  17.927  25.856  1.00  0.00     0.163 HD
ATOM     38  O   UNL A   1      42.616  18.209  25.865  1.00  0.00    -0.269 OA
BRANCH  36  39
ATOM     39  C   UNL A   1      42.296  20.468  26.405  1.00  0.00     0.039 A 
ATOM     40  C   UNL A   1      42.597  21.347  25.362  1.00  0.00     0.014 A 
ATOM     41  C   UNL A   1      42.442  20.877  27.733  1.00  0.00     0.014 A 
ATOM     42  C   UNL A   1      42.983  22.657  25.652  1.00  0.00     0.010 A 
ATOM     43  C   UNL A   1      42.742  22.205  28.019  1.00  0.00     0.010 A 
ATOM     44  C   UNL A   1      43.025  23.108  26.982  1.00  0.00    -0.014 A 
BRANCH  44  45
ATOM     45  C   UNL A   1      43.374  24.513  27.308  1.00  0.00     0.031 A 
ATOM     46  C   UNL A   1      44.804  24.975  27.222  1.00  0.00     0.074 A 
ATOM     47  C   UNL A   1      42.417  25.361  27.736  1.00  0.00     0.049 A 
ATOM     48  N   UNL A   1      45.312  26.148  27.509  1.00  0.00    -0.248 NA
ATOM     49  C   UNL A   1      45.799  23.983  26.782  1.00  0.00     0.031 C 
ATOM     50  C   UNL A   1      41.000  25.028  27.901  1.00  0.00     0.029 A 
ATOM     51  N   UNL A   1      42.494  26.678  28.112  1.00  0.00    -0.354 N 
ATOM     52  C   UNL A   1      46.680  26.027  27.301  1.00  0.00     0.074 A 
ATOM     53  C   UNL A   1      46.932  24.654  26.920  1.00  0.00     0.031 C 
ATOM     54  C   UNL A   1      40.337  26.122  28.311  1.00  0.00     0.029 A 
ATOM     55  C   UNL A   1      41.286  27.217  28.482  1.00  0.00     0.049 A 
ATOM     56  H   UNL A   1      43.336  27.189  28.116  1.00  0.00     0.167 HD
ATOM     57  C   UNL A   1      47.641  26.976  27.394  1.00  0.00     0.031 A 
ATOM     58  C   UNL A   1      40.975  28.454  28.915  1.00  0.00     0.031 A 
ATOM     59  C   UNL A   1      47.391  28.344  27.765  1.00  0.00     0.049 A 
ATOM     60  C   UNL A   1      42.064  29.485  29.032  1.00  0.00     0.074 A 
ATOM     61  C   UNL A   1      48.289  29.394  27.836  1.00  0.00     0.029 A 
ATOM     62  N   UNL A   1      46.153  28.849  28.131  1.00  0.00    -0.354 N 
ATOM     63  N   UNL A   1      43.343  29.373  28.762  1.00  0.00    -0.248 NA
ATOM     64  C   UNL A   1      41.662  30.819  29.500  1.00  0.00     0.031 C 
ATOM     65  C   UNL A   1      47.605  30.521  28.303  1.00  0.00     0.029 A 
ATOM     66  C   UNL A   1      46.269  30.190  28.456  1.00  0.00     0.049 A 
ATOM     67  H   UNL A   1      45.316  28.331  28.156  1.00  0.00     0.167 HD
ATOM     68  C   UNL A   1      43.890  30.629  28.993  1.00  0.00     0.074 A 
ATOM     69  C   UNL A   1      42.802  31.490  29.410  1.00  0.00     0.031 C 
ATOM     70  C   UNL A   1      45.177  31.035  28.868  1.00  0.00     0.031 A 
BRANCH  57  71
ATOM     71  C   UNL A   1      49.057  26.561  27.101  1.00  0.00    -0.014 A 
ATOM     72  C   UNL A   1      49.860  25.957  28.082  1.00  0.00     0.009 A 
ATOM     73  C   UNL A   1      49.586  26.745  25.814  1.00  0.00     0.009 A 
ATOM     74  C   UNL A   1      51.175  25.586  27.792  1.00  0.00     0.001 A 
ATOM     75  C   UNL A   1      50.890  26.343  25.517  1.00  0.00     0.001 A 
ATOM     76  C   UNL A   1      51.686  25.774  26.509  1.00  0.00     0.000 A 
ENDBRANCH  57  71
BRANCH  58  77
ATOM     77  C   UNL A   1      39.569  28.797  29.256  1.00  0.00    -0.014 A 
ATOM     78  C   UNL A   1      38.704  29.315  28.281  1.00  0.00     0.009 A 
ATOM     79  C   UNL A   1      39.088  28.622  30.564  1.00  0.00     0.009 A 
ATOM     80  C   UNL A   1      37.398  29.683  28.615  1.00  0.00     0.001 A 
ATOM     81  C   UNL A   1      37.771  28.959  30.886  1.00  0.00     0.001 A 
ATOM     82  C   UNL A   1      36.931  29.500  29.915  1.00  0.00     0.000 A 
ENDBRANCH  58  77
BRANCH  70  83
ATOM     83  C   UNL A   1      45.474  32.484  29.139  1.00  0.00    -0.014 A 
ATOM     84  C   UNL A   1      45.864  32.930  30.411  1.00  0.00     0.009 A 
ATOM     85  C   UNL A   1      45.396  33.413  28.088  1.00  0.00     0.009 A 
ATOM     86  C   UNL A   1      46.132  34.283  30.634  1.00  0.00     0.001 A 
ATOM     87  C   UNL A   1      45.698  34.758  28.306  1.00  0.00     0.001 A 
ATOM     88  C   UNL A   1      46.055  35.193  29.580  1.00  0.00     0.000 A 
ENDBRANCH  70  83
ENDBRANCH  44  45
ENDBRANCH  36  39
ENDBRANCH  34  35
ENDBRANCH  33  34
ENDBRANCH  32  33
ENDBRANCH   1  32
TORSDOF 16
ENDMDL
MODEL 2
REMARK VINA RESULT:     -11.9      0.498      5.623
REMARK SMILES O=C(COc1ccc(N2C[C@@H](C(=O)NCCCCNC(=O)c3ccc(-c4c5nc(c(-c6ccccc6)c6ccc([nH]6)c(-c6ccccc6)c6nc(c(-c7ccccc7)c7ccc4[nH]7)C=C6)C=C5)cc3)CC2=O)cc1)Nc1ccc(Cl)cc1Cl
REMARK SMILES IDX 15 1 14 2 12 3 13 4 11 6 9 7 10 8 71 9 70 10 72 11 8 12 5 13
REMARK SMILES IDX 6 14 74 15 7 16 73 17 4 18 3 19 2 20 1 21 75 22 76 24 77 25
REMARK SMILES IDX 82 26 78 27 81 28 83 29 79 30 80 31 16 32 17 33 18 34 19 35
REMARK SMILES IDX 20 36 21 38 22 39 23 40 69 41 24 42 68 43 25 44 26 45 27 46
REMARK SMILES IDX 62 47 28 48 67 49 61 50 63 51 29 52 66 53 60 54 59 55 30 57
REMARK SMILES IDX 52 58 37 59 51 60 38 61 41 62 50 63 64 64 39 65 40 66 49 68
REMARK SMILES IDX 65 69 42 70 31 71 32 72 36 73 33 74 35 75 34 76 53 77 54 78
REMARK SMILES IDX 58 79 55 80 57 81 56 82 43 83 44 84 48 85 45 86 47 87 46 88
REMARK H PARENT 14 5 75 23 19 37 63 56 41 67
REMARK Flexibility Score: inf
ROOT
ATOM      1  C   UNL A   1      36.003  21.134  25.251  1.00  0.00     0.116 C 
ENDROOT
BRANCH   1   2
ATOM      2  N   UNL A   1      35.557  19.791  24.924  1.00  0.00    -0.356 N 
ATOM      3  C   UNL A   1      34.317  19.249  24.819  1.00  0.00     0.225 C 
ATOM      4  O   UNL A   1      34.250  18.056  24.511  1.00  0.00    -0.275 OA
ATOM      5  H   UNL A   1      36.290  19.158  24.744  1.00  0.00     0.163 HD
BRANCH   3   6
ATOM      6  C   UNL A   1      33.044  20.040  25.033  1.00  0.00     0.107 C 
ATOM      7  N   UNL A   1      32.405  22.234  24.456  1.00  0.00    -0.312 N 
ATOM      8  C   UNL A   1      32.714  20.956  23.867  1.00  0.00     0.139 C 
ATOM      9  C   UNL A   1      32.613  22.259  25.833  1.00  0.00     0.227 C 
ATOM     10  C   UNL A   1      33.035  20.893  26.290  1.00  0.00     0.116 C 
ATOM     11  O   UNL A   1      32.467  23.198  26.608  1.00  0.00    -0.274 OA
BRANCH   7  12
ATOM     12  C   UNL A   1      32.015  23.353  23.684  1.00  0.00     0.044 A 
ATOM     13  C   UNL A   1      31.326  25.660  22.219  1.00  0.00     0.120 A 
ATOM     14  C   UNL A   1      30.391  25.061  23.059  1.00  0.00     0.048 A 
ATOM     15  C   UNL A   1      32.597  25.106  22.106  1.00  0.00     0.048 A 
ATOM     16  C   UNL A   1      30.723  23.892  23.765  1.00  0.00     0.030 A 
ATOM     17  C   UNL A   1      32.937  23.969  22.836  1.00  0.00     0.030 A 
BRANCH  13  18
ATOM     18  O   UNL A   1      31.015  26.863  21.643  1.00  0.00    -0.484 OA
BRANCH  18  19
ATOM     19  C   UNL A   1      30.445  27.801  22.559  1.00  0.00     0.329 C 
BRANCH  19  20
ATOM     20  C   UNL A   1      31.448  28.725  23.257  1.00  0.00     0.262 C 
ATOM     21  O   UNL A   1      32.408  29.187  22.649  1.00  0.00    -0.271 OA
ATOM     22  N   UNL A   1      31.193  28.859  24.617  1.00  0.00    -0.322 N 
ATOM     23  H   UNL A   1      30.362  28.462  24.966  1.00  0.00     0.170 HD
BRANCH  22  24
ATOM     24  C   UNL A   1      32.038  29.523  25.537  1.00  0.00     0.060 A 
ATOM     25  C   UNL A   1      31.636  30.819  25.902  1.00  0.00     0.029 A 
ATOM     26  C   UNL A   1      33.205  28.992  26.118  1.00  0.00     0.066 A 
ATOM     27  C   UNL A   1      32.322  31.530  26.891  1.00  0.00     0.023 A 
ATOM     28  C   UNL A   1      33.885  29.704  27.115  1.00  0.00     0.043 A 
ATOM     29  Cl  UNL A   1      33.993  27.567  25.532  1.00  0.00    -0.082 Cl
ATOM     30  C   UNL A   1      33.431  30.960  27.507  1.00  0.00     0.042 A 
ATOM     31  Cl  UNL A   1      34.266  31.828  28.735  1.00  0.00    -0.084 Cl
ENDBRANCH  22  24
ENDBRANCH  19  20
ENDBRANCH  18  19
ENDBRANCH  13  18
ENDBRANCH   7  12
ENDBRANCH   3   6
ENDBRANCH   1   2
BRANCH   1  32
ATOM     32  C   UNL A   1      37.439  21.387  24.792  1.00  0.00     0.023 C 
BRANCH  32  33
ATOM     33  C   UNL A   1      38.364  20.171  24.869  1.00  0.00     0.023 C 
BRANCH  33  34
ATOM     34  C   UNL A   1      39.308  20.148  26.064  1.00  0.00     0.116 C 
BRANCH  34  35
ATOM     35  N   UNL A   1      40.365  19.157  25.935  1.00  0.00    -0.352 N 
ATOM     36  C   UNL A   1      41.726  19.323  26.040  1.00  0.00     0.251 C 
ATOM     37  H   UNL A   1      40.064  18.240  25.745  1.00  0.00     0.163 HD
ATOM     38  O   UNL A   1      42.482  18.400  25.759  1.00  0.00    -0.269 OA
BRANCH  36  39
ATOM     39  C   UNL A   1      42.277  20.627  26.462  1.00  0.00     0.039 A 
ATOM     40  C   UNL A   1      42.750  21.507  25.486  1.00  0.00     0.014 A 
ATOM     41  C   UNL A   1      42.319  20.987  27.812  1.00  0.00     0.014 A 
ATOM     42  C   UNL A   1      43.205  22.774  25.859  1.00  0.00     0.010 A 
ATOM     43  C   UNL A   1      42.690  22.278  28.172  1.00  0.00     0.010 A 
ATOM     44  C   UNL A   1      43.146  23.183  27.201  1.00  0.00    -0.014 A 
BRANCH  44  45
ATOM     45  C   UNL A   1      43.570  24.546  27.610  1.00  0.00     0.031 A 
ATOM     46  C   UNL A   1      42.538  25.579  27.972  1.00  0.00     0.074 A 
ATOM     47  C   UNL A   1      44.877  24.873  27.602  1.00  0.00     0.049 A 
ATOM     48  N   UNL A   1      42.708  26.834  28.310  1.00  0.00    -0.248 NA
ATOM     49  C   UNL A   1      41.128  25.159  27.922  1.00  0.00     0.031 C 
ATOM     50  C   UNL A   1      45.975  23.975  27.235  1.00  0.00     0.029 A 
ATOM     51  N   UNL A   1      45.504  26.054  27.912  1.00  0.00    -0.354 N 
ATOM     52  C   UNL A   1      41.432  27.351  28.495  1.00  0.00     0.074 A 
ATOM     53  C   UNL A   1      40.496  26.295  28.176  1.00  0.00     0.031 C 
ATOM     54  C   UNL A   1      47.140  24.627  27.374  1.00  0.00     0.029 A 
ATOM     55  C   UNL A   1      46.872  25.998  27.795  1.00  0.00     0.049 A 
ATOM     56  H   UNL A   1      45.019  26.863  28.193  1.00  0.00     0.167 HD
ATOM     57  C   UNL A   1      41.068  28.586  28.913  1.00  0.00     0.031 A 
ATOM     58  C   UNL A   1      47.807  26.946  27.999  1.00  0.00     0.031 A 
ATOM     59  C   UNL A   1      41.998  29.635  29.238  1.00  0.00     0.049 A 
ATOM     60  C   UNL A   1      47.376  28.318  28.443  1.00  0.00     0.074 A 
ATOM     61  C   UNL A   1      41.731  30.903  29.723  1.00  0.00     0.029 A 
ATOM     62  N   UNL A   1      43.375  29.538  29.106  1.00  0.00    -0.354 N 
ATOM     63  N   UNL A   1      46.167  28.769  28.683  1.00  0.00    -0.248 NA
ATOM     64  C   UNL A   1      48.442  29.306  28.659  1.00  0.00     0.031 C 
ATOM     65  C   UNL A   1      42.942  31.594  29.827  1.00  0.00     0.029 A 
ATOM     66  C   UNL A   1      43.969  30.733  29.475  1.00  0.00     0.049 A 
ATOM     67  H   UNL A   1      43.858  28.737  28.797  1.00  0.00     0.167 HD
ATOM     68  C   UNL A   1      46.331  30.080  29.111  1.00  0.00     0.074 A 
ATOM     69  C   UNL A   1      47.755  30.346  29.112  1.00  0.00     0.031 C 
ATOM     70  C   UNL A   1      45.387  30.983  29.473  1.00  0.00     0.031 A 
BRANCH  57  71
ATOM     71  C   UNL A   1      39.596  28.872  29.033  1.00  0.00    -0.014 A 
ATOM     72  C   UNL A   1      38.901  28.643  30.233  1.00  0.00     0.009 A 
ATOM     73  C   UNL A   1      38.898  29.409  27.940  1.00  0.00     0.009 A 
ATOM     74  C   UNL A   1      37.533  28.907  30.320  1.00  0.00     0.001 A 
ATOM     75  C   UNL A   1      37.537  29.704  28.041  1.00  0.00     0.001 A 
ATOM     76  C   UNL A   1      36.854  29.442  29.227  1.00  0.00     0.000 A 
ENDBRANCH  57  71
BRANCH  58  77
ATOM     77  C   UNL A   1      49.246  26.632  27.803  1.00  0.00    -0.014 A 
ATOM     78  C   UNL A   1      49.821  26.685  26.524  1.00  0.00     0.009 A 
ATOM     79  C   UNL A   1      50.053  26.262  28.891  1.00  0.00     0.009 A 
ATOM     80  C   UNL A   1      51.161  26.342  26.333  1.00  0.00     0.001 A 
ATOM     81  C   UNL A   1      51.401  25.951  28.703  1.00  0.00     0.001 A 
ATOM     82  C   UNL A   1      51.952  25.980  27.423  1.00  0.00     0.000 A 
ENDBRANCH  58  77
BRANCH  70  83
ATOM     83  C   UNL A   1      45.864  32.327  29.949  1.00  0.00    -0.014 A 
ATOM     84  C   UNL A   1      46.016  33.408  29.067  1.00  0.00     0.009 A 
ATOM     85  C   UNL A   1      46.131  32.522  31.314  1.00  0.00     0.009 A 
ATOM     86  C   UNL A   1      46.463  34.646  29.537  1.00  0.00     0.001 A 
ATOM     87  C   UNL A   1      46.543  33.769  31.786  1.00  0.00     0.001 A 
ATOM     88  C   UNL A   1      46.720  34.826  30.896  1.00  0.00     0.000 A 
ENDBRANCH  70  83
ENDBRANCH  44  45
ENDBRANCH  36  39
ENDBRANCH  34  35
ENDBRANCH  33  34
ENDBRANCH  32  33
ENDBRANCH   1  32
TORSDOF 16
ENDMDL
MODEL 3
REMARK VINA RESULT:     -11.6      2.317      6.424
REMARK SMILES O=C(COc1ccc(N2C[C@@H](C(=O)NCCCCNC(=O)c3ccc(-c4c5nc(c(-c6ccccc6)c6ccc([nH]6)c(-c6ccccc6)c6nc(c(-c7ccccc7)c7ccc4[nH]7)C=C6)C=C5)cc3)CC2=O)cc1)Nc1ccc(Cl)cc1Cl
REMARK SMILES IDX 15 1 14 2 12 3 13 4 11 6 9 7 10 8 71 9 70 10 72 11 8 12 5 13
REMARK SMILES IDX 6 14 74 15 7 16 73 17 4 18 3 19 2 20 1 21 75 22 76 24 77 25
REMARK SMILES IDX 82 26 78 27 81 28 83 29 79 30 80 31 16 32 17 33 18 34 19 35
REMARK SMILES IDX 20 36 21 38 22 39 23 40 69 41 24 42 68 43 25 44 26 45 27 46
REMARK SMILES IDX 62 47 28 48 67 49 61 50 63 51 29 52 66 53 60 54 59 55 30 57
REMARK SMILES IDX 52 58 37 59 51 60 38 61 41 62 50 63 64 64 39 65 40 66 49 68
REMARK SMILES IDX 65 69 42 70 31 71 32 72 36 73 33 74 35 75 34 76 53 77 54 78
REMARK SMILES IDX 58 79 55 80 57 81 56 82 43 83 44 84 48 85 45 86 47 87 46 88
REMARK H PARENT 14 5 75 23 19 37 63 56 41 67
REMARK Flexibility Score: inf
ROOT
ATOM      1  C   UNL A   1      34.620  22.979  24.217  1.00  0.00     0.116 C 
ENDROOT
BRANCH   1   2
ATOM      2  N   UNL A   1      33.770  22.014  23.544  1.00  0.00    -0.356 N 
ATOM      3  C   UNL A   1      32.421  21.932  23.413  1.00  0.00     0.225 C 
ATOM      4  O   UNL A   1      31.977  20.981  22.763  1.00  0.00    -0.275 OA
ATOM      5  H   UNL A   1      34.262  21.285  23.101  1.00  0.00     0.163 HD
BRANCH   3   6
ATOM      6  C   UNL A   1      31.467  22.952  23.996  1.00  0.00     0.107 C 
ATOM      7  N   UNL A   1      31.791  25.065  24.989  1.00  0.00    -0.312 N 
ATOM      8  C   UNL A   1      31.894  24.384  23.723  1.00  0.00     0.139 C 
ATOM      9  C   UNL A   1      31.463  24.209  26.039  1.00  0.00     0.227 C 
ATOM     10  C   UNL A   1      31.247  22.827  25.494  1.00  0.00     0.116 C 
ATOM     11  O   UNL A   1      31.330  24.478  27.227  1.00  0.00    -0.274 OA
BRANCH   7  12
ATOM     12  C   UNL A   1      32.079  26.442  25.139  1.00  0.00     0.044 A 
ATOM     13  C   UNL A   1      32.683  29.161  25.568  1.00  0.00     0.120 A 
ATOM     14  C   UNL A   1      31.375  28.771  25.294  1.00  0.00     0.048 A 
ATOM     15  C   UNL A   1      33.686  28.197  25.622  1.00  0.00     0.048 A 
ATOM     16  C   UNL A   1      31.078  27.420  25.046  1.00  0.00     0.030 A 
ATOM     17  C   UNL A   1      33.384  26.853  25.415  1.00  0.00     0.030 A 
BRANCH  13  18
ATOM     18  O   UNL A   1      32.920  30.462  25.926  1.00  0.00    -0.484 OA
BRANCH  18  19
ATOM     19  C   UNL A   1      33.088  30.641  27.334  1.00  0.00     0.329 C 
BRANCH  19  20
ATOM     20  C   UNL A   1      34.500  31.035  27.779  1.00  0.00     0.262 C 
ATOM     21  O   UNL A   1      35.468  30.335  27.499  1.00  0.00    -0.271 OA
ATOM     22  N   UNL A   1      34.508  32.163  28.592  1.00  0.00    -0.322 N 
ATOM     23  H   UNL A   1      33.659  32.650  28.704  1.00  0.00     0.170 HD
BRANCH  22  24
ATOM     24  C   UNL A   1      35.644  32.663  29.271  1.00  0.00     0.060 A 
ATOM     25  C   UNL A   1      36.794  32.833  28.483  1.00  0.00     0.029 A 
ATOM     26  C   UNL A   1      35.703  33.017  30.632  1.00  0.00     0.066 A 
ATOM     27  C   UNL A   1      37.942  33.430  29.010  1.00  0.00     0.023 A 
ATOM     28  C   UNL A   1      36.853  33.622  31.156  1.00  0.00     0.043 A 
ATOM     29  Cl  UNL A   1      34.492  32.564  31.784  1.00  0.00    -0.082 Cl
ATOM     30  C   UNL A   1      37.958  33.840  30.339  1.00  0.00     0.042 A 
ATOM     31  Cl  UNL A   1      39.366  34.589  30.985  1.00  0.00    -0.084 Cl
ENDBRANCH  22  24
ENDBRANCH  19  20
ENDBRANCH  18  19
ENDBRANCH  13  18
ENDBRANCH   7  12
ENDBRANCH   3   6
ENDBRANCH   1   2
BRANCH   1  32
ATOM     32  C   UNL A   1      35.266  22.395  25.474  1.00  0.00     0.023 C 
BRANCH  32  33
ATOM     33  C   UNL A   1      35.937  21.034  25.280  1.00  0.00     0.023 C 
BRANCH  33  34
ATOM     34  C   UNL A   1      37.326  21.078  24.657  1.00  0.00     0.116 C 
BRANCH  34  35
ATOM     35  N   UNL A   1      38.172  19.970  25.074  1.00  0.00    -0.352 N 
ATOM     36  C   UNL A   1      39.406  20.002  25.678  1.00  0.00     0.251 C 
ATOM     37  H   UNL A   1      37.809  19.072  24.898  1.00  0.00     0.163 HD
ATOM     38  O   UNL A   1      40.043  18.966  25.831  1.00  0.00    -0.269 OA
BRANCH  36  39
ATOM     39  C   UNL A   1      39.978  21.293  26.116  1.00  0.00     0.039 A 
ATOM     40  C   UNL A   1      41.356  21.382  26.327  1.00  0.00     0.014 A 
ATOM     41  C   UNL A   1      39.163  22.411  26.306  1.00  0.00     0.014 A 
ATOM     42  C   UNL A   1      41.924  22.611  26.668  1.00  0.00     0.010 A 
ATOM     43  C   UNL A   1      39.740  23.652  26.560  1.00  0.00     0.010 A 
ATOM     44  C   UNL A   1      41.125  23.764  26.753  1.00  0.00    -0.014 A 
BRANCH  44  45
ATOM     45  C   UNL A   1      41.719  25.091  27.055  1.00  0.00     0.031 A 
ATOM     46  C   UNL A   1      40.999  26.050  27.964  1.00  0.00     0.074 A 
ATOM     47  C   UNL A   1      42.876  25.457  26.470  1.00  0.00     0.049 A 
ATOM     48  N   UNL A   1      41.333  27.268  28.312  1.00  0.00    -0.248 NA
ATOM     49  C   UNL A   1      39.722  25.593  28.538  1.00  0.00     0.031 C 
ATOM     50  C   UNL A   1      43.654  24.636  25.539  1.00  0.00     0.029 A 
ATOM     51  N   UNL A   1      43.600  26.619  26.571  1.00  0.00    -0.354 N 
ATOM     52  C   UNL A   1      40.305  27.724  29.126  1.00  0.00     0.074 A 
ATOM     53  C   UNL A   1      39.307  26.678  29.175  1.00  0.00     0.031 C 
ATOM     54  C   UNL A   1      44.762  25.306  25.183  1.00  0.00     0.029 A 
ATOM     55  C   UNL A   1      44.751  26.618  25.821  1.00  0.00     0.049 A 
ATOM     56  H   UNL A   1      43.320  27.380  27.129  1.00  0.00     0.167 HD
ATOM     57  C   UNL A   1      40.206  28.898  29.793  1.00  0.00     0.031 A 
ATOM     58  C   UNL A   1      45.692  27.568  25.662  1.00  0.00     0.031 A 
ATOM     59  C   UNL A   1      41.201  29.937  29.751  1.00  0.00     0.049 A 
ATOM     60  C   UNL A   1      45.548  28.874  26.396  1.00  0.00     0.074 A 
ATOM     61  C   UNL A   1      41.219  31.140  30.434  1.00  0.00     0.029 A 
ATOM     62  N   UNL A   1      42.352  29.896  28.980  1.00  0.00    -0.354 N 
ATOM     63  N   UNL A   1      44.603  29.260  27.219  1.00  0.00    -0.248 NA
ATOM     64  C   UNL A   1      46.611  29.867  26.189  1.00  0.00     0.031 C 
ATOM     65  C   UNL A   1      42.351  31.854  30.030  1.00  0.00     0.029 A 
ATOM     66  C   UNL A   1      43.074  31.065  29.149  1.00  0.00     0.049 A 
ATOM     67  H   UNL A   1      42.617  29.147  28.399  1.00  0.00     0.167 HD
ATOM     68  C   UNL A   1      44.976  30.526  27.655  1.00  0.00     0.074 A 
ATOM     69  C   UNL A   1      46.239  30.834  27.017  1.00  0.00     0.031 C 
ATOM     70  C   UNL A   1      44.331  31.358  28.509  1.00  0.00     0.031 A 
BRANCH  57  71
ATOM     71  C   UNL A   1      38.968  29.125  30.617  1.00  0.00    -0.014 A 
ATOM     72  C   UNL A   1      37.756  29.517  30.025  1.00  0.00     0.009 A 
ATOM     73  C   UNL A   1      39.004  28.912  32.004  1.00  0.00     0.009 A 
ATOM     74  C   UNL A   1      36.621  29.730  30.809  1.00  0.00     0.001 A 
ATOM     75  C   UNL A   1      37.859  29.093  32.782  1.00  0.00     0.001 A 
ATOM     76  C   UNL A   1      36.672  29.513  32.185  1.00  0.00     0.000 A 
ENDBRANCH  57  71
BRANCH  58  77
ATOM     77  C   UNL A   1      46.865  27.320  24.782  1.00  0.00    -0.014 A 
ATOM     78  C   UNL A   1      47.929  26.518  25.221  1.00  0.00     0.009 A 
ATOM     79  C   UNL A   1      46.935  27.897  23.504  1.00  0.00     0.009 A 
ATOM     80  C   UNL A   1      49.052  26.326  24.413  1.00  0.00     0.001 A 
ATOM     81  C   UNL A   1      48.044  27.676  22.685  1.00  0.00     0.001 A 
ATOM     82  C   UNL A   1      49.107  26.900  23.144  1.00  0.00     0.000 A 
ENDBRANCH  58  77
BRANCH  70  83
ATOM     83  C   UNL A   1      45.003  32.661  28.843  1.00  0.00    -0.014 A 
ATOM     84  C   UNL A   1      45.895  32.773  29.921  1.00  0.00     0.009 A 
ATOM     85  C   UNL A   1      44.765  33.787  28.039  1.00  0.00     0.009 A 
ATOM     86  C   UNL A   1      46.503  33.998  30.209  1.00  0.00     0.001 A 
ATOM     87  C   UNL A   1      45.402  35.000  28.307  1.00  0.00     0.001 A 
ATOM     88  C   UNL A   1      46.261  35.107  29.399  1.00  0.00     0.000 A 
ENDBRANCH  70  83
ENDBRANCH  44  45
ENDBRANCH  36  39
ENDBRANCH  34  35
ENDBRANCH  33  34
ENDBRANCH  32  33
ENDBRANCH   1  32
TORSDOF 16
ENDMDL
