MODEL 1
REMARK VINA RESULT:     -10.1      0.000      0.000
REMARK SMILES CCc1cc([C@H]([NH3+])C(=O)NCCCCNC(=O)c2ccc(-c3c4nc(c(-c5ccccc5)c5ccc([nH]5)c(-c5ccccc5)c5nc(c(-c6ccccc6)c6ccc3[nH]6)C=C5)C=C4)cc2)cc(CC)c1N
REMARK SMILES IDX 12 1 11 2 10 3 8 4 9 5 6 7 5 8 3 9 4 10 70 11 67 12 66 13
REMARK SMILES IDX 2 14 1 15 71 16 68 19 69 20 7 21 13 25 14 26 15 27 16 28
REMARK SMILES IDX 17 30 18 31 19 32 65 33 20 34 64 35 21 36 22 37 23 38 58 39
REMARK SMILES IDX 24 40 63 41 57 42 59 43 25 44 62 45 56 46 55 47 26 49 48 50
REMARK SMILES IDX 33 51 47 52 34 53 37 54 46 55 60 56 35 57 36 58 45 60 61 61
REMARK SMILES IDX 38 62 27 63 28 64 32 65 29 66 31 67 30 68 49 69 50 70 54 71
REMARK SMILES IDX 51 72 53 73 52 74 39 75 40 76 44 77 41 78 43 79 42 80
REMARK H PARENT 10 6 71 17 71 18 7 22 7 23 7 24 15 29 59 48 37 59
REMARK Flexibility Score: inf
ROOT
ATOM      1  C   UNL A   1      33.489  27.838  24.621  1.00  0.00     0.023 C 
ENDROOT
BRANCH   1   2
ATOM      2  C   UNL A   1      32.709  27.835  23.317  1.00  0.00     0.116 C 
BRANCH   2   3
ATOM      3  N   UNL A   1      33.225  26.970  22.280  1.00  0.00    -0.351 N 
ATOM      4  C   UNL A   1      33.027  25.620  22.132  1.00  0.00     0.283 C 
ATOM      5  O   UNL A   1      33.427  25.112  21.076  1.00  0.00    -0.268 OA
ATOM      6  H   UNL A   1      33.788  27.402  21.598  1.00  0.00     0.163 HD
BRANCH   4   7
ATOM      7  C   UNL A   1      32.360  24.733  23.227  1.00  0.00     0.302 C 
BRANCH   7   8
ATOM      8  C   UNL A   1      33.238  23.600  23.736  1.00  0.00     0.020 A 
ATOM      9  C   UNL A   1      33.456  21.329  24.655  1.00  0.00    -0.024 A 
ATOM     10  C   UNL A   1      32.671  22.396  24.155  1.00  0.00     0.016 A 
ATOM     11  C   UNL A   1      34.860  21.498  24.795  1.00  0.00     0.038 A 
ATOM     12  C   UNL A   1      35.450  22.702  24.354  1.00  0.00    -0.024 A 
ATOM     13  C   UNL A   1      34.627  23.696  23.796  1.00  0.00     0.016 A 
BRANCH   9  14
ATOM     14  C   UNL A   1      32.760  20.008  24.946  1.00  0.00     0.034 C 
ATOM     15  C   UNL A   1      32.617  19.065  23.756  1.00  0.00     0.009 C 
ENDBRANCH   9  14
BRANCH  11  16
ATOM     16  N   UNL A   1      35.664  20.449  25.230  1.00  0.00    -0.398 N 
ATOM     17  H   UNL A   1      36.366  20.090  24.640  1.00  0.00     0.156 HD
ATOM     18  H   UNL A   1      35.532  20.065  26.127  1.00  0.00     0.156 HD
ENDBRANCH  11  16
BRANCH  12  19
ATOM     19  C   UNL A   1      36.919  23.051  24.543  1.00  0.00     0.034 C 
ATOM     20  C   UNL A   1      37.269  23.709  25.875  1.00  0.00     0.009 C 
ENDBRANCH  12  19
ENDBRANCH   7   8
BRANCH   7  21
ATOM     21  N   UNL A   1      31.015  24.275  22.816  1.00  0.00    -0.343 N 
ATOM     22  H   UNL A   1      30.867  23.319  23.142  1.00  0.00     0.345 HD
ATOM     23  H   UNL A   1      30.943  24.301  21.799  1.00  0.00     0.345 HD
ATOM     24  H   UNL A   1      30.308  24.887  23.223  1.00  0.00     0.345 HD
ENDBRANCH   7  21
ENDBRANCH   4   7
ENDBRANCH   2   3
ENDBRANCH   1   2
BRANCH   1  25
ATOM     25  C   UNL A   1      32.779  28.450  25.819  1.00  0.00     0.023 C 
BRANCH  25  26
ATOM     26  C   UNL A   1      33.629  28.638  27.069  1.00  0.00     0.116 C 
BRANCH  26  27
ATOM     27  N   UNL A   1      33.612  29.997  27.591  1.00  0.00    -0.352 N 
ATOM     28  C   UNL A   1      34.589  30.710  28.249  1.00  0.00     0.251 C 
ATOM     29  H   UNL A   1      32.768  30.484  27.453  1.00  0.00     0.163 HD
ATOM     30  O   UNL A   1      34.335  31.815  28.711  1.00  0.00    -0.269 OA
BRANCH  28  31
ATOM     31  C   UNL A   1      35.939  30.131  28.431  1.00  0.00     0.039 A 
ATOM     32  C   UNL A   1      36.859  30.218  27.382  1.00  0.00     0.014 A 
ATOM     33  C   UNL A   1      36.304  29.507  29.625  1.00  0.00     0.014 A 
ATOM     34  C   UNL A   1      38.161  29.745  27.561  1.00  0.00     0.010 A 
ATOM     35  C   UNL A   1      37.629  29.138  29.840  1.00  0.00     0.010 A 
ATOM     36  C   UNL A   1      38.570  29.235  28.806  1.00  0.00    -0.014 A 
BRANCH  36  37
ATOM     37  C   UNL A   1      39.967  28.778  29.026  1.00  0.00     0.031 A 
ATOM     38  C   UNL A   1      40.376  27.377  28.649  1.00  0.00     0.074 A 
ATOM     39  C   UNL A   1      40.864  29.609  29.594  1.00  0.00     0.049 A 
ATOM     40  N   UNL A   1      41.550  26.804  28.753  1.00  0.00    -0.248 NA
ATOM     41  C   UNL A   1      39.326  26.495  28.115  1.00  0.00     0.031 C 
ATOM     42  C   UNL A   1      40.586  30.971  30.058  1.00  0.00     0.029 A 
ATOM     43  N   UNL A   1      42.196  29.430  29.873  1.00  0.00    -0.354 N 
ATOM     44  C   UNL A   1      41.372  25.499  28.308  1.00  0.00     0.074 A 
ATOM     45  C   UNL A   1      39.969  25.343  28.001  1.00  0.00     0.031 C 
ATOM     46  C   UNL A   1      41.722  31.519  30.517  1.00  0.00     0.029 A 
ATOM     47  C   UNL A   1      42.798  30.538  30.418  1.00  0.00     0.049 A 
ATOM     48  H   UNL A   1      42.674  28.588  29.699  1.00  0.00     0.167 HD
ATOM     49  C   UNL A   1      42.296  24.523  28.141  1.00  0.00     0.031 A 
ATOM     50  C   UNL A   1      44.076  30.745  30.791  1.00  0.00     0.031 A 
ATOM     51  C   UNL A   1      43.696  24.676  28.438  1.00  0.00     0.049 A 
ATOM     52  C   UNL A   1      45.082  29.645  30.598  1.00  0.00     0.074 A 
ATOM     53  C   UNL A   1      44.722  23.766  28.253  1.00  0.00     0.029 A 
ATOM     54  N   UNL A   1      44.265  25.815  28.987  1.00  0.00    -0.354 N 
ATOM     55  N   UNL A   1      44.913  28.443  30.099  1.00  0.00    -0.248 NA
ATOM     56  C   UNL A   1      46.464  29.941  31.000  1.00  0.00     0.031 C 
ATOM     57  C   UNL A   1      45.902  24.333  28.744  1.00  0.00     0.029 A 
ATOM     58  C   UNL A   1      45.624  25.622  29.169  1.00  0.00     0.049 A 
ATOM     59  H   UNL A   1      43.775  26.638  29.212  1.00  0.00     0.167 HD
ATOM     60  C   UNL A   1      46.171  27.852  30.099  1.00  0.00     0.074 A 
ATOM     61  C   UNL A   1      47.094  28.837  30.623  1.00  0.00     0.031 C 
ATOM     62  C   UNL A   1      46.531  26.608  29.700  1.00  0.00     0.031 A 
BRANCH  49  63
ATOM     63  C   UNL A   1      41.815  23.198  27.613  1.00  0.00    -0.014 A 
ATOM     64  C   UNL A   1      41.533  23.015  26.248  1.00  0.00     0.009 A 
ATOM     65  C   UNL A   1      41.664  22.110  28.486  1.00  0.00     0.009 A 
ATOM     66  C   UNL A   1      41.070  21.784  25.778  1.00  0.00     0.001 A 
ATOM     67  C   UNL A   1      41.233  20.871  28.008  1.00  0.00     0.001 A 
ATOM     68  C   UNL A   1      40.927  20.711  26.658  1.00  0.00     0.000 A 
ENDBRANCH  49  63
BRANCH  50  69
ATOM     69  C   UNL A   1      44.489  32.056  31.359  1.00  0.00    -0.014 A 
ATOM     70  C   UNL A   1      44.411  32.294  32.740  1.00  0.00     0.009 A 
ATOM     71  C   UNL A   1      44.946  33.084  30.521  1.00  0.00     0.009 A 
ATOM     72  C   UNL A   1      44.745  33.545  33.265  1.00  0.00     0.001 A 
ATOM     73  C   UNL A   1      45.312  34.323  31.050  1.00  0.00     0.001 A 
ATOM     74  C   UNL A   1      45.199  34.557  32.420  1.00  0.00     0.000 A 
ENDBRANCH  50  69
BRANCH  62  75
ATOM     75  C   UNL A   1      47.992  26.260  29.778  1.00  0.00    -0.014 A 
ATOM     76  C   UNL A   1      48.568  25.763  30.957  1.00  0.00     0.009 A 
ATOM     77  C   UNL A   1      48.805  26.429  28.645  1.00  0.00     0.009 A 
ATOM     78  C   UNL A   1      49.937  25.493  31.016  1.00  0.00     0.001 A 
ATOM     79  C   UNL A   1      50.165  26.124  28.696  1.00  0.00     0.001 A 
ATOM     80  C   UNL A   1      50.733  25.670  29.885  1.00  0.00     0.000 A 
ENDBRANCH  62  75
ENDBRANCH  36  37
ENDBRANCH  28  31
ENDBRANCH  26  27
ENDBRANCH  25  26
ENDBRANCH   1  25
TORSDOF 16
ENDMDL
MODEL 2
REMARK VINA RESULT:     -10.0      2.134      7.636
REMARK SMILES CCc1cc([C@H]([NH3+])C(=O)NCCCCNC(=O)c2ccc(-c3c4nc(c(-c5ccccc5)c5ccc([nH]5)c(-c5ccccc5)c5nc(c(-c6ccccc6)c6ccc3[nH]6)C=C5)C=C4)cc2)cc(CC)c1N
REMARK SMILES IDX 12 1 11 2 10 3 8 4 9 5 6 7 5 8 3 9 4 10 70 11 67 12 66 13
REMARK SMILES IDX 2 14 1 15 71 16 68 19 69 20 7 21 13 25 14 26 15 27 16 28
REMARK SMILES IDX 17 30 18 31 19 32 65 33 20 34 64 35 21 36 22 37 23 38 58 39
REMARK SMILES IDX 24 40 63 41 57 42 59 43 25 44 62 45 56 46 55 47 26 49 48 50
REMARK SMILES IDX 33 51 47 52 34 53 37 54 46 55 60 56 35 57 36 58 45 60 61 61
REMARK SMILES IDX 38 62 27 63 28 64 32 65 29 66 31 67 30 68 49 69 50 70 54 71
REMARK SMILES IDX 51 72 53 73 52 74 39 75 40 76 44 77 41 78 43 79 42 80
REMARK H PARENT 10 6 71 17 71 18 7 22 7 23 7 24 15 29 59 48 37 59
REMARK Flexibility Score: inf
ROOT
ATOM      1  C   UNL A   1      37.123  21.157  24.653  1.00  0.00     0.023 C 
ENDROOT
BRANCH   1   2
ATOM      2  C   UNL A   1      35.759  20.872  25.260  1.00  0.00     0.116 C 
BRANCH   2   3
ATOM      3  N   UNL A   1      35.490  21.519  26.525  1.00  0.00    -0.351 N 
ATOM      4  C   UNL A   1      34.358  22.196  26.902  1.00  0.00     0.283 C 
ATOM      5  O   UNL A   1      34.277  22.526  28.092  1.00  0.00    -0.268 OA
ATOM      6  H   UNL A   1      36.207  21.468  27.197  1.00  0.00     0.163 HD
BRANCH   4   7
ATOM      7  C   UNL A   1      33.219  22.572  25.904  1.00  0.00     0.302 C 
BRANCH   7   8
ATOM      8  C   UNL A   1      33.349  23.963  25.302  1.00  0.00     0.020 A 
ATOM      9  C   UNL A   1      33.437  25.421  23.323  1.00  0.00    -0.024 A 
ATOM     10  C   UNL A   1      33.298  24.145  23.919  1.00  0.00     0.016 A 
ATOM     11  C   UNL A   1      33.696  26.552  24.142  1.00  0.00     0.038 A 
ATOM     12  C   UNL A   1      33.728  26.387  25.544  1.00  0.00    -0.024 A 
ATOM     13  C   UNL A   1      33.507  25.107  26.081  1.00  0.00     0.016 A 
BRANCH   9  14
ATOM     14  C   UNL A   1      33.220  25.534  21.822  1.00  0.00     0.034 C 
ATOM     15  C   UNL A   1      31.813  25.937  21.390  1.00  0.00     0.009 C 
ENDBRANCH   9  14
BRANCH  11  16
ATOM     16  N   UNL A   1      33.782  27.828  23.591  1.00  0.00    -0.398 N 
ATOM     17  H   UNL A   1      33.659  28.620  24.163  1.00  0.00     0.156 HD
ATOM     18  H   UNL A   1      33.964  27.938  22.630  1.00  0.00     0.156 HD
ENDBRANCH  11  16
BRANCH  12  19
ATOM     19  C   UNL A   1      34.098  27.491  26.524  1.00  0.00     0.034 C 
ATOM     20  C   UNL A   1      32.921  28.212  27.174  1.00  0.00     0.009 C 
ENDBRANCH  12  19
ENDBRANCH   7   8
BRANCH   7  21
ATOM     21  N   UNL A   1      31.881  22.320  26.480  1.00  0.00    -0.343 N 
ATOM     22  H   UNL A   1      31.182  22.343  25.737  1.00  0.00     0.345 HD
ATOM     23  H   UNL A   1      31.667  23.040  27.170  1.00  0.00     0.345 HD
ATOM     24  H   UNL A   1      31.871  21.405  26.929  1.00  0.00     0.345 HD
ENDBRANCH   7  21
ENDBRANCH   4   7
ENDBRANCH   2   3
ENDBRANCH   1   2
BRANCH   1  25
ATOM     25  C   UNL A   1      38.146  20.036  24.760  1.00  0.00     0.023 C 
BRANCH  25  26
ATOM     26  C   UNL A   1      39.032  20.062  25.999  1.00  0.00     0.116 C 
BRANCH  26  27
ATOM     27  N   UNL A   1      40.201  19.200  25.903  1.00  0.00    -0.352 N 
ATOM     28  C   UNL A   1      41.529  19.471  26.147  1.00  0.00     0.251 C 
ATOM     29  H   UNL A   1      40.014  18.276  25.618  1.00  0.00     0.163 HD
ATOM     30  O   UNL A   1      42.382  18.629  25.897  1.00  0.00    -0.269 OA
BRANCH  28  31
ATOM     31  C   UNL A   1      41.935  20.792  26.679  1.00  0.00     0.039 A 
ATOM     32  C   UNL A   1      42.351  21.782  25.784  1.00  0.00     0.014 A 
ATOM     33  C   UNL A   1      41.904  21.061  28.048  1.00  0.00     0.014 A 
ATOM     34  C   UNL A   1      42.667  23.057  26.259  1.00  0.00     0.010 A 
ATOM     35  C   UNL A   1      42.110  22.359  28.505  1.00  0.00     0.010 A 
ATOM     36  C   UNL A   1      42.511  23.369  27.621  1.00  0.00    -0.014 A 
BRANCH  36  37
ATOM     37  C   UNL A   1      42.792  24.737  28.130  1.00  0.00     0.031 A 
ATOM     38  C   UNL A   1      44.200  25.145  28.477  1.00  0.00     0.074 A 
ATOM     39  C   UNL A   1      41.777  25.606  28.313  1.00  0.00     0.049 A 
ATOM     40  N   UNL A   1      44.641  26.296  28.921  1.00  0.00    -0.248 NA
ATOM     41  C   UNL A   1      45.247  24.120  28.336  1.00  0.00     0.031 C 
ATOM     42  C   UNL A   1      40.360  25.323  28.071  1.00  0.00     0.029 A 
ATOM     43  N   UNL A   1      41.785  26.910  28.741  1.00  0.00    -0.354 N 
ATOM     44  C   UNL A   1      46.006  26.126  29.120  1.00  0.00     0.074 A 
ATOM     45  C   UNL A   1      46.309  24.746  28.817  1.00  0.00     0.031 C 
ATOM     46  C   UNL A   1      39.643  26.433  28.307  1.00  0.00     0.029 A 
ATOM     47  C   UNL A   1      40.541  27.493  28.754  1.00  0.00     0.049 A 
ATOM     48  H   UNL A   1      42.604  27.383  29.013  1.00  0.00     0.167 HD
ATOM     49  C   UNL A   1      46.933  27.040  29.493  1.00  0.00     0.031 A 
ATOM     50  C   UNL A   1      40.163  28.743  29.082  1.00  0.00     0.031 A 
ATOM     51  C   UNL A   1      46.637  28.416  29.789  1.00  0.00     0.049 A 
ATOM     52  C   UNL A   1      41.211  29.740  29.495  1.00  0.00     0.074 A 
ATOM     53  C   UNL A   1      47.512  29.435  30.123  1.00  0.00     0.029 A 
ATOM     54  N   UNL A   1      45.364  28.966  29.788  1.00  0.00    -0.354 N 
ATOM     55  N   UNL A   1      42.510  29.583  29.600  1.00  0.00    -0.248 NA
ATOM     56  C   UNL A   1      40.740  31.094  29.816  1.00  0.00     0.031 C 
ATOM     57  C   UNL A   1      46.763  30.587  30.381  1.00  0.00     0.029 A 
ATOM     58  C   UNL A   1      45.429  30.304  30.138  1.00  0.00     0.049 A 
ATOM     59  H   UNL A   1      44.538  28.478  29.569  1.00  0.00     0.167 HD
ATOM     60  C   UNL A   1      43.012  30.826  29.966  1.00  0.00     0.074 A 
ATOM     61  C   UNL A   1      41.882  31.728  30.041  1.00  0.00     0.031 C 
ATOM     62  C   UNL A   1      44.294  31.189  30.217  1.00  0.00     0.031 A 
BRANCH  49  63
ATOM     63  C   UNL A   1      48.360  26.572  29.605  1.00  0.00    -0.014 A 
ATOM     64  C   UNL A   1      49.220  26.580  28.494  1.00  0.00     0.009 A 
ATOM     65  C   UNL A   1      48.859  26.140  30.843  1.00  0.00     0.009 A 
ATOM     66  C   UNL A   1      50.535  26.126  28.612  1.00  0.00     0.001 A 
ATOM     67  C   UNL A   1      50.184  25.718  30.966  1.00  0.00     0.001 A 
ATOM     68  C   UNL A   1      51.018  25.702  29.849  1.00  0.00     0.000 A 
ENDBRANCH  49  63
BRANCH  50  69
ATOM     69  C   UNL A   1      38.732  29.141  29.006  1.00  0.00    -0.014 A 
ATOM     70  C   UNL A   1      38.193  29.650  27.813  1.00  0.00     0.009 A 
ATOM     71  C   UNL A   1      37.900  29.032  30.131  1.00  0.00     0.009 A 
ATOM     72  C   UNL A   1      36.864  30.076  27.760  1.00  0.00     0.001 A 
ATOM     73  C   UNL A   1      36.562  29.427  30.067  1.00  0.00     0.001 A 
ATOM     74  C   UNL A   1      36.048  29.961  28.885  1.00  0.00     0.000 A 
ENDBRANCH  50  69
BRANCH  62  75
ATOM     75  C   UNL A   1      44.542  32.634  30.556  1.00  0.00    -0.014 A 
ATOM     76  C   UNL A   1      44.485  33.100  31.878  1.00  0.00     0.009 A 
ATOM     77  C   UNL A   1      44.844  33.543  29.529  1.00  0.00     0.009 A 
ATOM     78  C   UNL A   1      44.672  34.455  32.159  1.00  0.00     0.001 A 
ATOM     79  C   UNL A   1      45.068  34.890  29.817  1.00  0.00     0.001 A 
ATOM     80  C   UNL A   1      44.967  35.348  31.129  1.00  0.00     0.000 A 
ENDBRANCH  62  75
ENDBRANCH  36  37
ENDBRANCH  28  31
ENDBRANCH  26  27
ENDBRANCH  25  26
ENDBRANCH   1  25
TORSDOF 16
ENDMDL
MODEL 3
REMARK VINA RESULT:     -10.0      2.637      7.187
REMARK SMILES CCc1cc([C@H]([NH3+])C(=O)NCCCCNC(=O)c2ccc(-c3c4nc(c(-c5ccccc5)c5ccc([nH]5)c(-c5ccccc5)c5nc(c(-c6ccccc6)c6ccc3[nH]6)C=C5)C=C4)cc2)cc(CC)c1N
REMARK SMILES IDX 12 1 11 2 10 3 8 4 9 5 6 7 5 8 3 9 4 10 70 11 67 12 66 13
REMARK SMILES IDX 2 14 1 15 71 16 68 19 69 20 7 21 13 25 14 26 15 27 16 28
REMARK SMILES IDX 17 30 18 31 19 32 65 33 20 34 64 35 21 36 22 37 23 38 58 39
REMARK SMILES IDX 24 40 63 41 57 42 59 43 25 44 62 45 56 46 55 47 26 49 48 50
REMARK SMILES IDX 33 51 47 52 34 53 37 54 46 55 60 56 35 57 36 58 45 60 61 61
REMARK SMILES IDX 38 62 27 63 28 64 32 65 29 66 31 67 30 68 49 69 50 70 54 71
REMARK SMILES IDX 51 72 53 73 52 74 39 75 40 76 44 77 41 78 43 79 42 80
REMARK H PARENT 10 6 71 17 71 18 7 22 7 23 7 24 15 29 59 48 37 59
REMARK Flexibility Score: inf
ROOT
ATOM      1  C   UNL A   1      34.123  30.599  27.625  1.00  0.00     0.023 C 
ENDROOT
BRANCH   1   2
ATOM      2  C   UNL A   1      34.116  29.181  27.078  1.00  0.00     0.116 C 
BRANCH   2   3
ATOM      3  N   UNL A   1      34.426  29.052  25.673  1.00  0.00    -0.351 N 
ATOM      4  C   UNL A   1      33.751  28.327  24.723  1.00  0.00     0.283 C 
ATOM      5  O   UNL A   1      34.096  28.493  23.546  1.00  0.00    -0.268 OA
ATOM      6  H   UNL A   1      35.220  29.542  25.359  1.00  0.00     0.163 HD
BRANCH   4   7
ATOM      7  C   UNL A   1      32.616  27.315  25.072  1.00  0.00     0.302 C 
BRANCH   7   8
ATOM      8  C   UNL A   1      33.110  25.931  25.465  1.00  0.00     0.020 A 
ATOM      9  C   UNL A   1      32.722  23.775  26.581  1.00  0.00    -0.024 A 
ATOM     10  C   UNL A   1      32.288  25.060  26.181  1.00  0.00     0.016 A 
ATOM     11  C   UNL A   1      34.055  23.367  26.304  1.00  0.00     0.038 A 
ATOM     12  C   UNL A   1      34.891  24.228  25.561  1.00  0.00    -0.024 A 
ATOM     13  C   UNL A   1      34.378  25.462  25.125  1.00  0.00     0.016 A 
BRANCH   9  14
ATOM     14  C   UNL A   1      31.704  22.847  27.227  1.00  0.00     0.034 C 
ATOM     15  C   UNL A   1      30.333  22.810  26.558  1.00  0.00     0.009 C 
ENDBRANCH   9  14
BRANCH  11  16
ATOM     16  N   UNL A   1      34.493  22.088  26.636  1.00  0.00    -0.398 N 
ATOM     17  H   UNL A   1      34.897  21.920  27.518  1.00  0.00     0.156 HD
ATOM     18  H   UNL A   1      34.401  21.353  25.989  1.00  0.00     0.156 HD
ENDBRANCH  11  16
BRANCH  12  19
ATOM     19  C   UNL A   1      36.364  23.960  25.288  1.00  0.00     0.034 C 
ATOM     20  C   UNL A   1      36.664  23.206  23.997  1.00  0.00     0.009 C 
ENDBRANCH  12  19
ENDBRANCH   7   8
BRANCH   7  21
ATOM     21  N   UNL A   1      31.575  27.275  24.023  1.00  0.00    -0.343 N 
ATOM     22  H   UNL A   1      31.993  27.502  23.120  1.00  0.00     0.345 HD
ATOM     23  H   UNL A   1      30.847  27.956  24.240  1.00  0.00     0.345 HD
ATOM     24  H   UNL A   1      31.167  26.341  23.984  1.00  0.00     0.345 HD
ENDBRANCH   7  21
ENDBRANCH   4   7
ENDBRANCH   2   3
ENDBRANCH   1   2
BRANCH   1  25
ATOM     25  C   UNL A   1      32.795  31.339  27.569  1.00  0.00     0.023 C 
BRANCH  25  26
ATOM     26  C   UNL A   1      32.810  32.674  26.834  1.00  0.00     0.116 C 
BRANCH  26  27
ATOM     27  N   UNL A   1      32.457  33.810  27.674  1.00  0.00    -0.352 N 
ATOM     28  C   UNL A   1      33.121  34.365  28.745  1.00  0.00     0.251 C 
ATOM     29  H   UNL A   1      31.609  34.252  27.439  1.00  0.00     0.163 HD
ATOM     30  O   UNL A   1      32.595  35.260  29.394  1.00  0.00    -0.269 OA
BRANCH  28  31
ATOM     31  C   UNL A   1      34.456  33.860  29.137  1.00  0.00     0.039 A 
ATOM     32  C   UNL A   1      34.569  33.071  30.285  1.00  0.00     0.014 A 
ATOM     33  C   UNL A   1      35.592  34.156  28.382  1.00  0.00     0.014 A 
ATOM     34  C   UNL A   1      35.807  32.524  30.630  1.00  0.00     0.010 A 
ATOM     35  C   UNL A   1      36.798  33.522  28.664  1.00  0.00     0.010 A 
ATOM     36  C   UNL A   1      36.926  32.712  29.801  1.00  0.00    -0.014 A 
BRANCH  36  37
ATOM     37  C   UNL A   1      38.236  32.091  30.128  1.00  0.00     0.031 A 
ATOM     38  C   UNL A   1      39.199  32.789  31.054  1.00  0.00     0.074 A 
ATOM     39  C   UNL A   1      38.579  30.912  29.569  1.00  0.00     0.049 A 
ATOM     40  N   UNL A   1      40.379  32.397  31.467  1.00  0.00    -0.248 NA
ATOM     41  C   UNL A   1      38.798  34.112  31.560  1.00  0.00     0.031 C 
ATOM     42  C   UNL A   1      37.766  30.157  28.613  1.00  0.00     0.029 A 
ATOM     43  N   UNL A   1      39.702  30.140  29.731  1.00  0.00    -0.354 N 
ATOM     44  C   UNL A   1      40.859  33.428  32.266  1.00  0.00     0.074 A 
ATOM     45  C   UNL A   1      39.879  34.489  32.225  1.00  0.00     0.031 C 
ATOM     46  C   UNL A   1      38.394  29.009  28.312  1.00  0.00     0.029 A 
ATOM     47  C   UNL A   1      39.669  28.965  29.020  1.00  0.00     0.049 A 
ATOM     48  H   UNL A   1      40.459  30.403  30.302  1.00  0.00     0.167 HD
ATOM     49  C   UNL A   1      42.000  33.480  32.995  1.00  0.00     0.031 A 
ATOM     50  C   UNL A   1      40.562  27.959  28.951  1.00  0.00     0.031 A 
ATOM     51  C   UNL A   1      42.975  32.424  33.044  1.00  0.00     0.049 A 
ATOM     52  C   UNL A   1      41.822  28.041  29.767  1.00  0.00     0.074 A 
ATOM     53  C   UNL A   1      44.137  32.356  33.793  1.00  0.00     0.029 A 
ATOM     54  N   UNL A   1      42.903  31.249  32.311  1.00  0.00    -0.354 N 
ATOM     55  N   UNL A   1      42.223  28.988  30.582  1.00  0.00    -0.248 NA
ATOM     56  C   UNL A   1      42.744  26.901  29.669  1.00  0.00     0.031 C 
ATOM     57  C   UNL A   1      44.797  31.167  33.469  1.00  0.00     0.029 A 
ATOM     58  C   UNL A   1      44.012  30.461  32.573  1.00  0.00     0.049 A 
ATOM     59  H   UNL A   1      42.172  31.011  31.697  1.00  0.00     0.167 HD
ATOM     60  C   UNL A   1      43.427  28.543  31.117  1.00  0.00     0.074 A 
ATOM     61  C   UNL A   1      43.675  27.233  30.552  1.00  0.00     0.031 C 
ATOM     62  C   UNL A   1      44.251  29.162  31.997  1.00  0.00     0.031 A 
BRANCH  49  63
ATOM     63  C   UNL A   1      42.253  34.729  33.796  1.00  0.00    -0.014 A 
ATOM     64  C   UNL A   1      41.862  34.824  35.142  1.00  0.00     0.009 A 
ATOM     65  C   UNL A   1      42.912  35.818  33.205  1.00  0.00     0.009 A 
ATOM     66  C   UNL A   1      42.089  35.997  35.866  1.00  0.00     0.001 A 
ATOM     67  C   UNL A   1      43.168  36.977  33.940  1.00  0.00     0.001 A 
ATOM     68  C   UNL A   1      42.747  37.070  35.265  1.00  0.00     0.000 A 
ENDBRANCH  49  63
BRANCH  50  69
ATOM     69  C   UNL A   1      40.289  26.769  28.101  1.00  0.00    -0.014 A 
ATOM     70  C   UNL A   1      39.512  25.705  28.588  1.00  0.00     0.009 A 
ATOM     71  C   UNL A   1      40.820  26.680  26.805  1.00  0.00     0.009 A 
ATOM     72  C   UNL A   1      39.304  24.564  27.810  1.00  0.00     0.001 A 
ATOM     73  C   UNL A   1      40.584  25.553  26.016  1.00  0.00     0.001 A 
ATOM     74  C   UNL A   1      39.837  24.490  26.523  1.00  0.00     0.000 A 
ENDBRANCH  50  69
BRANCH  62  75
ATOM     75  C   UNL A   1      45.477  28.408  32.432  1.00  0.00    -0.014 A 
ATOM     76  C   UNL A   1      45.456  27.543  33.537  1.00  0.00     0.009 A 
ATOM     77  C   UNL A   1      46.675  28.562  31.715  1.00  0.00     0.009 A 
ATOM     78  C   UNL A   1      46.620  26.891  33.948  1.00  0.00     0.001 A 
ATOM     79  C   UNL A   1      47.829  27.881  32.106  1.00  0.00     0.001 A 
ATOM     80  C   UNL A   1      47.804  27.058  33.230  1.00  0.00     0.000 A 
ENDBRANCH  62  75
ENDBRANCH  36  37
ENDBRANCH  28  31
ENDBRANCH  26  27
ENDBRANCH  25  26
ENDBRANCH   1  25
TORSDOF 16
ENDMDL
