MODEL 1
REMARK VINA RESULT:     -12.2      0.000      0.000
REMARK SMILES O=C(C[C@@H]1C(=O)NCCN1C(=O)OCC1c2ccccc2-c2ccccc21)NCCCCNC(=O)c1ccc(-c2c3nc(c(-c4ccccc4)c4ccc([nH]4)c(-c4ccccc4)c4nc(c(-c5ccccc5)c5ccc2[nH]5)C=C4)C=C3)cc1
REMARK SMILES IDX 29 1 28 2 1 3 2 4 3 6 4 7 5 8 10 9 6 10 7 11 9 12 8 13 11 15
REMARK SMILES IDX 12 16 13 17 14 18 15 19 16 20 27 21 17 22 21 23 22 24 26 25
REMARK SMILES IDX 18 26 20 27 23 28 25 29 19 30 24 31 30 32 31 33 32 34 33 35
REMARK SMILES IDX 34 36 35 38 36 39 37 40 83 41 38 42 82 43 39 44 40 45 41 46
REMARK SMILES IDX 76 47 42 48 81 49 75 50 77 51 43 52 80 53 74 54 73 55 44 57
REMARK SMILES IDX 66 58 51 59 65 60 52 61 55 62 64 63 78 64 53 65 54 66 63 68
REMARK SMILES IDX 79 69 56 70 45 71 46 72 50 73 47 74 49 75 48 76 67 77 68 78
REMARK SMILES IDX 72 79 69 80 71 81 70 82 57 83 58 84 62 85 59 86 61 87 60 88
REMARK H PARENT 28 5 7 14 33 37 77 56 55 67
REMARK Flexibility Score: inf
ROOT
ATOM      1  C   UNL A   1      36.940  22.205  25.737  1.00  0.00     0.116 C 
ENDROOT
BRANCH   1   2
ATOM      2  N   UNL A   1      35.760  21.781  26.470  1.00  0.00    -0.356 N 
ATOM      3  O   UNL A   1      34.641  23.765  26.217  1.00  0.00    -0.275 OA
ATOM      4  C   UNL A   1      34.645  22.591  26.576  1.00  0.00     0.222 C 
ATOM      5  H   UNL A   1      35.754  20.895  26.902  1.00  0.00     0.163 HD
BRANCH   4   6
ATOM      6  C   UNL A   1      33.426  21.946  27.213  1.00  0.00     0.135 C 
BRANCH   6   7
ATOM      7  C   UNL A   1      32.332  21.679  26.161  1.00  0.00     0.187 C 
ATOM      8  C   UNL A   1      33.028  20.926  24.987  1.00  0.00     0.243 C 
ATOM      9  N   UNL A   1      31.487  22.836  25.748  1.00  0.00    -0.294 N 
ATOM     10  O   UNL A   1      33.674  19.895  25.157  1.00  0.00    -0.273 OA
ATOM     11  N   UNL A   1      32.909  21.426  23.720  1.00  0.00    -0.353 N 
ATOM     12  C   UNL A   1      31.043  22.856  24.357  1.00  0.00     0.145 C 
ATOM     13  C   UNL A   1      32.222  22.657  23.419  1.00  0.00     0.137 C 
ATOM     14  H   UNL A   1      33.313  20.923  22.977  1.00  0.00     0.163 HD
BRANCH   9  15
ATOM     15  C   UNL A   1      30.783  23.650  26.616  1.00  0.00     0.410 C 
ATOM     16  O   UNL A   1      29.890  23.240  27.355  1.00  0.00    -0.224 OA
BRANCH  15  17
ATOM     17  O   UNL A   1      31.111  24.959  26.511  1.00  0.00    -0.448 OA
BRANCH  17  18
ATOM     18  C   UNL A   1      30.099  25.818  25.937  1.00  0.00     0.248 C 
BRANCH  18  19
ATOM     19  C   UNL A   1      30.683  27.037  25.184  1.00  0.00     0.088 C 
ATOM     20  C   UNL A   1      31.777  27.778  25.947  1.00  0.00    -0.029 A 
ATOM     21  C   UNL A   1      31.393  26.714  23.872  1.00  0.00    -0.029 A 
ATOM     22  C   UNL A   1      31.696  28.409  27.180  1.00  0.00     0.005 A 
ATOM     23  C   UNL A   1      32.962  27.825  25.180  1.00  0.00    -0.014 A 
ATOM     24  C   UNL A   1      32.734  27.151  23.920  1.00  0.00    -0.014 A 
ATOM     25  C   UNL A   1      30.884  26.096  22.740  1.00  0.00     0.005 A 
ATOM     26  C   UNL A   1      32.825  29.086  27.649  1.00  0.00     0.000 A 
ATOM     27  C   UNL A   1      34.083  28.491  25.650  1.00  0.00     0.009 A 
ATOM     28  C   UNL A   1      33.590  26.926  22.854  1.00  0.00     0.009 A 
ATOM     29  C   UNL A   1      31.748  25.866  21.667  1.00  0.00     0.000 A 
ATOM     30  C   UNL A   1      34.009  29.125  26.893  1.00  0.00     0.001 A 
ATOM     31  C   UNL A   1      33.091  26.269  21.726  1.00  0.00     0.001 A 
ENDBRANCH  18  19
ENDBRANCH  17  18
ENDBRANCH  15  17
ENDBRANCH   9  15
ENDBRANCH   6   7
ENDBRANCH   4   6
ENDBRANCH   1   2
BRANCH   1  32
ATOM     32  C   UNL A   1      37.278  21.285  24.566  1.00  0.00     0.023 C 
BRANCH  32  33
ATOM     33  C   UNL A   1      38.061  20.020  24.927  1.00  0.00     0.023 C 
BRANCH  33  34
ATOM     34  C   UNL A   1      39.147  20.185  25.989  1.00  0.00     0.116 C 
BRANCH  34  35
ATOM     35  N   UNL A   1      40.229  19.222  25.862  1.00  0.00    -0.352 N 
ATOM     36  C   UNL A   1      41.584  19.383  26.036  1.00  0.00     0.251 C 
ATOM     37  H   UNL A   1      39.949  18.312  25.612  1.00  0.00     0.163 HD
ATOM     38  O   UNL A   1      42.347  18.460  25.765  1.00  0.00    -0.269 OA
BRANCH  36  39
ATOM     39  C   UNL A   1      42.142  20.670  26.514  1.00  0.00     0.039 A 
ATOM     40  C   UNL A   1      42.644  21.573  25.570  1.00  0.00     0.014 A 
ATOM     41  C   UNL A   1      42.194  20.987  27.873  1.00  0.00     0.014 A 
ATOM     42  C   UNL A   1      43.124  22.820  25.981  1.00  0.00     0.010 A 
ATOM     43  C   UNL A   1      42.614  22.256  28.276  1.00  0.00     0.010 A 
ATOM     44  C   UNL A   1      43.075  23.189  27.335  1.00  0.00    -0.014 A 
BRANCH  44  45
ATOM     45  C   UNL A   1      43.479  24.548  27.779  1.00  0.00     0.031 A 
ATOM     46  C   UNL A   1      42.443  25.586  28.107  1.00  0.00     0.074 A 
ATOM     47  C   UNL A   1      44.787  24.873  27.821  1.00  0.00     0.049 A 
ATOM     48  N   UNL A   1      42.608  26.844  28.436  1.00  0.00    -0.248 NA
ATOM     49  C   UNL A   1      41.035  25.163  28.037  1.00  0.00     0.031 C 
ATOM     50  C   UNL A   1      45.896  23.975  27.493  1.00  0.00     0.029 A 
ATOM     51  N   UNL A   1      45.403  26.056  28.146  1.00  0.00    -0.354 N 
ATOM     52  C   UNL A   1      41.330  27.365  28.594  1.00  0.00     0.074 A 
ATOM     53  C   UNL A   1      40.400  26.300  28.284  1.00  0.00     0.031 C 
ATOM     54  C   UNL A   1      47.056  24.634  27.651  1.00  0.00     0.029 A 
ATOM     55  C   UNL A   1      46.774  26.007  28.053  1.00  0.00     0.049 A 
ATOM     56  H   UNL A   1      44.911  26.864  28.420  1.00  0.00     0.167 HD
ATOM     57  C   UNL A   1      40.962  28.611  28.979  1.00  0.00     0.031 A 
ATOM     58  C   UNL A   1      47.701  26.961  28.258  1.00  0.00     0.031 A 
ATOM     59  C   UNL A   1      41.881  29.670  29.297  1.00  0.00     0.049 A 
ATOM     60  C   UNL A   1      47.266  28.339  28.672  1.00  0.00     0.074 A 
ATOM     61  C   UNL A   1      41.600  30.951  29.742  1.00  0.00     0.029 A 
ATOM     62  N   UNL A   1      43.260  29.574  29.203  1.00  0.00    -0.354 N 
ATOM     63  N   UNL A   1      46.055  28.798  28.871  1.00  0.00    -0.248 NA
ATOM     64  C   UNL A   1      48.331  29.327  28.899  1.00  0.00     0.031 C 
ATOM     65  C   UNL A   1      42.808  31.644  29.876  1.00  0.00     0.029 A 
ATOM     66  C   UNL A   1      43.843  30.778  29.563  1.00  0.00     0.049 A 
ATOM     67  H   UNL A   1      43.753  28.770  28.922  1.00  0.00     0.167 HD
ATOM     68  C   UNL A   1      46.212  30.118  29.270  1.00  0.00     0.074 A 
ATOM     69  C   UNL A   1      47.636  30.384  29.299  1.00  0.00     0.031 C 
ATOM     70  C   UNL A   1      45.260  31.030  29.586  1.00  0.00     0.031 A 
BRANCH  57  71
ATOM     71  C   UNL A   1      39.489  28.896  29.070  1.00  0.00    -0.014 A 
ATOM     72  C   UNL A   1      38.784  28.697  30.269  1.00  0.00     0.009 A 
ATOM     73  C   UNL A   1      38.804  29.405  27.956  1.00  0.00     0.009 A 
ATOM     74  C   UNL A   1      37.417  28.967  30.338  1.00  0.00     0.001 A 
ATOM     75  C   UNL A   1      37.441  29.698  28.037  1.00  0.00     0.001 A 
ATOM     76  C   UNL A   1      36.747  29.470  29.224  1.00  0.00     0.000 A 
ENDBRANCH  57  71
BRANCH  58  77
ATOM     77  C   UNL A   1      49.142  26.645  28.084  1.00  0.00    -0.014 A 
ATOM     78  C   UNL A   1      49.915  26.228  29.179  1.00  0.00     0.009 A 
ATOM     79  C   UNL A   1      49.753  26.764  26.826  1.00  0.00     0.009 A 
ATOM     80  C   UNL A   1      51.277  25.960  29.021  1.00  0.00     0.001 A 
ATOM     81  C   UNL A   1      51.107  26.470  26.667  1.00  0.00     0.001 A 
ATOM     82  C   UNL A   1      51.871  26.077  27.766  1.00  0.00     0.000 A 
ENDBRANCH  58  77
BRANCH  70  83
ATOM     83  C   UNL A   1      45.729  32.388  30.022  1.00  0.00    -0.014 A 
ATOM     84  C   UNL A   1      46.025  32.660  31.367  1.00  0.00     0.009 A 
ATOM     85  C   UNL A   1      45.912  33.401  29.067  1.00  0.00     0.009 A 
ATOM     86  C   UNL A   1      46.467  33.928  31.750  1.00  0.00     0.001 A 
ATOM     87  C   UNL A   1      46.377  34.659  29.449  1.00  0.00     0.001 A 
ATOM     88  C   UNL A   1      46.646  34.925  30.791  1.00  0.00     0.000 A 
ENDBRANCH  70  83
ENDBRANCH  44  45
ENDBRANCH  36  39
ENDBRANCH  34  35
ENDBRANCH  33  34
ENDBRANCH  32  33
ENDBRANCH   1  32
TORSDOF 16
ENDMDL
MODEL 2
REMARK VINA RESULT:     -12.1      0.541      5.646
REMARK SMILES O=C(C[C@@H]1C(=O)NCCN1C(=O)OCC1c2ccccc2-c2ccccc21)NCCCCNC(=O)c1ccc(-c2c3nc(c(-c4ccccc4)c4ccc([nH]4)c(-c4ccccc4)c4nc(c(-c5ccccc5)c5ccc2[nH]5)C=C4)C=C3)cc1
REMARK SMILES IDX 29 1 28 2 1 3 2 4 3 6 4 7 5 8 10 9 6 10 7 11 9 12 8 13 11 15
REMARK SMILES IDX 12 16 13 17 14 18 15 19 16 20 27 21 17 22 21 23 22 24 26 25
REMARK SMILES IDX 18 26 20 27 23 28 25 29 19 30 24 31 30 32 31 33 32 34 33 35
REMARK SMILES IDX 34 36 35 38 36 39 37 40 83 41 38 42 82 43 39 44 40 45 41 46
REMARK SMILES IDX 76 47 42 48 81 49 75 50 77 51 43 52 80 53 74 54 73 55 44 57
REMARK SMILES IDX 66 58 51 59 65 60 52 61 55 62 64 63 78 64 53 65 54 66 63 68
REMARK SMILES IDX 79 69 56 70 45 71 46 72 50 73 47 74 49 75 48 76 67 77 68 78
REMARK SMILES IDX 72 79 69 80 71 81 70 82 57 83 58 84 62 85 59 86 61 87 60 88
REMARK H PARENT 28 5 7 14 33 37 77 56 55 67
REMARK Flexibility Score: inf
ROOT
ATOM      1  C   UNL A   1      37.040  22.223  25.725  1.00  0.00     0.116 C 
ENDROOT
BRANCH   1   2
ATOM      2  N   UNL A   1      35.868  21.836  26.490  1.00  0.00    -0.356 N 
ATOM      3  O   UNL A   1      34.732  23.793  26.121  1.00  0.00    -0.275 OA
ATOM      4  C   UNL A   1      34.747  22.644  26.552  1.00  0.00     0.222 C 
ATOM      5  H   UNL A   1      35.870  20.980  26.976  1.00  0.00     0.163 HD
BRANCH   4   6
ATOM      6  C   UNL A   1      33.535  22.031  27.233  1.00  0.00     0.135 C 
BRANCH   6   7
ATOM      7  C   UNL A   1      32.431  21.708  26.209  1.00  0.00     0.187 C 
ATOM      8  C   UNL A   1      33.125  20.932  25.048  1.00  0.00     0.243 C 
ATOM      9  N   UNL A   1      31.557  22.834  25.773  1.00  0.00    -0.294 N 
ATOM     10  O   UNL A   1      33.794  19.919  25.242  1.00  0.00    -0.273 OA
ATOM     11  N   UNL A   1      32.976  21.388  23.768  1.00  0.00    -0.353 N 
ATOM     12  C   UNL A   1      31.091  22.800  24.389  1.00  0.00     0.145 C 
ATOM     13  C   UNL A   1      32.259  22.594  23.439  1.00  0.00     0.137 C 
ATOM     14  H   UNL A   1      33.379  20.868  23.035  1.00  0.00     0.163 HD
BRANCH   9  15
ATOM     15  C   UNL A   1      30.850  23.662  26.625  1.00  0.00     0.410 C 
ATOM     16  O   UNL A   1      29.955  23.263  27.368  1.00  0.00    -0.224 OA
BRANCH  15  17
ATOM     17  O   UNL A   1      31.177  24.969  26.500  1.00  0.00    -0.448 OA
BRANCH  17  18
ATOM     18  C   UNL A   1      30.143  25.829  25.968  1.00  0.00     0.248 C 
BRANCH  18  19
ATOM     19  C   UNL A   1      30.696  27.039  25.178  1.00  0.00     0.088 C 
ATOM     20  C   UNL A   1      31.775  27.826  25.916  1.00  0.00    -0.029 A 
ATOM     21  C   UNL A   1      31.408  26.695  23.873  1.00  0.00    -0.029 A 
ATOM     22  C   UNL A   1      31.685  28.491  27.130  1.00  0.00     0.005 A 
ATOM     23  C   UNL A   1      32.956  27.878  25.142  1.00  0.00    -0.014 A 
ATOM     24  C   UNL A   1      32.740  27.164  23.903  1.00  0.00    -0.014 A 
ATOM     25  C   UNL A   1      30.910  26.034  22.761  1.00  0.00     0.005 A 
ATOM     26  C   UNL A   1      32.800  29.205  27.575  1.00  0.00     0.000 A 
ATOM     27  C   UNL A   1      34.063  28.583  25.588  1.00  0.00     0.009 A 
ATOM     28  C   UNL A   1      33.597  26.928  22.840  1.00  0.00     0.009 A 
ATOM     29  C   UNL A   1      31.774  25.792  21.692  1.00  0.00     0.000 A 
ATOM     30  C   UNL A   1      33.980  29.250  26.813  1.00  0.00     0.001 A 
ATOM     31  C   UNL A   1      33.108  26.228  21.733  1.00  0.00     0.001 A 
ENDBRANCH  18  19
ENDBRANCH  17  18
ENDBRANCH  15  17
ENDBRANCH   9  15
ENDBRANCH   6   7
ENDBRANCH   4   6
ENDBRANCH   1   2
BRANCH   1  32
ATOM     32  C   UNL A   1      37.326  21.284  24.556  1.00  0.00     0.023 C 
BRANCH  32  33
ATOM     33  C   UNL A   1      38.113  20.017  24.905  1.00  0.00     0.023 C 
BRANCH  33  34
ATOM     34  C   UNL A   1      39.132  20.153  26.035  1.00  0.00     0.116 C 
BRANCH  34  35
ATOM     35  N   UNL A   1      40.279  19.271  25.887  1.00  0.00    -0.352 N 
ATOM     36  C   UNL A   1      41.621  19.529  26.041  1.00  0.00     0.251 C 
ATOM     37  H   UNL A   1      40.061  18.344  25.636  1.00  0.00     0.163 HD
ATOM     38  O   UNL A   1      42.444  18.664  25.753  1.00  0.00    -0.269 OA
BRANCH  36  39
ATOM     39  C   UNL A   1      42.092  20.851  26.516  1.00  0.00     0.039 A 
ATOM     40  C   UNL A   1      42.468  21.809  25.567  1.00  0.00     0.014 A 
ATOM     41  C   UNL A   1      42.187  21.150  27.877  1.00  0.00     0.014 A 
ATOM     42  C   UNL A   1      42.862  23.085  25.979  1.00  0.00     0.010 A 
ATOM     43  C   UNL A   1      42.518  22.443  28.285  1.00  0.00     0.010 A 
ATOM     44  C   UNL A   1      42.850  23.427  27.341  1.00  0.00    -0.014 A 
BRANCH  44  45
ATOM     45  C   UNL A   1      43.161  24.808  27.792  1.00  0.00     0.031 A 
ATOM     46  C   UNL A   1      44.583  25.232  28.034  1.00  0.00     0.074 A 
ATOM     47  C   UNL A   1      42.155  25.666  28.053  1.00  0.00     0.049 A 
ATOM     48  N   UNL A   1      45.038  26.368  28.502  1.00  0.00    -0.248 NA
ATOM     49  C   UNL A   1      45.630  24.244  27.733  1.00  0.00     0.031 C 
ATOM     50  C   UNL A   1      40.728  25.374  27.896  1.00  0.00     0.029 A 
ATOM     51  N   UNL A   1      42.180  26.958  28.517  1.00  0.00    -0.354 N 
ATOM     52  C   UNL A   1      46.418  26.225  28.566  1.00  0.00     0.074 A 
ATOM     53  C   UNL A   1      46.723  24.879  28.131  1.00  0.00     0.031 C 
ATOM     54  C   UNL A   1      40.017  26.460  28.241  1.00  0.00     0.029 A 
ATOM     55  C   UNL A   1      40.932  27.510  28.678  1.00  0.00     0.049 A 
ATOM     56  H   UNL A   1      43.013  27.443  28.717  1.00  0.00     0.167 HD
ATOM     57  C   UNL A   1      47.351  27.136  28.938  1.00  0.00     0.031 A 
ATOM     58  C   UNL A   1      40.560  28.721  29.135  1.00  0.00     0.031 A 
ATOM     59  C   UNL A   1      47.055  28.478  29.362  1.00  0.00     0.049 A 
ATOM     60  C   UNL A   1      41.613  29.708  29.553  1.00  0.00     0.074 A 
ATOM     61  C   UNL A   1      47.938  29.486  29.712  1.00  0.00     0.029 A 
ATOM     62  N   UNL A   1      45.779  29.001  29.498  1.00  0.00    -0.354 N 
ATOM     63  N   UNL A   1      42.917  29.575  29.554  1.00  0.00    -0.248 NA
ATOM     64  C   UNL A   1      41.140  31.019  30.023  1.00  0.00     0.031 C 
ATOM     65  C   UNL A   1      47.193  30.606  30.099  1.00  0.00     0.029 A 
ATOM     66  C   UNL A   1      45.849  30.310  29.944  1.00  0.00     0.049 A 
ATOM     67  H   UNL A   1      44.946  28.513  29.306  1.00  0.00     0.167 HD
ATOM     68  C   UNL A   1      43.420  30.790  29.999  1.00  0.00     0.074 A 
ATOM     69  C   UNL A   1      42.283  31.653  30.245  1.00  0.00     0.031 C 
ATOM     70  C   UNL A   1      44.711  31.157  30.186  1.00  0.00     0.031 A 
BRANCH  57  71
ATOM     71  C   UNL A   1      48.789  26.702  28.905  1.00  0.00    -0.014 A 
ATOM     72  C   UNL A   1      49.564  26.844  27.743  1.00  0.00     0.009 A 
ATOM     73  C   UNL A   1      49.388  26.177  30.061  1.00  0.00     0.009 A 
ATOM     74  C   UNL A   1      50.899  26.436  27.728  1.00  0.00     0.001 A 
ATOM     75  C   UNL A   1      50.731  25.794  30.050  1.00  0.00     0.001 A 
ATOM     76  C   UNL A   1      51.482  25.915  28.882  1.00  0.00     0.000 A 
ENDBRANCH  57  71
BRANCH  58  77
ATOM     77  C   UNL A   1      39.120  29.074  29.214  1.00  0.00    -0.014 A 
ATOM     78  C   UNL A   1      38.479  29.692  28.130  1.00  0.00     0.009 A 
ATOM     79  C   UNL A   1      38.380  28.802  30.376  1.00  0.00     0.009 A 
ATOM     80  C   UNL A   1      37.132  30.052  28.216  1.00  0.00     0.001 A 
ATOM     81  C   UNL A   1      37.028  29.138  30.449  1.00  0.00     0.001 A 
ATOM     82  C   UNL A   1      36.407  29.771  29.373  1.00  0.00     0.000 A 
ENDBRANCH  58  77
BRANCH  70  83
ATOM     83  C   UNL A   1      44.964  32.564  30.649  1.00  0.00    -0.014 A 
ATOM     84  C   UNL A   1      45.070  32.874  32.014  1.00  0.00     0.009 A 
ATOM     85  C   UNL A   1      45.136  33.587  29.703  1.00  0.00     0.009 A 
ATOM     86  C   UNL A   1      45.313  34.187  32.422  1.00  0.00     0.001 A 
ATOM     87  C   UNL A   1      45.404  34.893  30.113  1.00  0.00     0.001 A 
ATOM     88  C   UNL A   1      45.484  35.194  31.472  1.00  0.00     0.000 A 
ENDBRANCH  70  83
ENDBRANCH  44  45
ENDBRANCH  36  39
ENDBRANCH  34  35
ENDBRANCH  33  34
ENDBRANCH  32  33
ENDBRANCH   1  32
TORSDOF 16
ENDMDL
MODEL 3
REMARK VINA RESULT:     -12.1      0.964      5.892
REMARK SMILES O=C(C[C@@H]1C(=O)NCCN1C(=O)OCC1c2ccccc2-c2ccccc21)NCCCCNC(=O)c1ccc(-c2c3nc(c(-c4ccccc4)c4ccc([nH]4)c(-c4ccccc4)c4nc(c(-c5ccccc5)c5ccc2[nH]5)C=C4)C=C3)cc1
REMARK SMILES IDX 29 1 28 2 1 3 2 4 3 6 4 7 5 8 10 9 6 10 7 11 9 12 8 13 11 15
REMARK SMILES IDX 12 16 13 17 14 18 15 19 16 20 27 21 17 22 21 23 22 24 26 25
REMARK SMILES IDX 18 26 20 27 23 28 25 29 19 30 24 31 30 32 31 33 32 34 33 35
REMARK SMILES IDX 34 36 35 38 36 39 37 40 83 41 38 42 82 43 39 44 40 45 41 46
REMARK SMILES IDX 76 47 42 48 81 49 75 50 77 51 43 52 80 53 74 54 73 55 44 57
REMARK SMILES IDX 66 58 51 59 65 60 52 61 55 62 64 63 78 64 53 65 54 66 63 68
REMARK SMILES IDX 79 69 56 70 45 71 46 72 50 73 47 74 49 75 48 76 67 77 68 78
REMARK SMILES IDX 72 79 69 80 71 81 70 82 57 83 58 84 62 85 59 86 61 87 60 88
REMARK H PARENT 28 5 7 14 33 37 77 56 55 67
REMARK Flexibility Score: inf
ROOT
ATOM      1  C   UNL A   1      37.001  22.210  25.638  1.00  0.00     0.116 C 
ENDROOT
BRANCH   1   2
ATOM      2  N   UNL A   1      35.824  21.785  26.375  1.00  0.00    -0.356 N 
ATOM      3  O   UNL A   1      34.697  23.764  26.117  1.00  0.00    -0.275 OA
ATOM      4  C   UNL A   1      34.706  22.591  26.480  1.00  0.00     0.222 C 
ATOM      5  H   UNL A   1      35.822  20.901  26.810  1.00  0.00     0.163 HD
BRANCH   4   6
ATOM      6  C   UNL A   1      33.490  21.945  27.122  1.00  0.00     0.135 C 
BRANCH   6   7
ATOM      7  C   UNL A   1      32.367  21.736  26.088  1.00  0.00     0.187 C 
ATOM      8  C   UNL A   1      32.999  20.930  24.912  1.00  0.00     0.243 C 
ATOM      9  N   UNL A   1      31.591  22.940  25.674  1.00  0.00    -0.294 N 
ATOM     10  O   UNL A   1      33.581  19.862  25.085  1.00  0.00    -0.273 OA
ATOM     11  N   UNL A   1      32.894  21.424  23.641  1.00  0.00    -0.353 N 
ATOM     12  C   UNL A   1      31.130  22.974  24.289  1.00  0.00     0.145 C 
ATOM     13  C   UNL A   1      32.280  22.692  23.337  1.00  0.00     0.137 C 
ATOM     14  H   UNL A   1      33.255  20.889  22.899  1.00  0.00     0.163 HD
BRANCH   9  15
ATOM     15  C   UNL A   1      30.951  23.805  26.542  1.00  0.00     0.410 C 
ATOM     16  O   UNL A   1      30.001  23.475  27.250  1.00  0.00    -0.224 OA
BRANCH  15  17
ATOM     17  O   UNL A   1      31.415  25.075  26.476  1.00  0.00    -0.448 OA
BRANCH  17  18
ATOM     18  C   UNL A   1      30.536  26.033  25.843  1.00  0.00     0.248 C 
BRANCH  18  19
ATOM     19  C   UNL A   1      31.283  27.066  24.965  1.00  0.00     0.088 C 
ATOM     20  C   UNL A   1      30.365  28.003  24.185  1.00  0.00    -0.029 A 
ATOM     21  C   UNL A   1      32.156  28.059  25.727  1.00  0.00    -0.029 A 
ATOM     22  C   UNL A   1      29.411  27.684  23.231  1.00  0.00     0.005 A 
ATOM     23  C   UNL A   1      30.656  29.348  24.504  1.00  0.00    -0.014 A 
ATOM     24  C   UNL A   1      31.735  29.381  25.467  1.00  0.00    -0.014 A 
ATOM     25  C   UNL A   1      33.230  27.804  26.566  1.00  0.00     0.005 A 
ATOM     26  C   UNL A   1      28.735  28.731  22.600  1.00  0.00     0.000 A 
ATOM     27  C   UNL A   1      29.980  30.385  23.881  1.00  0.00     0.009 A 
ATOM     28  C   UNL A   1      32.354  30.455  26.087  1.00  0.00     0.009 A 
ATOM     29  C   UNL A   1      33.851  28.886  27.194  1.00  0.00     0.000 A 
ATOM     30  C   UNL A   1      29.014  30.069  22.922  1.00  0.00     0.001 A 
ATOM     31  C   UNL A   1      33.413  30.199  26.963  1.00  0.00     0.001 A 
ENDBRANCH  18  19
ENDBRANCH  17  18
ENDBRANCH  15  17
ENDBRANCH   9  15
ENDBRANCH   6   7
ENDBRANCH   4   6
ENDBRANCH   1   2
BRANCH   1  32
ATOM     32  C   UNL A   1      37.367  21.262  24.499  1.00  0.00     0.023 C 
BRANCH  32  33
ATOM     33  C   UNL A   1      38.093  19.980  24.917  1.00  0.00     0.023 C 
BRANCH  33  34
ATOM     34  C   UNL A   1      39.079  20.117  26.077  1.00  0.00     0.116 C 
BRANCH  34  35
ATOM     35  N   UNL A   1      40.209  19.207  25.984  1.00  0.00    -0.352 N 
ATOM     36  C   UNL A   1      41.556  19.449  26.125  1.00  0.00     0.251 C 
ATOM     37  H   UNL A   1      39.974  18.271  25.789  1.00  0.00     0.163 HD
ATOM     38  O   UNL A   1      42.363  18.553  25.891  1.00  0.00    -0.269 OA
BRANCH  36  39
ATOM     39  C   UNL A   1      42.051  20.788  26.521  1.00  0.00     0.039 A 
ATOM     40  C   UNL A   1      42.318  21.727  25.518  1.00  0.00     0.014 A 
ATOM     41  C   UNL A   1      42.273  21.122  27.859  1.00  0.00     0.014 A 
ATOM     42  C   UNL A   1      42.731  23.018  25.859  1.00  0.00     0.010 A 
ATOM     43  C   UNL A   1      42.622  22.429  28.202  1.00  0.00     0.010 A 
ATOM     44  C   UNL A   1      42.846  23.393  27.208  1.00  0.00    -0.014 A 
BRANCH  44  45
ATOM     45  C   UNL A   1      43.179  24.789  27.594  1.00  0.00     0.031 A 
ATOM     46  C   UNL A   1      44.611  25.231  27.706  1.00  0.00     0.074 A 
ATOM     47  C   UNL A   1      42.188  25.645  27.915  1.00  0.00     0.049 A 
ATOM     48  N   UNL A   1      45.091  26.384  28.104  1.00  0.00    -0.248 NA
ATOM     49  C   UNL A   1      45.641  24.244  27.346  1.00  0.00     0.031 C 
ATOM     50  C   UNL A   1      40.757  25.337  27.885  1.00  0.00     0.029 A 
ATOM     51  N   UNL A   1      42.238  26.950  28.340  1.00  0.00    -0.354 N 
ATOM     52  C   UNL A   1      46.473  26.255  28.057  1.00  0.00     0.074 A 
ATOM     53  C   UNL A   1      46.756  24.900  27.635  1.00  0.00     0.031 C 
ATOM     54  C   UNL A   1      40.065  26.426  28.258  1.00  0.00     0.029 A 
ATOM     55  C   UNL A   1      41.001  27.495  28.589  1.00  0.00     0.049 A 
ATOM     56  H   UNL A   1      43.079  27.447  28.457  1.00  0.00     0.167 HD
ATOM     57  C   UNL A   1      47.423  27.183  28.325  1.00  0.00     0.031 A 
ATOM     58  C   UNL A   1      40.656  28.715  29.043  1.00  0.00     0.031 A 
ATOM     59  C   UNL A   1      47.150  28.534  28.737  1.00  0.00     0.049 A 
ATOM     60  C   UNL A   1      41.730  29.723  29.345  1.00  0.00     0.074 A 
ATOM     61  C   UNL A   1      48.047  29.559  28.984  1.00  0.00     0.029 A 
ATOM     62  N   UNL A   1      45.883  29.049  28.963  1.00  0.00    -0.354 N 
ATOM     63  N   UNL A   1      43.030  29.601  29.241  1.00  0.00    -0.248 NA
ATOM     64  C   UNL A   1      41.283  31.042  29.817  1.00  0.00     0.031 C 
ATOM     65  C   UNL A   1      47.326  30.682  29.402  1.00  0.00     0.029 A 
ATOM     66  C   UNL A   1      45.977  30.371  29.366  1.00  0.00     0.049 A 
ATOM     67  H   UNL A   1      45.043  28.550  28.855  1.00  0.00     0.167 HD
ATOM     68  C   UNL A   1      43.556  30.832  29.610  1.00  0.00     0.074 A 
ATOM     69  C   UNL A   1      42.434  31.692  29.927  1.00  0.00     0.031 C 
ATOM     70  C   UNL A   1      44.854  31.215  29.679  1.00  0.00     0.031 A 
BRANCH  57  71
ATOM     71  C   UNL A   1      48.859  26.760  28.185  1.00  0.00    -0.014 A 
ATOM     72  C   UNL A   1      49.549  26.169  29.257  1.00  0.00     0.009 A 
ATOM     73  C   UNL A   1      49.519  26.919  26.958  1.00  0.00     0.009 A 
ATOM     74  C   UNL A   1      50.882  25.782  29.112  1.00  0.00     0.001 A 
ATOM     75  C   UNL A   1      50.845  26.505  26.808  1.00  0.00     0.001 A 
ATOM     76  C   UNL A   1      51.527  25.946  27.888  1.00  0.00     0.000 A 
ENDBRANCH  57  71
BRANCH  58  77
ATOM     77  C   UNL A   1      39.224  29.058  29.231  1.00  0.00    -0.014 A 
ATOM     78  C   UNL A   1      38.597  28.839  30.467  1.00  0.00     0.009 A 
ATOM     79  C   UNL A   1      38.474  29.599  28.176  1.00  0.00     0.009 A 
ATOM     80  C   UNL A   1      37.242  29.132  30.635  1.00  0.00     0.001 A 
ATOM     81  C   UNL A   1      37.127  29.917  28.354  1.00  0.00     0.001 A 
ATOM     82  C   UNL A   1      36.509  29.675  29.581  1.00  0.00     0.000 A 
ENDBRANCH  58  77
BRANCH  70  83
ATOM     83  C   UNL A   1      45.129  32.636  30.082  1.00  0.00    -0.014 A 
ATOM     84  C   UNL A   1      45.379  32.979  31.419  1.00  0.00     0.009 A 
ATOM     85  C   UNL A   1      45.175  33.640  29.101  1.00  0.00     0.009 A 
ATOM     86  C   UNL A   1      45.640  34.305  31.771  1.00  0.00     0.001 A 
ATOM     87  C   UNL A   1      45.462  34.959  29.451  1.00  0.00     0.001 A 
ATOM     88  C   UNL A   1      45.685  35.293  30.787  1.00  0.00     0.000 A 
ENDBRANCH  70  83
ENDBRANCH  44  45
ENDBRANCH  36  39
ENDBRANCH  34  35
ENDBRANCH  33  34
ENDBRANCH  32  33
ENDBRANCH   1  32
TORSDOF 16
ENDMDL
