MODEL 1
REMARK VINA RESULT:     -11.8      0.000      0.000
REMARK SMILES N#C/C(=C\c1ccc(-c2cc(C(=O)NCCCCNC(=O)c3ccc(-c4c5nc(c(-c6ccccc6)c6ccc([nH]6)c(-c6ccccc6)c6nc(c(-c7ccccc7)c7ccc4[nH]7)C=C6)C=C5)cc3)ccc2Cl)o1)C(=O)N1CCOCC1
REMARK SMILES IDX 16 1 15 2 14 3 12 4 13 5 11 7 9 8 10 9 72 10 71 11 73 12
REMARK SMILES IDX 70 13 8 14 5 15 6 16 74 17 7 18 4 19 3 20 2 21 1 22 75 23
REMARK SMILES IDX 76 24 77 25 78 26 82 27 79 28 81 29 80 30 17 31 18 32 19 33
REMARK SMILES IDX 20 34 21 36 22 37 23 38 69 39 24 40 68 41 25 42 26 43 27 44
REMARK SMILES IDX 62 45 28 46 67 47 61 48 63 49 29 50 66 51 60 52 59 53 30 55
REMARK SMILES IDX 52 56 37 57 51 58 38 59 41 60 50 61 64 62 39 63 40 64 49 66
REMARK SMILES IDX 65 67 42 68 31 69 32 70 36 71 33 72 35 73 34 74 53 75 54 76
REMARK SMILES IDX 58 77 55 78 57 79 56 80 43 81 44 82 48 83 45 84 47 85 46 86
REMARK H PARENT 14 6 19 35 63 54 41 65
REMARK Flexibility Score: inf
ROOT
ATOM      1  C   UNL A   1      34.349  33.323  29.202  1.00  0.00     0.023 C 
ENDROOT
BRANCH   1   2
ATOM      2  C   UNL A   1      35.169  32.877  27.987  1.00  0.00     0.116 C 
BRANCH   2   3
ATOM      3  N   UNL A   1      35.700  31.542  28.177  1.00  0.00    -0.352 N 
ATOM      4  C   UNL A   1      35.308  30.307  27.725  1.00  0.00     0.251 C 
ATOM      5  O   UNL A   1      36.019  29.350  28.032  1.00  0.00    -0.269 OA
ATOM      6  H   UNL A   1      36.505  31.517  28.745  1.00  0.00     0.163 HD
BRANCH   4   7
ATOM      7  C   UNL A   1      34.104  30.062  26.873  1.00  0.00     0.040 A 
ATOM      8  C   UNL A   1      33.175  28.864  24.935  1.00  0.00     0.037 A 
ATOM      9  C   UNL A   1      34.247  29.161  25.797  1.00  0.00     0.027 A 
ATOM     10  C   UNL A   1      31.940  29.494  25.154  1.00  0.00     0.052 A 
ATOM     11  C   UNL A   1      31.778  30.362  26.233  1.00  0.00     0.022 A 
ATOM     12  Cl  UNL A   1      30.554  29.219  24.156  1.00  0.00    -0.084 Cl
ATOM     13  C   UNL A   1      32.845  30.623  27.096  1.00  0.00     0.015 A 
BRANCH   8  14
ATOM     14  C   UNL A   1      33.371  27.936  23.832  1.00  0.00     0.136 A 
ATOM     15  C   UNL A   1      33.402  25.890  22.946  1.00  0.00     0.129 A 
ATOM     16  C   UNL A   1      33.590  26.818  21.923  1.00  0.00     0.051 A 
ATOM     17  O   UNL A   1      33.242  26.609  24.117  1.00  0.00    -0.457 OA
ATOM     18  C   UNL A   1      33.618  28.108  22.492  1.00  0.00     0.051 A 
BRANCH  15  19
ATOM     19  C   UNL A   1      33.350  24.458  22.908  1.00  0.00     0.072 C 
ATOM     20  C   UNL A   1      32.260  23.733  23.259  1.00  0.00     0.121 C 
BRANCH  20  21
ATOM     21  C   UNL A   1      30.975  24.541  23.342  1.00  0.00     0.105 C 
ATOM     22  N   UNL A   1      29.910  25.212  23.410  1.00  0.00    -0.192 NA
ENDBRANCH  20  21
BRANCH  20  23
ATOM     23  C   UNL A   1      32.207  22.262  23.048  1.00  0.00     0.264 C 
ATOM     24  O   UNL A   1      32.181  21.838  21.892  1.00  0.00    -0.268 OA
ATOM     25  N   UNL A   1      32.251  21.405  24.136  1.00  0.00    -0.333 N 
ATOM     26  C   UNL A   1      31.989  21.697  25.556  1.00  0.00     0.148 C 
ATOM     27  C   UNL A   1      32.621  20.002  23.917  1.00  0.00     0.148 C 
ATOM     28  C   UNL A   1      33.195  21.279  26.412  1.00  0.00     0.181 C 
ATOM     29  C   UNL A   1      33.824  19.651  24.804  1.00  0.00     0.181 C 
ATOM     30  O   UNL A   1      33.530  19.900  26.190  1.00  0.00    -0.378 OA
ENDBRANCH  20  23
ENDBRANCH  15  19
ENDBRANCH   8  14
ENDBRANCH   4   7
ENDBRANCH   2   3
ENDBRANCH   1   2
BRANCH   1  31
ATOM     31  C   UNL A   1      33.307  34.405  28.904  1.00  0.00     0.023 C 
BRANCH  31  32
ATOM     32  C   UNL A   1      33.578  35.757  29.553  1.00  0.00     0.116 C 
BRANCH  32  33
ATOM     33  N   UNL A   1      32.579  36.143  30.539  1.00  0.00    -0.352 N 
ATOM     34  C   UNL A   1      32.575  35.878  31.891  1.00  0.00     0.251 C 
ATOM     35  H   UNL A   1      31.812  36.657  30.198  1.00  0.00     0.163 HD
ATOM     36  O   UNL A   1      31.625  36.195  32.589  1.00  0.00    -0.269 OA
BRANCH  34  37
ATOM     37  C   UNL A   1      33.724  35.155  32.472  1.00  0.00     0.039 A 
ATOM     38  C   UNL A   1      33.545  33.834  32.888  1.00  0.00     0.014 A 
ATOM     39  C   UNL A   1      34.981  35.760  32.536  1.00  0.00     0.014 A 
ATOM     40  C   UNL A   1      34.653  33.087  33.295  1.00  0.00     0.010 A 
ATOM     41  C   UNL A   1      36.091  34.996  32.881  1.00  0.00     0.010 A 
ATOM     42  C   UNL A   1      35.938  33.651  33.252  1.00  0.00    -0.014 A 
BRANCH  42  43
ATOM     43  C   UNL A   1      37.146  32.851  33.569  1.00  0.00     0.031 A 
ATOM     44  C   UNL A   1      37.907  33.110  34.837  1.00  0.00     0.074 A 
ATOM     45  C   UNL A   1      37.614  31.967  32.667  1.00  0.00     0.049 A 
ATOM     46  N   UNL A   1      39.046  32.602  35.234  1.00  0.00    -0.248 NA
ATOM     47  C   UNL A   1      37.326  34.092  35.767  1.00  0.00     0.031 C 
ATOM     48  C   UNL A   1      36.992  31.658  31.377  1.00  0.00     0.029 A 
ATOM     49  N   UNL A   1      38.735  31.177  32.692  1.00  0.00    -0.354 N 
ATOM     50  C   UNL A   1      39.332  33.225  36.441  1.00  0.00     0.074 A 
ATOM     51  C   UNL A   1      38.269  34.172  36.694  1.00  0.00     0.031 C 
ATOM     52  C   UNL A   1      37.732  30.735  30.742  1.00  0.00     0.029 A 
ATOM     53  C   UNL A   1      38.897  30.416  31.561  1.00  0.00     0.049 A 
ATOM     54  H   UNL A   1      39.365  31.159  33.450  1.00  0.00     0.167 HD
ATOM     55  C   UNL A   1      40.381  33.018  37.272  1.00  0.00     0.031 A 
ATOM     56  C   UNL A   1      39.880  29.563  31.216  1.00  0.00     0.031 A 
ATOM     57  C   UNL A   1      41.428  32.062  37.031  1.00  0.00     0.049 A 
ATOM     58  C   UNL A   1      41.025  29.337  32.162  1.00  0.00     0.074 A 
ATOM     59  C   UNL A   1      42.496  31.730  37.847  1.00  0.00     0.029 A 
ATOM     60  N   UNL A   1      41.536  31.283  35.891  1.00  0.00    -0.354 N 
ATOM     61  N   UNL A   1      41.249  29.887  33.331  1.00  0.00    -0.248 NA
ATOM     62  C   UNL A   1      42.046  28.367  31.744  1.00  0.00     0.031 C 
ATOM     63  C   UNL A   1      43.274  30.776  37.179  1.00  0.00     0.029 A 
ATOM     64  C   UNL A   1      42.663  30.483  35.971  1.00  0.00     0.049 A 
ATOM     65  H   UNL A   1      40.905  31.297  35.135  1.00  0.00     0.167 HD
ATOM     66  C   UNL A   1      42.422  29.309  33.800  1.00  0.00     0.074 A 
ATOM     67  C   UNL A   1      42.856  28.361  32.795  1.00  0.00     0.031 C 
ATOM     68  C   UNL A   1      43.078  29.544  34.963  1.00  0.00     0.031 A 
BRANCH  55  69
ATOM     69  C   UNL A   1      40.446  33.855  38.518  1.00  0.00    -0.014 A 
ATOM     70  C   UNL A   1      39.914  33.396  39.733  1.00  0.00     0.009 A 
ATOM     71  C   UNL A   1      41.061  35.116  38.479  1.00  0.00     0.009 A 
ATOM     72  C   UNL A   1      39.959  34.200  40.874  1.00  0.00     0.001 A 
ATOM     73  C   UNL A   1      41.130  35.906  39.627  1.00  0.00     0.001 A 
ATOM     74  C   UNL A   1      40.570  35.452  40.821  1.00  0.00     0.000 A 
ENDBRANCH  55  69
BRANCH  56  75
ATOM     75  C   UNL A   1      39.813  28.842  29.920  1.00  0.00    -0.014 A 
ATOM     76  C   UNL A   1      39.394  27.504  29.876  1.00  0.00     0.009 A 
ATOM     77  C   UNL A   1      40.158  29.487  28.722  1.00  0.00     0.009 A 
ATOM     78  C   UNL A   1      39.342  26.819  28.659  1.00  0.00     0.001 A 
ATOM     79  C   UNL A   1      40.082  28.806  27.505  1.00  0.00     0.001 A 
ATOM     80  C   UNL A   1      39.681  27.472  27.475  1.00  0.00     0.000 A 
ENDBRANCH  56  75
BRANCH  68  81
ATOM     81  C   UNL A   1      44.315  28.735  35.226  1.00  0.00    -0.014 A 
ATOM     82  C   UNL A   1      45.588  29.221  34.892  1.00  0.00     0.009 A 
ATOM     83  C   UNL A   1      44.204  27.487  35.861  1.00  0.00     0.009 A 
ATOM     84  C   UNL A   1      46.727  28.460  35.166  1.00  0.00     0.001 A 
ATOM     85  C   UNL A   1      45.346  26.740  36.155  1.00  0.00     0.001 A 
ATOM     86  C   UNL A   1      46.604  27.224  35.801  1.00  0.00     0.000 A 
ENDBRANCH  68  81
ENDBRANCH  42  43
ENDBRANCH  34  37
ENDBRANCH  32  33
ENDBRANCH  31  32
ENDBRANCH   1  31
TORSDOF 15
ENDMDL
MODEL 2
REMARK VINA RESULT:     -11.5      4.810      9.493
REMARK SMILES N#C/C(=C\c1ccc(-c2cc(C(=O)NCCCCNC(=O)c3ccc(-c4c5nc(c(-c6ccccc6)c6ccc([nH]6)c(-c6ccccc6)c6nc(c(-c7ccccc7)c7ccc4[nH]7)C=C6)C=C5)cc3)ccc2Cl)o1)C(=O)N1CCOCC1
REMARK SMILES IDX 16 1 15 2 14 3 12 4 13 5 11 7 9 8 10 9 72 10 71 11 73 12
REMARK SMILES IDX 70 13 8 14 5 15 6 16 74 17 7 18 4 19 3 20 2 21 1 22 75 23
REMARK SMILES IDX 76 24 77 25 78 26 82 27 79 28 81 29 80 30 17 31 18 32 19 33
REMARK SMILES IDX 20 34 21 36 22 37 23 38 69 39 24 40 68 41 25 42 26 43 27 44
REMARK SMILES IDX 62 45 28 46 67 47 61 48 63 49 29 50 66 51 60 52 59 53 30 55
REMARK SMILES IDX 52 56 37 57 51 58 38 59 41 60 50 61 64 62 39 63 40 64 49 66
REMARK SMILES IDX 65 67 42 68 31 69 32 70 36 71 33 72 35 73 34 74 53 75 54 76
REMARK SMILES IDX 58 77 55 78 57 79 56 80 43 81 44 82 48 83 45 84 47 85 46 86
REMARK H PARENT 14 6 19 35 63 54 41 65
REMARK Flexibility Score: inf
ROOT
ATOM      1  C   UNL A   1      34.505  32.999  30.443  1.00  0.00     0.023 C 
ENDROOT
BRANCH   1   2
ATOM      2  C   UNL A   1      34.861  34.025  31.524  1.00  0.00     0.116 C 
BRANCH   2   3
ATOM      3  N   UNL A   1      36.181  34.580  31.303  1.00  0.00    -0.352 N 
ATOM      4  C   UNL A   1      37.399  34.364  31.899  1.00  0.00     0.251 C 
ATOM      5  O   UNL A   1      38.363  34.973  31.436  1.00  0.00    -0.269 OA
ATOM      6  H   UNL A   1      36.210  35.247  30.579  1.00  0.00     0.163 HD
BRANCH   4   7
ATOM      7  C   UNL A   1      37.625  33.426  33.043  1.00  0.00     0.040 A 
ATOM      8  C   UNL A   1      38.491  31.237  33.756  1.00  0.00     0.037 A 
ATOM      9  C   UNL A   1      38.236  32.189  32.751  1.00  0.00     0.027 A 
ATOM     10  C   UNL A   1      38.113  31.531  35.075  1.00  0.00     0.052 A 
ATOM     11  C   UNL A   1      37.537  32.764  35.380  1.00  0.00     0.022 A 
ATOM     12  Cl  UNL A   1      38.363  30.437  36.392  1.00  0.00    -0.084 Cl
ATOM     13  C   UNL A   1      37.317  33.709  34.375  1.00  0.00     0.015 A 
BRANCH   8  14
ATOM     14  C   UNL A   1      39.115  29.970  33.408  1.00  0.00     0.136 A 
ATOM     15  C   UNL A   1      40.864  28.593  33.275  1.00  0.00     0.129 A 
ATOM     16  C   UNL A   1      39.718  27.887  32.916  1.00  0.00     0.051 A 
ATOM     17  O   UNL A   1      40.461  29.875  33.602  1.00  0.00    -0.457 OA
ATOM     18  C   UNL A   1      38.620  28.772  32.954  1.00  0.00     0.051 A 
BRANCH  15  19
ATOM     19  C   UNL A   1      42.234  28.174  33.345  1.00  0.00     0.072 C 
ATOM     20  C   UNL A   1      42.891  27.934  34.506  1.00  0.00     0.121 C 
BRANCH  20  21
ATOM     21  C   UNL A   1      41.982  27.778  35.714  1.00  0.00     0.105 C 
ATOM     22  N   UNL A   1      41.229  27.648  36.717  1.00  0.00    -0.192 NA
ENDBRANCH  20  21
BRANCH  20  23
ATOM     23  C   UNL A   1      44.258  27.348  34.516  1.00  0.00     0.264 C 
ATOM     24  O   UNL A   1      45.221  28.113  34.483  1.00  0.00    -0.268 OA
ATOM     25  N   UNL A   1      44.420  25.976  34.624  1.00  0.00    -0.333 N 
ATOM     26  C   UNL A   1      43.438  24.905  34.381  1.00  0.00     0.148 C 
ATOM     27  C   UNL A   1      45.721  25.450  35.052  1.00  0.00     0.148 C 
ATOM     28  C   UNL A   1      43.316  24.010  35.625  1.00  0.00     0.181 C 
ATOM     29  C   UNL A   1      45.526  24.563  36.290  1.00  0.00     0.181 C 
ATOM     30  O   UNL A   1      44.599  23.497  36.018  1.00  0.00    -0.378 OA
ENDBRANCH  20  23
ENDBRANCH  15  19
ENDBRANCH   8  14
ENDBRANCH   4   7
ENDBRANCH   2   3
ENDBRANCH   1   2
BRANCH   1  31
ATOM     31  C   UNL A   1      34.223  33.601  29.064  1.00  0.00     0.023 C 
BRANCH  31  32
ATOM     32  C   UNL A   1      34.753  32.791  27.887  1.00  0.00     0.116 C 
BRANCH  32  33
ATOM     33  N   UNL A   1      34.021  31.555  27.650  1.00  0.00    -0.352 N 
ATOM     34  C   UNL A   1      34.490  30.262  27.728  1.00  0.00     0.251 C 
ATOM     35  H   UNL A   1      33.072  31.656  27.405  1.00  0.00     0.163 HD
ATOM     36  O   UNL A   1      33.780  29.318  27.422  1.00  0.00    -0.269 OA
BRANCH  34  37
ATOM     37  C   UNL A   1      35.891  30.043  28.141  1.00  0.00     0.039 A 
ATOM     38  C   UNL A   1      36.151  29.667  29.461  1.00  0.00     0.014 A 
ATOM     39  C   UNL A   1      36.926  30.141  27.209  1.00  0.00     0.014 A 
ATOM     40  C   UNL A   1      37.449  29.308  29.828  1.00  0.00     0.010 A 
ATOM     41  C   UNL A   1      38.205  29.722  27.561  1.00  0.00     0.010 A 
ATOM     42  C   UNL A   1      38.475  29.291  28.869  1.00  0.00    -0.014 A 
BRANCH  42  43
ATOM     43  C   UNL A   1      39.837  28.806  29.199  1.00  0.00     0.031 A 
ATOM     44  C   UNL A   1      40.822  29.726  29.860  1.00  0.00     0.074 A 
ATOM     45  C   UNL A   1      40.216  27.573  28.811  1.00  0.00     0.049 A 
ATOM     46  N   UNL A   1      42.089  29.529  30.119  1.00  0.00    -0.248 NA
ATOM     47  C   UNL A   1      40.325  31.055  30.251  1.00  0.00     0.031 C 
ATOM     48  C   UNL A   1      39.366  26.600  28.120  1.00  0.00     0.029 A 
ATOM     49  N   UNL A   1      41.425  26.935  28.927  1.00  0.00    -0.354 N 
ATOM     50  C   UNL A   1      42.547  30.716  30.674  1.00  0.00     0.074 A 
ATOM     51  C   UNL A   1      41.433  31.639  30.681  1.00  0.00     0.031 C 
ATOM     52  C   UNL A   1      40.077  25.484  27.888  1.00  0.00     0.029 A 
ATOM     53  C   UNL A   1      41.438  25.677  28.378  1.00  0.00     0.049 A 
ATOM     54  H   UNL A   1      42.209  27.342  29.364  1.00  0.00     0.167 HD
ATOM     55  C   UNL A   1      43.781  31.008  31.148  1.00  0.00     0.031 A 
ATOM     56  C   UNL A   1      42.437  24.781  28.272  1.00  0.00     0.031 A 
ATOM     57  C   UNL A   1      44.883  30.084  31.161  1.00  0.00     0.049 A 
ATOM     58  C   UNL A   1      43.793  25.122  28.820  1.00  0.00     0.074 A 
ATOM     59  C   UNL A   1      46.152  30.264  31.683  1.00  0.00     0.029 A 
ATOM     60  N   UNL A   1      44.844  28.806  30.629  1.00  0.00    -0.354 N 
ATOM     61  N   UNL A   1      44.194  26.227  29.401  1.00  0.00    -0.248 NA
ATOM     62  C   UNL A   1      44.831  24.088  28.706  1.00  0.00     0.031 C 
ATOM     63  C   UNL A   1      46.895  29.105  31.430  1.00  0.00     0.029 A 
ATOM     64  C   UNL A   1      46.073  28.190  30.794  1.00  0.00     0.049 A 
ATOM     65  H   UNL A   1      44.059  28.396  30.198  1.00  0.00     0.167 HD
ATOM     66  C   UNL A   1      45.522  26.011  29.746  1.00  0.00     0.074 A 
ATOM     67  C   UNL A   1      45.855  24.668  29.318  1.00  0.00     0.031 C 
ATOM     68  C   UNL A   1      46.386  26.852  30.364  1.00  0.00     0.031 A 
BRANCH  55  69
ATOM     69  C   UNL A   1      44.000  32.394  31.684  1.00  0.00    -0.014 A 
ATOM     70  C   UNL A   1      43.705  32.715  33.019  1.00  0.00     0.009 A 
ATOM     71  C   UNL A   1      44.522  33.391  30.845  1.00  0.00     0.009 A 
ATOM     72  C   UNL A   1      43.890  34.016  33.491  1.00  0.00     0.001 A 
ATOM     73  C   UNL A   1      44.733  34.684  31.328  1.00  0.00     0.001 A 
ATOM     74  C   UNL A   1      44.407  34.998  32.647  1.00  0.00     0.000 A 
ENDBRANCH  55  69
BRANCH  56  75
ATOM     75  C   UNL A   1      42.185  23.463  27.635  1.00  0.00    -0.014 A 
ATOM     76  C   UNL A   1      42.312  23.314  26.245  1.00  0.00     0.009 A 
ATOM     77  C   UNL A   1      41.826  22.349  28.409  1.00  0.00     0.009 A 
ATOM     78  C   UNL A   1      42.064  22.080  25.641  1.00  0.00     0.001 A 
ATOM     79  C   UNL A   1      41.602  21.111  27.804  1.00  0.00     0.001 A 
ATOM     80  C   UNL A   1      41.714  20.979  26.421  1.00  0.00     0.000 A 
ENDBRANCH  56  75
BRANCH  68  81
ATOM     81  C   UNL A   1      47.765  26.330  30.648  1.00  0.00    -0.014 A 
ATOM     82  C   UNL A   1      48.782  26.397  29.684  1.00  0.00     0.009 A 
ATOM     83  C   UNL A   1      48.059  25.806  31.917  1.00  0.00     0.009 A 
ATOM     84  C   UNL A   1      50.063  25.925  29.978  1.00  0.00     0.001 A 
ATOM     85  C   UNL A   1      49.346  25.357  32.216  1.00  0.00     0.001 A 
ATOM     86  C   UNL A   1      50.344  25.411  31.244  1.00  0.00     0.000 A 
ENDBRANCH  68  81
ENDBRANCH  42  43
ENDBRANCH  34  37
ENDBRANCH  32  33
ENDBRANCH  31  32
ENDBRANCH   1  31
TORSDOF 15
ENDMDL
MODEL 3
REMARK VINA RESULT:     -11.2      4.752     10.825
REMARK SMILES N#C/C(=C\c1ccc(-c2cc(C(=O)NCCCCNC(=O)c3ccc(-c4c5nc(c(-c6ccccc6)c6ccc([nH]6)c(-c6ccccc6)c6nc(c(-c7ccccc7)c7ccc4[nH]7)C=C6)C=C5)cc3)ccc2Cl)o1)C(=O)N1CCOCC1
REMARK SMILES IDX 16 1 15 2 14 3 12 4 13 5 11 7 9 8 10 9 72 10 71 11 73 12
REMARK SMILES IDX 70 13 8 14 5 15 6 16 74 17 7 18 4 19 3 20 2 21 1 22 75 23
REMARK SMILES IDX 76 24 77 25 78 26 82 27 79 28 81 29 80 30 17 31 18 32 19 33
REMARK SMILES IDX 20 34 21 36 22 37 23 38 69 39 24 40 68 41 25 42 26 43 27 44
REMARK SMILES IDX 62 45 28 46 67 47 61 48 63 49 29 50 66 51 60 52 59 53 30 55
REMARK SMILES IDX 52 56 37 57 51 58 38 59 41 60 50 61 64 62 39 63 40 64 49 66
REMARK SMILES IDX 65 67 42 68 31 69 32 70 36 71 33 72 35 73 34 74 53 75 54 76
REMARK SMILES IDX 58 77 55 78 57 79 56 80 43 81 44 82 48 83 45 84 47 85 46 86
REMARK H PARENT 14 6 19 35 63 54 41 65
REMARK Flexibility Score: inf
ROOT
ATOM      1  C   UNL A   1      34.698  32.888  30.550  1.00  0.00     0.023 C 
ENDROOT
BRANCH   1   2
ATOM      2  C   UNL A   1      35.007  34.049  31.501  1.00  0.00     0.116 C 
BRANCH   2   3
ATOM      3  N   UNL A   1      36.336  34.577  31.266  1.00  0.00    -0.352 N 
ATOM      4  C   UNL A   1      37.553  34.345  31.857  1.00  0.00     0.251 C 
ATOM      5  O   UNL A   1      38.525  34.932  31.381  1.00  0.00    -0.269 OA
ATOM      6  H   UNL A   1      36.373  35.236  30.535  1.00  0.00     0.163 HD
BRANCH   4   7
ATOM      7  C   UNL A   1      37.769  33.415  33.009  1.00  0.00     0.040 A 
ATOM      8  C   UNL A   1      38.610  31.222  33.741  1.00  0.00     0.037 A 
ATOM      9  C   UNL A   1      38.366  32.169  32.728  1.00  0.00     0.027 A 
ATOM     10  C   UNL A   1      38.237  31.533  35.057  1.00  0.00     0.052 A 
ATOM     11  C   UNL A   1      37.677  32.775  35.352  1.00  0.00     0.022 A 
ATOM     12  Cl  UNL A   1      38.476  30.448  36.384  1.00  0.00    -0.084 Cl
ATOM     13  C   UNL A   1      37.467  33.714  34.339  1.00  0.00     0.015 A 
BRANCH   8  14
ATOM     14  C   UNL A   1      39.218  29.945  33.404  1.00  0.00     0.136 A 
ATOM     15  C   UNL A   1      40.941  28.532  33.317  1.00  0.00     0.129 A 
ATOM     16  C   UNL A   1      39.793  27.853  32.916  1.00  0.00     0.051 A 
ATOM     17  O   UNL A   1      40.555  29.820  33.641  1.00  0.00    -0.457 OA
ATOM     18  C   UNL A   1      38.713  28.760  32.925  1.00  0.00     0.051 A 
BRANCH  15  19
ATOM     19  C   UNL A   1      42.299  28.083  33.428  1.00  0.00     0.072 C 
ATOM     20  C   UNL A   1      42.904  27.794  34.607  1.00  0.00     0.121 C 
BRANCH  20  21
ATOM     21  C   UNL A   1      41.944  27.618  35.772  1.00  0.00     0.105 C 
ATOM     22  N   UNL A   1      41.148  27.472  36.739  1.00  0.00    -0.192 NA
ENDBRANCH  20  21
BRANCH  20  23
ATOM     23  C   UNL A   1      44.258  27.181  34.652  1.00  0.00     0.264 C 
ATOM     24  O   UNL A   1      45.232  27.923  34.773  1.00  0.00    -0.268 OA
ATOM     25  N   UNL A   1      44.392  25.801  34.623  1.00  0.00    -0.333 N 
ATOM     26  C   UNL A   1      43.417  24.785  34.194  1.00  0.00     0.148 C 
ATOM     27  C   UNL A   1      45.650  25.204  35.085  1.00  0.00     0.148 C 
ATOM     28  C   UNL A   1      43.190  23.764  35.321  1.00  0.00     0.181 C 
ATOM     29  C   UNL A   1      45.351  24.195  36.202  1.00  0.00     0.181 C 
ATOM     30  O   UNL A   1      44.432  23.184  35.748  1.00  0.00    -0.378 OA
ENDBRANCH  20  23
ENDBRANCH  15  19
ENDBRANCH   8  14
ENDBRANCH   4   7
ENDBRANCH   2   3
ENDBRANCH   1   2
BRANCH   1  31
ATOM     31  C   UNL A   1      34.125  33.310  29.195  1.00  0.00     0.023 C 
BRANCH  31  32
ATOM     32  C   UNL A   1      34.640  32.516  28.001  1.00  0.00     0.116 C 
BRANCH  32  33
ATOM     33  N   UNL A   1      33.971  31.236  27.819  1.00  0.00    -0.352 N 
ATOM     34  C   UNL A   1      34.522  29.975  27.874  1.00  0.00     0.251 C 
ATOM     35  H   UNL A   1      33.005  31.277  27.634  1.00  0.00     0.163 HD
ATOM     36  O   UNL A   1      33.854  28.986  27.619  1.00  0.00    -0.269 OA
BRANCH  34  37
ATOM     37  C   UNL A   1      35.958  29.846  28.198  1.00  0.00     0.039 A 
ATOM     38  C   UNL A   1      36.323  29.457  29.489  1.00  0.00     0.014 A 
ATOM     39  C   UNL A   1      36.926  30.040  27.211  1.00  0.00     0.014 A 
ATOM     40  C   UNL A   1      37.662  29.181  29.769  1.00  0.00     0.010 A 
ATOM     41  C   UNL A   1      38.249  29.704  27.475  1.00  0.00     0.010 A 
ATOM     42  C   UNL A   1      38.627  29.261  28.752  1.00  0.00    -0.014 A 
BRANCH  42  43
ATOM     43  C   UNL A   1      40.036  28.866  28.988  1.00  0.00     0.031 A 
ATOM     44  C   UNL A   1      40.520  27.511  28.558  1.00  0.00     0.074 A 
ATOM     45  C   UNL A   1      40.850  29.687  29.679  1.00  0.00     0.049 A 
ATOM     46  N   UNL A   1      41.675  26.939  28.779  1.00  0.00    -0.248 NA
ATOM     47  C   UNL A   1      39.566  26.678  27.808  1.00  0.00     0.031 C 
ATOM     48  C   UNL A   1      40.487  31.011  30.192  1.00  0.00     0.029 A 
ATOM     49  N   UNL A   1      42.149  29.519  30.086  1.00  0.00    -0.354 N 
ATOM     50  C   UNL A   1      41.577  25.670  28.224  1.00  0.00     0.074 A 
ATOM     51  C   UNL A   1      40.239  25.543  27.689  1.00  0.00     0.031 C 
ATOM     52  C   UNL A   1      41.543  31.538  30.831  1.00  0.00     0.029 A 
ATOM     53  C   UNL A   1      42.642  30.579  30.806  1.00  0.00     0.049 A 
ATOM     54  H   UNL A   1      42.679  28.713  29.880  1.00  0.00     0.167 HD
ATOM     55  C   UNL A   1      42.520  24.701  28.155  1.00  0.00     0.031 A 
ATOM     56  C   UNL A   1      43.842  30.754  31.391  1.00  0.00     0.031 A 
ATOM     57  C   UNL A   1      43.856  24.835  28.668  1.00  0.00     0.049 A 
ATOM     58  C   UNL A   1      44.878  29.672  31.286  1.00  0.00     0.074 A 
ATOM     59  C   UNL A   1      44.906  23.935  28.585  1.00  0.00     0.029 A 
ATOM     60  N   UNL A   1      44.328  25.939  29.359  1.00  0.00    -0.354 N 
ATOM     61  N   UNL A   1      44.791  28.501  30.701  1.00  0.00    -0.248 NA
ATOM     62  C   UNL A   1      46.179  29.939  31.914  1.00  0.00     0.031 C 
ATOM     63  C   UNL A   1      46.002  24.481  29.262  1.00  0.00     0.029 A 
ATOM     64  C   UNL A   1      45.648  25.738  29.724  1.00  0.00     0.049 A 
ATOM     65  H   UNL A   1      43.802  26.747  29.560  1.00  0.00     0.167 HD
ATOM     66  C   UNL A   1      46.034  27.904  30.867  1.00  0.00     0.074 A 
ATOM     67  C   UNL A   1      46.859  28.844  31.598  1.00  0.00     0.031 C 
ATOM     68  C   UNL A   1      46.454  26.685  30.449  1.00  0.00     0.031 A 
BRANCH  55  69
ATOM     69  C   UNL A   1      42.127  23.406  27.504  1.00  0.00    -0.014 A 
ATOM     70  C   UNL A   1      42.777  22.943  26.349  1.00  0.00     0.009 A 
ATOM     71  C   UNL A   1      41.100  22.629  28.062  1.00  0.00     0.009 A 
ATOM     72  C   UNL A   1      42.379  21.750  25.743  1.00  0.00     0.001 A 
ATOM     73  C   UNL A   1      40.723  21.422  27.470  1.00  0.00     0.001 A 
ATOM     74  C   UNL A   1      41.356  20.989  26.305  1.00  0.00     0.000 A 
ENDBRANCH  55  69
BRANCH  56  75
ATOM     75  C   UNL A   1      44.135  32.018  32.113  1.00  0.00    -0.014 A 
ATOM     76  C   UNL A   1      44.674  33.117  31.426  1.00  0.00     0.009 A 
ATOM     77  C   UNL A   1      43.871  32.137  33.486  1.00  0.00     0.009 A 
ATOM     78  C   UNL A   1      44.962  34.303  32.105  1.00  0.00     0.001 A 
ATOM     79  C   UNL A   1      44.139  33.332  34.156  1.00  0.00     0.001 A 
ATOM     80  C   UNL A   1      44.690  34.411  33.468  1.00  0.00     0.000 A 
ENDBRANCH  56  75
BRANCH  68  81
ATOM     81  C   UNL A   1      47.880  26.315  30.739  1.00  0.00    -0.014 A 
ATOM     82  C   UNL A   1      48.246  25.725  31.958  1.00  0.00     0.009 A 
ATOM     83  C   UNL A   1      48.861  26.518  29.756  1.00  0.00     0.009 A 
ATOM     84  C   UNL A   1      49.574  25.369  32.197  1.00  0.00     0.001 A 
ATOM     85  C   UNL A   1      50.184  26.139  29.989  1.00  0.00     0.001 A 
ATOM     86  C   UNL A   1      50.540  25.572  31.211  1.00  0.00     0.000 A 
ENDBRANCH  68  81
ENDBRANCH  42  43
ENDBRANCH  34  37
ENDBRANCH  32  33
ENDBRANCH  31  32
ENDBRANCH   1  31
TORSDOF 15
ENDMDL
