MODEL 1
REMARK VINA RESULT:     -11.1      0.000      0.000
REMARK SMILES CC(C)[C@@H](CNC(=O)[C@@H]1CC[C@@H]2CCCC[C@@H]2[NH2+]1)C(=O)NCCCCNC(=O)c1ccc(-c2c3nc(c(-c4ccccc4)c4ccc([nH]4)c(-c4ccccc4)c4nc(c(-c5ccccc5)c5ccc2[nH]5)C=C4)C=C3)cc1
REMARK SMILES IDX 23 1 22 2 21 3 19 4 20 5 4 7 2 8 1 9 3 10 5 11 6 12 7 13
REMARK SMILES IDX 8 15 9 16 10 17 18 18 11 19 17 20 12 23 16 24 13 25 15 26
REMARK SMILES IDX 14 27 24 28 25 29 26 30 27 31 28 33 29 34 30 35 76 36 31 37
REMARK SMILES IDX 75 38 32 39 33 40 34 41 69 42 35 43 74 44 68 45 70 46 36 47
REMARK SMILES IDX 73 48 67 49 66 50 37 52 59 53 44 54 58 55 45 56 48 57 57 58
REMARK SMILES IDX 71 59 46 60 47 61 56 63 72 64 49 65 38 66 39 67 43 68 40 69
REMARK SMILES IDX 42 70 41 71 60 72 61 73 65 74 62 75 64 76 63 77 50 78 51 79
REMARK SMILES IDX 55 80 52 81 54 82 53 83
REMARK H PARENT 21 6 6 14 18 21 18 22 26 32 70 51 48 62
REMARK Flexibility Score: inf
ROOT
ATOM      1  C   UNL A   1      36.565  22.175  24.288  1.00  0.00     0.023 C 
ENDROOT
BRANCH   1   2
ATOM      2  C   UNL A   1      36.030  23.050  25.419  1.00  0.00     0.116 C 
BRANCH   2   3
ATOM      3  N   UNL A   1      35.301  22.290  26.419  1.00  0.00    -0.356 N 
ATOM      4  C   UNL A   1      34.027  21.815  26.446  1.00  0.00     0.225 C 
ATOM      5  O   UNL A   1      33.723  21.091  27.401  1.00  0.00    -0.275 OA
ATOM      6  H   UNL A   1      35.825  22.082  27.226  1.00  0.00     0.163 HD
BRANCH   4   7
ATOM      7  C   UNL A   1      32.987  22.117  25.367  1.00  0.00     0.100 C 
BRANCH   7   8
ATOM      8  C   UNL A   1      33.113  21.200  24.120  1.00  0.00    -0.003 C 
ATOM      9  C   UNL A   1      32.458  19.830  24.307  1.00  0.00     0.008 C 
ATOM     10  C   UNL A   1      32.488  21.887  22.893  1.00  0.00     0.008 C 
ENDBRANCH   7   8
BRANCH   7  11
ATOM     11  C   UNL A   1      31.585  22.368  25.967  1.00  0.00     0.129 C 
BRANCH  11  12
ATOM     12  N   UNL A   1      30.779  23.372  25.305  1.00  0.00    -0.350 N 
ATOM     13  C   UNL A   1      30.818  24.733  25.331  1.00  0.00     0.278 C 
ATOM     14  H   UNL A   1      30.072  23.002  24.730  1.00  0.00     0.163 HD
ATOM     15  O   UNL A   1      30.104  25.289  24.485  1.00  0.00    -0.268 OA
BRANCH  13  16
ATOM     16  C   UNL A   1      31.775  25.559  26.248  1.00  0.00     0.272 C 
ATOM     17  C   UNL A   1      31.459  27.032  26.523  1.00  0.00     0.076 C 
ATOM     18  N   UNL A   1      33.189  25.378  25.810  1.00  0.00    -0.333 N 
ATOM     19  C   UNL A   1      31.918  27.980  25.428  1.00  0.00     0.016 C 
ATOM     20  C   UNL A   1      33.692  26.323  24.795  1.00  0.00     0.186 C 
ATOM     21  H   UNL A   1      33.277  24.437  25.426  1.00  0.00     0.347 HD
ATOM     22  H   UNL A   1      33.753  25.553  26.642  1.00  0.00     0.347 HD
ATOM     23  C   UNL A   1      33.412  27.784  25.180  1.00  0.00     0.048 C 
ATOM     24  C   UNL A   1      33.212  25.984  23.375  1.00  0.00     0.065 C 
ATOM     25  C   UNL A   1      33.946  28.749  24.118  1.00  0.00     0.010 C 
ATOM     26  C   UNL A   1      33.618  27.005  22.318  1.00  0.00     0.006 C 
ATOM     27  C   UNL A   1      33.381  28.454  22.739  1.00  0.00     0.001 C 
ENDBRANCH  13  16
ENDBRANCH  11  12
ENDBRANCH   7  11
ENDBRANCH   4   7
ENDBRANCH   2   3
ENDBRANCH   1   2
BRANCH   1  28
ATOM     28  C   UNL A   1      37.248  20.881  24.738  1.00  0.00     0.023 C 
BRANCH  28  29
ATOM     29  C   UNL A   1      38.462  21.056  25.646  1.00  0.00     0.116 C 
BRANCH  29  30
ATOM     30  N   UNL A   1      39.395  19.940  25.621  1.00  0.00    -0.352 N 
ATOM     31  C   UNL A   1      40.727  19.919  25.972  1.00  0.00     0.251 C 
ATOM     32  H   UNL A   1      39.024  19.082  25.310  1.00  0.00     0.163 HD
ATOM     33  O   UNL A   1      41.396  18.902  25.804  1.00  0.00    -0.269 OA
BRANCH  31  34
ATOM     34  C   UNL A   1      41.363  21.131  26.536  1.00  0.00     0.039 A 
ATOM     35  C   UNL A   1      41.991  22.050  25.698  1.00  0.00     0.014 A 
ATOM     36  C   UNL A   1      41.323  21.368  27.908  1.00  0.00     0.014 A 
ATOM     37  C   UNL A   1      42.496  23.239  26.237  1.00  0.00     0.010 A 
ATOM     38  C   UNL A   1      41.772  22.569  28.442  1.00  0.00     0.010 A 
ATOM     39  C   UNL A   1      42.349  23.526  27.607  1.00  0.00    -0.014 A 
BRANCH  39  40
ATOM     40  C   UNL A   1      42.675  24.861  28.164  1.00  0.00     0.031 A 
ATOM     41  C   UNL A   1      44.060  25.200  28.637  1.00  0.00     0.074 A 
ATOM     42  C   UNL A   1      41.667  25.735  28.350  1.00  0.00     0.049 A 
ATOM     43  N   UNL A   1      44.504  26.327  29.134  1.00  0.00    -0.248 NA
ATOM     44  C   UNL A   1      45.070  24.130  28.581  1.00  0.00     0.031 C 
ATOM     45  C   UNL A   1      40.258  25.478  28.042  1.00  0.00     0.029 A 
ATOM     46  N   UNL A   1      41.670  27.013  28.849  1.00  0.00    -0.354 N 
ATOM     47  C   UNL A   1      45.838  26.105  29.448  1.00  0.00     0.074 A 
ATOM     48  C   UNL A   1      46.115  24.716  29.147  1.00  0.00     0.031 C 
ATOM     49  C   UNL A   1      39.541  26.580  28.310  1.00  0.00     0.029 A 
ATOM     50  C   UNL A   1      40.430  27.605  28.842  1.00  0.00     0.049 A 
ATOM     51  H   UNL A   1      42.481  27.461  29.180  1.00  0.00     0.167 HD
ATOM     52  C   UNL A   1      46.755  26.983  29.922  1.00  0.00     0.031 A 
ATOM     53  C   UNL A   1      40.050  28.841  29.214  1.00  0.00     0.031 A 
ATOM     54  C   UNL A   1      46.469  28.360  30.230  1.00  0.00     0.049 A 
ATOM     55  C   UNL A   1      41.087  29.804  29.714  1.00  0.00     0.074 A 
ATOM     56  C   UNL A   1      47.345  29.354  30.632  1.00  0.00     0.029 A 
ATOM     57  N   UNL A   1      45.207  28.933  30.186  1.00  0.00    -0.354 N 
ATOM     58  N   UNL A   1      42.375  29.619  29.878  1.00  0.00    -0.248 NA
ATOM     59  C   UNL A   1      40.622  31.153  30.061  1.00  0.00     0.031 C 
ATOM     60  C   UNL A   1      46.603  30.512  30.891  1.00  0.00     0.029 A 
ATOM     61  C   UNL A   1      45.275  30.258  30.584  1.00  0.00     0.049 A 
ATOM     62  H   UNL A   1      44.384  28.467  29.912  1.00  0.00     0.167 HD
ATOM     63  C   UNL A   1      42.878  30.834  30.323  1.00  0.00     0.074 A 
ATOM     64  C   UNL A   1      41.760  31.753  30.383  1.00  0.00     0.031 C 
ATOM     65  C   UNL A   1      44.153  31.160  30.650  1.00  0.00     0.031 A 
BRANCH  52  66
ATOM     66  C   UNL A   1      48.159  26.480  30.133  1.00  0.00    -0.014 A 
ATOM     67  C   UNL A   1      49.121  26.557  29.112  1.00  0.00     0.009 A 
ATOM     68  C   UNL A   1      48.543  25.967  31.383  1.00  0.00     0.009 A 
ATOM     69  C   UNL A   1      50.422  26.093  29.325  1.00  0.00     0.001 A 
ATOM     70  C   UNL A   1      49.853  25.535  31.603  1.00  0.00     0.001 A 
ATOM     71  C   UNL A   1      50.788  25.588  30.571  1.00  0.00     0.000 A 
ENDBRANCH  52  66
BRANCH  53  72
ATOM     72  C   UNL A   1      38.628  29.247  29.079  1.00  0.00    -0.014 A 
ATOM     73  C   UNL A   1      37.764  29.190  30.184  1.00  0.00     0.009 A 
ATOM     74  C   UNL A   1      38.131  29.717  27.853  1.00  0.00     0.009 A 
ATOM     75  C   UNL A   1      36.426  29.568  30.056  1.00  0.00     0.001 A 
ATOM     76  C   UNL A   1      36.801  30.124  27.736  1.00  0.00     0.001 A 
ATOM     77  C   UNL A   1      35.947  30.039  28.835  1.00  0.00     0.000 A 
ENDBRANCH  53  72
BRANCH  65  78
ATOM     78  C   UNL A   1      44.410  32.579  31.076  1.00  0.00    -0.014 A 
ATOM     79  C   UNL A   1      44.714  33.580  30.141  1.00  0.00     0.009 A 
ATOM     80  C   UNL A   1      44.312  32.922  32.433  1.00  0.00     0.009 A 
ATOM     81  C   UNL A   1      44.951  34.890  30.562  1.00  0.00     0.001 A 
ATOM     82  C   UNL A   1      44.516  34.240  32.848  1.00  0.00     0.001 A 
ATOM     83  C   UNL A   1      44.846  35.220  31.913  1.00  0.00     0.000 A 
ENDBRANCH  65  78
ENDBRANCH  39  40
ENDBRANCH  31  34
ENDBRANCH  29  30
ENDBRANCH  28  29
ENDBRANCH   1  28
TORSDOF 15
ENDMDL
MODEL 2
REMARK VINA RESULT:     -11.1      1.099      6.072
REMARK SMILES CC(C)[C@@H](CNC(=O)[C@@H]1CC[C@@H]2CCCC[C@@H]2[NH2+]1)C(=O)NCCCCNC(=O)c1ccc(-c2c3nc(c(-c4ccccc4)c4ccc([nH]4)c(-c4ccccc4)c4nc(c(-c5ccccc5)c5ccc2[nH]5)C=C4)C=C3)cc1
REMARK SMILES IDX 23 1 22 2 21 3 19 4 20 5 4 7 2 8 1 9 3 10 5 11 6 12 7 13
REMARK SMILES IDX 8 15 9 16 10 17 18 18 11 19 17 20 12 23 16 24 13 25 15 26
REMARK SMILES IDX 14 27 24 28 25 29 26 30 27 31 28 33 29 34 30 35 76 36 31 37
REMARK SMILES IDX 75 38 32 39 33 40 34 41 69 42 35 43 74 44 68 45 70 46 36 47
REMARK SMILES IDX 73 48 67 49 66 50 37 52 59 53 44 54 58 55 45 56 48 57 57 58
REMARK SMILES IDX 71 59 46 60 47 61 56 63 72 64 49 65 38 66 39 67 43 68 40 69
REMARK SMILES IDX 42 70 41 71 60 72 61 73 65 74 62 75 64 76 63 77 50 78 51 79
REMARK SMILES IDX 55 80 52 81 54 82 53 83
REMARK H PARENT 21 6 6 14 18 21 18 22 26 32 70 51 48 62
REMARK Flexibility Score: inf
ROOT
ATOM      1  C   UNL A   1      37.235  22.328  24.540  1.00  0.00     0.023 C 
ENDROOT
BRANCH   1   2
ATOM      2  C   UNL A   1      35.856  22.394  23.888  1.00  0.00     0.116 C 
BRANCH   2   3
ATOM      3  N   UNL A   1      34.779  22.457  24.860  1.00  0.00    -0.356 N 
ATOM      4  C   UNL A   1      33.544  21.890  24.882  1.00  0.00     0.225 C 
ATOM      5  O   UNL A   1      32.882  22.034  25.916  1.00  0.00    -0.275 OA
ATOM      6  H   UNL A   1      34.981  23.013  25.648  1.00  0.00     0.163 HD
BRANCH   4   7
ATOM      7  C   UNL A   1      32.957  21.090  23.719  1.00  0.00     0.100 C 
BRANCH   7   8
ATOM      8  C   UNL A   1      32.752  19.586  24.050  1.00  0.00    -0.003 C 
ATOM      9  C   UNL A   1      32.244  18.767  22.862  1.00  0.00     0.008 C 
ATOM     10  C   UNL A   1      34.070  18.971  24.553  1.00  0.00     0.008 C 
ENDBRANCH   7   8
BRANCH   7  11
ATOM     11  C   UNL A   1      31.822  21.854  23.002  1.00  0.00     0.129 C 
BRANCH  11  12
ATOM     12  N   UNL A   1      32.146  23.185  22.534  1.00  0.00    -0.350 N 
ATOM     13  C   UNL A   1      31.726  24.418  22.933  1.00  0.00     0.278 C 
ATOM     14  H   UNL A   1      32.789  23.203  21.790  1.00  0.00     0.163 HD
ATOM     15  O   UNL A   1      32.359  25.365  22.446  1.00  0.00    -0.268 OA
BRANCH  13  16
ATOM     16  C   UNL A   1      30.628  24.654  24.019  1.00  0.00     0.272 C 
ATOM     17  C   UNL A   1      29.833  25.963  24.006  1.00  0.00     0.076 C 
ATOM     18  N   UNL A   1      31.178  24.365  25.376  1.00  0.00    -0.333 N 
ATOM     19  C   UNL A   1      30.545  27.128  24.672  1.00  0.00     0.016 C 
ATOM     20  C   UNL A   1      31.818  25.489  26.083  1.00  0.00     0.186 C 
ATOM     21  H   UNL A   1      31.873  23.626  25.278  1.00  0.00     0.347 HD
ATOM     22  H   UNL A   1      30.369  24.115  25.946  1.00  0.00     0.347 HD
ATOM     23  C   UNL A   1      30.926  26.741  26.099  1.00  0.00     0.048 C 
ATOM     24  C   UNL A   1      33.238  25.783  25.574  1.00  0.00     0.065 C 
ATOM     25  C   UNL A   1      31.605  27.895  26.842  1.00  0.00     0.010 C 
ATOM     26  C   UNL A   1      33.885  27.012  26.203  1.00  0.00     0.006 C 
ATOM     27  C   UNL A   1      32.966  28.231  26.258  1.00  0.00     0.001 C 
ENDBRANCH  13  16
ENDBRANCH  11  12
ENDBRANCH   7  11
ENDBRANCH   4   7
ENDBRANCH   2   3
ENDBRANCH   1   2
BRANCH   1  28
ATOM     28  C   UNL A   1      37.741  20.916  24.843  1.00  0.00     0.023 C 
BRANCH  28  29
ATOM     29  C   UNL A   1      38.726  20.803  26.004  1.00  0.00     0.116 C 
BRANCH  29  30
ATOM     30  N   UNL A   1      39.715  19.746  25.849  1.00  0.00    -0.352 N 
ATOM     31  C   UNL A   1      41.076  19.800  26.052  1.00  0.00     0.251 C 
ATOM     32  H   UNL A   1      39.363  18.873  25.560  1.00  0.00     0.163 HD
ATOM     33  O   UNL A   1      41.782  18.830  25.788  1.00  0.00    -0.269 OA
BRANCH  31  34
ATOM     34  C   UNL A   1      41.698  21.039  26.573  1.00  0.00     0.039 A 
ATOM     35  C   UNL A   1      42.230  21.981  25.695  1.00  0.00     0.014 A 
ATOM     36  C   UNL A   1      41.742  21.277  27.945  1.00  0.00     0.014 A 
ATOM     37  C   UNL A   1      42.720  23.191  26.200  1.00  0.00     0.010 A 
ATOM     38  C   UNL A   1      42.175  22.496  28.448  1.00  0.00     0.010 A 
ATOM     39  C   UNL A   1      42.655  23.475  27.577  1.00  0.00    -0.014 A 
BRANCH  39  40
ATOM     40  C   UNL A   1      42.961  24.823  28.112  1.00  0.00     0.031 A 
ATOM     41  C   UNL A   1      41.887  25.856  28.306  1.00  0.00     0.074 A 
ATOM     42  C   UNL A   1      44.253  25.149  28.313  1.00  0.00     0.049 A 
ATOM     43  N   UNL A   1      41.994  27.073  28.777  1.00  0.00    -0.248 NA
ATOM     44  C   UNL A   1      40.524  25.494  27.884  1.00  0.00     0.031 C 
ATOM     45  C   UNL A   1      45.397  24.273  28.048  1.00  0.00     0.029 A 
ATOM     46  N   UNL A   1      44.823  26.306  28.779  1.00  0.00    -0.354 N 
ATOM     47  C   UNL A   1      40.720  27.620  28.710  1.00  0.00     0.074 A 
ATOM     48  C   UNL A   1      39.868  26.627  28.092  1.00  0.00     0.031 C 
ATOM     49  C   UNL A   1      46.525  24.903  28.403  1.00  0.00     0.029 A 
ATOM     50  C   UNL A   1      46.190  26.238  28.885  1.00  0.00     0.049 A 
ATOM     51  H   UNL A   1      44.302  27.107  29.016  1.00  0.00     0.167 HD
ATOM     52  C   UNL A   1      40.294  28.831  29.145  1.00  0.00     0.031 A 
ATOM     53  C   UNL A   1      47.079  27.145  29.330  1.00  0.00     0.031 A 
ATOM     54  C   UNL A   1      41.151  29.819  29.748  1.00  0.00     0.049 A 
ATOM     55  C   UNL A   1      46.582  28.471  29.827  1.00  0.00     0.074 A 
ATOM     56  C   UNL A   1      40.805  31.039  30.302  1.00  0.00     0.029 A 
ATOM     57  N   UNL A   1      42.528  29.705  29.863  1.00  0.00    -0.354 N 
ATOM     58  N   UNL A   1      45.353  28.924  29.883  1.00  0.00    -0.248 NA
ATOM     59  C   UNL A   1      47.592  29.403  30.344  1.00  0.00     0.031 C 
ATOM     60  C   UNL A   1      41.979  31.691  30.694  1.00  0.00     0.029 A 
ATOM     61  C   UNL A   1      43.050  30.847  30.448  1.00  0.00     0.049 A 
ATOM     62  H   UNL A   1      43.057  28.927  29.572  1.00  0.00     0.167 HD
ATOM     63  C   UNL A   1      45.439  30.182  30.463  1.00  0.00     0.074 A 
ATOM     64  C   UNL A   1      46.838  30.411  30.759  1.00  0.00     0.031 C 
ATOM     65  C   UNL A   1      44.447  31.067  30.728  1.00  0.00     0.031 A 
BRANCH  52  66
ATOM     66  C   UNL A   1      38.832  29.155  28.987  1.00  0.00    -0.014 A 
ATOM     67  C   UNL A   1      37.930  28.987  30.051  1.00  0.00     0.009 A 
ATOM     68  C   UNL A   1      38.354  29.680  27.776  1.00  0.00     0.009 A 
ATOM     69  C   UNL A   1      36.577  29.297  29.892  1.00  0.00     0.001 A 
ATOM     70  C   UNL A   1      37.007  30.021  27.631  1.00  0.00     0.001 A 
ATOM     71  C   UNL A   1      36.118  29.820  28.685  1.00  0.00     0.000 A 
ENDBRANCH  52  66
BRANCH  53  72
ATOM     72  C   UNL A   1      48.525  26.805  29.365  1.00  0.00    -0.014 A 
ATOM     73  C   UNL A   1      49.362  27.148  28.292  1.00  0.00     0.009 A 
ATOM     74  C   UNL A   1      49.081  26.159  30.480  1.00  0.00     0.009 A 
ATOM     75  C   UNL A   1      50.721  26.826  28.325  1.00  0.00     0.001 A 
ATOM     76  C   UNL A   1      50.445  25.866  30.523  1.00  0.00     0.001 A 
ATOM     77  C   UNL A   1      51.261  26.190  29.441  1.00  0.00     0.000 A 
ENDBRANCH  53  72
BRANCH  65  78
ATOM     78  C   UNL A   1      44.838  32.356  31.397  1.00  0.00    -0.014 A 
ATOM     79  C   UNL A   1      45.212  33.485  30.652  1.00  0.00     0.009 A 
ATOM     80  C   UNL A   1      44.798  32.448  32.797  1.00  0.00     0.009 A 
ATOM     81  C   UNL A   1      45.573  34.668  31.298  1.00  0.00     0.001 A 
ATOM     82  C   UNL A   1      45.126  33.643  33.439  1.00  0.00     0.001 A 
ATOM     83  C   UNL A   1      45.524  34.748  32.690  1.00  0.00     0.000 A 
ENDBRANCH  65  78
ENDBRANCH  39  40
ENDBRANCH  31  34
ENDBRANCH  29  30
ENDBRANCH  28  29
ENDBRANCH   1  28
TORSDOF 15
ENDMDL
MODEL 3
REMARK VINA RESULT:     -11.0      3.112      8.458
REMARK SMILES CC(C)[C@@H](CNC(=O)[C@@H]1CC[C@@H]2CCCC[C@@H]2[NH2+]1)C(=O)NCCCCNC(=O)c1ccc(-c2c3nc(c(-c4ccccc4)c4ccc([nH]4)c(-c4ccccc4)c4nc(c(-c5ccccc5)c5ccc2[nH]5)C=C4)C=C3)cc1
REMARK SMILES IDX 23 1 22 2 21 3 19 4 20 5 4 7 2 8 1 9 3 10 5 11 6 12 7 13
REMARK SMILES IDX 8 15 9 16 10 17 18 18 11 19 17 20 12 23 16 24 13 25 15 26
REMARK SMILES IDX 14 27 24 28 25 29 26 30 27 31 28 33 29 34 30 35 76 36 31 37
REMARK SMILES IDX 75 38 32 39 33 40 34 41 69 42 35 43 74 44 68 45 70 46 36 47
REMARK SMILES IDX 73 48 67 49 66 50 37 52 59 53 44 54 58 55 45 56 48 57 57 58
REMARK SMILES IDX 71 59 46 60 47 61 56 63 72 64 49 65 38 66 39 67 43 68 40 69
REMARK SMILES IDX 42 70 41 71 60 72 61 73 65 74 62 75 64 76 63 77 50 78 51 79
REMARK SMILES IDX 55 80 52 81 54 82 53 83
REMARK H PARENT 21 6 6 14 18 21 18 22 26 32 70 51 48 62
REMARK Flexibility Score: inf
ROOT
ATOM      1  C   UNL A   1      32.709  29.481  27.102  1.00  0.00     0.023 C 
ENDROOT
BRANCH   1   2
ATOM      2  C   UNL A   1      31.814  28.416  26.475  1.00  0.00     0.116 C 
BRANCH   2   3
ATOM      3  N   UNL A   1      32.286  27.983  25.172  1.00  0.00    -0.356 N 
ATOM      4  C   UNL A   1      31.624  27.625  24.040  1.00  0.00     0.225 C 
ATOM      5  O   UNL A   1      32.312  27.411  23.036  1.00  0.00    -0.275 OA
ATOM      6  H   UNL A   1      33.267  27.940  25.095  1.00  0.00     0.163 HD
BRANCH   4   7
ATOM      7  C   UNL A   1      30.103  27.492  23.955  1.00  0.00     0.100 C 
BRANCH   7   8
ATOM      8  C   UNL A   1      29.439  28.599  23.091  1.00  0.00    -0.003 C 
ATOM      9  C   UNL A   1      27.911  28.514  23.066  1.00  0.00     0.008 C 
ATOM     10  C   UNL A   1      29.852  29.990  23.604  1.00  0.00     0.008 C 
ENDBRANCH   7   8
BRANCH   7  11
ATOM     11  C   UNL A   1      29.658  26.026  23.754  1.00  0.00     0.129 C 
BRANCH  11  12
ATOM     12  N   UNL A   1      30.127  25.077  24.742  1.00  0.00    -0.350 N 
ATOM     13  C   UNL A   1      30.995  24.031  24.659  1.00  0.00     0.278 C 
ATOM     14  H   UNL A   1      29.748  25.213  25.639  1.00  0.00     0.163 HD
ATOM     15  O   UNL A   1      31.328  23.545  25.749  1.00  0.00    -0.268 OA
BRANCH  13  16
ATOM     16  C   UNL A   1      31.646  23.543  23.326  1.00  0.00     0.272 C 
ATOM     17  C   UNL A   1      32.164  22.105  23.229  1.00  0.00     0.076 C 
ATOM     18  N   UNL A   1      32.674  24.523  22.868  1.00  0.00    -0.333 N 
ATOM     19  C   UNL A   1      33.550  21.904  23.816  1.00  0.00     0.016 C 
ATOM     20  C   UNL A   1      34.048  24.321  23.364  1.00  0.00     0.186 C 
ATOM     21  H   UNL A   1      32.372  25.451  23.165  1.00  0.00     0.347 HD
ATOM     22  H   UNL A   1      32.733  24.398  21.857  1.00  0.00     0.347 HD
ATOM     23  C   UNL A   1      34.527  22.875  23.158  1.00  0.00     0.048 C 
ATOM     24  C   UNL A   1      34.236  24.804  24.811  1.00  0.00     0.065 C 
ATOM     25  C   UNL A   1      35.956  22.686  23.675  1.00  0.00     0.010 C 
ATOM     26  C   UNL A   1      35.612  24.505  25.395  1.00  0.00     0.006 C 
ATOM     27  C   UNL A   1      36.094  23.079  25.135  1.00  0.00     0.001 C 
ENDBRANCH  13  16
ENDBRANCH  11  12
ENDBRANCH   7  11
ENDBRANCH   4   7
ENDBRANCH   2   3
ENDBRANCH   1   2
BRANCH   1  28
ATOM     28  C   UNL A   1      32.105  30.887  27.157  1.00  0.00     0.023 C 
BRANCH  28  29
ATOM     29  C   UNL A   1      33.090  32.036  26.963  1.00  0.00     0.116 C 
BRANCH  29  30
ATOM     30  N   UNL A   1      32.627  33.315  27.481  1.00  0.00    -0.352 N 
ATOM     31  C   UNL A   1      33.189  34.104  28.460  1.00  0.00     0.251 C 
ATOM     32  H   UNL A   1      31.800  33.663  27.077  1.00  0.00     0.163 HD
ATOM     33  O   UNL A   1      32.615  35.121  28.842  1.00  0.00    -0.269 OA
BRANCH  31  34
ATOM     34  C   UNL A   1      34.481  33.719  29.071  1.00  0.00     0.039 A 
ATOM     35  C   UNL A   1      34.508  32.968  30.245  1.00  0.00     0.014 A 
ATOM     36  C   UNL A   1      35.680  34.092  28.467  1.00  0.00     0.014 A 
ATOM     37  C   UNL A   1      35.736  32.526  30.751  1.00  0.00     0.010 A 
ATOM     38  C   UNL A   1      36.897  33.611  28.931  1.00  0.00     0.010 A 
ATOM     39  C   UNL A   1      36.936  32.807  30.071  1.00  0.00    -0.014 A 
BRANCH  39  40
ATOM     40  C   UNL A   1      38.220  32.174  30.459  1.00  0.00     0.031 A 
ATOM     41  C   UNL A   1      39.179  32.849  31.398  1.00  0.00     0.074 A 
ATOM     42  C   UNL A   1      38.568  31.022  29.853  1.00  0.00     0.049 A 
ATOM     43  N   UNL A   1      40.331  32.416  31.844  1.00  0.00    -0.248 NA
ATOM     44  C   UNL A   1      38.818  34.195  31.873  1.00  0.00     0.031 C 
ATOM     45  C   UNL A   1      37.776  30.330  28.833  1.00  0.00     0.029 A 
ATOM     46  N   UNL A   1      39.681  30.233  30.001  1.00  0.00    -0.354 N 
ATOM     47  C   UNL A   1      40.833  33.432  32.647  1.00  0.00     0.074 A 
ATOM     48  C   UNL A   1      39.891  34.528  32.577  1.00  0.00     0.031 C 
ATOM     49  C   UNL A   1      38.402  29.196  28.485  1.00  0.00     0.029 A 
ATOM     50  C   UNL A   1      39.653  29.099  29.227  1.00  0.00     0.049 A 
ATOM     51  H   UNL A   1      40.426  30.458  30.603  1.00  0.00     0.167 HD
ATOM     52  C   UNL A   1      41.964  33.441  33.394  1.00  0.00     0.031 A 
ATOM     53  C   UNL A   1      40.533  28.085  29.130  1.00  0.00     0.031 A 
ATOM     54  C   UNL A   1      42.902  32.350  33.450  1.00  0.00     0.049 A 
ATOM     55  C   UNL A   1      41.767  28.106  29.984  1.00  0.00     0.074 A 
ATOM     56  C   UNL A   1      44.032  32.223  34.240  1.00  0.00     0.029 A 
ATOM     57  N   UNL A   1      42.829  31.205  32.672  1.00  0.00    -0.354 N 
ATOM     58  N   UNL A   1      42.161  29.014  30.843  1.00  0.00    -0.248 NA
ATOM     59  C   UNL A   1      42.667  26.951  29.870  1.00  0.00     0.031 C 
ATOM     60  C   UNL A   1      44.675  31.029  33.895  1.00  0.00     0.029 A 
ATOM     61  C   UNL A   1      43.910  30.381  32.939  1.00  0.00     0.049 A 
ATOM     62  H   UNL A   1      42.114  31.006  32.024  1.00  0.00     0.167 HD
ATOM     63  C   UNL A   1      43.341  28.530  31.391  1.00  0.00     0.074 A 
ATOM     64  C   UNL A   1      43.586  27.239  30.781  1.00  0.00     0.031 C 
ATOM     65  C   UNL A   1      44.148  29.102  32.317  1.00  0.00     0.031 A 
BRANCH  52  66
ATOM     66  C   UNL A   1      42.248  34.670  34.217  1.00  0.00    -0.014 A 
ATOM     67  C   UNL A   1      41.821  34.766  35.552  1.00  0.00     0.009 A 
ATOM     68  C   UNL A   1      42.992  35.727  33.669  1.00  0.00     0.009 A 
ATOM     69  C   UNL A   1      42.097  35.910  36.305  1.00  0.00     0.001 A 
ATOM     70  C   UNL A   1      43.295  36.855  34.435  1.00  0.00     0.001 A 
ATOM     71  C   UNL A   1      42.839  36.950  35.749  1.00  0.00     0.000 A 
ENDBRANCH  52  66
BRANCH  53  72
ATOM     72  C   UNL A   1      40.247  26.946  28.221  1.00  0.00    -0.014 A 
ATOM     73  C   UNL A   1      40.779  26.922  26.922  1.00  0.00     0.009 A 
ATOM     74  C   UNL A   1      39.464  25.864  28.653  1.00  0.00     0.009 A 
ATOM     75  C   UNL A   1      40.507  25.853  26.066  1.00  0.00     0.001 A 
ATOM     76  C   UNL A   1      39.221  24.782  27.806  1.00  0.00     0.001 A 
ATOM     77  C   UNL A   1      39.734  24.782  26.510  1.00  0.00     0.000 A 
ENDBRANCH  53  72
BRANCH  65  78
ATOM     78  C   UNL A   1      45.359  28.322  32.749  1.00  0.00    -0.014 A 
ATOM     79  C   UNL A   1      46.600  28.484  32.113  1.00  0.00     0.009 A 
ATOM     80  C   UNL A   1      45.260  27.436  33.833  1.00  0.00     0.009 A 
ATOM     81  C   UNL A   1      47.708  27.745  32.532  1.00  0.00     0.001 A 
ATOM     82  C   UNL A   1      46.379  26.724  34.271  1.00  0.00     0.001 A 
ATOM     83  C   UNL A   1      47.598  26.871  33.614  1.00  0.00     0.000 A 
ENDBRANCH  65  78
ENDBRANCH  39  40
ENDBRANCH  31  34
ENDBRANCH  29  30
ENDBRANCH  28  29
ENDBRANCH   1  28
TORSDOF 15
ENDMDL
