MODEL 1
REMARK VINA RESULT:     -11.4      0.000      0.000
REMARK SMILES CC1(C)C[C@](CC(=O)NCCCCNC(=O)c2ccc(-c3c4nc(c(-c5ccccc5)c5ccc([nH]5)c(-c5ccccc5)c5nc(c(-c6ccccc6)c6ccc3[nH]6)C=C5)C=C4)cc2)([NH+]2CCCC2)C(C)(C)O1
REMARK SMILES IDX 11 1 10 2 9 3 7 4 8 5 6 7 5 8 1 9 2 10 3 11 4 12 73 13 70 14
REMARK SMILES IDX 71 15 72 16 65 17 66 18 69 19 67 21 68 22 12 23 13 24 14 25
REMARK SMILES IDX 15 26 16 28 17 29 18 30 64 31 19 32 63 33 20 34 21 35 22 36
REMARK SMILES IDX 57 37 23 38 62 39 56 40 58 41 24 42 61 43 55 44 54 45 25 47
REMARK SMILES IDX 47 48 32 49 46 50 33 51 36 52 45 53 59 54 34 55 35 56 44 58
REMARK SMILES IDX 60 59 37 60 26 61 27 62 31 63 28 64 30 65 29 66 48 67 49 68
REMARK SMILES IDX 53 69 50 70 52 71 51 72 38 73 39 74 43 75 40 76 42 77 41 78
REMARK H PARENT 9 6 65 20 14 27 58 46 36 57
REMARK Flexibility Score: inf
ROOT
ATOM      1  C   UNL A   1      31.669  28.042  27.318  1.00  0.00     0.023 C 
ENDROOT
BRANCH   1   2
ATOM      2  C   UNL A   1      31.063  27.199  26.203  1.00  0.00     0.116 C 
BRANCH   2   3
ATOM      3  N   UNL A   1      30.784  25.850  26.615  1.00  0.00    -0.356 N 
ATOM      4  C   UNL A   1      31.604  24.774  26.675  1.00  0.00     0.226 C 
ATOM      5  O   UNL A   1      31.191  23.822  27.348  1.00  0.00    -0.275 OA
ATOM      6  H   UNL A   1      29.856  25.684  26.897  1.00  0.00     0.163 HD
BRANCH   4   7
ATOM      7  C   UNL A   1      32.985  24.709  26.022  1.00  0.00     0.171 C 
BRANCH   7   8
ATOM      8  C   UNL A   1      33.333  23.946  24.673  1.00  0.00     0.138 C 
ATOM      9  C   UNL A   1      32.229  20.450  24.781  1.00  0.00     0.042 C 
ATOM     10  C   UNL A   1      32.658  21.638  23.901  1.00  0.00     0.070 C 
ATOM     11  C   UNL A   1      32.204  21.306  22.477  1.00  0.00     0.042 C 
ATOM     12  C   UNL A   1      32.124  22.960  24.458  1.00  0.00     0.107 C 
ATOM     13  O   UNL A   1      34.084  21.741  23.897  1.00  0.00    -0.363 OA
ATOM     14  C   UNL A   1      34.514  22.855  24.739  1.00  0.00     0.118 C 
ATOM     15  C   UNL A   1      34.800  22.172  26.106  1.00  0.00     0.049 C 
ATOM     16  C   UNL A   1      35.837  23.307  24.099  1.00  0.00     0.049 C 
BRANCH   8  17
ATOM     17  N   UNL A   1      33.316  24.869  23.498  1.00  0.00    -0.327 N 
ATOM     18  C   UNL A   1      32.350  24.727  22.416  1.00  0.00     0.263 C 
ATOM     19  C   UNL A   1      33.672  26.278  23.622  1.00  0.00     0.263 C 
ATOM     20  H   UNL A   1      34.155  24.353  23.231  1.00  0.00     0.348 HD
ATOM     21  C   UNL A   1      32.491  25.982  21.576  1.00  0.00     0.067 C 
ATOM     22  C   UNL A   1      32.828  27.032  22.603  1.00  0.00     0.067 C 
ENDBRANCH   8  17
ENDBRANCH   7   8
ENDBRANCH   4   7
ENDBRANCH   2   3
ENDBRANCH   1   2
BRANCH   1  23
ATOM     23  C   UNL A   1      32.089  29.445  26.918  1.00  0.00     0.023 C 
BRANCH  23  24
ATOM     24  C   UNL A   1      33.565  29.740  27.144  1.00  0.00     0.116 C 
BRANCH  24  25
ATOM     25  N   UNL A   1      33.815  30.863  28.045  1.00  0.00    -0.352 N 
ATOM     26  C   UNL A   1      34.911  31.154  28.832  1.00  0.00     0.251 C 
ATOM     27  H   UNL A   1      33.084  31.520  28.099  1.00  0.00     0.163 HD
ATOM     28  O   UNL A   1      34.896  32.107  29.597  1.00  0.00    -0.269 OA
BRANCH  26  29
ATOM     29  C   UNL A   1      36.080  30.254  28.784  1.00  0.00     0.039 A 
ATOM     30  C   UNL A   1      36.921  30.285  27.671  1.00  0.00     0.014 A 
ATOM     31  C   UNL A   1      36.409  29.487  29.897  1.00  0.00     0.014 A 
ATOM     32  C   UNL A   1      38.172  29.670  27.745  1.00  0.00     0.010 A 
ATOM     33  C   UNL A   1      37.704  29.012  30.024  1.00  0.00     0.010 A 
ATOM     34  C   UNL A   1      38.609  29.109  28.956  1.00  0.00    -0.014 A 
BRANCH  34  35
ATOM     35  C   UNL A   1      40.004  28.638  29.161  1.00  0.00     0.031 A 
ATOM     36  C   UNL A   1      41.033  29.579  29.727  1.00  0.00     0.074 A 
ATOM     37  C   UNL A   1      40.381  27.419  28.720  1.00  0.00     0.049 A 
ATOM     38  N   UNL A   1      42.332  29.442  29.797  1.00  0.00    -0.248 NA
ATOM     39  C   UNL A   1      40.538  30.873  30.230  1.00  0.00     0.031 C 
ATOM     40  C   UNL A   1      39.505  26.423  28.097  1.00  0.00     0.029 A 
ATOM     41  N   UNL A   1      41.613  26.814  28.725  1.00  0.00    -0.354 N 
ATOM     42  C   UNL A   1      42.808  30.649  30.293  1.00  0.00     0.074 A 
ATOM     43  C   UNL A   1      41.668  31.524  30.452  1.00  0.00     0.031 C 
ATOM     44  C   UNL A   1      40.216  25.315  27.828  1.00  0.00     0.029 A 
ATOM     45  C   UNL A   1      41.606  25.543  28.203  1.00  0.00     0.049 A 
ATOM     46  H   UNL A   1      42.426  27.249  29.069  1.00  0.00     0.167 HD
ATOM     47  C   UNL A   1      44.076  30.994  30.617  1.00  0.00     0.031 A 
ATOM     48  C   UNL A   1      42.608  24.660  28.036  1.00  0.00     0.031 A 
ATOM     49  C   UNL A   1      45.200  30.105  30.525  1.00  0.00     0.049 A 
ATOM     50  C   UNL A   1      44.004  25.052  28.427  1.00  0.00     0.074 A 
ATOM     51  C   UNL A   1      46.507  30.323  30.919  1.00  0.00     0.029 A 
ATOM     52  N   UNL A   1      45.141  28.818  30.014  1.00  0.00    -0.354 N 
ATOM     53  N   UNL A   1      44.429  26.179  28.943  1.00  0.00    -0.248 NA
ATOM     54  C   UNL A   1      45.059  24.051  28.208  1.00  0.00     0.031 C 
ATOM     55  C   UNL A   1      47.248  29.175  30.616  1.00  0.00     0.029 A 
ATOM     56  C   UNL A   1      46.393  28.233  30.068  1.00  0.00     0.049 A 
ATOM     57  H   UNL A   1      44.328  28.384  29.665  1.00  0.00     0.167 HD
ATOM     58  C   UNL A   1      45.796  26.018  29.125  1.00  0.00     0.074 A 
ATOM     59  C   UNL A   1      46.127  24.680  28.680  1.00  0.00     0.031 C 
ATOM     60  C   UNL A   1      46.698  26.901  29.617  1.00  0.00     0.031 A 
BRANCH  47  61
ATOM     61  C   UNL A   1      44.298  32.395  31.114  1.00  0.00    -0.014 A 
ATOM     62  C   UNL A   1      44.603  33.441  30.229  1.00  0.00     0.009 A 
ATOM     63  C   UNL A   1      44.209  32.671  32.487  1.00  0.00     0.009 A 
ATOM     64  C   UNL A   1      44.869  34.723  30.712  1.00  0.00     0.001 A 
ATOM     65  C   UNL A   1      44.444  33.962  32.965  1.00  0.00     0.001 A 
ATOM     66  C   UNL A   1      44.786  34.982  32.079  1.00  0.00     0.000 A 
ENDBRANCH  47  61
BRANCH  48  67
ATOM     67  C   UNL A   1      42.328  23.305  27.494  1.00  0.00    -0.014 A 
ATOM     68  C   UNL A   1      42.530  23.040  26.130  1.00  0.00     0.009 A 
ATOM     69  C   UNL A   1      41.861  22.274  28.324  1.00  0.00     0.009 A 
ATOM     70  C   UNL A   1      42.254  21.775  25.605  1.00  0.00     0.001 A 
ATOM     71  C   UNL A   1      41.608  21.004  27.799  1.00  0.00     0.001 A 
ATOM     72  C   UNL A   1      41.797  20.758  26.441  1.00  0.00     0.000 A 
ENDBRANCH  48  67
BRANCH  60  73
ATOM     73  C   UNL A   1      48.123  26.442  29.717  1.00  0.00    -0.014 A 
ATOM     74  C   UNL A   1      49.019  26.640  28.657  1.00  0.00     0.009 A 
ATOM     75  C   UNL A   1      48.586  25.860  30.907  1.00  0.00     0.009 A 
ATOM     76  C   UNL A   1      50.352  26.246  28.781  1.00  0.00     0.001 A 
ATOM     77  C   UNL A   1      49.923  25.488  31.036  1.00  0.00     0.001 A 
ATOM     78  C   UNL A   1      50.804  25.676  29.971  1.00  0.00     0.000 A 
ENDBRANCH  60  73
ENDBRANCH  34  35
ENDBRANCH  26  29
ENDBRANCH  24  25
ENDBRANCH  23  24
ENDBRANCH   1  23
TORSDOF 13
ENDMDL
MODEL 2
REMARK VINA RESULT:     -11.1      1.842      7.459
REMARK SMILES CC1(C)C[C@](CC(=O)NCCCCNC(=O)c2ccc(-c3c4nc(c(-c5ccccc5)c5ccc([nH]5)c(-c5ccccc5)c5nc(c(-c6ccccc6)c6ccc3[nH]6)C=C5)C=C4)cc2)([NH+]2CCCC2)C(C)(C)O1
REMARK SMILES IDX 11 1 10 2 9 3 7 4 8 5 6 7 5 8 1 9 2 10 3 11 4 12 73 13 70 14
REMARK SMILES IDX 71 15 72 16 65 17 66 18 69 19 67 21 68 22 12 23 13 24 14 25
REMARK SMILES IDX 15 26 16 28 17 29 18 30 64 31 19 32 63 33 20 34 21 35 22 36
REMARK SMILES IDX 57 37 23 38 62 39 56 40 58 41 24 42 61 43 55 44 54 45 25 47
REMARK SMILES IDX 47 48 32 49 46 50 33 51 36 52 45 53 59 54 34 55 35 56 44 58
REMARK SMILES IDX 60 59 37 60 26 61 27 62 31 63 28 64 30 65 29 66 48 67 49 68
REMARK SMILES IDX 53 69 50 70 52 71 51 72 38 73 39 74 43 75 40 76 42 77 41 78
REMARK H PARENT 9 6 65 20 14 27 58 46 36 57
REMARK Flexibility Score: inf
ROOT
ATOM      1  C   UNL A   1      37.063  22.314  24.205  1.00  0.00     0.023 C 
ENDROOT
BRANCH   1   2
ATOM      2  C   UNL A   1      35.697  22.868  24.593  1.00  0.00     0.116 C 
BRANCH   2   3
ATOM      3  N   UNL A   1      34.782  22.916  23.487  1.00  0.00    -0.356 N 
ATOM      4  C   UNL A   1      34.045  23.949  23.012  1.00  0.00     0.226 C 
ATOM      5  O   UNL A   1      33.582  23.800  21.875  1.00  0.00    -0.275 OA
ATOM      6  H   UNL A   1      34.675  22.068  22.997  1.00  0.00     0.163 HD
BRANCH   4   7
ATOM      7  C   UNL A   1      33.820  25.259  23.767  1.00  0.00     0.171 C 
BRANCH   7   8
ATOM      8  C   UNL A   1      32.470  25.691  24.484  1.00  0.00     0.138 C 
ATOM      9  C   UNL A   1      30.529  28.016  22.415  1.00  0.00     0.042 C 
ATOM     10  C   UNL A   1      30.518  27.022  23.590  1.00  0.00     0.070 C 
ATOM     11  C   UNL A   1      29.050  26.672  23.847  1.00  0.00     0.042 C 
ATOM     12  C   UNL A   1      31.428  25.823  23.310  1.00  0.00     0.107 C 
ATOM     13  O   UNL A   1      31.031  27.660  24.762  1.00  0.00    -0.363 OA
ATOM     14  C   UNL A   1      32.390  27.200  25.037  1.00  0.00     0.118 C 
ATOM     15  C   UNL A   1      33.273  28.277  24.347  1.00  0.00     0.049 C 
ATOM     16  C   UNL A   1      32.516  27.327  26.565  1.00  0.00     0.049 C 
BRANCH   8  17
ATOM     17  N   UNL A   1      31.945  24.605  25.369  1.00  0.00    -0.327 N 
ATOM     18  C   UNL A   1      30.970  23.629  24.901  1.00  0.00     0.263 C 
ATOM     19  C   UNL A   1      32.775  23.982  26.393  1.00  0.00     0.263 C 
ATOM     20  H   UNL A   1      31.430  25.373  25.803  1.00  0.00     0.348 HD
ATOM     21  C   UNL A   1      30.901  22.571  25.986  1.00  0.00     0.067 C 
ATOM     22  C   UNL A   1      32.316  22.534  26.503  1.00  0.00     0.067 C 
ENDBRANCH   8  17
ENDBRANCH   7   8
ENDBRANCH   4   7
ENDBRANCH   2   3
ENDBRANCH   1   2
BRANCH   1  23
ATOM     23  C   UNL A   1      37.480  21.046  24.930  1.00  0.00     0.023 C 
BRANCH  23  24
ATOM     24  C   UNL A   1      38.769  21.184  25.728  1.00  0.00     0.116 C 
BRANCH  24  25
ATOM     25  N   UNL A   1      39.611  19.990  25.708  1.00  0.00    -0.352 N 
ATOM     26  C   UNL A   1      40.937  19.822  26.051  1.00  0.00     0.251 C 
ATOM     27  H   UNL A   1      39.159  19.171  25.401  1.00  0.00     0.163 HD
ATOM     28  O   UNL A   1      41.496  18.750  25.879  1.00  0.00    -0.269 OA
BRANCH  26  29
ATOM     29  C   UNL A   1      41.689  20.981  26.570  1.00  0.00     0.039 A 
ATOM     30  C   UNL A   1      42.274  21.875  25.672  1.00  0.00     0.014 A 
ATOM     31  C   UNL A   1      41.696  21.247  27.935  1.00  0.00     0.014 A 
ATOM     32  C   UNL A   1      42.720  23.114  26.135  1.00  0.00     0.010 A 
ATOM     33  C   UNL A   1      41.995  22.528  28.367  1.00  0.00     0.010 A 
ATOM     34  C   UNL A   1      42.498  23.485  27.471  1.00  0.00    -0.014 A 
BRANCH  34  35
ATOM     35  C   UNL A   1      42.751  24.863  27.970  1.00  0.00     0.031 A 
ATOM     36  C   UNL A   1      44.138  25.256  28.400  1.00  0.00     0.074 A 
ATOM     37  C   UNL A   1      41.722  25.715  28.162  1.00  0.00     0.049 A 
ATOM     38  N   UNL A   1      44.534  26.323  29.046  1.00  0.00    -0.248 NA
ATOM     39  C   UNL A   1      45.216  24.293  28.115  1.00  0.00     0.031 C 
ATOM     40  C   UNL A   1      40.316  25.448  27.847  1.00  0.00     0.029 A 
ATOM     41  N   UNL A   1      41.705  26.985  28.682  1.00  0.00    -0.354 N 
ATOM     42  C   UNL A   1      45.887  26.128  29.294  1.00  0.00     0.074 A 
ATOM     43  C   UNL A   1      46.230  24.821  28.781  1.00  0.00     0.031 C 
ATOM     44  C   UNL A   1      39.584  26.538  28.130  1.00  0.00     0.029 A 
ATOM     45  C   UNL A   1      40.455  27.557  28.702  1.00  0.00     0.049 A 
ATOM     46  H   UNL A   1      42.512  27.444  29.009  1.00  0.00     0.167 HD
ATOM     47  C   UNL A   1      46.775  26.971  29.869  1.00  0.00     0.031 A 
ATOM     48  C   UNL A   1      40.053  28.764  29.140  1.00  0.00     0.031 A 
ATOM     49  C   UNL A   1      46.452  28.297  30.318  1.00  0.00     0.049 A 
ATOM     50  C   UNL A   1      41.060  29.696  29.751  1.00  0.00     0.074 A 
ATOM     51  C   UNL A   1      47.297  29.265  30.825  1.00  0.00     0.029 A 
ATOM     52  N   UNL A   1      45.178  28.843  30.296  1.00  0.00    -0.354 N 
ATOM     53  N   UNL A   1      42.345  29.517  29.931  1.00  0.00    -0.248 NA
ATOM     54  C   UNL A   1      40.557  30.995  30.224  1.00  0.00     0.031 C 
ATOM     55  C   UNL A   1      46.528  30.391  31.141  1.00  0.00     0.029 A 
ATOM     56  C   UNL A   1      45.212  30.132  30.795  1.00  0.00     0.049 A 
ATOM     57  H   UNL A   1      44.371  28.382  29.972  1.00  0.00     0.167 HD
ATOM     58  C   UNL A   1      42.809  30.685  30.522  1.00  0.00     0.074 A 
ATOM     59  C   UNL A   1      41.671  31.570  30.657  1.00  0.00     0.031 C 
ATOM     60  C   UNL A   1      44.066  30.994  30.920  1.00  0.00     0.031 A 
BRANCH  47  61
ATOM     61  C   UNL A   1      48.185  26.475  30.029  1.00  0.00    -0.014 A 
ATOM     62  C   UNL A   1      48.585  25.781  31.183  1.00  0.00     0.009 A 
ATOM     63  C   UNL A   1      49.126  26.710  29.016  1.00  0.00     0.009 A 
ATOM     64  C   UNL A   1      49.913  25.383  31.344  1.00  0.00     0.001 A 
ATOM     65  C   UNL A   1      50.447  26.281  29.167  1.00  0.00     0.001 A 
ATOM     66  C   UNL A   1      50.841  25.630  30.335  1.00  0.00     0.000 A 
ENDBRANCH  47  61
BRANCH  48  67
ATOM     67  C   UNL A   1      38.632  29.176  28.995  1.00  0.00    -0.014 A 
ATOM     68  C   UNL A   1      38.169  29.677  27.769  1.00  0.00     0.009 A 
ATOM     69  C   UNL A   1      37.734  29.071  30.068  1.00  0.00     0.009 A 
ATOM     70  C   UNL A   1      36.840  30.083  27.624  1.00  0.00     0.001 A 
ATOM     71  C   UNL A   1      36.400  29.456  29.913  1.00  0.00     0.001 A 
ATOM     72  C   UNL A   1      35.957  29.968  28.696  1.00  0.00     0.000 A 
ENDBRANCH  48  67
BRANCH  60  73
ATOM     73  C   UNL A   1      44.281  32.353  31.520  1.00  0.00    -0.014 A 
ATOM     74  C   UNL A   1      44.244  32.541  32.909  1.00  0.00     0.009 A 
ATOM     75  C   UNL A   1      44.580  33.442  30.688  1.00  0.00     0.009 A 
ATOM     76  C   UNL A   1      44.487  33.802  33.455  1.00  0.00     0.001 A 
ATOM     77  C   UNL A   1      44.845  34.696  31.237  1.00  0.00     0.001 A 
ATOM     78  C   UNL A   1      44.793  34.876  32.619  1.00  0.00     0.000 A 
ENDBRANCH  60  73
ENDBRANCH  34  35
ENDBRANCH  26  29
ENDBRANCH  24  25
ENDBRANCH  23  24
ENDBRANCH   1  23
TORSDOF 13
ENDMDL
MODEL 3
REMARK VINA RESULT:     -11.0      1.808      7.343
REMARK SMILES CC1(C)C[C@](CC(=O)NCCCCNC(=O)c2ccc(-c3c4nc(c(-c5ccccc5)c5ccc([nH]5)c(-c5ccccc5)c5nc(c(-c6ccccc6)c6ccc3[nH]6)C=C5)C=C4)cc2)([NH+]2CCCC2)C(C)(C)O1
REMARK SMILES IDX 11 1 10 2 9 3 7 4 8 5 6 7 5 8 1 9 2 10 3 11 4 12 73 13 70 14
REMARK SMILES IDX 71 15 72 16 65 17 66 18 69 19 67 21 68 22 12 23 13 24 14 25
REMARK SMILES IDX 15 26 16 28 17 29 18 30 64 31 19 32 63 33 20 34 21 35 22 36
REMARK SMILES IDX 57 37 23 38 62 39 56 40 58 41 24 42 61 43 55 44 54 45 25 47
REMARK SMILES IDX 47 48 32 49 46 50 33 51 36 52 45 53 59 54 34 55 35 56 44 58
REMARK SMILES IDX 60 59 37 60 26 61 27 62 31 63 28 64 30 65 29 66 48 67 49 68
REMARK SMILES IDX 53 69 50 70 52 71 51 72 38 73 39 74 43 75 40 76 42 77 41 78
REMARK H PARENT 9 6 65 20 14 27 58 46 36 57
REMARK Flexibility Score: inf
ROOT
ATOM      1  C   UNL A   1      37.009  22.486  24.404  1.00  0.00     0.023 C 
ENDROOT
BRANCH   1   2
ATOM      2  C   UNL A   1      36.604  23.414  25.544  1.00  0.00     0.116 C 
BRANCH   2   3
ATOM      3  N   UNL A   1      35.780  22.763  26.524  1.00  0.00    -0.356 N 
ATOM      4  C   UNL A   1      34.498  23.012  26.886  1.00  0.00     0.226 C 
ATOM      5  O   UNL A   1      33.938  22.116  27.528  1.00  0.00    -0.275 OA
ATOM      6  H   UNL A   1      36.212  22.021  27.006  1.00  0.00     0.163 HD
BRANCH   4   7
ATOM      7  C   UNL A   1      33.728  24.276  26.500  1.00  0.00     0.171 C 
BRANCH   7   8
ATOM      8  C   UNL A   1      32.867  24.464  25.179  1.00  0.00     0.138 C 
ATOM      9  C   UNL A   1      33.811  27.519  23.381  1.00  0.00     0.042 C 
ATOM     10  C   UNL A   1      33.120  26.145  23.311  1.00  0.00     0.070 C 
ATOM     11  C   UNL A   1      32.986  25.805  21.824  1.00  0.00     0.042 C 
ATOM     12  C   UNL A   1      33.870  25.105  24.147  1.00  0.00     0.107 C 
ATOM     13  O   UNL A   1      31.804  26.242  23.862  1.00  0.00    -0.363 OA
ATOM     14  C   UNL A   1      31.764  25.636  25.190  1.00  0.00     0.118 C 
ATOM     15  C   UNL A   1      31.997  26.847  26.136  1.00  0.00     0.049 C 
ATOM     16  C   UNL A   1      30.313  25.145  25.324  1.00  0.00     0.049 C 
BRANCH   8  17
ATOM     17  N   UNL A   1      32.467  23.149  24.590  1.00  0.00    -0.327 N 
ATOM     18  C   UNL A   1      33.330  22.418  23.671  1.00  0.00     0.263 C 
ATOM     19  C   UNL A   1      31.658  22.190  25.332  1.00  0.00     0.263 C 
ATOM     20  H   UNL A   1      31.839  23.727  24.030  1.00  0.00     0.348 HD
ATOM     21  C   UNL A   1      32.694  21.049  23.518  1.00  0.00     0.067 C 
ATOM     22  C   UNL A   1      32.102  20.805  24.881  1.00  0.00     0.067 C 
ENDBRANCH   8  17
ENDBRANCH   7   8
ENDBRANCH   4   7
ENDBRANCH   2   3
ENDBRANCH   1   2
BRANCH   1  23
ATOM     23  C   UNL A   1      37.565  21.139  24.829  1.00  0.00     0.023 C 
BRANCH  23  24
ATOM     24  C   UNL A   1      38.792  21.228  25.725  1.00  0.00     0.116 C 
BRANCH  24  25
ATOM     25  N   UNL A   1      39.637  20.036  25.696  1.00  0.00    -0.352 N 
ATOM     26  C   UNL A   1      40.963  19.868  26.039  1.00  0.00     0.251 C 
ATOM     27  H   UNL A   1      39.186  19.219  25.383  1.00  0.00     0.163 HD
ATOM     28  O   UNL A   1      41.524  18.798  25.859  1.00  0.00    -0.269 OA
BRANCH  26  29
ATOM     29  C   UNL A   1      41.712  21.025  26.567  1.00  0.00     0.039 A 
ATOM     30  C   UNL A   1      42.287  21.933  25.676  1.00  0.00     0.014 A 
ATOM     31  C   UNL A   1      41.726  21.275  27.935  1.00  0.00     0.014 A 
ATOM     32  C   UNL A   1      42.730  23.168  26.151  1.00  0.00     0.010 A 
ATOM     33  C   UNL A   1      42.022  22.553  28.380  1.00  0.00     0.010 A 
ATOM     34  C   UNL A   1      42.514  23.522  27.493  1.00  0.00    -0.014 A 
BRANCH  34  35
ATOM     35  C   UNL A   1      42.762  24.896  28.006  1.00  0.00     0.031 A 
ATOM     36  C   UNL A   1      44.144  25.282  28.460  1.00  0.00     0.074 A 
ATOM     37  C   UNL A   1      41.733  25.749  28.188  1.00  0.00     0.049 A 
ATOM     38  N   UNL A   1      44.532  26.342  29.121  1.00  0.00    -0.248 NA
ATOM     39  C   UNL A   1      45.224  24.318  28.184  1.00  0.00     0.031 C 
ATOM     40  C   UNL A   1      40.331  25.489  27.849  1.00  0.00     0.029 A 
ATOM     41  N   UNL A   1      41.711  27.016  28.718  1.00  0.00    -0.354 N 
ATOM     42  C   UNL A   1      45.881  26.142  29.388  1.00  0.00     0.074 A 
ATOM     43  C   UNL A   1      46.229  24.838  28.870  1.00  0.00     0.031 C 
ATOM     44  C   UNL A   1      39.598  26.579  28.130  1.00  0.00     0.029 A 
ATOM     45  C   UNL A   1      40.463  27.591  28.723  1.00  0.00     0.049 A 
ATOM     46  H   UNL A   1      42.514  27.470  29.061  1.00  0.00     0.167 HD
ATOM     47  C   UNL A   1      46.762  26.978  29.984  1.00  0.00     0.031 A 
ATOM     48  C   UNL A   1      40.057  28.796  29.164  1.00  0.00     0.031 A 
ATOM     49  C   UNL A   1      46.436  28.301  30.437  1.00  0.00     0.049 A 
ATOM     50  C   UNL A   1      41.057  29.720  29.798  1.00  0.00     0.074 A 
ATOM     51  C   UNL A   1      47.276  29.263  30.965  1.00  0.00     0.029 A 
ATOM     52  N   UNL A   1      45.164  28.851  30.400  1.00  0.00    -0.354 N 
ATOM     53  N   UNL A   1      42.339  29.536  29.996  1.00  0.00    -0.248 NA
ATOM     54  C   UNL A   1      40.551  31.016  30.273  1.00  0.00     0.031 C 
ATOM     55  C   UNL A   1      46.505  30.389  31.277  1.00  0.00     0.029 A 
ATOM     56  C   UNL A   1      45.193  30.136  30.909  1.00  0.00     0.049 A 
ATOM     57  H   UNL A   1      44.361  28.395  30.059  1.00  0.00     0.167 HD
ATOM     58  C   UNL A   1      42.797  30.698  30.604  1.00  0.00     0.074 A 
ATOM     59  C   UNL A   1      41.659  31.586  30.728  1.00  0.00     0.031 C 
ATOM     60  C   UNL A   1      44.049  31.001  31.023  1.00  0.00     0.031 A 
BRANCH  47  61
ATOM     61  C   UNL A   1      48.168  26.476  30.161  1.00  0.00    -0.014 A 
ATOM     62  C   UNL A   1      49.133  26.646  29.156  1.00  0.00     0.009 A 
ATOM     63  C   UNL A   1      48.529  25.819  31.347  1.00  0.00     0.009 A 
ATOM     64  C   UNL A   1      50.416  26.118  29.310  1.00  0.00     0.001 A 
ATOM     65  C   UNL A   1      49.823  25.320  31.512  1.00  0.00     0.001 A 
ATOM     66  C   UNL A   1      50.761  25.459  30.489  1.00  0.00     0.000 A 
ENDBRANCH  47  61
BRANCH  48  67
ATOM     67  C   UNL A   1      38.640  29.212  29.000  1.00  0.00    -0.014 A 
ATOM     68  C   UNL A   1      37.747  29.098  30.077  1.00  0.00     0.009 A 
ATOM     69  C   UNL A   1      38.171  29.724  27.781  1.00  0.00     0.009 A 
ATOM     70  C   UNL A   1      36.409  29.470  29.931  1.00  0.00     0.001 A 
ATOM     71  C   UNL A   1      36.837  30.118  27.646  1.00  0.00     0.001 A 
ATOM     72  C   UNL A   1      35.957  29.983  28.717  1.00  0.00     0.000 A 
ENDBRANCH  48  67
BRANCH  60  73
ATOM     73  C   UNL A   1      44.257  32.354  31.637  1.00  0.00    -0.014 A 
ATOM     74  C   UNL A   1      44.562  33.467  30.840  1.00  0.00     0.009 A 
ATOM     75  C   UNL A   1      44.089  32.525  33.019  1.00  0.00     0.009 A 
ATOM     76  C   UNL A   1      44.711  34.727  31.420  1.00  0.00     0.001 A 
ATOM     77  C   UNL A   1      44.217  33.790  33.593  1.00  0.00     0.001 A 
ATOM     78  C   UNL A   1      44.534  34.888  32.794  1.00  0.00     0.000 A 
ENDBRANCH  60  73
ENDBRANCH  34  35
ENDBRANCH  26  29
ENDBRANCH  24  25
ENDBRANCH  23  24
ENDBRANCH   1  23
TORSDOF 13
ENDMDL
