MODEL 1
REMARK VINA RESULT:     -11.8      0.000      0.000
REMARK SMILES Cc1cc(C(=O)NCCCCNC(=O)c2ccc(-c3c4nc(c(-c5ccccc5)c5ccc([nH]5)c(-c5ccccc5)c5nc(c(-c6ccccc6)c6ccc3[nH]6)C=C5)C=C4)cc2)nn1[C@H]1CCS(=O)(=O)C1
REMARK SMILES IDX 10 1 9 2 8 3 7 4 5 5 6 6 4 8 1 9 2 10 3 11 64 12 63 13 65 14
REMARK SMILES IDX 66 15 71 16 67 17 68 18 69 19 70 20 11 21 12 22 13 23 14 25
REMARK SMILES IDX 15 26 16 27 62 28 17 29 61 30 18 31 19 32 20 33 55 34 21 35
REMARK SMILES IDX 60 36 54 37 56 38 22 39 59 40 53 41 52 42 23 44 45 45 30 46
REMARK SMILES IDX 44 47 31 48 34 49 43 50 57 51 32 52 33 53 42 55 58 56 35 57
REMARK SMILES IDX 24 58 25 59 29 60 26 61 28 62 27 63 46 64 47 65 51 66 48 67
REMARK SMILES IDX 50 68 49 69 36 70 37 71 41 72 38 73 40 74 39 75
REMARK H PARENT 7 7 12 24 56 43 34 54
REMARK Flexibility Score: inf
ROOT
ATOM      1  C   UNL A   1      37.890  19.234  25.049  1.00  0.00     0.023 C 
ENDROOT
BRANCH   1   2
ATOM      2  C   UNL A   1      36.715  20.177  24.731  1.00  0.00     0.023 C 
BRANCH   2   3
ATOM      3  C   UNL A   1      36.721  21.515  25.472  1.00  0.00     0.116 C 
BRANCH   3   4
ATOM      4  N   UNL A   1      35.778  21.538  26.561  1.00  0.00    -0.351 N 
ATOM      5  C   UNL A   1      34.407  21.569  26.593  1.00  0.00     0.271 C 
ATOM      6  O   UNL A   1      33.911  21.523  27.723  1.00  0.00    -0.267 OA
ATOM      7  H   UNL A   1      36.197  21.529  27.452  1.00  0.00     0.163 HD
BRANCH   5   8
ATOM      8  C   UNL A   1      33.577  21.672  25.373  1.00  0.00     0.150 A 
ATOM      9  C   UNL A   1      31.903  20.982  22.139  1.00  0.00     0.066 C 
ATOM     10  C   UNL A   1      32.519  21.473  23.394  1.00  0.00     0.036 A 
ATOM     11  C   UNL A   1      33.358  20.807  24.270  1.00  0.00     0.059 A 
ATOM     12  N   UNL A   1      32.410  22.733  23.917  1.00  0.00    -0.265 N 
ATOM     13  N   UNL A   1      32.873  22.800  25.175  1.00  0.00    -0.167 NA
BRANCH  12  14
ATOM     14  C   UNL A   1      32.167  24.024  23.306  1.00  0.00     0.123 C 
ATOM     15  C   UNL A   1      32.451  25.144  24.327  1.00  0.00     0.044 C 
ATOM     16  C   UNL A   1      32.933  24.425  22.057  1.00  0.00     0.164 C 
ATOM     17  C   UNL A   1      32.158  26.455  23.621  1.00  0.00     0.139 C 
ATOM     18  S   UNL A   1      32.572  26.168  21.908  1.00  0.00     0.152 S 
ATOM     19  O   UNL A   1      31.361  26.311  21.116  1.00  0.00    -0.229 OA
ATOM     20  O   UNL A   1      33.791  26.867  21.589  1.00  0.00    -0.229 OA
ENDBRANCH  12  14
ENDBRANCH   5   8
ENDBRANCH   3   4
ENDBRANCH   2   3
ENDBRANCH   1   2
BRANCH   1  21
ATOM     21  C   UNL A   1      39.172  19.920  25.512  1.00  0.00     0.116 C 
BRANCH  21  22
ATOM     22  N   UNL A   1      40.264  18.983  25.805  1.00  0.00    -0.352 N 
ATOM     23  C   UNL A   1      41.603  19.257  26.048  1.00  0.00     0.251 C 
ATOM     24  H   UNL A   1      40.013  18.032  25.832  1.00  0.00     0.163 HD
ATOM     25  O   UNL A   1      42.463  18.397  25.919  1.00  0.00    -0.269 OA
BRANCH  23  26
ATOM     26  C   UNL A   1      41.965  20.606  26.510  1.00  0.00     0.039 A 
ATOM     27  C   UNL A   1      42.435  21.621  25.670  1.00  0.00     0.014 A 
ATOM     28  C   UNL A   1      41.783  20.839  27.862  1.00  0.00     0.014 A 
ATOM     29  C   UNL A   1      42.653  22.888  26.214  1.00  0.00     0.010 A 
ATOM     30  C   UNL A   1      41.731  22.116  28.325  1.00  0.00     0.010 A 
ATOM     31  C   UNL A   1      42.293  23.117  27.546  1.00  0.00    -0.014 A 
BRANCH  31  32
ATOM     32  C   UNL A   1      42.471  24.384  28.233  1.00  0.00     0.031 A 
ATOM     33  C   UNL A   1      41.386  25.377  28.041  1.00  0.00     0.074 A 
ATOM     34  C   UNL A   1      43.379  24.477  29.233  1.00  0.00     0.049 A 
ATOM     35  N   UNL A   1      41.490  26.558  27.535  1.00  0.00    -0.248 NA
ATOM     36  C   UNL A   1      40.000  24.983  28.349  1.00  0.00     0.031 C 
ATOM     37  C   UNL A   1      44.273  23.428  29.756  1.00  0.00     0.029 A 
ATOM     38  N   UNL A   1      43.564  25.482  30.122  1.00  0.00    -0.354 N 
ATOM     39  C   UNL A   1      40.222  27.130  27.607  1.00  0.00     0.074 A 
ATOM     40  C   UNL A   1      39.321  26.062  27.955  1.00  0.00     0.031 C 
ATOM     41  C   UNL A   1      44.687  23.765  30.996  1.00  0.00     0.029 A 
ATOM     42  C   UNL A   1      44.231  25.111  31.283  1.00  0.00     0.049 A 
ATOM     43  H   UNL A   1      43.252  26.402  29.959  1.00  0.00     0.167 HD
ATOM     44  C   UNL A   1      40.050  28.481  27.585  1.00  0.00     0.031 A 
ATOM     45  C   UNL A   1      44.357  25.845  32.416  1.00  0.00     0.031 A 
ATOM     46  C   UNL A   1      41.278  29.159  27.256  1.00  0.00     0.049 A 
ATOM     47  C   UNL A   1      44.064  27.254  32.051  1.00  0.00     0.074 A 
ATOM     48  C   UNL A   1      42.109  29.176  26.155  1.00  0.00     0.029 A 
ATOM     49  N   UNL A   1      42.026  29.632  28.311  1.00  0.00    -0.354 N 
ATOM     50  N   UNL A   1      44.824  27.952  31.254  1.00  0.00    -0.248 NA
ATOM     51  C   UNL A   1      42.687  27.717  32.157  1.00  0.00     0.031 C 
ATOM     52  C   UNL A   1      43.426  29.183  26.697  1.00  0.00     0.029 A 
ATOM     53  C   UNL A   1      43.327  29.261  28.089  1.00  0.00     0.049 A 
ATOM     54  H   UNL A   1      41.688  30.143  29.081  1.00  0.00     0.167 HD
ATOM     55  C   UNL A   1      43.941  28.633  30.428  1.00  0.00     0.074 A 
ATOM     56  C   UNL A   1      42.643  28.535  31.100  1.00  0.00     0.031 C 
ATOM     57  C   UNL A   1      44.273  28.942  29.138  1.00  0.00     0.031 A 
BRANCH  44  58
ATOM     58  C   UNL A   1      38.902  29.223  28.219  1.00  0.00    -0.014 A 
ATOM     59  C   UNL A   1      38.733  29.122  29.614  1.00  0.00     0.009 A 
ATOM     60  C   UNL A   1      37.839  29.785  27.492  1.00  0.00     0.009 A 
ATOM     61  C   UNL A   1      37.530  29.483  30.231  1.00  0.00     0.001 A 
ATOM     62  C   UNL A   1      36.651  30.184  28.111  1.00  0.00     0.001 A 
ATOM     63  C   UNL A   1      36.485  30.004  29.478  1.00  0.00     0.000 A 
ENDBRANCH  44  58
BRANCH  45  64
ATOM     64  C   UNL A   1      44.466  25.375  33.816  1.00  0.00    -0.014 A 
ATOM     65  C   UNL A   1      45.524  25.784  34.642  1.00  0.00     0.009 A 
ATOM     66  C   UNL A   1      43.386  24.707  34.425  1.00  0.00     0.009 A 
ATOM     67  C   UNL A   1      45.485  25.561  36.028  1.00  0.00     0.001 A 
ATOM     68  C   UNL A   1      43.347  24.483  35.806  1.00  0.00     0.001 A 
ATOM     69  C   UNL A   1      44.392  24.923  36.611  1.00  0.00     0.000 A 
ENDBRANCH  45  64
BRANCH  57  70
ATOM     70  C   UNL A   1      45.689  28.675  28.683  1.00  0.00    -0.014 A 
ATOM     71  C   UNL A   1      46.116  27.422  28.205  1.00  0.00     0.009 A 
ATOM     72  C   UNL A   1      46.557  29.766  28.537  1.00  0.00     0.009 A 
ATOM     73  C   UNL A   1      47.375  27.264  27.616  1.00  0.00     0.001 A 
ATOM     74  C   UNL A   1      47.805  29.615  27.930  1.00  0.00     0.001 A 
ATOM     75  C   UNL A   1      48.216  28.364  27.472  1.00  0.00     0.000 A 
ENDBRANCH  57  70
ENDBRANCH  31  32
ENDBRANCH  23  26
ENDBRANCH  21  22
ENDBRANCH   1  21
TORSDOF 12
ENDMDL
MODEL 2
REMARK VINA RESULT:     -11.5      4.737      9.379
REMARK SMILES Cc1cc(C(=O)NCCCCNC(=O)c2ccc(-c3c4nc(c(-c5ccccc5)c5ccc([nH]5)c(-c5ccccc5)c5nc(c(-c6ccccc6)c6ccc3[nH]6)C=C5)C=C4)cc2)nn1[C@H]1CCS(=O)(=O)C1
REMARK SMILES IDX 10 1 9 2 8 3 7 4 5 5 6 6 4 8 1 9 2 10 3 11 64 12 63 13 65 14
REMARK SMILES IDX 66 15 71 16 67 17 68 18 69 19 70 20 11 21 12 22 13 23 14 25
REMARK SMILES IDX 15 26 16 27 62 28 17 29 61 30 18 31 19 32 20 33 55 34 21 35
REMARK SMILES IDX 60 36 54 37 56 38 22 39 59 40 53 41 52 42 23 44 45 45 30 46
REMARK SMILES IDX 44 47 31 48 34 49 43 50 57 51 32 52 33 53 42 55 58 56 35 57
REMARK SMILES IDX 24 58 25 59 29 60 26 61 28 62 27 63 46 64 47 65 51 66 48 67
REMARK SMILES IDX 50 68 49 69 36 70 37 71 41 72 38 73 40 74 39 75
REMARK H PARENT 7 7 12 24 56 43 34 54
REMARK Flexibility Score: inf
ROOT
ATOM      1  C   UNL A   1      31.315  32.259  26.473  1.00  0.00     0.023 C 
ENDROOT
BRANCH   1   2
ATOM      2  C   UNL A   1      31.372  30.779  26.048  1.00  0.00     0.023 C 
BRANCH   2   3
ATOM      3  C   UNL A   1      32.760  30.139  26.068  1.00  0.00     0.116 C 
BRANCH   3   4
ATOM      4  N   UNL A   1      32.762  28.865  26.742  1.00  0.00    -0.351 N 
ATOM      5  C   UNL A   1      32.480  27.594  26.309  1.00  0.00     0.271 C 
ATOM      6  O   UNL A   1      32.641  26.709  27.157  1.00  0.00    -0.267 OA
ATOM      7  H   UNL A   1      33.014  28.916  27.692  1.00  0.00     0.163 HD
BRANCH   5   8
ATOM      8  C   UNL A   1      32.000  27.297  24.943  1.00  0.00     0.150 A 
ATOM      9  C   UNL A   1      31.795  26.268  21.388  1.00  0.00     0.066 C 
ATOM     10  C   UNL A   1      31.684  26.788  22.771  1.00  0.00     0.036 A 
ATOM     11  C   UNL A   1      32.633  26.792  23.778  1.00  0.00     0.059 A 
ATOM     12  N   UNL A   1      30.604  27.428  23.317  1.00  0.00    -0.265 N 
ATOM     13  N   UNL A   1      30.715  27.559  24.649  1.00  0.00    -0.167 NA
BRANCH  12  14
ATOM     14  C   UNL A   1      29.539  28.215  22.731  1.00  0.00     0.123 C 
ATOM     15  C   UNL A   1      28.228  27.975  23.507  1.00  0.00     0.044 C 
ATOM     16  C   UNL A   1      29.674  29.725  22.644  1.00  0.00     0.164 C 
ATOM     17  C   UNL A   1      27.163  28.815  22.825  1.00  0.00     0.139 C 
ATOM     18  S   UNL A   1      28.024  30.251  22.207  1.00  0.00     0.152 S 
ATOM     19  O   UNL A   1      27.922  30.256  20.757  1.00  0.00    -0.229 OA
ATOM     20  O   UNL A   1      27.676  31.396  23.010  1.00  0.00    -0.229 OA
ENDBRANCH  12  14
ENDBRANCH   5   8
ENDBRANCH   3   4
ENDBRANCH   2   3
ENDBRANCH   1   2
BRANCH   1  21
ATOM     21  C   UNL A   1      32.556  32.782  27.189  1.00  0.00     0.116 C 
BRANCH  21  22
ATOM     22  N   UNL A   1      32.422  34.168  27.655  1.00  0.00    -0.352 N 
ATOM     23  C   UNL A   1      33.060  34.793  28.717  1.00  0.00     0.251 C 
ATOM     24  H   UNL A   1      31.795  34.730  27.145  1.00  0.00     0.163 HD
ATOM     25  O   UNL A   1      32.607  35.812  29.222  1.00  0.00    -0.269 OA
BRANCH  23  26
ATOM     26  C   UNL A   1      34.326  34.223  29.203  1.00  0.00     0.039 A 
ATOM     27  C   UNL A   1      34.514  33.720  30.493  1.00  0.00     0.014 A 
ATOM     28  C   UNL A   1      35.353  34.182  28.274  1.00  0.00     0.014 A 
ATOM     29  C   UNL A   1      35.735  33.117  30.803  1.00  0.00     0.010 A 
ATOM     30  C   UNL A   1      36.418  33.366  28.485  1.00  0.00     0.010 A 
ATOM     31  C   UNL A   1      36.677  32.948  29.782  1.00  0.00    -0.014 A 
BRANCH  31  32
ATOM     32  C   UNL A   1      37.983  32.342  29.970  1.00  0.00     0.031 A 
ATOM     33  C   UNL A   1      38.105  30.929  29.536  1.00  0.00     0.074 A 
ATOM     34  C   UNL A   1      39.057  33.136  30.191  1.00  0.00     0.049 A 
ATOM     35  N   UNL A   1      38.424  29.915  30.265  1.00  0.00    -0.248 NA
ATOM     36  C   UNL A   1      37.731  30.576  28.156  1.00  0.00     0.031 C 
ATOM     37  C   UNL A   1      39.105  34.606  30.282  1.00  0.00     0.029 A 
ATOM     38  N   UNL A   1      40.372  32.805  30.194  1.00  0.00    -0.354 N 
ATOM     39  C   UNL A   1      38.456  28.814  29.413  1.00  0.00     0.074 A 
ATOM     40  C   UNL A   1      37.860  29.247  28.176  1.00  0.00     0.031 C 
ATOM     41  C   UNL A   1      40.368  35.032  30.066  1.00  0.00     0.029 A 
ATOM     42  C   UNL A   1      41.236  33.873  29.991  1.00  0.00     0.049 A 
ATOM     43  H   UNL A   1      40.688  31.883  30.330  1.00  0.00     0.167 HD
ATOM     44  C   UNL A   1      39.169  27.695  29.724  1.00  0.00     0.031 A 
ATOM     45  C   UNL A   1      42.565  33.802  29.732  1.00  0.00     0.031 A 
ATOM     46  C   UNL A   1      39.646  27.741  31.083  1.00  0.00     0.049 A 
ATOM     47  C   UNL A   1      43.014  32.450  30.147  1.00  0.00     0.074 A 
ATOM     48  C   UNL A   1      39.039  27.785  32.321  1.00  0.00     0.029 A 
ATOM     49  N   UNL A   1      40.937  28.180  31.271  1.00  0.00    -0.354 N 
ATOM     50  N   UNL A   1      43.013  32.053  31.389  1.00  0.00    -0.248 NA
ATOM     51  C   UNL A   1      42.979  31.383  29.155  1.00  0.00     0.031 C 
ATOM     52  C   UNL A   1      39.826  28.701  33.076  1.00  0.00     0.029 A 
ATOM     53  C   UNL A   1      40.914  29.094  32.292  1.00  0.00     0.049 A 
ATOM     54  H   UNL A   1      41.730  27.891  30.765  1.00  0.00     0.167 HD
ATOM     55  C   UNL A   1      42.524  30.754  31.346  1.00  0.00     0.074 A 
ATOM     56  C   UNL A   1      42.624  30.359  29.939  1.00  0.00     0.031 C 
ATOM     57  C   UNL A   1      41.801  30.236  32.384  1.00  0.00     0.031 A 
BRANCH  44  58
ATOM     58  C   UNL A   1      39.765  26.737  28.726  1.00  0.00    -0.014 A 
ATOM     59  C   UNL A   1      40.635  27.251  27.745  1.00  0.00     0.009 A 
ATOM     60  C   UNL A   1      39.308  25.421  28.539  1.00  0.00     0.009 A 
ATOM     61  C   UNL A   1      40.957  26.519  26.598  1.00  0.00     0.001 A 
ATOM     62  C   UNL A   1      39.661  24.670  27.414  1.00  0.00     0.001 A 
ATOM     63  C   UNL A   1      40.460  25.232  26.427  1.00  0.00     0.000 A 
ENDBRANCH  44  58
BRANCH  45  64
ATOM     64  C   UNL A   1      43.403  34.725  28.931  1.00  0.00    -0.014 A 
ATOM     65  C   UNL A   1      43.108  34.997  27.586  1.00  0.00     0.009 A 
ATOM     66  C   UNL A   1      44.365  35.536  29.563  1.00  0.00     0.009 A 
ATOM     67  C   UNL A   1      43.729  36.061  26.912  1.00  0.00     0.001 A 
ATOM     68  C   UNL A   1      44.986  36.596  28.891  1.00  0.00     0.001 A 
ATOM     69  C   UNL A   1      44.657  36.867  27.568  1.00  0.00     0.000 A 
ENDBRANCH  45  64
BRANCH  57  70
ATOM     70  C   UNL A   1      41.690  31.050  33.652  1.00  0.00    -0.014 A 
ATOM     71  C   UNL A   1      40.742  32.076  33.822  1.00  0.00     0.009 A 
ATOM     72  C   UNL A   1      42.418  30.633  34.775  1.00  0.00     0.009 A 
ATOM     73  C   UNL A   1      40.543  32.676  35.071  1.00  0.00     0.001 A 
ATOM     74  C   UNL A   1      42.205  31.215  36.026  1.00  0.00     0.001 A 
ATOM     75  C   UNL A   1      41.270  32.238  36.174  1.00  0.00     0.000 A 
ENDBRANCH  57  70
ENDBRANCH  31  32
ENDBRANCH  23  26
ENDBRANCH  21  22
ENDBRANCH   1  21
TORSDOF 12
ENDMDL
MODEL 3
REMARK VINA RESULT:     -11.5      4.309      9.338
REMARK SMILES Cc1cc(C(=O)NCCCCNC(=O)c2ccc(-c3c4nc(c(-c5ccccc5)c5ccc([nH]5)c(-c5ccccc5)c5nc(c(-c6ccccc6)c6ccc3[nH]6)C=C5)C=C4)cc2)nn1[C@H]1CCS(=O)(=O)C1
REMARK SMILES IDX 10 1 9 2 8 3 7 4 5 5 6 6 4 8 1 9 2 10 3 11 64 12 63 13 65 14
REMARK SMILES IDX 66 15 71 16 67 17 68 18 69 19 70 20 11 21 12 22 13 23 14 25
REMARK SMILES IDX 15 26 16 27 62 28 17 29 61 30 18 31 19 32 20 33 55 34 21 35
REMARK SMILES IDX 60 36 54 37 56 38 22 39 59 40 53 41 52 42 23 44 45 45 30 46
REMARK SMILES IDX 44 47 31 48 34 49 43 50 57 51 32 52 33 53 42 55 58 56 35 57
REMARK SMILES IDX 24 58 25 59 29 60 26 61 28 62 27 63 46 64 47 65 51 66 48 67
REMARK SMILES IDX 50 68 49 69 36 70 37 71 41 72 38 73 40 74 39 75
REMARK H PARENT 7 7 12 24 56 43 34 54
REMARK Flexibility Score: inf
ROOT
ATOM      1  C   UNL A   1      31.315  31.860  26.217  1.00  0.00     0.023 C 
ENDROOT
BRANCH   1   2
ATOM      2  C   UNL A   1      31.420  30.361  25.878  1.00  0.00     0.023 C 
BRANCH   2   3
ATOM      3  C   UNL A   1      32.840  29.798  25.802  1.00  0.00     0.116 C 
BRANCH   3   4
ATOM      4  N   UNL A   1      33.315  29.700  24.446  1.00  0.00    -0.351 N 
ATOM      5  C   UNL A   1      33.304  28.672  23.537  1.00  0.00     0.271 C 
ATOM      6  O   UNL A   1      33.753  28.957  22.422  1.00  0.00    -0.267 OA
ATOM      7  H   UNL A   1      33.726  30.528  24.106  1.00  0.00     0.163 HD
BRANCH   5   8
ATOM      8  C   UNL A   1      32.812  27.316  23.864  1.00  0.00     0.150 A 
ATOM      9  C   UNL A   1      30.744  24.459  25.004  1.00  0.00     0.066 C 
ATOM     10  C   UNL A   1      31.744  25.458  24.558  1.00  0.00     0.036 A 
ATOM     11  C   UNL A   1      31.608  26.830  24.437  1.00  0.00     0.059 A 
ATOM     12  N   UNL A   1      33.047  25.212  24.218  1.00  0.00    -0.265 N 
ATOM     13  N   UNL A   1      33.623  26.271  23.628  1.00  0.00    -0.167 NA
BRANCH  12  14
ATOM     14  C   UNL A   1      33.976  24.173  24.610  1.00  0.00     0.123 C 
ATOM     15  C   UNL A   1      34.019  24.068  26.148  1.00  0.00     0.044 C 
ATOM     16  C   UNL A   1      33.767  22.749  24.125  1.00  0.00     0.164 C 
ATOM     17  C   UNL A   1      35.021  22.977  26.479  1.00  0.00     0.139 C 
ATOM     18  S   UNL A   1      34.904  21.810  25.133  1.00  0.00     0.152 S 
ATOM     19  O   UNL A   1      36.186  21.772  24.449  1.00  0.00    -0.229 OA
ATOM     20  O   UNL A   1      34.237  20.618  25.594  1.00  0.00    -0.229 OA
ENDBRANCH  12  14
ENDBRANCH   5   8
ENDBRANCH   3   4
ENDBRANCH   2   3
ENDBRANCH   1   2
BRANCH   1  21
ATOM     21  C   UNL A   1      32.285  32.358  27.284  1.00  0.00     0.116 C 
BRANCH  21  22
ATOM     22  N   UNL A   1      32.223  33.810  27.498  1.00  0.00    -0.352 N 
ATOM     23  C   UNL A   1      32.933  34.585  28.404  1.00  0.00     0.251 C 
ATOM     24  H   UNL A   1      31.593  34.299  26.922  1.00  0.00     0.163 HD
ATOM     25  O   UNL A   1      32.542  35.696  28.736  1.00  0.00    -0.269 OA
BRANCH  23  26
ATOM     26  C   UNL A   1      34.199  34.056  28.933  1.00  0.00     0.039 A 
ATOM     27  C   UNL A   1      34.378  33.621  30.249  1.00  0.00     0.014 A 
ATOM     28  C   UNL A   1      35.237  33.979  28.019  1.00  0.00     0.014 A 
ATOM     29  C   UNL A   1      35.602  33.050  30.603  1.00  0.00     0.010 A 
ATOM     30  C   UNL A   1      36.309  33.187  28.283  1.00  0.00     0.010 A 
ATOM     31  C   UNL A   1      36.557  32.839  29.603  1.00  0.00    -0.014 A 
BRANCH  31  32
ATOM     32  C   UNL A   1      37.868  32.260  29.836  1.00  0.00     0.031 A 
ATOM     33  C   UNL A   1      38.026  30.843  29.426  1.00  0.00     0.074 A 
ATOM     34  C   UNL A   1      38.922  33.075  30.075  1.00  0.00     0.049 A 
ATOM     35  N   UNL A   1      38.342  29.844  30.178  1.00  0.00    -0.248 NA
ATOM     36  C   UNL A   1      37.698  30.464  28.042  1.00  0.00     0.031 C 
ATOM     37  C   UNL A   1      38.942  34.547  30.147  1.00  0.00     0.029 A 
ATOM     38  N   UNL A   1      40.241  32.767  30.120  1.00  0.00    -0.354 N 
ATOM     39  C   UNL A   1      38.417  28.733  29.343  1.00  0.00     0.074 A 
ATOM     40  C   UNL A   1      37.849  29.138  28.084  1.00  0.00     0.031 C 
ATOM     41  C   UNL A   1      40.203  34.992  29.960  1.00  0.00     0.029 A 
ATOM     42  C   UNL A   1      41.093  33.848  29.926  1.00  0.00     0.049 A 
ATOM     43  H   UNL A   1      40.569  31.853  30.278  1.00  0.00     0.167 HD
ATOM     44  C   UNL A   1      39.140  27.631  29.690  1.00  0.00     0.031 A 
ATOM     45  C   UNL A   1      42.430  33.796  29.705  1.00  0.00     0.031 A 
ATOM     46  C   UNL A   1      39.578  27.704  31.061  1.00  0.00     0.049 A 
ATOM     47  C   UNL A   1      42.889  32.458  30.152  1.00  0.00     0.074 A 
ATOM     48  C   UNL A   1      38.935  27.755  32.281  1.00  0.00     0.029 A 
ATOM     49  N   UNL A   1      40.855  28.169  31.279  1.00  0.00    -0.354 N 
ATOM     50  N   UNL A   1      42.860  32.079  31.399  1.00  0.00    -0.248 NA
ATOM     51  C   UNL A   1      42.901  31.377  29.176  1.00  0.00     0.031 C 
ATOM     52  C   UNL A   1      39.685  28.695  33.044  1.00  0.00     0.029 A 
ATOM     53  C   UNL A   1      40.788  29.097  32.286  1.00  0.00     0.049 A 
ATOM     54  H   UNL A   1      41.667  27.886  30.800  1.00  0.00     0.167 HD
ATOM     55  C   UNL A   1      42.395  30.771  31.361  1.00  0.00     0.074 A 
ATOM     56  C   UNL A   1      42.542  30.358  29.964  1.00  0.00     0.031 C 
ATOM     57  C   UNL A   1      41.652  30.254  32.386  1.00  0.00     0.031 A 
BRANCH  44  58
ATOM     58  C   UNL A   1      39.781  26.669  28.724  1.00  0.00    -0.014 A 
ATOM     59  C   UNL A   1      40.771  27.162  27.851  1.00  0.00     0.009 A 
ATOM     60  C   UNL A   1      39.275  25.388  28.448  1.00  0.00     0.009 A 
ATOM     61  C   UNL A   1      41.166  26.446  26.716  1.00  0.00     0.001 A 
ATOM     62  C   UNL A   1      39.697  24.651  27.337  1.00  0.00     0.001 A 
ATOM     63  C   UNL A   1      40.621  25.194  26.454  1.00  0.00     0.000 A 
ENDBRANCH  44  58
BRANCH  45  64
ATOM     64  C   UNL A   1      43.274  34.722  28.915  1.00  0.00    -0.014 A 
ATOM     65  C   UNL A   1      43.392  34.594  27.522  1.00  0.00     0.009 A 
ATOM     66  C   UNL A   1      43.780  35.897  29.505  1.00  0.00     0.009 A 
ATOM     67  C   UNL A   1      43.965  35.616  26.749  1.00  0.00     0.001 A 
ATOM     68  C   UNL A   1      44.353  36.916  28.735  1.00  0.00     0.001 A 
ATOM     69  C   UNL A   1      44.433  36.781  27.354  1.00  0.00     0.000 A 
ENDBRANCH  45  64
BRANCH  57  70
ATOM     70  C   UNL A   1      41.491  31.085  33.639  1.00  0.00    -0.014 A 
ATOM     71  C   UNL A   1      40.493  32.066  33.784  1.00  0.00     0.009 A 
ATOM     72  C   UNL A   1      42.230  30.723  34.774  1.00  0.00     0.009 A 
ATOM     73  C   UNL A   1      40.254  32.676  35.020  1.00  0.00     0.001 A 
ATOM     74  C   UNL A   1      41.978  31.316  36.013  1.00  0.00     0.001 A 
ATOM     75  C   UNL A   1      40.993  32.294  36.136  1.00  0.00     0.000 A 
ENDBRANCH  57  70
ENDBRANCH  31  32
ENDBRANCH  23  26
ENDBRANCH  21  22
ENDBRANCH   1  21
TORSDOF 12
ENDMDL
