MODEL 1
REMARK VINA RESULT:     -12.6      0.000      0.000
REMARK SMILES Cc1cc(C)c2c(CCCC(=O)NCCCCNC(=O)c3ccc(-c4c5nc(c(-c6ccccc6)c6ccc([nH]6)c(-c6ccccc6)c6nc(c(-c7ccccc7)c7ccc4[nH]7)C=C6)C=C5)cc3)c(-c3ccccn3)[nH]c2c1
REMARK SMILES IDX 14 1 13 2 11 3 12 4 10 6 9 7 8 8 7 9 1 10 2 11 3 12 78 13
REMARK SMILES IDX 4 14 77 15 5 16 6 17 76 18 69 19 70 21 71 22 75 23 72 24
REMARK SMILES IDX 74 25 73 26 15 27 16 28 17 29 18 30 19 31 20 33 21 34 22 35
REMARK SMILES IDX 68 36 23 37 67 38 24 39 25 40 26 41 61 42 27 43 66 44 60 45
REMARK SMILES IDX 62 46 28 47 65 48 59 49 58 50 29 52 51 53 36 54 50 55 37 56
REMARK SMILES IDX 40 57 49 58 63 59 38 60 39 61 48 63 64 64 41 65 30 66 31 67
REMARK SMILES IDX 35 68 32 69 34 70 33 71 52 72 53 73 57 74 54 75 56 76 55 77
REMARK SMILES IDX 42 78 43 79 47 80 44 81 46 82 45 83
REMARK H PARENT 13 5 76 20 18 32 62 51 40 62
REMARK Flexibility Score: inf
ROOT
ATOM      1  C   UNL A   1      37.314  22.283  25.422  1.00  0.00     0.116 C 
ENDROOT
BRANCH   1   2
ATOM      2  N   UNL A   1      36.268  22.416  26.408  1.00  0.00    -0.356 N 
ATOM      3  C   UNL A   1      35.115  23.126  26.433  1.00  0.00     0.220 C 
ATOM      4  O   UNL A   1      34.374  22.898  27.399  1.00  0.00    -0.275 OA
ATOM      5  H   UNL A   1      36.422  21.884  27.223  1.00  0.00     0.163 HD
BRANCH   3   6
ATOM      6  C   UNL A   1      34.619  24.049  25.332  1.00  0.00     0.100 C 
BRANCH   6   7
ATOM      7  C   UNL A   1      34.316  25.520  25.496  1.00  0.00     0.015 C 
BRANCH   7   8
ATOM      8  C   UNL A   1      33.343  26.261  24.600  1.00  0.00     0.039 C 
BRANCH   8   9
ATOM      9  C   UNL A   1      31.883  25.927  24.347  1.00  0.00    -0.013 A 
ATOM     10  C   UNL A   1      27.515  29.410  22.955  1.00  0.00     0.044 C 
ATOM     11  C   UNL A   1      28.711  28.542  23.212  1.00  0.00    -0.049 A 
ATOM     12  C   UNL A   1      29.978  29.122  23.267  1.00  0.00     0.007 A 
ATOM     13  C   UNL A   1      28.566  27.173  23.445  1.00  0.00     0.030 A 
ATOM     14  C   UNL A   1      31.137  28.376  23.574  1.00  0.00    -0.041 A 
ATOM     15  C   UNL A   1      29.708  26.438  23.785  1.00  0.00     0.047 A 
ATOM     16  C   UNL A   1      32.453  29.111  23.521  1.00  0.00     0.045 C 
ATOM     17  C   UNL A   1      30.978  26.994  23.903  1.00  0.00     0.006 A 
ATOM     18  N   UNL A   1      29.828  25.101  24.047  1.00  0.00    -0.353 N 
ATOM     19  C   UNL A   1      31.136  24.738  24.277  1.00  0.00     0.068 A 
ATOM     20  H   UNL A   1      29.070  24.473  24.069  1.00  0.00     0.167 HD
BRANCH  19  21
ATOM     21  C   UNL A   1      31.441  23.304  24.269  1.00  0.00     0.087 A 
ATOM     22  C   UNL A   1      31.890  22.681  23.102  1.00  0.00     0.030 A 
ATOM     23  N   UNL A   1      31.291  22.643  25.432  1.00  0.00    -0.255 NA
ATOM     24  C   UNL A   1      32.361  21.372  23.173  1.00  0.00     0.004 A 
ATOM     25  C   UNL A   1      31.770  21.373  25.476  1.00  0.00     0.112 A 
ATOM     26  C   UNL A   1      32.340  20.716  24.396  1.00  0.00     0.020 A 
ENDBRANCH  19  21
ENDBRANCH   8   9
ENDBRANCH   7   8
ENDBRANCH   6   7
ENDBRANCH   3   6
ENDBRANCH   1   2
BRANCH   1  27
ATOM     27  C   UNL A   1      37.140  21.052  24.529  1.00  0.00     0.023 C 
BRANCH  27  28
ATOM     28  C   UNL A   1      37.999  19.850  24.926  1.00  0.00     0.023 C 
BRANCH  28  29
ATOM     29  C   UNL A   1      39.239  20.233  25.721  1.00  0.00     0.116 C 
BRANCH  29  30
ATOM     30  N   UNL A   1      40.262  19.185  25.765  1.00  0.00    -0.352 N 
ATOM     31  C   UNL A   1      41.631  19.372  25.918  1.00  0.00     0.251 C 
ATOM     32  H   UNL A   1      39.950  18.257  25.677  1.00  0.00     0.163 HD
ATOM     33  O   UNL A   1      42.447  18.529  25.606  1.00  0.00    -0.269 OA
BRANCH  31  34
ATOM     34  C   UNL A   1      42.056  20.644  26.529  1.00  0.00     0.039 A 
ATOM     35  C   UNL A   1      42.628  21.681  25.787  1.00  0.00     0.014 A 
ATOM     36  C   UNL A   1      41.762  20.790  27.881  1.00  0.00     0.014 A 
ATOM     37  C   UNL A   1      42.835  22.908  26.415  1.00  0.00     0.010 A 
ATOM     38  C   UNL A   1      41.794  22.037  28.436  1.00  0.00     0.010 A 
ATOM     39  C   UNL A   1      42.402  23.076  27.739  1.00  0.00    -0.014 A 
BRANCH  39  40
ATOM     40  C   UNL A   1      42.494  24.355  28.426  1.00  0.00     0.031 A 
ATOM     41  C   UNL A   1      41.389  25.311  28.139  1.00  0.00     0.074 A 
ATOM     42  C   UNL A   1      43.366  24.538  29.444  1.00  0.00     0.049 A 
ATOM     43  N   UNL A   1      41.475  26.469  27.577  1.00  0.00    -0.248 NA
ATOM     44  C   UNL A   1      40.004  24.885  28.411  1.00  0.00     0.031 C 
ATOM     45  C   UNL A   1      44.280  23.559  30.053  1.00  0.00     0.029 A 
ATOM     46  N   UNL A   1      43.520  25.617  30.250  1.00  0.00    -0.354 N 
ATOM     47  C   UNL A   1      40.189  27.003  27.582  1.00  0.00     0.074 A 
ATOM     48  C   UNL A   1      39.307  25.927  27.955  1.00  0.00     0.031 C 
ATOM     49  C   UNL A   1      44.686  24.006  31.262  1.00  0.00     0.029 A 
ATOM     50  C   UNL A   1      44.219  25.369  31.426  1.00  0.00     0.049 A 
ATOM     51  H   UNL A   1      43.164  26.506  30.021  1.00  0.00     0.167 HD
ATOM     52  C   UNL A   1      39.976  28.346  27.502  1.00  0.00     0.031 A 
ATOM     53  C   UNL A   1      44.375  26.223  32.467  1.00  0.00     0.031 A 
ATOM     54  C   UNL A   1      41.169  29.047  27.102  1.00  0.00     0.049 A 
ATOM     55  C   UNL A   1      44.083  27.582  31.958  1.00  0.00     0.074 A 
ATOM     56  C   UNL A   1      41.969  29.043  25.977  1.00  0.00     0.029 A 
ATOM     57  N   UNL A   1      41.930  29.600  28.106  1.00  0.00    -0.354 N 
ATOM     58  N   UNL A   1      44.821  28.188  31.073  1.00  0.00    -0.248 NA
ATOM     59  C   UNL A   1      42.719  28.072  32.076  1.00  0.00     0.031 C 
ATOM     60  C   UNL A   1      43.301  29.125  26.479  1.00  0.00     0.029 A 
ATOM     61  C   UNL A   1      43.238  29.262  27.867  1.00  0.00     0.049 A 
ATOM     62  H   UNL A   1      41.597  30.140  28.858  1.00  0.00     0.167 HD
ATOM     63  C   UNL A   1      43.916  28.807  30.225  1.00  0.00     0.074 A 
ATOM     64  C   UNL A   1      42.644  28.783  30.948  1.00  0.00     0.031 C 
ATOM     65  C   UNL A   1      44.213  29.014  28.908  1.00  0.00     0.031 A 
BRANCH  52  66
ATOM     66  C   UNL A   1      38.822  29.062  28.156  1.00  0.00    -0.014 A 
ATOM     67  C   UNL A   1      38.602  28.880  29.535  1.00  0.00     0.009 A 
ATOM     68  C   UNL A   1      37.788  29.685  27.431  1.00  0.00     0.009 A 
ATOM     69  C   UNL A   1      37.391  29.242  30.136  1.00  0.00     0.001 A 
ATOM     70  C   UNL A   1      36.593  30.084  28.035  1.00  0.00     0.001 A 
ATOM     71  C   UNL A   1      36.383  29.838  29.384  1.00  0.00     0.000 A 
ENDBRANCH  52  66
BRANCH  53  72
ATOM     72  C   UNL A   1      44.452  25.938  33.916  1.00  0.00    -0.014 A 
ATOM     73  C   UNL A   1      43.311  25.521  34.620  1.00  0.00     0.009 A 
ATOM     74  C   UNL A   1      45.703  25.770  34.537  1.00  0.00     0.009 A 
ATOM     75  C   UNL A   1      43.423  24.904  35.874  1.00  0.00     0.001 A 
ATOM     76  C   UNL A   1      45.814  25.154  35.789  1.00  0.00     0.001 A 
ATOM     77  C   UNL A   1      44.675  24.703  36.447  1.00  0.00     0.000 A 
ENDBRANCH  53  72
BRANCH  65  78
ATOM     78  C   UNL A   1      45.628  28.736  28.453  1.00  0.00    -0.014 A 
ATOM     79  C   UNL A   1      46.083  27.462  28.064  1.00  0.00     0.009 A 
ATOM     80  C   UNL A   1      46.490  29.826  28.272  1.00  0.00     0.009 A 
ATOM     81  C   UNL A   1      47.370  27.284  27.539  1.00  0.00     0.001 A 
ATOM     82  C   UNL A   1      47.766  29.653  27.728  1.00  0.00     0.001 A 
ATOM     83  C   UNL A   1      48.208  28.383  27.368  1.00  0.00     0.000 A 
ENDBRANCH  65  78
ENDBRANCH  39  40
ENDBRANCH  31  34
ENDBRANCH  29  30
ENDBRANCH  28  29
ENDBRANCH  27  28
ENDBRANCH   1  27
TORSDOF 15
ENDMDL
MODEL 2
REMARK VINA RESULT:     -12.2      5.170     10.041
REMARK SMILES Cc1cc(C)c2c(CCCC(=O)NCCCCNC(=O)c3ccc(-c4c5nc(c(-c6ccccc6)c6ccc([nH]6)c(-c6ccccc6)c6nc(c(-c7ccccc7)c7ccc4[nH]7)C=C6)C=C5)cc3)c(-c3ccccn3)[nH]c2c1
REMARK SMILES IDX 14 1 13 2 11 3 12 4 10 6 9 7 8 8 7 9 1 10 2 11 3 12 78 13
REMARK SMILES IDX 4 14 77 15 5 16 6 17 76 18 69 19 70 21 71 22 75 23 72 24
REMARK SMILES IDX 74 25 73 26 15 27 16 28 17 29 18 30 19 31 20 33 21 34 22 35
REMARK SMILES IDX 68 36 23 37 67 38 24 39 25 40 26 41 61 42 27 43 66 44 60 45
REMARK SMILES IDX 62 46 28 47 65 48 59 49 58 50 29 52 51 53 36 54 50 55 37 56
REMARK SMILES IDX 40 57 49 58 63 59 38 60 39 61 48 63 64 64 41 65 30 66 31 67
REMARK SMILES IDX 35 68 32 69 34 70 33 71 52 72 53 73 57 74 54 75 56 76 55 77
REMARK SMILES IDX 42 78 43 79 47 80 44 81 46 82 45 83
REMARK H PARENT 13 5 76 20 18 32 62 51 40 62
REMARK Flexibility Score: inf
ROOT
ATOM      1  C   UNL A   1      33.550  33.717  28.092  1.00  0.00     0.116 C 
ENDROOT
BRANCH   1   2
ATOM      2  N   UNL A   1      34.406  32.556  28.110  1.00  0.00    -0.356 N 
ATOM      3  C   UNL A   1      34.214  31.267  27.737  1.00  0.00     0.220 C 
ATOM      4  O   UNL A   1      35.225  30.553  27.764  1.00  0.00    -0.275 OA
ATOM      5  H   UNL A   1      35.310  32.735  28.460  1.00  0.00     0.163 HD
BRANCH   3   6
ATOM      6  C   UNL A   1      32.924  30.690  27.181  1.00  0.00     0.100 C 
BRANCH   6   7
ATOM      7  C   UNL A   1      32.739  30.148  25.783  1.00  0.00     0.015 C 
BRANCH   7   8
ATOM      8  C   UNL A   1      31.577  29.255  25.396  1.00  0.00     0.039 C 
BRANCH   8   9
ATOM      9  C   UNL A   1      31.324  28.604  24.048  1.00  0.00    -0.013 A 
ATOM     10  C   UNL A   1      33.172  23.542  22.018  1.00  0.00     0.044 C 
ATOM     11  C   UNL A   1      32.635  24.797  22.641  1.00  0.00    -0.049 A 
ATOM     12  C   UNL A   1      32.934  25.082  23.973  1.00  0.00     0.007 A 
ATOM     13  C   UNL A   1      31.883  25.703  21.892  1.00  0.00     0.030 A 
ATOM     14  C   UNL A   1      32.521  26.277  24.600  1.00  0.00    -0.041 A 
ATOM     15  C   UNL A   1      31.502  26.906  22.500  1.00  0.00     0.047 A 
ATOM     16  C   UNL A   1      32.844  26.422  26.067  1.00  0.00     0.045 C 
ATOM     17  C   UNL A   1      31.831  27.247  23.809  1.00  0.00     0.006 A 
ATOM     18  N   UNL A   1      30.764  27.937  21.989  1.00  0.00    -0.353 N 
ATOM     19  C   UNL A   1      30.541  28.922  22.924  1.00  0.00     0.068 A 
ATOM     20  H   UNL A   1      30.432  27.971  21.062  1.00  0.00     0.167 HD
BRANCH  19  21
ATOM     21  C   UNL A   1      29.521  29.927  22.605  1.00  0.00     0.087 A 
ATOM     22  C   UNL A   1      28.999  30.749  23.605  1.00  0.00     0.030 A 
ATOM     23  N   UNL A   1      29.145  30.022  21.315  1.00  0.00    -0.255 NA
ATOM     24  C   UNL A   1      28.186  31.821  23.242  1.00  0.00     0.004 A 
ATOM     25  C   UNL A   1      28.363  31.084  20.988  1.00  0.00     0.112 A 
ATOM     26  C   UNL A   1      27.894  32.019  21.899  1.00  0.00     0.020 A 
ENDBRANCH  19  21
ENDBRANCH   8   9
ENDBRANCH   7   8
ENDBRANCH   6   7
ENDBRANCH   3   6
ENDBRANCH   1   2
BRANCH   1  27
ATOM     27  C   UNL A   1      34.262  34.993  28.550  1.00  0.00     0.023 C 
BRANCH  27  28
ATOM     28  C   UNL A   1      33.328  36.131  28.961  1.00  0.00     0.023 C 
BRANCH  28  29
ATOM     29  C   UNL A   1      33.698  36.761  30.297  1.00  0.00     0.116 C 
BRANCH  29  30
ATOM     30  N   UNL A   1      32.742  36.480  31.371  1.00  0.00    -0.352 N 
ATOM     31  C   UNL A   1      32.724  35.358  32.190  1.00  0.00     0.251 C 
ATOM     32  H   UNL A   1      32.042  37.154  31.527  1.00  0.00     0.163 HD
ATOM     33  O   UNL A   1      31.740  35.014  32.810  1.00  0.00    -0.269 OA
BRANCH  31  34
ATOM     34  C   UNL A   1      33.991  34.616  32.314  1.00  0.00     0.039 A 
ATOM     35  C   UNL A   1      34.140  33.302  31.862  1.00  0.00     0.014 A 
ATOM     36  C   UNL A   1      35.066  35.339  32.821  1.00  0.00     0.014 A 
ATOM     37  C   UNL A   1      35.416  32.743  31.860  1.00  0.00     0.010 A 
ATOM     38  C   UNL A   1      36.332  34.858  32.646  1.00  0.00     0.010 A 
ATOM     39  C   UNL A   1      36.507  33.538  32.244  1.00  0.00    -0.014 A 
BRANCH  39  40
ATOM     40  C   UNL A   1      37.878  33.056  32.173  1.00  0.00     0.031 A 
ATOM     41  C   UNL A   1      38.624  33.069  33.461  1.00  0.00     0.074 A 
ATOM     42  C   UNL A   1      38.329  32.399  31.079  1.00  0.00     0.049 A 
ATOM     43  N   UNL A   1      39.683  33.747  33.752  1.00  0.00    -0.248 NA
ATOM     44  C   UNL A   1      38.066  32.321  34.602  1.00  0.00     0.031 C 
ATOM     45  C   UNL A   1      37.585  32.018  29.868  1.00  0.00     0.029 A 
ATOM     46  N   UNL A   1      39.531  31.803  30.879  1.00  0.00    -0.354 N 
ATOM     47  C   UNL A   1      40.037  33.382  35.048  1.00  0.00     0.074 A 
ATOM     48  C   UNL A   1      38.925  32.634  35.575  1.00  0.00     0.031 C 
ATOM     49  C   UNL A   1      38.264  31.059  29.199  1.00  0.00     0.029 A 
ATOM     50  C   UNL A   1      39.562  30.897  29.824  1.00  0.00     0.049 A 
ATOM     51  H   UNL A   1      40.320  31.997  31.436  1.00  0.00     0.167 HD
ATOM     52  C   UNL A   1      41.312  33.530  35.505  1.00  0.00     0.031 A 
ATOM     53  C   UNL A   1      40.579  30.057  29.513  1.00  0.00     0.031 A 
ATOM     54  C   UNL A   1      42.093  34.365  34.630  1.00  0.00     0.049 A 
ATOM     55  C   UNL A   1      41.793  30.585  30.177  1.00  0.00     0.074 A 
ATOM     56  C   UNL A   1      42.021  35.681  34.220  1.00  0.00     0.029 A 
ATOM     57  N   UNL A   1      42.890  33.725  33.709  1.00  0.00    -0.354 N 
ATOM     58  N   UNL A   1      42.347  31.719  29.857  1.00  0.00    -0.248 NA
ATOM     59  C   UNL A   1      42.111  30.084  31.504  1.00  0.00     0.031 C 
ATOM     60  C   UNL A   1      42.354  35.648  32.834  1.00  0.00     0.029 A 
ATOM     61  C   UNL A   1      42.694  34.336  32.497  1.00  0.00     0.049 A 
ATOM     62  H   UNL A   1      43.491  32.966  33.888  1.00  0.00     0.167 HD
ATOM     63  C   UNL A   1      42.703  32.289  31.070  1.00  0.00     0.074 A 
ATOM     64  C   UNL A   1      42.624  31.196  32.039  1.00  0.00     0.031 C 
ATOM     65  C   UNL A   1      42.742  33.646  31.226  1.00  0.00     0.031 A 
BRANCH  52  66
ATOM     66  C   UNL A   1      41.961  32.617  36.514  1.00  0.00    -0.014 A 
ATOM     67  C   UNL A   1      42.451  33.168  37.713  1.00  0.00     0.009 A 
ATOM     68  C   UNL A   1      42.354  31.297  36.220  1.00  0.00     0.009 A 
ATOM     69  C   UNL A   1      43.334  32.459  38.536  1.00  0.00     0.001 A 
ATOM     70  C   UNL A   1      43.204  30.571  37.059  1.00  0.00     0.001 A 
ATOM     71  C   UNL A   1      43.716  31.162  38.205  1.00  0.00     0.000 A 
ENDBRANCH  52  66
BRANCH  53  72
ATOM     72  C   UNL A   1      40.535  28.690  28.952  1.00  0.00    -0.014 A 
ATOM     73  C   UNL A   1      39.850  27.667  29.629  1.00  0.00     0.009 A 
ATOM     74  C   UNL A   1      40.889  28.465  27.610  1.00  0.00     0.009 A 
ATOM     75  C   UNL A   1      39.482  26.486  28.968  1.00  0.00     0.001 A 
ATOM     76  C   UNL A   1      40.521  27.286  26.951  1.00  0.00     0.001 A 
ATOM     77  C   UNL A   1      39.800  26.306  27.625  1.00  0.00     0.000 A 
ENDBRANCH  53  72
BRANCH  65  78
ATOM     78  C   UNL A   1      42.586  34.501  29.988  1.00  0.00    -0.014 A 
ATOM     79  C   UNL A   1      41.338  34.845  29.434  1.00  0.00     0.009 A 
ATOM     80  C   UNL A   1      43.732  35.101  29.451  1.00  0.00     0.009 A 
ATOM     81  C   UNL A   1      41.248  35.737  28.357  1.00  0.00     0.001 A 
ATOM     82  C   UNL A   1      43.642  36.008  28.391  1.00  0.00     0.001 A 
ATOM     83  C   UNL A   1      42.402  36.320  27.841  1.00  0.00     0.000 A 
ENDBRANCH  65  78
ENDBRANCH  39  40
ENDBRANCH  31  34
ENDBRANCH  29  30
ENDBRANCH  28  29
ENDBRANCH  27  28
ENDBRANCH   1  27
TORSDOF 15
ENDMDL
MODEL 3
REMARK VINA RESULT:     -12.1      3.933      9.029
REMARK SMILES Cc1cc(C)c2c(CCCC(=O)NCCCCNC(=O)c3ccc(-c4c5nc(c(-c6ccccc6)c6ccc([nH]6)c(-c6ccccc6)c6nc(c(-c7ccccc7)c7ccc4[nH]7)C=C6)C=C5)cc3)c(-c3ccccn3)[nH]c2c1
REMARK SMILES IDX 14 1 13 2 11 3 12 4 10 6 9 7 8 8 7 9 1 10 2 11 3 12 78 13
REMARK SMILES IDX 4 14 77 15 5 16 6 17 76 18 69 19 70 21 71 22 75 23 72 24
REMARK SMILES IDX 74 25 73 26 15 27 16 28 17 29 18 30 19 31 20 33 21 34 22 35
REMARK SMILES IDX 68 36 23 37 67 38 24 39 25 40 26 41 61 42 27 43 66 44 60 45
REMARK SMILES IDX 62 46 28 47 65 48 59 49 58 50 29 52 51 53 36 54 50 55 37 56
REMARK SMILES IDX 40 57 49 58 63 59 38 60 39 61 48 63 64 64 41 65 30 66 31 67
REMARK SMILES IDX 35 68 32 69 34 70 33 71 52 72 53 73 57 74 54 75 56 76 55 77
REMARK SMILES IDX 42 78 43 79 47 80 44 81 46 82 45 83
REMARK H PARENT 13 5 76 20 18 32 62 51 40 62
REMARK Flexibility Score: inf
ROOT
ATOM      1  C   UNL A   1      33.858  30.006  27.089  1.00  0.00     0.116 C 
ENDROOT
BRANCH   1   2
ATOM      2  N   UNL A   1      32.758  29.226  27.604  1.00  0.00    -0.356 N 
ATOM      3  C   UNL A   1      32.181  28.071  27.194  1.00  0.00     0.220 C 
ATOM      4  O   UNL A   1      31.329  27.604  27.962  1.00  0.00    -0.275 OA
ATOM      5  H   UNL A   1      32.347  29.608  28.413  1.00  0.00     0.163 HD
BRANCH   3   6
ATOM      6  C   UNL A   1      32.585  27.264  25.972  1.00  0.00     0.100 C 
BRANCH   6   7
ATOM      7  C   UNL A   1      33.629  26.172  25.951  1.00  0.00     0.015 C 
BRANCH   7   8
ATOM      8  C   UNL A   1      33.275  24.699  25.898  1.00  0.00     0.039 C 
BRANCH   8   9
ATOM      9  C   UNL A   1      32.642  23.943  24.743  1.00  0.00    -0.013 A 
ATOM     10  C   UNL A   1      32.855  18.328  23.483  1.00  0.00     0.044 C 
ATOM     11  C   UNL A   1      32.748  19.759  23.923  1.00  0.00    -0.049 A 
ATOM     12  C   UNL A   1      33.335  20.151  25.125  1.00  0.00     0.007 A 
ATOM     13  C   UNL A   1      32.113  20.709  23.121  1.00  0.00     0.030 A 
ATOM     14  C   UNL A   1      33.333  21.493  25.564  1.00  0.00    -0.041 A 
ATOM     15  C   UNL A   1      32.140  22.046  23.535  1.00  0.00     0.047 A 
ATOM     16  C   UNL A   1      33.933  21.767  26.921  1.00  0.00     0.045 C 
ATOM     17  C   UNL A   1      32.764  22.480  24.701  1.00  0.00     0.006 A 
ATOM     18  N   UNL A   1      31.588  23.147  22.940  1.00  0.00    -0.353 N 
ATOM     19  C   UNL A   1      31.772  24.285  23.692  1.00  0.00     0.068 A 
ATOM     20  H   UNL A   1      31.117  23.128  22.075  1.00  0.00     0.167 HD
BRANCH  19  21
ATOM     21  C   UNL A   1      30.980  25.462  23.325  1.00  0.00     0.087 A 
ATOM     22  C   UNL A   1      29.728  25.683  23.905  1.00  0.00     0.030 A 
ATOM     23  N   UNL A   1      31.528  26.311  22.436  1.00  0.00    -0.255 NA
ATOM     24  C   UNL A   1      29.090  26.903  23.691  1.00  0.00     0.004 A 
ATOM     25  C   UNL A   1      30.891  27.498  22.256  1.00  0.00     0.112 A 
ATOM     26  C   UNL A   1      29.704  27.849  22.882  1.00  0.00     0.020 A 
ENDBRANCH  19  21
ENDBRANCH   8   9
ENDBRANCH   7   8
ENDBRANCH   6   7
ENDBRANCH   3   6
ENDBRANCH   1   2
BRANCH   1  27
ATOM     27  C   UNL A   1      34.045  31.335  27.825  1.00  0.00     0.023 C 
BRANCH  27  28
ATOM     28  C   UNL A   1      32.811  32.237  27.837  1.00  0.00     0.023 C 
BRANCH  28  29
ATOM     29  C   UNL A   1      33.097  33.655  27.362  1.00  0.00     0.116 C 
BRANCH  29  30
ATOM     30  N   UNL A   1      32.671  34.693  28.303  1.00  0.00    -0.352 N 
ATOM     31  C   UNL A   1      33.147  34.884  29.594  1.00  0.00     0.251 C 
ATOM     32  H   UNL A   1      31.978  35.318  27.990  1.00  0.00     0.163 HD
ATOM     33  O   UNL A   1      32.537  35.515  30.432  1.00  0.00    -0.269 OA
BRANCH  31  34
ATOM     34  C   UNL A   1      34.473  34.316  29.896  1.00  0.00     0.039 A 
ATOM     35  C   UNL A   1      34.688  33.426  30.952  1.00  0.00     0.014 A 
ATOM     36  C   UNL A   1      35.486  34.642  29.000  1.00  0.00     0.014 A 
ATOM     37  C   UNL A   1      35.931  32.806  31.053  1.00  0.00     0.010 A 
ATOM     38  C   UNL A   1      36.632  33.900  28.993  1.00  0.00     0.010 A 
ATOM     39  C   UNL A   1      36.892  33.043  30.058  1.00  0.00    -0.014 A 
BRANCH  39  40
ATOM     40  C   UNL A   1      38.174  32.356  30.042  1.00  0.00     0.031 A 
ATOM     41  C   UNL A   1      38.144  30.966  29.510  1.00  0.00     0.074 A 
ATOM     42  C   UNL A   1      39.329  33.032  30.240  1.00  0.00     0.049 A 
ATOM     43  N   UNL A   1      38.427  29.875  30.138  1.00  0.00    -0.248 NA
ATOM     44  C   UNL A   1      37.632  30.749  28.145  1.00  0.00     0.031 C 
ATOM     45  C   UNL A   1      39.522  34.478  30.438  1.00  0.00     0.029 A 
ATOM     46  N   UNL A   1      40.606  32.579  30.166  1.00  0.00    -0.354 N 
ATOM     47  C   UNL A   1      38.308  28.846  29.208  1.00  0.00     0.074 A 
ATOM     48  C   UNL A   1      37.663  29.418  28.054  1.00  0.00     0.031 C 
ATOM     49  C   UNL A   1      40.815  34.800  30.212  1.00  0.00     0.029 A 
ATOM     50  C   UNL A   1      41.570  33.574  30.044  1.00  0.00     0.049 A 
ATOM     51  H   UNL A   1      40.831  31.621  30.196  1.00  0.00     0.167 HD
ATOM     52  C   UNL A   1      38.956  27.659  29.374  1.00  0.00     0.031 A 
ATOM     53  C   UNL A   1      42.889  33.391  29.794  1.00  0.00     0.031 A 
ATOM     54  C   UNL A   1      39.467  27.519  30.713  1.00  0.00     0.049 A 
ATOM     55  C   UNL A   1      43.201  31.983  30.131  1.00  0.00     0.074 A 
ATOM     56  C   UNL A   1      38.900  27.456  31.969  1.00  0.00     0.029 A 
ATOM     57  N   UNL A   1      40.789  27.846  30.909  1.00  0.00    -0.354 N 
ATOM     58  N   UNL A   1      43.145  31.509  31.342  1.00  0.00    -0.248 NA
ATOM     59  C   UNL A   1      43.113  30.996  29.067  1.00  0.00     0.031 C 
ATOM     60  C   UNL A   1      39.769  28.226  32.798  1.00  0.00     0.029 A 
ATOM     61  C   UNL A   1      40.856  28.639  32.026  1.00  0.00     0.049 A 
ATOM     62  H   UNL A   1      41.548  27.562  30.351  1.00  0.00     0.167 HD
ATOM     63  C   UNL A   1      42.570  30.255  31.201  1.00  0.00     0.074 A 
ATOM     64  C   UNL A   1      42.664  29.955  29.772  1.00  0.00     0.031 C 
ATOM     65  C   UNL A   1      41.814  29.711  32.200  1.00  0.00     0.031 A 
BRANCH  52  66
ATOM     66  C   UNL A   1      39.467  26.807  28.239  1.00  0.00    -0.014 A 
ATOM     67  C   UNL A   1      39.299  25.411  28.309  1.00  0.00     0.009 A 
ATOM     68  C   UNL A   1      40.340  27.288  27.245  1.00  0.00     0.009 A 
ATOM     69  C   UNL A   1      40.015  24.546  27.472  1.00  0.00     0.001 A 
ATOM     70  C   UNL A   1      41.027  26.430  26.382  1.00  0.00     0.001 A 
ATOM     71  C   UNL A   1      40.885  25.057  26.513  1.00  0.00     0.000 A 
ENDBRANCH  52  66
BRANCH  53  72
ATOM     72  C   UNL A   1      43.825  34.226  29.011  1.00  0.00    -0.014 A 
ATOM     73  C   UNL A   1      43.667  34.358  27.622  1.00  0.00     0.009 A 
ATOM     74  C   UNL A   1      44.672  35.140  29.665  1.00  0.00     0.009 A 
ATOM     75  C   UNL A   1      44.288  35.402  26.922  1.00  0.00     0.001 A 
ATOM     76  C   UNL A   1      45.291  36.182  28.964  1.00  0.00     0.001 A 
ATOM     77  C   UNL A   1      45.083  36.324  27.597  1.00  0.00     0.000 A 
ENDBRANCH  53  72
BRANCH  65  78
ATOM     78  C   UNL A   1      41.792  30.423  33.535  1.00  0.00    -0.014 A 
ATOM     79  C   UNL A   1      40.929  31.496  33.829  1.00  0.00     0.009 A 
ATOM     80  C   UNL A   1      42.566  29.897  34.577  1.00  0.00     0.009 A 
ATOM     81  C   UNL A   1      40.869  32.041  35.118  1.00  0.00     0.001 A 
ATOM     82  C   UNL A   1      42.491  30.425  35.869  1.00  0.00     0.001 A 
ATOM     83  C   UNL A   1      41.648  31.500  36.137  1.00  0.00     0.000 A 
ENDBRANCH  65  78
ENDBRANCH  39  40
ENDBRANCH  31  34
ENDBRANCH  29  30
ENDBRANCH  28  29
ENDBRANCH  27  28
ENDBRANCH   1  27
TORSDOF 15
ENDMDL
