MODEL 1
REMARK VINA RESULT:     -13.7      0.000      0.000
REMARK SMILES O=C(COc1ccccc1/C=C1/SC(=O)N(c2ccc(F)cc2)C1=O)NCCCCNC(=O)c1ccc(-c2c3nc(c(-c4ccccc4)c4ccc([nH]4)c(-c4ccccc4)c4nc(c(-c5ccccc5)c5ccc2[nH]5)C=C4)C=C3)cc1
REMARK SMILES IDX 27 1 26 2 1 3 2 4 3 6 4 7 5 8 6 9 10 10 7 11 9 12 8 13 11 14
REMARK SMILES IDX 12 15 13 16 24 17 14 18 16 19 25 20 15 21 17 22 18 23 23 24
REMARK SMILES IDX 19 25 22 26 20 27 21 28 28 29 29 30 30 31 31 32 32 33 33 35
REMARK SMILES IDX 34 36 35 37 81 38 36 39 80 40 37 41 38 42 39 43 74 44 40 45
REMARK SMILES IDX 79 46 73 47 75 48 41 49 78 50 72 51 71 52 42 54 64 55 49 56
REMARK SMILES IDX 63 57 50 58 53 59 62 60 76 61 51 62 52 63 61 65 77 66 54 67
REMARK SMILES IDX 43 68 44 69 48 70 45 71 47 72 46 73 65 74 66 75 70 76 67 77
REMARK SMILES IDX 69 78 68 79 55 80 56 81 60 82 57 83 59 84 58 85
REMARK H PARENT 26 5 31 34 75 53 53 64
REMARK Flexibility Score: inf
ROOT
ATOM      1  C   UNL A   1      32.078  29.797  25.386  1.00  0.00     0.116 C 
ENDROOT
BRANCH   1   2
ATOM      2  N   UNL A   1      31.145  28.242  24.305  1.00  0.00    -0.353 N 
ATOM      3  O   UNL A   1      30.229  28.228  22.012  1.00  0.00    -0.271 OA
ATOM      4  C   UNL A   1      30.622  27.670  23.031  1.00  0.00     0.257 C 
ATOM      5  H   UNL A   1      30.965  27.547  24.979  1.00  0.00     0.163 HD
BRANCH   4   6
ATOM      6  C   UNL A   1      30.643  26.142  23.056  1.00  0.00     0.329 C 
BRANCH   6   7
ATOM      7  O   UNL A   1      31.893  25.631  23.480  1.00  0.00    -0.483 OA
BRANCH   7   8
ATOM      8  C   UNL A   1      31.873  24.759  24.546  1.00  0.00     0.127 A 
ATOM      9  C   UNL A   1      30.635  24.759  25.199  1.00  0.00     0.047 A 
ATOM     10  C   UNL A   1      33.000  24.124  25.137  1.00  0.00     0.018 A 
ATOM     11  C   UNL A   1      30.498  24.176  26.453  1.00  0.00     0.004 A 
ATOM     12  C   UNL A   1      32.840  23.561  26.412  1.00  0.00     0.012 A 
ATOM     13  C   UNL A   1      31.606  23.602  27.070  1.00  0.00     0.001 A 
BRANCH  10  14
ATOM     14  C   UNL A   1      34.363  24.075  24.567  1.00  0.00     0.033 C 
ATOM     15  C   UNL A   1      34.800  22.948  23.971  1.00  0.00     0.084 C 
ATOM     16  S   UNL A   1      36.994  22.391  24.288  1.00  0.00    -0.022 SA
ATOM     17  C   UNL A   1      33.656  21.352  24.031  1.00  0.00     0.272 C 
ATOM     18  C   UNL A   1      36.432  20.169  24.805  1.00  0.00     0.298 C 
ATOM     19  N   UNL A   1      34.660  19.910  24.486  1.00  0.00    -0.236 N 
ATOM     20  O   UNL A   1      32.480  21.355  23.698  1.00  0.00    -0.268 OA
ATOM     21  O   UNL A   1      37.283  19.417  25.255  1.00  0.00    -0.260 OA
BRANCH  19  22
ATOM     22  C   UNL A   1      34.020  18.632  24.618  1.00  0.00     0.053 A 
ATOM     23  C   UNL A   1      34.396  17.563  23.784  1.00  0.00     0.030 A 
ATOM     24  C   UNL A   1      33.049  18.389  25.594  1.00  0.00     0.030 A 
ATOM     25  C   UNL A   1      33.842  16.290  23.928  1.00  0.00     0.041 A 
ATOM     26  C   UNL A   1      32.489  17.110  25.740  1.00  0.00     0.041 A 
ATOM     27  C   UNL A   1      32.895  16.073  24.910  1.00  0.00     0.123 A 
ATOM     28  F   UNL A   1      32.379  14.849  25.067  1.00  0.00    -0.207 F 
ENDBRANCH  19  22
ENDBRANCH  10  14
ENDBRANCH   7   8
ENDBRANCH   6   7
ENDBRANCH   4   6
ENDBRANCH   1   2
BRANCH   1  29
ATOM     29  C   UNL A   1      31.511  30.712  26.725  1.00  0.00     0.023 C 
BRANCH  29  30
ATOM     30  C   UNL A   1      31.493  32.243  26.619  1.00  0.00     0.023 C 
BRANCH  30  31
ATOM     31  C   UNL A   1      32.679  32.961  27.238  1.00  0.00     0.116 C 
BRANCH  31  32
ATOM     32  N   UNL A   1      32.355  34.300  27.687  1.00  0.00    -0.352 N 
ATOM     33  C   UNL A   1      32.995  35.010  28.676  1.00  0.00     0.251 C 
ATOM     34  H   UNL A   1      31.600  34.746  27.239  1.00  0.00     0.163 HD
ATOM     35  O   UNL A   1      32.545  36.071  29.089  1.00  0.00    -0.269 OA
BRANCH  33  36
ATOM     36  C   UNL A   1      34.229  34.440  29.257  1.00  0.00     0.039 A 
ATOM     37  C   UNL A   1      34.138  33.647  30.401  1.00  0.00     0.014 A 
ATOM     38  C   UNL A   1      35.457  34.624  28.614  1.00  0.00     0.014 A 
ATOM     39  C   UNL A   1      35.283  33.011  30.885  1.00  0.00     0.010 A 
ATOM     40  C   UNL A   1      36.574  33.919  29.049  1.00  0.00     0.010 A 
ATOM     41  C   UNL A   1      36.507  33.125  30.203  1.00  0.00    -0.014 A 
BRANCH  41  42
ATOM     42  C   UNL A   1      37.733  32.460  30.717  1.00  0.00     0.031 A 
ATOM     43  C   UNL A   1      38.388  32.964  31.977  1.00  0.00     0.074 A 
ATOM     44  C   UNL A   1      38.273  31.422  30.048  1.00  0.00     0.049 A 
ATOM     45  N   UNL A   1      39.451  32.513  32.593  1.00  0.00    -0.248 NA
ATOM     46  C   UNL A   1      37.784  34.146  32.615  1.00  0.00     0.031 C 
ATOM     47  C   UNL A   1      37.770  30.867  28.789  1.00  0.00     0.029 A 
ATOM     48  N   UNL A   1      39.362  30.639  30.343  1.00  0.00    -0.354 N 
ATOM     49  C   UNL A   1      39.647  33.363  33.676  1.00  0.00     0.074 A 
ATOM     50  C   UNL A   1      38.640  34.395  33.593  1.00  0.00     0.031 C 
ATOM     51  C   UNL A   1      38.520  29.809  28.445  1.00  0.00     0.029 A 
ATOM     52  C   UNL A   1      39.581  29.633  29.434  1.00  0.00     0.049 A 
ATOM     53  H   UNL A   1      39.933  30.786  31.132  1.00  0.00     0.167 HD
ATOM     54  C   UNL A   1      40.562  33.278  34.671  1.00  0.00     0.031 A 
ATOM     55  C   UNL A   1      40.526  28.674  29.401  1.00  0.00     0.031 A 
ATOM     56  C   UNL A   1      41.557  32.246  34.763  1.00  0.00     0.049 A 
ATOM     57  C   UNL A   1      41.539  28.605  30.512  1.00  0.00     0.074 A 
ATOM     58  C   UNL A   1      42.495  32.038  35.759  1.00  0.00     0.029 A 
ATOM     59  N   UNL A   1      41.745  31.248  33.819  1.00  0.00    -0.354 N 
ATOM     60  N   UNL A   1      41.660  29.368  31.571  1.00  0.00    -0.248 NA
ATOM     61  C   UNL A   1      42.539  27.530  30.428  1.00  0.00     0.031 C 
ATOM     62  C   UNL A   1      43.289  30.949  35.388  1.00  0.00     0.029 A 
ATOM     63  C   UNL A   1      42.801  30.436  34.197  1.00  0.00     0.049 A 
ATOM     64  H   UNL A   1      41.207  31.133  33.002  1.00  0.00     0.167 HD
ATOM     65  C   UNL A   1      42.729  28.851  32.292  1.00  0.00     0.074 A 
ATOM     66  C   UNL A   1      43.208  27.696  31.561  1.00  0.00     0.031 C 
ATOM     67  C   UNL A   1      43.266  29.292  33.456  1.00  0.00     0.031 A 
BRANCH  54  68
ATOM     68  C   UNL A   1      40.519  34.337  35.740  1.00  0.00    -0.014 A 
ATOM     69  C   UNL A   1      41.184  35.564  35.579  1.00  0.00     0.009 A 
ATOM     70  C   UNL A   1      39.786  34.115  36.916  1.00  0.00     0.009 A 
ATOM     71  C   UNL A   1      41.155  36.525  36.590  1.00  0.00     0.001 A 
ATOM     72  C   UNL A   1      39.730  35.093  37.911  1.00  0.00     0.001 A 
ATOM     73  C   UNL A   1      40.422  36.291  37.753  1.00  0.00     0.000 A 
ENDBRANCH  54  68
BRANCH  55  74
ATOM     74  C   UNL A   1      40.551  27.688  28.287  1.00  0.00    -0.014 A 
ATOM     75  C   UNL A   1      39.906  26.447  28.412  1.00  0.00     0.009 A 
ATOM     76  C   UNL A   1      41.235  27.977  27.095  1.00  0.00     0.009 A 
ATOM     77  C   UNL A   1      39.968  25.508  27.380  1.00  0.00     0.001 A 
ATOM     78  C   UNL A   1      41.267  27.049  26.052  1.00  0.00     0.001 A 
ATOM     79  C   UNL A   1      40.644  25.811  26.199  1.00  0.00     0.000 A 
ENDBRANCH  55  74
BRANCH  67  80
ATOM     80  C   UNL A   1      44.409  28.503  34.033  1.00  0.00    -0.014 A 
ATOM     81  C   UNL A   1      44.187  27.415  34.891  1.00  0.00     0.009 A 
ATOM     82  C   UNL A   1      45.726  28.826  33.671  1.00  0.00     0.009 A 
ATOM     83  C   UNL A   1      45.265  26.690  35.404  1.00  0.00     0.001 A 
ATOM     84  C   UNL A   1      46.799  28.078  34.157  1.00  0.00     0.001 A 
ATOM     85  C   UNL A   1      46.569  27.018  35.031  1.00  0.00     0.000 A 
ENDBRANCH  67  80
ENDBRANCH  41  42
ENDBRANCH  33  36
ENDBRANCH  31  32
ENDBRANCH  30  31
ENDBRANCH  29  30
ENDBRANCH   1  29
TORSDOF 15
ENDMDL
MODEL 2
REMARK VINA RESULT:     -13.1      0.767      5.758
REMARK SMILES O=C(COc1ccccc1/C=C1/SC(=O)N(c2ccc(F)cc2)C1=O)NCCCCNC(=O)c1ccc(-c2c3nc(c(-c4ccccc4)c4ccc([nH]4)c(-c4ccccc4)c4nc(c(-c5ccccc5)c5ccc2[nH]5)C=C4)C=C3)cc1
REMARK SMILES IDX 27 1 26 2 1 3 2 4 3 6 4 7 5 8 6 9 10 10 7 11 9 12 8 13 11 14
REMARK SMILES IDX 12 15 13 16 24 17 14 18 16 19 25 20 15 21 17 22 18 23 23 24
REMARK SMILES IDX 19 25 22 26 20 27 21 28 28 29 29 30 30 31 31 32 32 33 33 35
REMARK SMILES IDX 34 36 35 37 81 38 36 39 80 40 37 41 38 42 39 43 74 44 40 45
REMARK SMILES IDX 79 46 73 47 75 48 41 49 78 50 72 51 71 52 42 54 64 55 49 56
REMARK SMILES IDX 63 57 50 58 53 59 62 60 76 61 51 62 52 63 61 65 77 66 54 67
REMARK SMILES IDX 43 68 44 69 48 70 45 71 47 72 46 73 65 74 66 75 70 76 67 77
REMARK SMILES IDX 69 78 68 79 55 80 56 81 60 82 57 83 59 84 58 85
REMARK H PARENT 26 5 31 34 75 53 53 64
REMARK Flexibility Score: inf
ROOT
ATOM      1  C   UNL A   1      32.109  29.344  26.237  1.00  0.00     0.116 C 
ENDROOT
BRANCH   1   2
ATOM      2  N   UNL A   1      31.240  28.101  24.769  1.00  0.00    -0.353 N 
ATOM      3  O   UNL A   1      31.238  28.310  22.308  1.00  0.00    -0.271 OA
ATOM      4  C   UNL A   1      31.073  27.680  23.347  1.00  0.00     0.257 C 
ATOM      5  H   UNL A   1      30.650  27.497  25.276  1.00  0.00     0.163 HD
BRANCH   4   6
ATOM      6  C   UNL A   1      30.669  26.210  23.246  1.00  0.00     0.329 C 
BRANCH   6   7
ATOM      7  O   UNL A   1      31.775  25.339  23.385  1.00  0.00    -0.483 OA
BRANCH   7   8
ATOM      8  C   UNL A   1      31.812  24.564  24.523  1.00  0.00     0.127 A 
ATOM      9  C   UNL A   1      30.585  24.567  25.197  1.00  0.00     0.047 A 
ATOM     10  C   UNL A   1      32.975  24.032  25.145  1.00  0.00     0.018 A 
ATOM     11  C   UNL A   1      30.494  24.090  26.499  1.00  0.00     0.004 A 
ATOM     12  C   UNL A   1      32.860  23.577  26.467  1.00  0.00     0.012 A 
ATOM     13  C   UNL A   1      31.635  23.621  27.142  1.00  0.00     0.001 A 
BRANCH  10  14
ATOM     14  C   UNL A   1      34.330  23.992  24.554  1.00  0.00     0.033 C 
ATOM     15  C   UNL A   1      34.767  22.867  23.955  1.00  0.00     0.084 C 
ATOM     16  S   UNL A   1      36.970  22.329  24.241  1.00  0.00    -0.022 SA
ATOM     17  C   UNL A   1      33.636  21.263  24.036  1.00  0.00     0.272 C 
ATOM     18  C   UNL A   1      36.433  20.104  24.772  1.00  0.00     0.298 C 
ATOM     19  N   UNL A   1      34.658  19.830  24.480  1.00  0.00    -0.236 N 
ATOM     20  O   UNL A   1      32.456  21.256  23.721  1.00  0.00    -0.268 OA
ATOM     21  O   UNL A   1      37.296  19.360  25.211  1.00  0.00    -0.260 OA
BRANCH  19  22
ATOM     22  C   UNL A   1      34.031  18.547  24.624  1.00  0.00     0.053 A 
ATOM     23  C   UNL A   1      34.405  17.478  23.789  1.00  0.00     0.030 A 
ATOM     24  C   UNL A   1      33.074  18.300  25.613  1.00  0.00     0.030 A 
ATOM     25  C   UNL A   1      33.863  16.201  23.945  1.00  0.00     0.041 A 
ATOM     26  C   UNL A   1      32.527  17.017  25.771  1.00  0.00     0.041 A 
ATOM     27  C   UNL A   1      32.931  15.980  24.940  1.00  0.00     0.123 A 
ATOM     28  F   UNL A   1      32.426  14.752  25.107  1.00  0.00    -0.207 F 
ENDBRANCH  19  22
ENDBRANCH  10  14
ENDBRANCH   7   8
ENDBRANCH   6   7
ENDBRANCH   4   6
ENDBRANCH   1   2
BRANCH   1  29
ATOM     29  C   UNL A   1      31.443  30.672  27.101  1.00  0.00     0.023 C 
BRANCH  29  30
ATOM     30  C   UNL A   1      31.701  32.094  26.584  1.00  0.00     0.023 C 
BRANCH  30  31
ATOM     31  C   UNL A   1      32.836  32.845  27.257  1.00  0.00     0.116 C 
BRANCH  31  32
ATOM     32  N   UNL A   1      32.485  34.211  27.593  1.00  0.00    -0.352 N 
ATOM     33  C   UNL A   1      33.003  34.959  28.624  1.00  0.00     0.251 C 
ATOM     34  H   UNL A   1      31.808  34.645  27.027  1.00  0.00     0.163 HD
ATOM     35  O   UNL A   1      32.527  36.048  28.921  1.00  0.00    -0.269 OA
BRANCH  33  36
ATOM     36  C   UNL A   1      34.136  34.400  29.392  1.00  0.00     0.039 A 
ATOM     37  C   UNL A   1      33.874  33.640  30.532  1.00  0.00     0.014 A 
ATOM     38  C   UNL A   1      35.445  34.559  28.928  1.00  0.00     0.014 A 
ATOM     39  C   UNL A   1      34.931  33.013  31.194  1.00  0.00     0.010 A 
ATOM     40  C   UNL A   1      36.481  33.861  29.539  1.00  0.00     0.010 A 
ATOM     41  C   UNL A   1      36.241  33.100  30.693  1.00  0.00    -0.014 A 
BRANCH  41  42
ATOM     42  C   UNL A   1      37.375  32.444  31.396  1.00  0.00     0.031 A 
ATOM     43  C   UNL A   1      38.066  31.263  30.766  1.00  0.00     0.074 A 
ATOM     44  C   UNL A   1      37.773  32.890  32.604  1.00  0.00     0.049 A 
ATOM     45  N   UNL A   1      39.081  30.565  31.211  1.00  0.00    -0.248 NA
ATOM     46  C   UNL A   1      37.533  30.787  29.479  1.00  0.00     0.031 C 
ATOM     47  C   UNL A   1      37.158  33.991  33.349  1.00  0.00     0.029 A 
ATOM     48  N   UNL A   1      38.801  32.476  33.414  1.00  0.00    -0.354 N 
ATOM     49  C   UNL A   1      39.291  29.565  30.268  1.00  0.00     0.074 A 
ATOM     50  C   UNL A   1      38.260  29.702  29.266  1.00  0.00     0.031 C 
ATOM     51  C   UNL A   1      37.847  34.192  34.483  1.00  0.00     0.029 A 
ATOM     52  C   UNL A   1      38.927  33.212  34.567  1.00  0.00     0.049 A 
ATOM     53  H   UNL A   1      39.393  31.721  33.190  1.00  0.00     0.167 HD
ATOM     54  C   UNL A   1      40.274  28.635  30.218  1.00  0.00     0.031 A 
ATOM     55  C   UNL A   1      39.813  33.112  35.576  1.00  0.00     0.031 A 
ATOM     56  C   UNL A   1      41.309  28.504  31.207  1.00  0.00     0.049 A 
ATOM     57  C   UNL A   1      40.890  32.063  35.506  1.00  0.00     0.074 A 
ATOM     58  C   UNL A   1      42.381  27.630  31.222  1.00  0.00     0.029 A 
ATOM     59  N   UNL A   1      41.397  29.269  32.359  1.00  0.00    -0.354 N 
ATOM     60  N   UNL A   1      41.124  31.179  34.567  1.00  0.00    -0.248 NA
ATOM     61  C   UNL A   1      41.836  32.011  36.630  1.00  0.00     0.031 C 
ATOM     62  C   UNL A   1      43.086  27.826  32.414  1.00  0.00     0.029 A 
ATOM     63  C   UNL A   1      42.492  28.869  33.106  1.00  0.00     0.049 A 
ATOM     64  H   UNL A   1      40.774  29.989  32.609  1.00  0.00     0.167 HD
ATOM     65  C   UNL A   1      42.256  30.484  34.973  1.00  0.00     0.074 A 
ATOM     66  C   UNL A   1      42.674  31.064  36.232  1.00  0.00     0.031 C 
ATOM     67  C   UNL A   1      42.893  29.457  34.359  1.00  0.00     0.031 A 
BRANCH  54  68
ATOM     68  C   UNL A   1      40.269  27.687  29.049  1.00  0.00    -0.014 A 
ATOM     69  C   UNL A   1      39.632  26.437  29.125  1.00  0.00     0.009 A 
ATOM     70  C   UNL A   1      40.890  28.057  27.846  1.00  0.00     0.009 A 
ATOM     71  C   UNL A   1      39.658  25.560  28.039  1.00  0.00     0.001 A 
ATOM     72  C   UNL A   1      40.884  27.192  26.750  1.00  0.00     0.001 A 
ATOM     73  C   UNL A   1      40.279  25.941  26.850  1.00  0.00     0.000 A 
ENDBRANCH  54  68
BRANCH  55  74
ATOM     74  C   UNL A   1      39.734  34.043  36.735  1.00  0.00    -0.014 A 
ATOM     75  C   UNL A   1      39.006  33.697  37.884  1.00  0.00     0.009 A 
ATOM     76  C   UNL A   1      40.377  35.291  36.691  1.00  0.00     0.009 A 
ATOM     77  C   UNL A   1      38.899  34.592  38.952  1.00  0.00     0.001 A 
ATOM     78  C   UNL A   1      40.296  36.169  37.774  1.00  0.00     0.001 A 
ATOM     79  C   UNL A   1      39.548  35.825  38.898  1.00  0.00     0.000 A 
ENDBRANCH  55  74
BRANCH  67  80
ATOM     80  C   UNL A   1      44.132  28.918  35.020  1.00  0.00    -0.014 A 
ATOM     81  C   UNL A   1      45.406  29.408  34.694  1.00  0.00     0.009 A 
ATOM     82  C   UNL A   1      44.014  27.937  36.017  1.00  0.00     0.009 A 
ATOM     83  C   UNL A   1      46.541  28.900  35.330  1.00  0.00     0.001 A 
ATOM     84  C   UNL A   1      45.147  27.457  36.676  1.00  0.00     0.001 A 
ATOM     85  C   UNL A   1      46.409  27.929  36.325  1.00  0.00     0.000 A 
ENDBRANCH  67  80
ENDBRANCH  41  42
ENDBRANCH  33  36
ENDBRANCH  31  32
ENDBRANCH  30  31
ENDBRANCH  29  30
ENDBRANCH   1  29
TORSDOF 15
ENDMDL
MODEL 3
REMARK VINA RESULT:     -12.8      5.639     10.759
REMARK SMILES O=C(COc1ccccc1/C=C1/SC(=O)N(c2ccc(F)cc2)C1=O)NCCCCNC(=O)c1ccc(-c2c3nc(c(-c4ccccc4)c4ccc([nH]4)c(-c4ccccc4)c4nc(c(-c5ccccc5)c5ccc2[nH]5)C=C4)C=C3)cc1
REMARK SMILES IDX 27 1 26 2 1 3 2 4 3 6 4 7 5 8 6 9 10 10 7 11 9 12 8 13 11 14
REMARK SMILES IDX 12 15 13 16 24 17 14 18 16 19 25 20 15 21 17 22 18 23 23 24
REMARK SMILES IDX 19 25 22 26 20 27 21 28 28 29 29 30 30 31 31 32 32 33 33 35
REMARK SMILES IDX 34 36 35 37 81 38 36 39 80 40 37 41 38 42 39 43 74 44 40 45
REMARK SMILES IDX 79 46 73 47 75 48 41 49 78 50 72 51 71 52 42 54 64 55 49 56
REMARK SMILES IDX 63 57 50 58 53 59 62 60 76 61 51 62 52 63 61 65 77 66 54 67
REMARK SMILES IDX 43 68 44 69 48 70 45 71 47 72 46 73 65 74 66 75 70 76 67 77
REMARK SMILES IDX 69 78 68 79 55 80 56 81 60 82 57 83 59 84 58 85
REMARK H PARENT 26 5 31 34 75 53 53 64
REMARK Flexibility Score: inf
ROOT
ATOM      1  C   UNL A   1      40.833  22.292  27.615  1.00  0.00     0.116 C 
ENDROOT
BRANCH   1   2
ATOM      2  N   UNL A   1      39.338  22.253  26.125  1.00  0.00    -0.353 N 
ATOM      3  O   UNL A   1      38.190  20.335  25.076  1.00  0.00    -0.271 OA
ATOM      4  C   UNL A   1      38.299  21.529  25.337  1.00  0.00     0.257 C 
ATOM      5  H   UNL A   1      39.315  23.173  25.776  1.00  0.00     0.163 HD
BRANCH   4   6
ATOM      6  C   UNL A   1      37.211  22.481  24.842  1.00  0.00     0.329 C 
BRANCH   6   7
ATOM      7  O   UNL A   1      36.123  21.793  24.255  1.00  0.00    -0.483 OA
BRANCH   7   8
ATOM      8  C   UNL A   1      34.884  22.001  24.820  1.00  0.00     0.127 A 
ATOM      9  C   UNL A   1      34.817  21.511  26.129  1.00  0.00     0.047 A 
ATOM     10  C   UNL A   1      33.702  22.397  24.137  1.00  0.00     0.018 A 
ATOM     11  C   UNL A   1      33.591  21.364  26.765  1.00  0.00     0.004 A 
ATOM     12  C   UNL A   1      32.475  22.219  24.793  1.00  0.00     0.012 A 
ATOM     13  C   UNL A   1      32.420  21.692  26.089  1.00  0.00     0.001 A 
BRANCH  10  14
ATOM     14  C   UNL A   1      33.633  22.906  22.750  1.00  0.00     0.033 C 
ATOM     15  C   UNL A   1      33.726  24.230  22.516  1.00  0.00     0.084 C 
ATOM     16  S   UNL A   1      32.416  25.082  20.847  1.00  0.00    -0.022 SA
ATOM     17  C   UNL A   1      33.784  25.451  24.053  1.00  0.00     0.272 C 
ATOM     18  C   UNL A   1      31.692  26.847  22.217  1.00  0.00     0.298 C 
ATOM     19  N   UNL A   1      32.645  26.834  23.766  1.00  0.00    -0.236 N 
ATOM     20  O   UNL A   1      34.563  25.321  24.986  1.00  0.00    -0.268 OA
ATOM     21  O   UNL A   1      30.775  27.564  21.847  1.00  0.00    -0.260 OA
BRANCH  19  22
ATOM     22  C   UNL A   1      32.504  27.840  24.780  1.00  0.00     0.053 A 
ATOM     23  C   UNL A   1      31.750  27.577  25.938  1.00  0.00     0.030 A 
ATOM     24  C   UNL A   1      33.137  29.083  24.680  1.00  0.00     0.030 A 
ATOM     25  C   UNL A   1      31.646  28.507  26.974  1.00  0.00     0.041 A 
ATOM     26  C   UNL A   1      33.032  30.021  25.719  1.00  0.00     0.041 A 
ATOM     27  C   UNL A   1      32.294  29.722  26.857  1.00  0.00     0.123 A 
ATOM     28  F   UNL A   1      32.216  30.607  27.857  1.00  0.00    -0.207 F 
ENDBRANCH  19  22
ENDBRANCH  10  14
ENDBRANCH   7   8
ENDBRANCH   6   7
ENDBRANCH   4   6
ENDBRANCH   1   2
BRANCH   1  29
ATOM     29  C   UNL A   1      42.188  21.262  27.854  1.00  0.00     0.023 C 
BRANCH  29  30
ATOM     30  C   UNL A   1      42.213  19.898  27.150  1.00  0.00     0.023 C 
BRANCH  30  31
ATOM     31  C   UNL A   1      42.142  19.938  25.634  1.00  0.00     0.116 C 
BRANCH  31  32
ATOM     32  N   UNL A   1      43.214  19.196  25.001  1.00  0.00    -0.352 N 
ATOM     33  C   UNL A   1      44.426  19.698  24.589  1.00  0.00     0.251 C 
ATOM     34  H   UNL A   1      43.058  18.235  24.850  1.00  0.00     0.163 HD
ATOM     35  O   UNL A   1      45.200  19.024  23.923  1.00  0.00    -0.269 OA
BRANCH  33  36
ATOM     36  C   UNL A   1      44.760  21.094  24.945  1.00  0.00     0.039 A 
ATOM     37  C   UNL A   1      44.340  22.127  24.107  1.00  0.00     0.014 A 
ATOM     38  C   UNL A   1      45.410  21.374  26.151  1.00  0.00     0.014 A 
ATOM     39  C   UNL A   1      44.551  23.451  24.497  1.00  0.00     0.010 A 
ATOM     40  C   UNL A   1      45.536  22.693  26.574  1.00  0.00     0.010 A 
ATOM     41  C   UNL A   1      45.131  23.747  25.742  1.00  0.00    -0.014 A 
BRANCH  41  42
ATOM     42  C   UNL A   1      45.368  25.153  26.161  1.00  0.00     0.031 A 
ATOM     43  C   UNL A   1      44.236  25.967  26.731  1.00  0.00     0.074 A 
ATOM     44  C   UNL A   1      46.587  25.709  26.014  1.00  0.00     0.049 A 
ATOM     45  N   UNL A   1      44.243  27.202  27.168  1.00  0.00    -0.248 NA
ATOM     46  C   UNL A   1      42.916  25.319  26.797  1.00  0.00     0.031 C 
ATOM     47  C   UNL A   1      47.757  25.050  25.428  1.00  0.00     0.029 A 
ATOM     48  N   UNL A   1      47.047  26.956  26.357  1.00  0.00    -0.354 N 
ATOM     49  C   UNL A   1      42.932  27.476  27.542  1.00  0.00     0.074 A 
ATOM     50  C   UNL A   1      42.145  26.309  27.217  1.00  0.00     0.031 C 
ATOM     51  C   UNL A   1      48.809  25.882  25.494  1.00  0.00     0.029 A 
ATOM     52  C   UNL A   1      48.381  27.146  26.088  1.00  0.00     0.049 A 
ATOM     53  H   UNL A   1      46.475  27.650  26.757  1.00  0.00     0.167 HD
ATOM     54  C   UNL A   1      42.430  28.585  28.134  1.00  0.00     0.031 A 
ATOM     55  C   UNL A   1      49.172  28.215  26.299  1.00  0.00     0.031 A 
ATOM     56  C   UNL A   1      43.212  29.743  28.470  1.00  0.00     0.049 A 
ATOM     57  C   UNL A   1      48.590  29.442  26.947  1.00  0.00     0.074 A 
ATOM     58  C   UNL A   1      42.811  30.897  29.119  1.00  0.00     0.029 A 
ATOM     59  N   UNL A   1      44.559  29.894  28.177  1.00  0.00    -0.354 N 
ATOM     60  N   UNL A   1      47.367  29.654  27.370  1.00  0.00    -0.248 NA
ATOM     61  C   UNL A   1      49.505  30.573  27.163  1.00  0.00     0.031 C 
ATOM     62  C   UNL A   1      43.901  31.770  29.168  1.00  0.00     0.029 A 
ATOM     63  C   UNL A   1      44.998  31.133  28.611  1.00  0.00     0.049 A 
ATOM     64  H   UNL A   1      45.119  29.219  27.729  1.00  0.00     0.167 HD
ATOM     65  C   UNL A   1      47.372  30.928  27.923  1.00  0.00     0.074 A 
ATOM     66  C   UNL A   1      48.724  31.432  27.803  1.00  0.00     0.031 C 
ATOM     67  C   UNL A   1      46.347  31.620  28.481  1.00  0.00     0.031 A 
BRANCH  54  68
ATOM     68  C   UNL A   1      40.959  28.591  28.454  1.00  0.00    -0.014 A 
ATOM     69  C   UNL A   1      40.474  28.076  29.668  1.00  0.00     0.009 A 
ATOM     70  C   UNL A   1      40.046  29.139  27.539  1.00  0.00     0.009 A 
ATOM     71  C   UNL A   1      39.104  28.066  29.938  1.00  0.00     0.001 A 
ATOM     72  C   UNL A   1      38.680  29.160  27.828  1.00  0.00     0.001 A 
ATOM     73  C   UNL A   1      38.209  28.614  29.020  1.00  0.00     0.000 A 
ENDBRANCH  54  68
BRANCH  55  74
ATOM     74  C   UNL A   1      50.608  28.171  25.908  1.00  0.00    -0.014 A 
ATOM     75  C   UNL A   1      51.586  27.738  26.817  1.00  0.00     0.009 A 
ATOM     76  C   UNL A   1      51.009  28.576  24.625  1.00  0.00     0.009 A 
ATOM     77  C   UNL A   1      52.937  27.738  26.460  1.00  0.00     0.001 A 
ATOM     78  C   UNL A   1      52.357  28.543  24.260  1.00  0.00     0.001 A 
ATOM     79  C   UNL A   1      53.321  28.136  25.181  1.00  0.00     0.000 A 
ENDBRANCH  55  74
BRANCH  67  80
ATOM     80  C   UNL A   1      46.657  32.982  29.040  1.00  0.00    -0.014 A 
ATOM     81  C   UNL A   1      47.098  33.147  30.362  1.00  0.00     0.009 A 
ATOM     82  C   UNL A   1      46.549  34.110  28.212  1.00  0.00     0.009 A 
ATOM     83  C   UNL A   1      47.390  34.421  30.853  1.00  0.00     0.001 A 
ATOM     84  C   UNL A   1      46.875  35.378  28.696  1.00  0.00     0.001 A 
ATOM     85  C   UNL A   1      47.284  35.534  30.018  1.00  0.00     0.000 A 
ENDBRANCH  67  80
ENDBRANCH  41  42
ENDBRANCH  33  36
ENDBRANCH  31  32
ENDBRANCH  30  31
ENDBRANCH  29  30
ENDBRANCH   1  29
TORSDOF 15
ENDMDL
