MODEL 1
REMARK VINA RESULT:     -11.2      0.000      0.000
REMARK SMILES Cc1ncccc1C(=O)N1CC[C@@H](C(=O)NCCCCNC(=O)c2ccc(-c3c4nc(c(-c5ccccc5)c5ccc([nH]5)c(-c5ccccc5)c5nc(c(-c6ccccc6)c6ccc3[nH]6)C=C5)C=C4)cc2)C1
REMARK SMILES IDX 18 1 17 2 16 3 14 4 15 5 13 7 10 8 11 9 72 10 12 11 8 12
REMARK SMILES IDX 9 13 7 14 1 15 2 16 3 17 4 18 6 19 5 20 19 21 20 22 21 23
REMARK SMILES IDX 22 24 23 26 24 27 25 28 71 29 26 30 70 31 27 32 28 33 29 34
REMARK SMILES IDX 64 35 30 36 69 37 63 38 65 39 31 40 68 41 62 42 61 43 32 45
REMARK SMILES IDX 54 46 39 47 53 48 40 49 43 50 52 51 66 52 41 53 42 54 51 56
REMARK SMILES IDX 67 57 44 58 33 59 34 60 38 61 35 62 37 63 36 64 55 65 56 66
REMARK SMILES IDX 60 67 57 68 59 69 58 70 45 71 46 72 50 73 47 74 49 75 48 76
REMARK H PARENT 16 6 21 25 65 44 43 55
REMARK Flexibility Score: inf
ROOT
ATOM      1  C   UNL A   1      36.548  20.182  24.909  1.00  0.00     0.023 C 
ENDROOT
BRANCH   1   2
ATOM      2  C   UNL A   1      35.047  20.436  24.967  1.00  0.00     0.116 C 
BRANCH   2   3
ATOM      3  N   UNL A   1      34.642  20.999  26.240  1.00  0.00    -0.356 N 
ATOM      4  C   UNL A   1      33.858  22.035  26.615  1.00  0.00     0.224 C 
ATOM      5  O   UNL A   1      33.757  22.207  27.837  1.00  0.00    -0.275 OA
ATOM      6  H   UNL A   1      35.025  20.515  27.007  1.00  0.00     0.163 HD
BRANCH   4   7
ATOM      7  C   UNL A   1      33.123  22.993  25.687  1.00  0.00     0.099 C 
ATOM      8  N   UNL A   1      32.262  25.139  26.246  1.00  0.00    -0.338 N 
ATOM      9  C   UNL A   1      33.649  25.312  25.879  1.00  0.00     0.120 C 
ATOM     10  C   UNL A   1      31.999  23.717  26.452  1.00  0.00     0.133 C 
ATOM     11  C   UNL A   1      33.847  24.119  24.951  1.00  0.00     0.037 C 
BRANCH   8  12
ATOM     12  C   UNL A   1      31.241  26.065  26.327  1.00  0.00     0.255 C 
ATOM     13  O   UNL A   1      30.084  25.734  26.586  1.00  0.00    -0.269 OA
BRANCH  12  14
ATOM     14  C   UNL A   1      31.499  27.510  26.123  1.00  0.00     0.061 A 
ATOM     15  C   UNL A   1      30.772  27.580  23.667  1.00  0.00     0.067 C 
ATOM     16  C   UNL A   1      31.278  28.208  24.930  1.00  0.00     0.050 A 
ATOM     17  N   UNL A   1      31.480  29.553  24.829  1.00  0.00    -0.261 NA
ATOM     18  C   UNL A   1      31.813  30.232  25.949  1.00  0.00     0.111 A 
ATOM     19  C   UNL A   1      31.827  28.254  27.265  1.00  0.00     0.017 A 
ATOM     20  C   UNL A   1      31.979  29.634  27.183  1.00  0.00     0.021 A 
ENDBRANCH  12  14
ENDBRANCH   8  12
ENDBRANCH   4   7
ENDBRANCH   2   3
ENDBRANCH   1   2
BRANCH   1  21
ATOM     21  C   UNL A   1      37.399  21.446  24.842  1.00  0.00     0.023 C 
BRANCH  21  22
ATOM     22  C   UNL A   1      38.646  21.434  25.721  1.00  0.00     0.116 C 
BRANCH  22  23
ATOM     23  N   UNL A   1      39.433  20.212  25.620  1.00  0.00    -0.352 N 
ATOM     24  C   UNL A   1      40.746  20.021  25.991  1.00  0.00     0.251 C 
ATOM     25  H   UNL A   1      38.972  19.429  25.241  1.00  0.00     0.163 HD
ATOM     26  O   UNL A   1      41.314  18.958  25.801  1.00  0.00    -0.269 OA
BRANCH  24  27
ATOM     27  C   UNL A   1      41.464  21.162  26.589  1.00  0.00     0.039 A 
ATOM     28  C   UNL A   1      42.001  22.136  25.745  1.00  0.00     0.014 A 
ATOM     29  C   UNL A   1      41.476  21.323  27.977  1.00  0.00     0.014 A 
ATOM     30  C   UNL A   1      42.477  23.325  26.295  1.00  0.00     0.010 A 
ATOM     31  C   UNL A   1      41.886  22.535  28.515  1.00  0.00     0.010 A 
ATOM     32  C   UNL A   1      42.377  23.552  27.678  1.00  0.00    -0.014 A 
BRANCH  32  33
ATOM     33  C   UNL A   1      42.761  24.851  28.281  1.00  0.00     0.031 A 
ATOM     34  C   UNL A   1      41.717  25.906  28.501  1.00  0.00     0.074 A 
ATOM     35  C   UNL A   1      44.059  25.117  28.529  1.00  0.00     0.049 A 
ATOM     36  N   UNL A   1      41.866  27.145  28.896  1.00  0.00    -0.248 NA
ATOM     37  C   UNL A   1      40.324  25.531  28.206  1.00  0.00     0.031 C 
ATOM     38  C   UNL A   1      45.176  24.195  28.305  1.00  0.00     0.029 A 
ATOM     39  N   UNL A   1      44.659  26.254  29.009  1.00  0.00    -0.354 N 
ATOM     40  C   UNL A   1      40.595  27.704  28.861  1.00  0.00     0.074 A 
ATOM     41  C   UNL A   1      39.693  26.683  28.374  1.00  0.00     0.031 C 
ATOM     42  C   UNL A   1      46.323  24.798  28.663  1.00  0.00     0.029 A 
ATOM     43  C   UNL A   1      46.027  26.157  29.103  1.00  0.00     0.049 A 
ATOM     44  H   UNL A   1      44.157  27.062  29.261  1.00  0.00     0.167 HD
ATOM     45  C   UNL A   1      40.211  28.951  29.218  1.00  0.00     0.031 A 
ATOM     46  C   UNL A   1      46.941  27.066  29.493  1.00  0.00     0.031 A 
ATOM     47  C   UNL A   1      41.100  29.953  29.738  1.00  0.00     0.049 A 
ATOM     48  C   UNL A   1      46.483  28.433  29.917  1.00  0.00     0.074 A 
ATOM     49  C   UNL A   1      40.793  31.219  30.204  1.00  0.00     0.029 A 
ATOM     50  N   UNL A   1      42.471  29.798  29.866  1.00  0.00    -0.354 N 
ATOM     51  N   UNL A   1      45.267  28.923  29.948  1.00  0.00    -0.248 NA
ATOM     52  C   UNL A   1      47.522  29.370  30.367  1.00  0.00     0.031 C 
ATOM     53  C   UNL A   1      41.985  31.844  30.583  1.00  0.00     0.029 A 
ATOM     54  C   UNL A   1      43.026  30.951  30.390  1.00  0.00     0.049 A 
ATOM     55  H   UNL A   1      42.974  28.987  29.621  1.00  0.00     0.167 HD
ATOM     56  C   UNL A   1      45.391  30.213  30.446  1.00  0.00     0.074 A 
ATOM     57  C   UNL A   1      46.799  30.426  30.714  1.00  0.00     0.031 C 
ATOM     58  C   UNL A   1      44.427  31.139  30.660  1.00  0.00     0.031 A 
BRANCH  45  59
ATOM     59  C   UNL A   1      38.760  29.299  29.055  1.00  0.00    -0.014 A 
ATOM     60  C   UNL A   1      38.242  29.687  27.809  1.00  0.00     0.009 A 
ATOM     61  C   UNL A   1      37.893  29.205  30.154  1.00  0.00     0.009 A 
ATOM     62  C   UNL A   1      36.890  30.007  27.676  1.00  0.00     0.001 A 
ATOM     63  C   UNL A   1      36.537  29.501  30.012  1.00  0.00     0.001 A 
ATOM     64  C   UNL A   1      36.037  29.909  28.775  1.00  0.00     0.000 A 
ENDBRANCH  45  59
BRANCH  46  65
ATOM     65  C   UNL A   1      48.384  26.715  29.514  1.00  0.00    -0.014 A 
ATOM     66  C   UNL A   1      48.950  26.105  30.644  1.00  0.00     0.009 A 
ATOM     67  C   UNL A   1      49.206  27.000  28.413  1.00  0.00     0.009 A 
ATOM     68  C   UNL A   1      50.315  25.816  30.683  1.00  0.00     0.001 A 
ATOM     69  C   UNL A   1      50.566  26.687  28.446  1.00  0.00     0.001 A 
ATOM     70  C   UNL A   1      51.122  26.104  29.583  1.00  0.00     0.000 A 
ENDBRANCH  46  65
BRANCH  58  71
ATOM     71  C   UNL A   1      44.853  32.452  31.246  1.00  0.00    -0.014 A 
ATOM     72  C   UNL A   1      45.195  33.537  30.425  1.00  0.00     0.009 A 
ATOM     73  C   UNL A   1      44.861  32.620  32.639  1.00  0.00     0.009 A 
ATOM     74  C   UNL A   1      45.559  34.760  30.990  1.00  0.00     0.001 A 
ATOM     75  C   UNL A   1      45.203  33.850  33.201  1.00  0.00     0.001 A 
ATOM     76  C   UNL A   1      45.558  34.917  32.376  1.00  0.00     0.000 A 
ENDBRANCH  58  71
ENDBRANCH  32  33
ENDBRANCH  24  27
ENDBRANCH  22  23
ENDBRANCH  21  22
ENDBRANCH   1  21
TORSDOF 13
ENDMDL
MODEL 2
REMARK VINA RESULT:     -11.1      0.957      6.135
REMARK SMILES Cc1ncccc1C(=O)N1CC[C@@H](C(=O)NCCCCNC(=O)c2ccc(-c3c4nc(c(-c5ccccc5)c5ccc([nH]5)c(-c5ccccc5)c5nc(c(-c6ccccc6)c6ccc3[nH]6)C=C5)C=C4)cc2)C1
REMARK SMILES IDX 18 1 17 2 16 3 14 4 15 5 13 7 10 8 11 9 72 10 12 11 8 12
REMARK SMILES IDX 9 13 7 14 1 15 2 16 3 17 4 18 6 19 5 20 19 21 20 22 21 23
REMARK SMILES IDX 22 24 23 26 24 27 25 28 71 29 26 30 70 31 27 32 28 33 29 34
REMARK SMILES IDX 64 35 30 36 69 37 63 38 65 39 31 40 68 41 62 42 61 43 32 45
REMARK SMILES IDX 54 46 39 47 53 48 40 49 43 50 52 51 66 52 41 53 42 54 51 56
REMARK SMILES IDX 67 57 44 58 33 59 34 60 38 61 35 62 37 63 36 64 55 65 56 66
REMARK SMILES IDX 60 67 57 68 59 69 58 70 45 71 46 72 50 73 47 74 49 75 48 76
REMARK H PARENT 16 6 21 25 65 44 43 55
REMARK Flexibility Score: inf
ROOT
ATOM      1  C   UNL A   1      37.105  22.202  24.548  1.00  0.00     0.023 C 
ENDROOT
BRANCH   1   2
ATOM      2  C   UNL A   1      37.122  23.188  25.709  1.00  0.00     0.116 C 
BRANCH   2   3
ATOM      3  N   UNL A   1      36.052  22.932  26.653  1.00  0.00    -0.356 N 
ATOM      4  C   UNL A   1      34.722  23.176  26.672  1.00  0.00     0.224 C 
ATOM      5  O   UNL A   1      34.129  22.799  27.691  1.00  0.00    -0.275 OA
ATOM      6  H   UNL A   1      36.366  22.476  27.467  1.00  0.00     0.163 HD
BRANCH   4   7
ATOM      7  C   UNL A   1      33.916  23.872  25.583  1.00  0.00     0.099 C 
ATOM      8  N   UNL A   1      32.569  25.818  25.831  1.00  0.00    -0.338 N 
ATOM      9  C   UNL A   1      33.924  26.258  25.581  1.00  0.00     0.120 C 
ATOM     10  C   UNL A   1      32.585  24.394  26.157  1.00  0.00     0.133 C 
ATOM     11  C   UNL A   1      34.471  25.066  24.806  1.00  0.00     0.037 C 
BRANCH   8  12
ATOM     12  C   UNL A   1      31.376  26.503  25.717  1.00  0.00     0.255 C 
ATOM     13  O   UNL A   1      30.526  26.478  26.607  1.00  0.00    -0.269 OA
BRANCH  12  14
ATOM     14  C   UNL A   1      31.073  27.319  24.518  1.00  0.00     0.061 A 
ATOM     15  C   UNL A   1      30.951  25.361  22.870  1.00  0.00     0.067 C 
ATOM     16  C   UNL A   1      30.865  26.813  23.229  1.00  0.00     0.050 A 
ATOM     17  N   UNL A   1      30.528  27.618  22.181  1.00  0.00    -0.261 NA
ATOM     18  C   UNL A   1      30.300  28.925  22.430  1.00  0.00     0.111 A 
ATOM     19  C   UNL A   1      30.808  28.679  24.737  1.00  0.00     0.017 A 
ATOM     20  C   UNL A   1      30.410  29.494  23.684  1.00  0.00     0.021 A 
ENDBRANCH  12  14
ENDBRANCH   8  12
ENDBRANCH   4   7
ENDBRANCH   2   3
ENDBRANCH   1   2
BRANCH   1  21
ATOM     21  C   UNL A   1      37.749  20.855  24.858  1.00  0.00     0.023 C 
BRANCH  21  22
ATOM     22  C   UNL A   1      38.916  20.905  25.839  1.00  0.00     0.116 C 
BRANCH  22  23
ATOM     23  N   UNL A   1      39.822  19.767  25.747  1.00  0.00    -0.352 N 
ATOM     24  C   UNL A   1      41.163  19.729  26.060  1.00  0.00     0.251 C 
ATOM     25  H   UNL A   1      39.428  18.926  25.421  1.00  0.00     0.163 HD
ATOM     26  O   UNL A   1      41.830  18.723  25.882  1.00  0.00    -0.269 OA
BRANCH  24  27
ATOM     27  C   UNL A   1      41.783  20.963  26.577  1.00  0.00     0.039 A 
ATOM     28  C   UNL A   1      42.284  21.897  25.668  1.00  0.00     0.014 A 
ATOM     29  C   UNL A   1      41.736  21.241  27.945  1.00  0.00     0.014 A 
ATOM     30  C   UNL A   1      42.662  23.158  26.126  1.00  0.00     0.010 A 
ATOM     31  C   UNL A   1      42.047  22.520  28.388  1.00  0.00     0.010 A 
ATOM     32  C   UNL A   1      42.499  23.493  27.481  1.00  0.00    -0.014 A 
BRANCH  32  33
ATOM     33  C   UNL A   1      42.776  24.862  27.979  1.00  0.00     0.031 A 
ATOM     34  C   UNL A   1      44.162  25.224  28.427  1.00  0.00     0.074 A 
ATOM     35  C   UNL A   1      41.764  25.739  28.127  1.00  0.00     0.049 A 
ATOM     36  N   UNL A   1      44.582  26.319  29.008  1.00  0.00    -0.248 NA
ATOM     37  C   UNL A   1      45.209  24.208  28.227  1.00  0.00     0.031 C 
ATOM     38  C   UNL A   1      40.362  25.489  27.781  1.00  0.00     0.029 A 
ATOM     39  N   UNL A   1      41.758  27.017  28.626  1.00  0.00    -0.354 N 
ATOM     40  C   UNL A   1      45.929  26.107  29.274  1.00  0.00     0.074 A 
ATOM     41  C   UNL A   1      46.248  24.770  28.825  1.00  0.00     0.031 C 
ATOM     42  C   UNL A   1      39.636  26.584  28.064  1.00  0.00     0.029 A 
ATOM     43  C   UNL A   1      40.512  27.596  28.644  1.00  0.00     0.049 A 
ATOM     44  H   UNL A   1      42.570  27.475  28.943  1.00  0.00     0.167 HD
ATOM     45  C   UNL A   1      46.824  26.958  29.828  1.00  0.00     0.031 A 
ATOM     46  C   UNL A   1      40.119  28.806  29.088  1.00  0.00     0.031 A 
ATOM     47  C   UNL A   1      46.516  28.301  30.239  1.00  0.00     0.049 A 
ATOM     48  C   UNL A   1      41.139  29.743  29.668  1.00  0.00     0.074 A 
ATOM     49  C   UNL A   1      47.372  29.266  30.736  1.00  0.00     0.029 A 
ATOM     50  N   UNL A   1      45.252  28.866  30.193  1.00  0.00    -0.354 N 
ATOM     51  N   UNL A   1      42.425  29.555  29.846  1.00  0.00    -0.248 NA
ATOM     52  C   UNL A   1      40.657  31.062  30.101  1.00  0.00     0.031 C 
ATOM     53  C   UNL A   1      46.619  30.409  31.024  1.00  0.00     0.029 A 
ATOM     54  C   UNL A   1      45.303  30.165  30.667  1.00  0.00     0.049 A 
ATOM     55  H   UNL A   1      44.440  28.412  29.870  1.00  0.00     0.167 HD
ATOM     56  C   UNL A   1      42.909  30.740  30.384  1.00  0.00     0.074 A 
ATOM     57  C   UNL A   1      41.782  31.644  30.494  1.00  0.00     0.031 C 
ATOM     58  C   UNL A   1      44.173  31.051  30.757  1.00  0.00     0.031 A 
BRANCH  45  59
ATOM     59  C   UNL A   1      48.225  26.455  30.022  1.00  0.00    -0.014 A 
ATOM     60  C   UNL A   1      49.204  26.635  29.032  1.00  0.00     0.009 A 
ATOM     61  C   UNL A   1      48.579  25.826  31.225  1.00  0.00     0.009 A 
ATOM     62  C   UNL A   1      50.502  26.163  29.230  1.00  0.00     0.001 A 
ATOM     63  C   UNL A   1      49.884  25.377  31.430  1.00  0.00     0.001 A 
ATOM     64  C   UNL A   1      50.843  25.539  30.430  1.00  0.00     0.000 A 
ENDBRANCH  45  59
BRANCH  46  65
ATOM     65  C   UNL A   1      38.692  29.210  28.993  1.00  0.00    -0.014 A 
ATOM     66  C   UNL A   1      37.847  29.097  30.107  1.00  0.00     0.009 A 
ATOM     67  C   UNL A   1      38.164  29.694  27.785  1.00  0.00     0.009 A 
ATOM     68  C   UNL A   1      36.496  29.432  30.006  1.00  0.00     0.001 A 
ATOM     69  C   UNL A   1      36.818  30.052  27.696  1.00  0.00     0.001 A 
ATOM     70  C   UNL A   1      35.982  29.913  28.802  1.00  0.00     0.000 A 
ENDBRANCH  46  65
BRANCH  58  71
ATOM     71  C   UNL A   1      44.414  32.436  31.282  1.00  0.00    -0.014 A 
ATOM     72  C   UNL A   1      44.398  32.703  32.659  1.00  0.00     0.009 A 
ATOM     73  C   UNL A   1      44.714  33.474  30.387  1.00  0.00     0.009 A 
ATOM     74  C   UNL A   1      44.656  33.992  33.128  1.00  0.00     0.001 A 
ATOM     75  C   UNL A   1      44.993  34.756  30.860  1.00  0.00     0.001 A 
ATOM     76  C   UNL A   1      44.957  35.015  32.230  1.00  0.00     0.000 A 
ENDBRANCH  58  71
ENDBRANCH  32  33
ENDBRANCH  24  27
ENDBRANCH  22  23
ENDBRANCH  21  22
ENDBRANCH   1  21
TORSDOF 13
ENDMDL
MODEL 3
REMARK VINA RESULT:     -11.0      1.470      7.743
REMARK SMILES Cc1ncccc1C(=O)N1CC[C@@H](C(=O)NCCCCNC(=O)c2ccc(-c3c4nc(c(-c5ccccc5)c5ccc([nH]5)c(-c5ccccc5)c5nc(c(-c6ccccc6)c6ccc3[nH]6)C=C5)C=C4)cc2)C1
REMARK SMILES IDX 18 1 17 2 16 3 14 4 15 5 13 7 10 8 11 9 72 10 12 11 8 12
REMARK SMILES IDX 9 13 7 14 1 15 2 16 3 17 4 18 6 19 5 20 19 21 20 22 21 23
REMARK SMILES IDX 22 24 23 26 24 27 25 28 71 29 26 30 70 31 27 32 28 33 29 34
REMARK SMILES IDX 64 35 30 36 69 37 63 38 65 39 31 40 68 41 62 42 61 43 32 45
REMARK SMILES IDX 54 46 39 47 53 48 40 49 43 50 52 51 66 52 41 53 42 54 51 56
REMARK SMILES IDX 67 57 44 58 33 59 34 60 38 61 35 62 37 63 36 64 55 65 56 66
REMARK SMILES IDX 60 67 57 68 59 69 58 70 45 71 46 72 50 73 47 74 49 75 48 76
REMARK H PARENT 16 6 21 25 65 44 43 55
REMARK Flexibility Score: inf
ROOT
ATOM      1  C   UNL A   1      31.558  29.776  25.743  1.00  0.00     0.023 C 
ENDROOT
BRANCH   1   2
ATOM      2  C   UNL A   1      31.723  29.108  24.383  1.00  0.00     0.116 C 
BRANCH   2   3
ATOM      3  N   UNL A   1      31.085  27.808  24.337  1.00  0.00    -0.356 N 
ATOM      4  C   UNL A   1      31.510  26.534  24.500  1.00  0.00     0.224 C 
ATOM      5  O   UNL A   1      30.637  25.665  24.375  1.00  0.00    -0.275 OA
ATOM      6  H   UNL A   1      30.122  27.865  24.144  1.00  0.00     0.163 HD
BRANCH   4   7
ATOM      7  C   UNL A   1      32.936  26.089  24.798  1.00  0.00     0.099 C 
ATOM      8  N   UNL A   1      33.640  23.919  25.473  1.00  0.00    -0.338 N 
ATOM      9  C   UNL A   1      33.584  23.926  24.029  1.00  0.00     0.120 C 
ATOM     10  C   UNL A   1      32.949  25.102  25.981  1.00  0.00     0.133 C 
ATOM     11  C   UNL A   1      33.806  25.407  23.744  1.00  0.00     0.037 C 
BRANCH   8  12
ATOM     12  C   UNL A   1      34.286  23.054  26.334  1.00  0.00     0.255 C 
ATOM     13  O   UNL A   1      33.786  22.714  27.407  1.00  0.00    -0.269 OA
BRANCH  12  14
ATOM     14  C   UNL A   1      35.609  22.481  25.994  1.00  0.00     0.061 A 
ATOM     15  C   UNL A   1      34.719  20.292  25.002  1.00  0.00     0.067 C 
ATOM     16  C   UNL A   1      35.816  21.241  25.379  1.00  0.00     0.050 A 
ATOM     17  N   UNL A   1      37.062  20.800  25.038  1.00  0.00    -0.261 NA
ATOM     18  C   UNL A   1      38.104  21.639  25.220  1.00  0.00     0.111 A 
ATOM     19  C   UNL A   1      36.716  23.327  26.149  1.00  0.00     0.017 A 
ATOM     20  C   UNL A   1      37.981  22.907  25.751  1.00  0.00     0.021 A 
ENDBRANCH  12  14
ENDBRANCH   8  12
ENDBRANCH   4   7
ENDBRANCH   2   3
ENDBRANCH   1   2
BRANCH   1  21
ATOM     21  C   UNL A   1      32.186  29.008  26.901  1.00  0.00     0.023 C 
BRANCH  21  22
ATOM     22  C   UNL A   1      33.610  29.424  27.256  1.00  0.00     0.116 C 
BRANCH  22  23
ATOM     23  N   UNL A   1      33.699  30.682  27.987  1.00  0.00    -0.352 N 
ATOM     24  C   UNL A   1      34.771  31.168  28.703  1.00  0.00     0.251 C 
ATOM     25  H   UNL A   1      32.897  31.253  27.966  1.00  0.00     0.163 HD
ATOM     26  O   UNL A   1      34.700  32.217  29.323  1.00  0.00    -0.269 OA
BRANCH  24  27
ATOM     27  C   UNL A   1      36.001  30.356  28.735  1.00  0.00     0.039 A 
ATOM     28  C   UNL A   1      36.844  30.365  27.622  1.00  0.00     0.014 A 
ATOM     29  C   UNL A   1      36.371  29.706  29.914  1.00  0.00     0.014 A 
ATOM     30  C   UNL A   1      38.110  29.791  27.722  1.00  0.00     0.010 A 
ATOM     31  C   UNL A   1      37.657  29.198  30.033  1.00  0.00     0.010 A 
ATOM     32  C   UNL A   1      38.543  29.248  28.943  1.00  0.00    -0.014 A 
BRANCH  32  33
ATOM     33  C   UNL A   1      39.925  28.739  29.119  1.00  0.00     0.031 A 
ATOM     34  C   UNL A   1      41.005  29.670  29.587  1.00  0.00     0.074 A 
ATOM     35  C   UNL A   1      40.224  27.476  28.759  1.00  0.00     0.049 A 
ATOM     36  N   UNL A   1      42.293  29.456  29.684  1.00  0.00    -0.248 NA
ATOM     37  C   UNL A   1      40.589  31.031  29.962  1.00  0.00     0.031 C 
ATOM     38  C   UNL A   1      39.274  26.489  28.237  1.00  0.00     0.029 A 
ATOM     39  N   UNL A   1      41.424  26.810  28.761  1.00  0.00    -0.354 N 
ATOM     40  C   UNL A   1      42.841  30.664  30.096  1.00  0.00     0.074 A 
ATOM     41  C   UNL A   1      41.755  31.614  30.195  1.00  0.00     0.031 C 
ATOM     42  C   UNL A   1      39.925  25.341  27.985  1.00  0.00     0.029 A 
ATOM     43  C   UNL A   1      41.340  25.522  28.291  1.00  0.00     0.049 A 
ATOM     44  H   UNL A   1      42.266  27.218  29.069  1.00  0.00     0.167 HD
ATOM     45  C   UNL A   1      44.132  30.952  30.380  1.00  0.00     0.031 A 
ATOM     46  C   UNL A   1      42.300  24.592  28.117  1.00  0.00     0.031 A 
ATOM     47  C   UNL A   1      45.206  29.997  30.319  1.00  0.00     0.049 A 
ATOM     48  C   UNL A   1      43.720  24.928  28.473  1.00  0.00     0.074 A 
ATOM     49  C   UNL A   1      46.533  30.171  30.666  1.00  0.00     0.029 A 
ATOM     50  N   UNL A   1      45.070  28.688  29.886  1.00  0.00    -0.354 N 
ATOM     51  N   UNL A   1      44.212  26.054  28.931  1.00  0.00    -0.248 NA
ATOM     52  C   UNL A   1      44.717  23.862  28.296  1.00  0.00     0.031 C 
ATOM     53  C   UNL A   1      47.210  28.975  30.411  1.00  0.00     0.029 A 
ATOM     54  C   UNL A   1      46.294  28.046  29.944  1.00  0.00     0.049 A 
ATOM     55  H   UNL A   1      44.228  28.277  29.584  1.00  0.00     0.167 HD
ATOM     56  C   UNL A   1      45.568  25.823  29.123  1.00  0.00     0.074 A 
ATOM     57  C   UNL A   1      45.819  24.448  28.743  1.00  0.00     0.031 C 
ATOM     58  C   UNL A   1      46.520  26.675  29.572  1.00  0.00     0.031 A 
BRANCH  45  59
ATOM     59  C   UNL A   1      44.453  32.361  30.785  1.00  0.00    -0.014 A 
ATOM     60  C   UNL A   1      44.421  32.754  32.133  1.00  0.00     0.009 A 
ATOM     61  C   UNL A   1      44.826  33.298  29.810  1.00  0.00     0.009 A 
ATOM     62  C   UNL A   1      44.723  34.069  32.492  1.00  0.00     0.001 A 
ATOM     63  C   UNL A   1      45.152  34.606  30.175  1.00  0.00     0.001 A 
ATOM     64  C   UNL A   1      45.093  34.992  31.514  1.00  0.00     0.000 A 
ENDBRANCH  45  59
BRANCH  46  65
ATOM     65  C   UNL A   1      41.952  23.248  27.589  1.00  0.00    -0.014 A 
ATOM     66  C   UNL A   1      41.437  22.261  28.443  1.00  0.00     0.009 A 
ATOM     67  C   UNL A   1      42.148  22.939  26.233  1.00  0.00     0.009 A 
ATOM     68  C   UNL A   1      41.153  20.984  27.958  1.00  0.00     0.001 A 
ATOM     69  C   UNL A   1      41.839  21.668  25.747  1.00  0.00     0.001 A 
ATOM     70  C   UNL A   1      41.351  20.688  26.609  1.00  0.00     0.000 A 
ENDBRANCH  46  65
BRANCH  58  71
ATOM     71  C   UNL A   1      47.913  26.136  29.714  1.00  0.00    -0.014 A 
ATOM     72  C   UNL A   1      48.802  26.125  28.628  1.00  0.00     0.009 A 
ATOM     73  C   UNL A   1      48.357  25.682  30.965  1.00  0.00     0.009 A 
ATOM     74  C   UNL A   1      50.103  25.648  28.789  1.00  0.00     0.001 A 
ATOM     75  C   UNL A   1      49.665  25.228  31.129  1.00  0.00     0.001 A 
ATOM     76  C   UNL A   1      50.535  25.205  30.039  1.00  0.00     0.000 A 
ENDBRANCH  58  71
ENDBRANCH  32  33
ENDBRANCH  24  27
ENDBRANCH  22  23
ENDBRANCH  21  22
ENDBRANCH   1  21
TORSDOF 13
ENDMDL
