MODEL 1
REMARK VINA RESULT:     -11.2      0.000      0.000
REMARK SMILES C[NH2+][C@]1(C(=O)NCCCCNC(=O)c2ccc(-c3c4nc(c(-c5ccccc5)c5ccc([nH]5)c(-c5ccccc5)c5nc(c(-c6ccccc6)c6ccc3[nH]6)C=C5)C=C4)cc2)CC[C@@H](OCCCc2ccccc2)C1
REMARK SMILES IDX 7 1 6 2 4 3 5 4 3 6 62 7 75 8 63 9 64 10 2 11 1 12 65 15
REMARK SMILES IDX 66 16 67 17 68 18 69 19 70 20 74 21 71 22 73 23 72 24 8 25
REMARK SMILES IDX 9 26 10 27 11 28 12 29 13 31 14 32 15 33 61 34 16 35 60 36
REMARK SMILES IDX 17 37 18 38 19 39 54 40 20 41 59 42 53 43 55 44 21 45 58 46
REMARK SMILES IDX 52 47 51 48 22 50 44 51 29 52 43 53 30 54 33 55 42 56 56 57
REMARK SMILES IDX 31 58 32 59 41 61 57 62 34 63 23 64 24 65 28 66 25 67 27 68
REMARK SMILES IDX 26 69 45 70 46 71 50 72 47 73 49 74 48 75 35 76 36 77 40 78
REMARK SMILES IDX 37 79 39 80 38 81
REMARK H PARENT 6 5 2 13 2 14 11 30 55 49 33 60
REMARK Flexibility Score: inf
ROOT
ATOM      1  C   UNL A   1      37.508  22.683  25.683  1.00  0.00     0.116 C 
ENDROOT
BRANCH   1   2
ATOM      2  N   UNL A   1      36.217  22.898  26.638  1.00  0.00    -0.351 N 
ATOM      3  C   UNL A   1      34.302  22.540  26.794  1.00  0.00     0.281 C 
ATOM      4  O   UNL A   1      33.613  22.454  27.879  1.00  0.00    -0.268 OA
ATOM      5  H   UNL A   1      36.504  23.394  27.438  1.00  0.00     0.163 HD
BRANCH   3   6
ATOM      6  C   UNL A   1      33.000  22.186  25.500  1.00  0.00     0.177 C 
ATOM      7  C   UNL A   1      31.660  22.948  25.215  1.00  0.00     0.082 C 
ATOM      8  C   UNL A   1      33.527  21.809  24.062  1.00  0.00     0.111 C 
ATOM      9  C   UNL A   1      31.511  23.162  23.706  1.00  0.00     0.039 C 
ATOM     10  C   UNL A   1      32.773  22.663  23.035  1.00  0.00     0.125 C 
BRANCH   6  11
ATOM     11  N   UNL A   1      32.429  20.833  26.023  1.00  0.00    -0.336 N 
ATOM     12  C   UNL A   1      32.582  19.713  25.072  1.00  0.00     0.331 C 
ATOM     13  H   UNL A   1      32.917  20.591  26.886  1.00  0.00     0.346 HD
ATOM     14  H   UNL A   1      31.428  20.968  26.165  1.00  0.00     0.346 HD
ENDBRANCH   6  11
BRANCH  10  15
ATOM     15  O   UNL A   1      33.364  23.639  22.192  1.00  0.00    -0.378 OA
BRANCH  15  16
ATOM     16  C   UNL A   1      32.873  24.932  21.946  1.00  0.00     0.161 C 
BRANCH  16  17
ATOM     17  C   UNL A   1      33.494  26.095  22.701  1.00  0.00     0.033 C 
BRANCH  17  18
ATOM     18  C   UNL A   1      33.986  25.881  24.121  1.00  0.00     0.038 C 
BRANCH  18  19
ATOM     19  C   UNL A   1      33.615  26.855  25.234  1.00  0.00    -0.048 A 
ATOM     20  C   UNL A   1      34.233  28.599  25.380  1.00  0.00     0.004 A 
ATOM     21  C   UNL A   1      32.124  26.380  26.206  1.00  0.00     0.004 A 
ATOM     22  C   UNL A   1      33.329  29.819  26.394  1.00  0.00     0.000 A 
ATOM     23  C   UNL A   1      31.248  27.613  27.219  1.00  0.00     0.000 A 
ATOM     24  C   UNL A   1      31.821  29.347  27.292  1.00  0.00     0.000 A 
ENDBRANCH  18  19
ENDBRANCH  17  18
ENDBRANCH  16  17
ENDBRANCH  15  16
ENDBRANCH  10  15
ENDBRANCH   3   6
ENDBRANCH   1   2
BRANCH   1  25
ATOM     25  C   UNL A   1      37.275  21.549  24.687  1.00  0.00     0.023 C 
BRANCH  25  26
ATOM     26  C   UNL A   1      38.026  20.286  25.069  1.00  0.00     0.023 C 
BRANCH  26  27
ATOM     27  C   UNL A   1      39.286  20.577  25.869  1.00  0.00     0.116 C 
BRANCH  27  28
ATOM     28  N   UNL A   1      40.184  19.418  25.923  1.00  0.00    -0.352 N 
ATOM     29  C   UNL A   1      41.534  19.411  26.137  1.00  0.00     0.251 C 
ATOM     30  H   UNL A   1      39.764  18.538  25.787  1.00  0.00     0.163 HD
ATOM     31  O   UNL A   1      42.220  18.415  25.963  1.00  0.00    -0.269 OA
BRANCH  29  32
ATOM     32  C   UNL A   1      42.108  20.679  26.584  1.00  0.00     0.039 A 
ATOM     33  C   UNL A   1      42.498  21.615  25.633  1.00  0.00     0.014 A 
ATOM     34  C   UNL A   1      42.023  20.984  27.946  1.00  0.00     0.014 A 
ATOM     35  C   UNL A   1      42.781  22.905  26.060  1.00  0.00     0.010 A 
ATOM     36  C   UNL A   1      42.182  22.295  28.342  1.00  0.00     0.010 A 
ATOM     37  C   UNL A   1      42.592  23.256  27.408  1.00  0.00    -0.014 A 
BRANCH  37  38
ATOM     38  C   UNL A   1      42.866  24.626  27.878  1.00  0.00     0.031 A 
ATOM     39  C   UNL A   1      44.287  25.037  28.132  1.00  0.00     0.074 A 
ATOM     40  C   UNL A   1      41.842  25.469  28.106  1.00  0.00     0.049 A 
ATOM     41  N   UNL A   1      44.747  26.183  28.558  1.00  0.00    -0.248 NA
ATOM     42  C   UNL A   1      45.329  24.017  27.912  1.00  0.00     0.031 C 
ATOM     43  C   UNL A   1      40.422  25.151  27.936  1.00  0.00     0.029 A 
ATOM     44  N   UNL A   1      41.844  26.773  28.524  1.00  0.00    -0.354 N 
ATOM     45  C   UNL A   1      46.120  26.014  28.667  1.00  0.00     0.074 A 
ATOM     46  C   UNL A   1      46.414  24.639  28.342  1.00  0.00     0.031 C 
ATOM     47  C   UNL A   1      39.693  26.248  28.197  1.00  0.00     0.029 A 
ATOM     48  C   UNL A   1      40.589  27.326  28.601  1.00  0.00     0.049 A 
ATOM     49  H   UNL A   1      42.665  27.268  28.746  1.00  0.00     0.167 HD
ATOM     50  C   UNL A   1      47.059  26.933  28.981  1.00  0.00     0.031 A 
ATOM     51  C   UNL A   1      40.210  28.565  28.962  1.00  0.00     0.031 A 
ATOM     52  C   UNL A   1      46.754  28.300  29.298  1.00  0.00     0.049 A 
ATOM     53  C   UNL A   1      41.272  29.561  29.336  1.00  0.00     0.074 A 
ATOM     54  C   UNL A   1      47.627  29.332  29.582  1.00  0.00     0.029 A 
ATOM     55  N   UNL A   1      45.470  28.820  29.380  1.00  0.00    -0.354 N 
ATOM     56  N   UNL A   1      42.576  29.412  29.359  1.00  0.00    -0.248 NA
ATOM     57  C   UNL A   1      40.812  30.901  29.720  1.00  0.00     0.031 C 
ATOM     58  C   UNL A   1      46.870  30.459  29.910  1.00  0.00     0.029 A 
ATOM     59  C   UNL A   1      45.527  30.151  29.746  1.00  0.00     0.049 A 
ATOM     60  H   UNL A   1      44.644  28.315  29.203  1.00  0.00     0.167 HD
ATOM     61  C   UNL A   1      43.092  30.646  29.731  1.00  0.00     0.074 A 
ATOM     62  C   UNL A   1      41.961  31.536  29.901  1.00  0.00     0.031 C 
ATOM     63  C   UNL A   1      44.385  31.014  29.914  1.00  0.00     0.031 A 
BRANCH  50  64
ATOM     64  C   UNL A   1      48.492  26.479  29.011  1.00  0.00    -0.014 A 
ATOM     65  C   UNL A   1      49.097  26.036  30.199  1.00  0.00     0.009 A 
ATOM     66  C   UNL A   1      49.243  26.478  27.827  1.00  0.00     0.009 A 
ATOM     67  C   UNL A   1      50.436  25.639  30.206  1.00  0.00     0.001 A 
ATOM     68  C   UNL A   1      50.570  26.044  27.830  1.00  0.00     0.001 A 
ATOM     69  C   UNL A   1      51.168  25.635  29.021  1.00  0.00     0.000 A 
ENDBRANCH  50  64
BRANCH  51  70
ATOM     70  C   UNL A   1      38.770  28.932  28.979  1.00  0.00    -0.014 A 
ATOM     71  C   UNL A   1      38.132  29.393  27.816  1.00  0.00     0.009 A 
ATOM     72  C   UNL A   1      38.023  28.830  30.163  1.00  0.00     0.009 A 
ATOM     73  C   UNL A   1      36.790  29.776  27.849  1.00  0.00     0.001 A 
ATOM     74  C   UNL A   1      36.671  29.181  30.184  1.00  0.00     0.001 A 
ATOM     75  C   UNL A   1      36.059  29.666  29.031  1.00  0.00     0.000 A 
ENDBRANCH  51  70
BRANCH  63  76
ATOM     76  C   UNL A   1      44.646  32.449  30.279  1.00  0.00    -0.014 A 
ATOM     77  C   UNL A   1      44.806  33.439  29.298  1.00  0.00     0.009 A 
ATOM     78  C   UNL A   1      44.685  32.819  31.633  1.00  0.00     0.009 A 
ATOM     79  C   UNL A   1      45.041  34.765  29.667  1.00  0.00     0.001 A 
ATOM     80  C   UNL A   1      44.880  34.151  31.998  1.00  0.00     0.001 A 
ATOM     81  C   UNL A   1      45.071  35.120  31.015  1.00  0.00     0.000 A 
ENDBRANCH  63  76
ENDBRANCH  37  38
ENDBRANCH  29  32
ENDBRANCH  27  28
ENDBRANCH  26  27
ENDBRANCH  25  26
ENDBRANCH   1  25
TORSDOF 17
ENDMDL
MODEL 2
REMARK VINA RESULT:     -11.1      0.496      5.919
REMARK SMILES C[NH2+][C@]1(C(=O)NCCCCNC(=O)c2ccc(-c3c4nc(c(-c5ccccc5)c5ccc([nH]5)c(-c5ccccc5)c5nc(c(-c6ccccc6)c6ccc3[nH]6)C=C5)C=C4)cc2)CC[C@@H](OCCCc2ccccc2)C1
REMARK SMILES IDX 7 1 6 2 4 3 5 4 3 6 62 7 75 8 63 9 64 10 2 11 1 12 65 15
REMARK SMILES IDX 66 16 67 17 68 18 69 19 70 20 74 21 71 22 73 23 72 24 8 25
REMARK SMILES IDX 9 26 10 27 11 28 12 29 13 31 14 32 15 33 61 34 16 35 60 36
REMARK SMILES IDX 17 37 18 38 19 39 54 40 20 41 59 42 53 43 55 44 21 45 58 46
REMARK SMILES IDX 52 47 51 48 22 50 44 51 29 52 43 53 30 54 33 55 42 56 56 57
REMARK SMILES IDX 31 58 32 59 41 61 57 62 34 63 23 64 24 65 28 66 25 67 27 68
REMARK SMILES IDX 26 69 45 70 46 71 50 72 47 73 49 74 48 75 35 76 36 77 40 78
REMARK SMILES IDX 37 79 39 80 38 81
REMARK H PARENT 6 5 2 13 2 14 11 30 55 49 33 60
REMARK Flexibility Score: inf
ROOT
ATOM      1  C   UNL A   1      37.140  23.404  25.889  1.00  0.00     0.116 C 
ENDROOT
BRANCH   1   2
ATOM      2  N   UNL A   1      35.736  23.422  26.697  1.00  0.00    -0.351 N 
ATOM      3  C   UNL A   1      33.894  22.772  26.658  1.00  0.00     0.281 C 
ATOM      4  O   UNL A   1      33.113  22.587  27.666  1.00  0.00    -0.268 OA
ATOM      5  H   UNL A   1      35.856  23.960  27.512  1.00  0.00     0.163 HD
BRANCH   3   6
ATOM      6  C   UNL A   1      32.808  22.214  25.242  1.00  0.00     0.177 C 
ATOM      7  C   UNL A   1      31.419  22.779  24.783  1.00  0.00     0.082 C 
ATOM      8  C   UNL A   1      33.542  21.882  23.887  1.00  0.00     0.111 C 
ATOM      9  C   UNL A   1      31.417  22.937  23.259  1.00  0.00     0.039 C 
ATOM     10  C   UNL A   1      32.803  22.601  22.751  1.00  0.00     0.125 C 
BRANCH   6  11
ATOM     11  N   UNL A   1      32.368  20.807  25.750  1.00  0.00    -0.336 N 
ATOM     12  C   UNL A   1      32.841  19.692  24.904  1.00  0.00     0.331 C 
ATOM     13  H   UNL A   1      32.737  20.676  26.692  1.00  0.00     0.346 HD
ATOM     14  H   UNL A   1      31.348  20.788  25.723  1.00  0.00     0.346 HD
ENDBRANCH   6  11
BRANCH  10  15
ATOM     15  O   UNL A   1      33.351  23.630  21.942  1.00  0.00    -0.378 OA
BRANCH  15  16
ATOM     16  C   UNL A   1      32.903  24.960  21.873  1.00  0.00     0.161 C 
BRANCH  16  17
ATOM     17  C   UNL A   1      33.649  26.015  22.672  1.00  0.00     0.033 C 
BRANCH  17  18
ATOM     18  C   UNL A   1      34.018  25.730  24.116  1.00  0.00     0.038 C 
BRANCH  18  19
ATOM     19  C   UNL A   1      33.615  26.688  25.232  1.00  0.00    -0.048 A 
ATOM     20  C   UNL A   1      34.264  28.415  25.446  1.00  0.00     0.004 A 
ATOM     21  C   UNL A   1      32.068  26.228  26.119  1.00  0.00     0.004 A 
ATOM     22  C   UNL A   1      33.338  29.633  26.442  1.00  0.00     0.000 A 
ATOM     23  C   UNL A   1      31.171  27.459  27.116  1.00  0.00     0.000 A 
ATOM     24  C   UNL A   1      31.778  29.178  27.256  1.00  0.00     0.000 A 
ENDBRANCH  18  19
ENDBRANCH  17  18
ENDBRANCH  16  17
ENDBRANCH  15  16
ENDBRANCH  10  15
ENDBRANCH   3   6
ENDBRANCH   1   2
BRANCH   1  25
ATOM     25  C   UNL A   1      37.080  22.449  24.699  1.00  0.00     0.023 C 
BRANCH  25  26
ATOM     26  C   UNL A   1      37.717  21.106  25.008  1.00  0.00     0.023 C 
BRANCH  26  27
ATOM     27  C   UNL A   1      38.963  21.237  25.870  1.00  0.00     0.116 C 
BRANCH  27  28
ATOM     28  N   UNL A   1      39.743  19.995  25.903  1.00  0.00    -0.352 N 
ATOM     29  C   UNL A   1      41.086  19.852  26.114  1.00  0.00     0.251 C 
ATOM     30  H   UNL A   1      39.238  19.163  25.754  1.00  0.00     0.163 HD
ATOM     31  O   UNL A   1      41.670  18.796  25.922  1.00  0.00    -0.269 OA
BRANCH  29  32
ATOM     32  C   UNL A   1      41.781  21.050  26.579  1.00  0.00     0.039 A 
ATOM     33  C   UNL A   1      42.244  21.968  25.644  1.00  0.00     0.014 A 
ATOM     34  C   UNL A   1      41.745  21.329  27.950  1.00  0.00     0.014 A 
ATOM     35  C   UNL A   1      42.652  23.216  26.094  1.00  0.00     0.010 A 
ATOM     36  C   UNL A   1      42.031  22.609  28.372  1.00  0.00     0.010 A 
ATOM     37  C   UNL A   1      42.516  23.550  27.454  1.00  0.00    -0.014 A 
BRANCH  37  38
ATOM     38  C   UNL A   1      42.923  24.878  27.950  1.00  0.00     0.031 A 
ATOM     39  C   UNL A   1      41.866  25.914  28.202  1.00  0.00     0.074 A 
ATOM     40  C   UNL A   1      44.228  25.149  28.133  1.00  0.00     0.049 A 
ATOM     41  N   UNL A   1      42.005  27.142  28.625  1.00  0.00    -0.248 NA
ATOM     42  C   UNL A   1      40.472  25.533  27.909  1.00  0.00     0.031 C 
ATOM     43  C   UNL A   1      45.335  24.226  27.871  1.00  0.00     0.029 A 
ATOM     44  N   UNL A   1      44.841  26.284  28.591  1.00  0.00    -0.354 N 
ATOM     45  C   UNL A   1      40.725  27.677  28.634  1.00  0.00     0.074 A 
ATOM     46  C   UNL A   1      39.833  26.675  28.102  1.00  0.00     0.031 C 
ATOM     47  C   UNL A   1      46.489  24.816  28.223  1.00  0.00     0.029 A 
ATOM     48  C   UNL A   1      46.207  26.171  28.684  1.00  0.00     0.049 A 
ATOM     49  H   UNL A   1      44.350  27.103  28.833  1.00  0.00     0.167 HD
ATOM     50  C   UNL A   1      40.323  28.889  29.076  1.00  0.00     0.031 A 
ATOM     51  C   UNL A   1      47.123  27.066  29.093  1.00  0.00     0.031 A 
ATOM     52  C   UNL A   1      41.220  29.876  29.607  1.00  0.00     0.049 A 
ATOM     53  C   UNL A   1      46.653  28.418  29.552  1.00  0.00     0.074 A 
ATOM     54  C   UNL A   1      40.919  31.118  30.132  1.00  0.00     0.029 A 
ATOM     55  N   UNL A   1      42.598  29.730  29.673  1.00  0.00    -0.354 N 
ATOM     56  N   UNL A   1      45.429  28.886  29.631  1.00  0.00    -0.248 NA
ATOM     57  C   UNL A   1      47.689  29.361  29.993  1.00  0.00     0.031 C 
ATOM     58  C   UNL A   1      42.121  31.755  30.445  1.00  0.00     0.029 A 
ATOM     59  C   UNL A   1      43.166  30.877  30.196  1.00  0.00     0.049 A 
ATOM     60  H   UNL A   1      43.096  28.930  29.389  1.00  0.00     0.167 HD
ATOM     61  C   UNL A   1      45.546  30.165  30.157  1.00  0.00     0.074 A 
ATOM     62  C   UNL A   1      46.957  30.389  30.399  1.00  0.00     0.031 C 
ATOM     63  C   UNL A   1      44.575  31.075  30.421  1.00  0.00     0.031 A 
BRANCH  50  64
ATOM     64  C   UNL A   1      38.856  29.209  28.984  1.00  0.00    -0.014 A 
ATOM     65  C   UNL A   1      37.998  29.041  30.083  1.00  0.00     0.009 A 
ATOM     66  C   UNL A   1      38.329  29.704  27.782  1.00  0.00     0.009 A 
ATOM     67  C   UNL A   1      36.635  29.325  29.967  1.00  0.00     0.001 A 
ATOM     68  C   UNL A   1      36.974  30.023  27.680  1.00  0.00     0.001 A 
ATOM     69  C   UNL A   1      36.127  29.823  28.769  1.00  0.00     0.000 A 
ENDBRANCH  50  64
BRANCH  51  70
ATOM     70  C   UNL A   1      48.567  26.711  29.095  1.00  0.00    -0.014 A 
ATOM     71  C   UNL A   1      49.377  26.987  27.982  1.00  0.00     0.009 A 
ATOM     72  C   UNL A   1      49.144  26.082  30.210  1.00  0.00     0.009 A 
ATOM     73  C   UNL A   1      50.722  26.612  27.974  1.00  0.00     0.001 A 
ATOM     74  C   UNL A   1      50.497  25.740  30.213  1.00  0.00     0.001 A 
ATOM     75  C   UNL A   1      51.282  25.993  29.090  1.00  0.00     0.000 A 
ENDBRANCH  51  70
BRANCH  63  76
ATOM     76  C   UNL A   1      45.003  32.379  31.037  1.00  0.00    -0.014 A 
ATOM     77  C   UNL A   1      45.318  33.495  30.249  1.00  0.00     0.009 A 
ATOM     78  C   UNL A   1      45.046  32.498  32.436  1.00  0.00     0.009 A 
ATOM     79  C   UNL A   1      45.706  34.694  30.849  1.00  0.00     0.001 A 
ATOM     80  C   UNL A   1      45.397  33.708  33.033  1.00  0.00     0.001 A 
ATOM     81  C   UNL A   1      45.739  34.802  32.240  1.00  0.00     0.000 A 
ENDBRANCH  63  76
ENDBRANCH  37  38
ENDBRANCH  29  32
ENDBRANCH  27  28
ENDBRANCH  26  27
ENDBRANCH  25  26
ENDBRANCH   1  25
TORSDOF 17
ENDMDL
MODEL 3
REMARK VINA RESULT:     -11.1      4.467      9.573
REMARK SMILES C[NH2+][C@]1(C(=O)NCCCCNC(=O)c2ccc(-c3c4nc(c(-c5ccccc5)c5ccc([nH]5)c(-c5ccccc5)c5nc(c(-c6ccccc6)c6ccc3[nH]6)C=C5)C=C4)cc2)CC[C@@H](OCCCc2ccccc2)C1
REMARK SMILES IDX 7 1 6 2 4 3 5 4 3 6 62 7 75 8 63 9 64 10 2 11 1 12 65 15
REMARK SMILES IDX 66 16 67 17 68 18 69 19 70 20 74 21 71 22 73 23 72 24 8 25
REMARK SMILES IDX 9 26 10 27 11 28 12 29 13 31 14 32 15 33 61 34 16 35 60 36
REMARK SMILES IDX 17 37 18 38 19 39 54 40 20 41 59 42 53 43 55 44 21 45 58 46
REMARK SMILES IDX 52 47 51 48 22 50 44 51 29 52 43 53 30 54 33 55 42 56 56 57
REMARK SMILES IDX 31 58 32 59 41 61 57 62 34 63 23 64 24 65 28 66 25 67 27 68
REMARK SMILES IDX 26 69 45 70 46 71 50 72 47 73 49 74 48 75 35 76 36 77 40 78
REMARK SMILES IDX 37 79 39 80 38 81
REMARK H PARENT 6 5 2 13 2 14 11 30 55 49 33 60
REMARK Flexibility Score: inf
ROOT
ATOM      1  C   UNL A   1      33.574  29.931  26.882  1.00  0.00     0.116 C 
ENDROOT
BRANCH   1   2
ATOM      2  N   UNL A   1      34.141  29.389  25.464  1.00  0.00    -0.351 N 
ATOM      3  C   UNL A   1      33.607  28.605  23.756  1.00  0.00     0.281 C 
ATOM      4  O   UNL A   1      34.239  28.676  22.636  1.00  0.00    -0.268 OA
ATOM      5  H   UNL A   1      35.120  29.493  25.463  1.00  0.00     0.163 HD
BRANCH   3   6
ATOM      6  C   UNL A   1      32.091  27.629  23.263  1.00  0.00     0.177 C 
ATOM      7  C   UNL A   1      32.003  26.260  22.503  1.00  0.00     0.082 C 
ATOM      8  C   UNL A   1      30.940  27.533  24.337  1.00  0.00     0.111 C 
ATOM      9  C   UNL A   1      30.990  25.354  23.209  1.00  0.00     0.039 C 
ATOM     10  C   UNL A   1      30.521  26.063  24.462  1.00  0.00     0.125 C 
BRANCH   6  11
ATOM     11  N   UNL A   1      31.476  28.571  22.182  1.00  0.00    -0.336 N 
ATOM     12  C   UNL A   1      30.289  29.318  22.647  1.00  0.00     0.331 C 
ATOM     13  H   UNL A   1      32.189  29.244  21.900  1.00  0.00     0.346 HD
ATOM     14  H   UNL A   1      31.170  27.978  21.411  1.00  0.00     0.346 HD
ENDBRANCH   6  11
BRANCH  10  15
ATOM     15  O   UNL A   1      30.670  25.267  25.627  1.00  0.00    -0.378 OA
BRANCH  15  16
ATOM     16  C   UNL A   1      31.801  24.511  25.978  1.00  0.00     0.161 C 
BRANCH  16  17
ATOM     17  C   UNL A   1      31.647  23.007  26.122  1.00  0.00     0.033 C 
BRANCH  17  18
ATOM     18  C   UNL A   1      31.933  22.113  24.930  1.00  0.00     0.038 C 
BRANCH  18  19
ATOM     19  C   UNL A   1      33.355  21.938  24.405  1.00  0.00    -0.048 A 
ATOM     20  C   UNL A   1      34.318  23.225  23.475  1.00  0.00     0.004 A 
ATOM     21  C   UNL A   1      34.282  20.531  25.149  1.00  0.00     0.004 A 
ATOM     22  C   UNL A   1      36.138  23.131  23.385  1.00  0.00     0.000 A 
ATOM     23  C   UNL A   1      36.097  20.455  25.032  1.00  0.00     0.000 A 
ATOM     24  C   UNL A   1      37.041  21.770  24.183  1.00  0.00     0.000 A 
ENDBRANCH  18  19
ENDBRANCH  17  18
ENDBRANCH  16  17
ENDBRANCH  15  16
ENDBRANCH  10  15
ENDBRANCH   3   6
ENDBRANCH   1   2
BRANCH   1  25
ATOM     25  C   UNL A   1      32.078  30.226  26.801  1.00  0.00     0.023 C 
BRANCH  25  26
ATOM     26  C   UNL A   1      31.786  31.716  26.791  1.00  0.00     0.023 C 
BRANCH  26  27
ATOM     27  C   UNL A   1      32.907  32.533  27.414  1.00  0.00     0.116 C 
BRANCH  27  28
ATOM     28  N   UNL A   1      32.520  33.934  27.616  1.00  0.00    -0.352 N 
ATOM     29  C   UNL A   1      33.007  34.814  28.542  1.00  0.00     0.251 C 
ATOM     30  H   UNL A   1      31.824  34.283  27.013  1.00  0.00     0.163 HD
ATOM     31  O   UNL A   1      32.478  35.894  28.761  1.00  0.00    -0.269 OA
BRANCH  29  32
ATOM     32  C   UNL A   1      34.202  34.376  29.259  1.00  0.00     0.039 A 
ATOM     33  C   UNL A   1      34.057  33.572  30.384  1.00  0.00     0.014 A 
ATOM     34  C   UNL A   1      35.441  34.596  28.649  1.00  0.00     0.014 A 
ATOM     35  C   UNL A   1      35.186  32.943  30.891  1.00  0.00     0.010 A 
ATOM     36  C   UNL A   1      36.530  33.870  29.081  1.00  0.00     0.010 A 
ATOM     37  C   UNL A   1      36.417  33.064  30.223  1.00  0.00    -0.014 A 
BRANCH  37  38
ATOM     38  C   UNL A   1      37.623  32.387  30.732  1.00  0.00     0.031 A 
ATOM     39  C   UNL A   1      38.296  32.927  31.960  1.00  0.00     0.074 A 
ATOM     40  C   UNL A   1      38.120  31.325  30.072  1.00  0.00     0.049 A 
ATOM     41  N   UNL A   1      39.370  32.495  32.566  1.00  0.00    -0.248 NA
ATOM     42  C   UNL A   1      37.707  34.133  32.570  1.00  0.00     0.031 C 
ATOM     43  C   UNL A   1      37.567  30.752  28.842  1.00  0.00     0.029 A 
ATOM     44  N   UNL A   1      39.201  30.533  30.352  1.00  0.00    -0.354 N 
ATOM     45  C   UNL A   1      39.586  33.380  33.612  1.00  0.00     0.074 A 
ATOM     46  C   UNL A   1      38.587  34.417  33.516  1.00  0.00     0.031 C 
ATOM     47  C   UNL A   1      38.284  29.668  28.503  1.00  0.00     0.029 A 
ATOM     48  C   UNL A   1      39.373  29.503  29.459  1.00  0.00     0.049 A 
ATOM     49  H   UNL A   1      39.798  30.687  31.119  1.00  0.00     0.167 HD
ATOM     50  C   UNL A   1      40.519  33.318  34.587  1.00  0.00     0.031 A 
ATOM     51  C   UNL A   1      40.310  28.538  29.422  1.00  0.00     0.031 A 
ATOM     52  C   UNL A   1      41.505  32.278  34.675  1.00  0.00     0.049 A 
ATOM     53  C   UNL A   1      41.355  28.508  30.502  1.00  0.00     0.074 A 
ATOM     54  C   UNL A   1      42.467  32.085  35.647  1.00  0.00     0.029 A 
ATOM     55  N   UNL A   1      41.657  31.259  33.745  1.00  0.00    -0.354 N 
ATOM     56  N   UNL A   1      41.502  29.306  31.534  1.00  0.00    -0.248 NA
ATOM     57  C   UNL A   1      42.354  27.436  30.422  1.00  0.00     0.031 C 
ATOM     58  C   UNL A   1      43.250  30.993  35.267  1.00  0.00     0.029 A 
ATOM     59  C   UNL A   1      42.723  30.454  34.102  1.00  0.00     0.049 A 
ATOM     60  H   UNL A   1      41.090  31.130  32.951  1.00  0.00     0.167 HD
ATOM     61  C   UNL A   1      42.591  28.815  32.240  1.00  0.00     0.074 A 
ATOM     62  C   UNL A   1      43.051  27.637  31.531  1.00  0.00     0.031 C 
ATOM     63  C   UNL A   1      43.162  29.291  33.375  1.00  0.00     0.031 A 
BRANCH  50  64
ATOM     64  C   UNL A   1      40.519  34.413  35.618  1.00  0.00    -0.014 A 
ATOM     65  C   UNL A   1      41.295  35.573  35.457  1.00  0.00     0.009 A 
ATOM     66  C   UNL A   1      39.716  34.289  36.761  1.00  0.00     0.009 A 
ATOM     67  C   UNL A   1      41.296  36.567  36.438  1.00  0.00     0.001 A 
ATOM     68  C   UNL A   1      39.689  35.301  37.721  1.00  0.00     0.001 A 
ATOM     69  C   UNL A   1      40.487  36.433  37.564  1.00  0.00     0.000 A 
ENDBRANCH  50  64
BRANCH  51  70
ATOM     70  C   UNL A   1      40.295  27.524  28.335  1.00  0.00    -0.014 A 
ATOM     71  C   UNL A   1      39.585  26.323  28.483  1.00  0.00     0.009 A 
ATOM     72  C   UNL A   1      41.001  27.749  27.142  1.00  0.00     0.009 A 
ATOM     73  C   UNL A   1      39.610  25.356  27.475  1.00  0.00     0.001 A 
ATOM     74  C   UNL A   1      40.996  26.796  26.122  1.00  0.00     0.001 A 
ATOM     75  C   UNL A   1      40.312  25.594  26.295  1.00  0.00     0.000 A 
ENDBRANCH  51  70
BRANCH  63  76
ATOM     76  C   UNL A   1      44.319  28.514  33.941  1.00  0.00    -0.014 A 
ATOM     77  C   UNL A   1      45.645  28.824  33.605  1.00  0.00     0.009 A 
ATOM     78  C   UNL A   1      44.072  27.483  34.862  1.00  0.00     0.009 A 
ATOM     79  C   UNL A   1      46.700  28.090  34.151  1.00  0.00     0.001 A 
ATOM     80  C   UNL A   1      45.129  26.778  35.436  1.00  0.00     0.001 A 
ATOM     81  C   UNL A   1      46.442  27.073  35.070  1.00  0.00     0.000 A 
ENDBRANCH  63  76
ENDBRANCH  37  38
ENDBRANCH  29  32
ENDBRANCH  27  28
ENDBRANCH  26  27
ENDBRANCH  25  26
ENDBRANCH   1  25
TORSDOF 17
ENDMDL
