MODEL 1
REMARK VINA RESULT:     -11.3      0.000      0.000
REMARK SMILES COC(=O)c1c(NC(=O)[C@@H]2C[C@@H]2C(=O)NCCCCNC(=O)c2ccc(-c3c4nc(c(-c5ccccc5)c5ccc([nH]5)c(-c5ccccc5)c5nc(c(-c6ccccc6)c6ccc3[nH]6)C=C5)C=C4)cc2)sc2c1CC[N@@H+](Cc1ccccc1)C2
REMARK SMILES IDX 16 1 15 2 13 3 14 4 12 6 10 7 11 8 8 9 7 10 9 12 6 13 5 14
REMARK SMILES IDX 73 15 71 16 72 17 74 18 84 19 75 20 76 21 3 23 4 24 2 25
REMARK SMILES IDX 1 26 77 27 78 28 79 29 83 30 80 31 82 32 81 33 17 34 18 35
REMARK SMILES IDX 19 36 20 37 21 38 22 40 23 41 24 42 70 43 25 44 69 45 26 46
REMARK SMILES IDX 27 47 28 48 63 49 29 50 68 51 62 52 64 53 30 54 67 55 61 56
REMARK SMILES IDX 60 57 31 59 53 60 38 61 52 62 39 63 42 64 51 65 65 66 40 67
REMARK SMILES IDX 41 68 50 70 66 71 43 72 32 73 33 74 37 75 34 76 36 77 35 78
REMARK SMILES IDX 54 79 55 80 59 81 56 82 58 83 57 84 44 85 45 86 49 87 46 88
REMARK SMILES IDX 48 89 47 90
REMARK H PARENT 15 5 7 11 76 22 20 39 64 58 42 69
REMARK Flexibility Score: inf
ROOT
ATOM      1  C   UNL A   1      39.380  23.752  26.890  1.00  0.00     0.116 C 
ENDROOT
BRANCH   1   2
ATOM      2  N   UNL A   1      38.827  22.492  26.484  1.00  0.00    -0.356 N 
ATOM      3  C   UNL A   1      37.825  22.218  25.596  1.00  0.00     0.223 C 
ATOM      4  O   UNL A   1      37.808  21.083  25.118  1.00  0.00    -0.275 OA
ATOM      5  H   UNL A   1      39.230  21.703  26.913  1.00  0.00     0.163 HD
BRANCH   3   6
ATOM      6  C   UNL A   1      36.720  23.132  25.196  1.00  0.00     0.091 C 
ATOM      7  C   UNL A   1      35.372  23.115  24.524  1.00  0.00     0.092 C 
ATOM      8  C   UNL A   1      36.596  23.223  23.678  1.00  0.00     0.028 C 
BRANCH   7   9
ATOM      9  C   UNL A   1      34.418  22.006  24.385  1.00  0.00     0.228 C 
ATOM     10  N   UNL A   1      33.111  22.228  24.026  1.00  0.00    -0.317 N 
ATOM     11  H   UNL A   1      32.592  21.423  23.798  1.00  0.00     0.170 HD
ATOM     12  O   UNL A   1      34.797  20.855  24.585  1.00  0.00    -0.274 OA
BRANCH  10  13
ATOM     13  C   UNL A   1      32.427  23.418  23.942  1.00  0.00     0.110 A 
ATOM     14  C   UNL A   1      31.595  24.189  24.734  1.00  0.00     0.098 A 
ATOM     15  C   UNL A   1      31.029  25.276  23.956  1.00  0.00    -0.006 A 
ATOM     16  S   UNL A   1      32.676  24.094  22.397  1.00  0.00    -0.116 S 
ATOM     17  C   UNL A   1      31.583  25.341  22.695  1.00  0.00     0.065 A 
ATOM     18  C   UNL A   1      30.145  26.395  24.446  1.00  0.00     0.099 C 
ATOM     19  C   UNL A   1      31.399  26.485  21.757  1.00  0.00     0.310 C 
ATOM     20  C   UNL A   1      30.100  27.608  23.473  1.00  0.00     0.267 C 
ATOM     21  N   UNL A   1      31.185  27.744  22.484  1.00  0.00    -0.326 N 
ATOM     22  H   UNL A   1      30.849  28.428  21.809  1.00  0.00     0.348 HD
BRANCH  14  23
ATOM     23  C   UNL A   1      31.387  24.045  26.171  1.00  0.00     0.341 C 
ATOM     24  O   UNL A   1      30.301  24.175  26.708  1.00  0.00    -0.246 OA
BRANCH  23  25
ATOM     25  O   UNL A   1      32.553  23.796  26.841  1.00  0.00    -0.465 OA
ATOM     26  C   UNL A   1      32.551  22.579  27.586  1.00  0.00     0.282 C 
ENDBRANCH  23  25
ENDBRANCH  14  23
BRANCH  21  27
ATOM     27  C   UNL A   1      32.418  28.407  22.950  1.00  0.00     0.299 C 
BRANCH  27  28
ATOM     28  C   UNL A   1      32.653  28.518  24.443  1.00  0.00     0.006 A 
ATOM     29  C   UNL A   1      32.006  29.505  25.199  1.00  0.00     0.009 A 
ATOM     30  C   UNL A   1      33.473  27.596  25.113  1.00  0.00     0.009 A 
ATOM     31  C   UNL A   1      32.089  29.503  26.593  1.00  0.00     0.001 A 
ATOM     32  C   UNL A   1      33.544  27.585  26.508  1.00  0.00     0.001 A 
ATOM     33  C   UNL A   1      32.837  28.528  27.248  1.00  0.00     0.000 A 
ENDBRANCH  27  28
ENDBRANCH  21  27
ENDBRANCH  10  13
ENDBRANCH   7   9
ENDBRANCH   3   6
ENDBRANCH   1   2
BRANCH   1  34
ATOM     34  C   UNL A   1      40.682  23.672  27.683  1.00  0.00     0.023 C 
BRANCH  34  35
ATOM     35  C   UNL A   1      41.595  22.502  27.286  1.00  0.00     0.023 C 
BRANCH  35  36
ATOM     36  C   UNL A   1      43.090  22.742  27.512  1.00  0.00     0.116 C 
BRANCH  36  37
ATOM     37  N   UNL A   1      43.881  22.806  26.286  1.00  0.00    -0.352 N 
ATOM     38  C   UNL A   1      43.964  23.877  25.414  1.00  0.00     0.251 C 
ATOM     39  H   UNL A   1      44.409  22.006  26.058  1.00  0.00     0.163 HD
ATOM     40  O   UNL A   1      44.335  23.733  24.256  1.00  0.00    -0.269 OA
BRANCH  38  41
ATOM     41  C   UNL A   1      43.609  25.221  25.914  1.00  0.00     0.039 A 
ATOM     42  C   UNL A   1      42.511  25.923  25.418  1.00  0.00     0.014 A 
ATOM     43  C   UNL A   1      44.385  25.757  26.937  1.00  0.00     0.014 A 
ATOM     44  C   UNL A   1      42.145  27.125  26.029  1.00  0.00     0.010 A 
ATOM     45  C   UNL A   1      43.982  26.903  27.588  1.00  0.00     0.010 A 
ATOM     46  C   UNL A   1      42.869  27.604  27.133  1.00  0.00    -0.014 A 
BRANCH  46  47
ATOM     47  C   UNL A   1      42.369  28.738  27.914  1.00  0.00     0.031 A 
ATOM     48  C   UNL A   1      43.171  29.991  27.827  1.00  0.00     0.074 A 
ATOM     49  C   UNL A   1      41.148  28.793  28.491  1.00  0.00     0.049 A 
ATOM     50  N   UNL A   1      43.755  30.615  28.796  1.00  0.00    -0.248 NA
ATOM     51  C   UNL A   1      43.394  30.595  26.505  1.00  0.00     0.031 C 
ATOM     52  C   UNL A   1      40.076  27.801  28.431  1.00  0.00     0.029 A 
ATOM     53  N   UNL A   1      40.558  29.832  29.150  1.00  0.00    -0.354 N 
ATOM     54  C   UNL A   1      44.293  31.776  28.248  1.00  0.00     0.074 A 
ATOM     55  C   UNL A   1      44.144  31.654  26.818  1.00  0.00     0.031 C 
ATOM     56  C   UNL A   1      38.906  28.378  28.784  1.00  0.00     0.029 A 
ATOM     57  C   UNL A   1      39.180  29.715  29.274  1.00  0.00     0.049 A 
ATOM     58  H   UNL A   1      41.066  30.598  29.505  1.00  0.00     0.167 HD
ATOM     59  C   UNL A   1      44.645  32.840  29.022  1.00  0.00     0.031 A 
ATOM     60  C   UNL A   1      38.316  30.653  29.731  1.00  0.00     0.031 A 
ATOM     61  C   UNL A   1      44.704  32.495  30.419  1.00  0.00     0.049 A 
ATOM     62  C   UNL A   1      39.091  31.621  30.536  1.00  0.00     0.074 A 
ATOM     63  C   UNL A   1      45.415  31.584  31.175  1.00  0.00     0.029 A 
ATOM     64  N   UNL A   1      43.659  32.902  31.213  1.00  0.00    -0.354 N 
ATOM     65  N   UNL A   1      39.633  31.330  31.681  1.00  0.00    -0.248 NA
ATOM     66  C   UNL A   1      39.602  32.817  29.889  1.00  0.00     0.031 C 
ATOM     67  C   UNL A   1      44.491  31.127  32.161  1.00  0.00     0.029 A 
ATOM     68  C   UNL A   1      43.296  31.827  31.982  1.00  0.00     0.049 A 
ATOM     69  H   UNL A   1      43.249  33.797  31.227  1.00  0.00     0.167 HD
ATOM     70  C   UNL A   1      40.838  32.013  31.679  1.00  0.00     0.074 A 
ATOM     71  C   UNL A   1      40.700  33.013  30.624  1.00  0.00     0.031 C 
ATOM     72  C   UNL A   1      41.930  31.514  32.334  1.00  0.00     0.031 A 
BRANCH  59  73
ATOM     73  C   UNL A   1      44.575  34.278  28.572  1.00  0.00    -0.014 A 
ATOM     74  C   UNL A   1      43.313  34.855  28.339  1.00  0.00     0.009 A 
ATOM     75  C   UNL A   1      45.693  34.987  28.096  1.00  0.00     0.009 A 
ATOM     76  C   UNL A   1      43.175  36.041  27.607  1.00  0.00     0.001 A 
ATOM     77  C   UNL A   1      45.562  36.194  27.402  1.00  0.00     0.001 A 
ATOM     78  C   UNL A   1      44.301  36.706  27.132  1.00  0.00     0.000 A 
ENDBRANCH  59  73
BRANCH  60  79
ATOM     79  C   UNL A   1      36.902  30.884  29.377  1.00  0.00    -0.014 A 
ATOM     80  C   UNL A   1      36.053  31.585  30.246  1.00  0.00     0.009 A 
ATOM     81  C   UNL A   1      36.458  30.660  28.061  1.00  0.00     0.009 A 
ATOM     82  C   UNL A   1      34.827  32.094  29.798  1.00  0.00     0.001 A 
ATOM     83  C   UNL A   1      35.233  31.165  27.615  1.00  0.00     0.001 A 
ATOM     84  C   UNL A   1      34.426  31.898  28.478  1.00  0.00     0.000 A 
ENDBRANCH  60  79
BRANCH  72  85
ATOM     85  C   UNL A   1      41.720  30.358  33.284  1.00  0.00    -0.014 A 
ATOM     86  C   UNL A   1      41.487  30.523  34.661  1.00  0.00     0.009 A 
ATOM     87  C   UNL A   1      41.631  29.064  32.750  1.00  0.00     0.009 A 
ATOM     88  C   UNL A   1      41.225  29.423  35.484  1.00  0.00     0.001 A 
ATOM     89  C   UNL A   1      41.343  27.968  33.566  1.00  0.00     0.001 A 
ATOM     90  C   UNL A   1      41.152  28.146  34.935  1.00  0.00     0.000 A 
ENDBRANCH  72  85
ENDBRANCH  46  47
ENDBRANCH  38  41
ENDBRANCH  36  37
ENDBRANCH  35  36
ENDBRANCH  34  35
ENDBRANCH   1  34
TORSDOF 17
ENDMDL
MODEL 2
REMARK VINA RESULT:     -11.3      3.233      8.404
REMARK SMILES COC(=O)c1c(NC(=O)[C@@H]2C[C@@H]2C(=O)NCCCCNC(=O)c2ccc(-c3c4nc(c(-c5ccccc5)c5ccc([nH]5)c(-c5ccccc5)c5nc(c(-c6ccccc6)c6ccc3[nH]6)C=C5)C=C4)cc2)sc2c1CC[N@@H+](Cc1ccccc1)C2
REMARK SMILES IDX 16 1 15 2 13 3 14 4 12 6 10 7 11 8 8 9 7 10 9 12 6 13 5 14
REMARK SMILES IDX 73 15 71 16 72 17 74 18 84 19 75 20 76 21 3 23 4 24 2 25
REMARK SMILES IDX 1 26 77 27 78 28 79 29 83 30 80 31 82 32 81 33 17 34 18 35
REMARK SMILES IDX 19 36 20 37 21 38 22 40 23 41 24 42 70 43 25 44 69 45 26 46
REMARK SMILES IDX 27 47 28 48 63 49 29 50 68 51 62 52 64 53 30 54 67 55 61 56
REMARK SMILES IDX 60 57 31 59 53 60 38 61 52 62 39 63 42 64 51 65 65 66 40 67
REMARK SMILES IDX 41 68 50 70 66 71 43 72 32 73 33 74 37 75 34 76 36 77 35 78
REMARK SMILES IDX 54 79 55 80 59 81 56 82 58 83 57 84 44 85 45 86 49 87 46 88
REMARK SMILES IDX 48 89 47 90
REMARK H PARENT 15 5 7 11 76 22 20 39 64 58 42 69
REMARK Flexibility Score: inf
ROOT
ATOM      1  C   UNL A   1      35.231  30.990  27.869  1.00  0.00     0.116 C 
ENDROOT
BRANCH   1   2
ATOM      2  N   UNL A   1      33.870  31.245  27.496  1.00  0.00    -0.356 N 
ATOM      3  C   UNL A   1      32.973  30.447  26.842  1.00  0.00     0.223 C 
ATOM      4  O   UNL A   1      31.782  30.714  26.998  1.00  0.00    -0.275 OA
ATOM      5  H   UNL A   1      33.528  32.133  27.749  1.00  0.00     0.163 HD
BRANCH   3   6
ATOM      6  C   UNL A   1      33.296  29.327  25.915  1.00  0.00     0.091 C 
ATOM      7  C   UNL A   1      32.625  28.329  25.008  1.00  0.00     0.092 C 
ATOM      8  C   UNL A   1      32.784  27.995  26.453  1.00  0.00     0.028 C 
BRANCH   7   9
ATOM      9  C   UNL A   1      31.308  28.400  24.360  1.00  0.00     0.228 C 
ATOM     10  N   UNL A   1      30.597  27.265  24.059  1.00  0.00    -0.317 N 
ATOM     11  H   UNL A   1      29.663  27.412  23.781  1.00  0.00     0.170 HD
ATOM     12  O   UNL A   1      30.829  29.498  24.088  1.00  0.00    -0.274 OA
BRANCH  10  13
ATOM     13  C   UNL A   1      31.006  25.953  24.092  1.00  0.00     0.110 A 
ATOM     14  C   UNL A   1      31.738  25.080  23.308  1.00  0.00     0.098 A 
ATOM     15  C   UNL A   1      31.632  23.729  23.829  1.00  0.00    -0.006 A 
ATOM     16  S   UNL A   1      30.395  25.215  25.502  1.00  0.00    -0.116 S 
ATOM     17  C   UNL A   1      30.966  23.701  25.035  1.00  0.00     0.065 A 
ATOM     18  C   UNL A   1      32.338  22.494  23.332  1.00  0.00     0.099 C 
ATOM     19  C   UNL A   1      30.915  22.514  25.936  1.00  0.00     0.310 C 
ATOM     20  C   UNL A   1      32.353  21.339  24.374  1.00  0.00     0.267 C 
ATOM     21  N   UNL A   1      32.114  21.678  25.788  1.00  0.00    -0.326 N 
ATOM     22  H   UNL A   1      31.921  20.790  26.249  1.00  0.00     0.348 HD
BRANCH  14  23
ATOM     23  C   UNL A   1      32.607  25.437  22.191  1.00  0.00     0.341 C 
ATOM     24  O   UNL A   1      33.823  25.452  22.265  1.00  0.00    -0.246 OA
BRANCH  23  25
ATOM     25  O   UNL A   1      31.897  25.794  21.077  1.00  0.00    -0.465 OA
ATOM     26  C   UNL A   1      32.534  25.454  19.845  1.00  0.00     0.282 C 
ENDBRANCH  23  25
ENDBRANCH  14  23
BRANCH  21  27
ATOM     27  C   UNL A   1      33.286  22.134  26.561  1.00  0.00     0.299 C 
BRANCH  27  28
ATOM     28  C   UNL A   1      34.590  22.359  25.822  1.00  0.00     0.006 A 
ATOM     29  C   UNL A   1      35.391  21.277  25.436  1.00  0.00     0.009 A 
ATOM     30  C   UNL A   1      34.992  23.651  25.449  1.00  0.00     0.009 A 
ATOM     31  C   UNL A   1      36.502  21.469  24.611  1.00  0.00     0.001 A 
ATOM     32  C   UNL A   1      36.094  23.843  24.611  1.00  0.00     0.001 A 
ATOM     33  C   UNL A   1      36.837  22.749  24.178  1.00  0.00     0.000 A 
ENDBRANCH  27  28
ENDBRANCH  21  27
ENDBRANCH  10  13
ENDBRANCH   7   9
ENDBRANCH   3   6
ENDBRANCH   1   2
BRANCH   1  34
ATOM     34  C   UNL A   1      35.780  31.870  28.990  1.00  0.00     0.023 C 
BRANCH  34  35
ATOM     35  C   UNL A   1      36.022  33.332  28.587  1.00  0.00     0.023 C 
BRANCH  35  36
ATOM     36  C   UNL A   1      37.435  33.854  28.862  1.00  0.00     0.116 C 
BRANCH  36  37
ATOM     37  N   UNL A   1      37.678  34.229  30.252  1.00  0.00    -0.352 N 
ATOM     38  C   UNL A   1      38.249  33.436  31.232  1.00  0.00     0.251 C 
ATOM     39  H   UNL A   1      37.409  35.138  30.519  1.00  0.00     0.163 HD
ATOM     40  O   UNL A   1      38.085  33.671  32.423  1.00  0.00    -0.269 OA
BRANCH  38  41
ATOM     41  C   UNL A   1      39.084  32.292  30.814  1.00  0.00     0.039 A 
ATOM     42  C   UNL A   1      40.438  32.441  30.514  1.00  0.00     0.014 A 
ATOM     43  C   UNL A   1      38.485  31.037  30.766  1.00  0.00     0.014 A 
ATOM     44  C   UNL A   1      41.204  31.300  30.262  1.00  0.00     0.010 A 
ATOM     45  C   UNL A   1      39.253  29.905  30.592  1.00  0.00     0.010 A 
ATOM     46  C   UNL A   1      40.614  30.027  30.325  1.00  0.00    -0.014 A 
BRANCH  46  47
ATOM     47  C   UNL A   1      41.445  28.820  30.281  1.00  0.00     0.031 A 
ATOM     48  C   UNL A   1      41.967  28.342  31.592  1.00  0.00     0.074 A 
ATOM     49  C   UNL A   1      41.563  28.010  29.207  1.00  0.00     0.049 A 
ATOM     50  N   UNL A   1      43.205  28.209  31.940  1.00  0.00    -0.248 NA
ATOM     51  C   UNL A   1      41.007  28.024  32.660  1.00  0.00     0.031 C 
ATOM     52  C   UNL A   1      40.884  28.117  27.917  1.00  0.00     0.029 A 
ATOM     53  N   UNL A   1      42.227  26.823  29.098  1.00  0.00    -0.354 N 
ATOM     54  C   UNL A   1      43.197  27.643  33.212  1.00  0.00     0.074 A 
ATOM     55  C   UNL A   1      41.823  27.661  33.654  1.00  0.00     0.031 C 
ATOM     56  C   UNL A   1      40.952  26.932  27.270  1.00  0.00     0.029 A 
ATOM     57  C   UNL A   1      41.838  26.053  28.009  1.00  0.00     0.049 A 
ATOM     58  H   UNL A   1      42.921  26.538  29.735  1.00  0.00     0.167 HD
ATOM     59  C   UNL A   1      44.294  27.024  33.730  1.00  0.00     0.031 A 
ATOM     60  C   UNL A   1      42.200  24.777  27.737  1.00  0.00     0.031 A 
ATOM     61  C   UNL A   1      45.485  27.315  32.975  1.00  0.00     0.049 A 
ATOM     62  C   UNL A   1      43.444  24.496  28.484  1.00  0.00     0.074 A 
ATOM     63  C   UNL A   1      46.172  28.463  32.634  1.00  0.00     0.029 A 
ATOM     64  N   UNL A   1      45.951  26.338  32.130  1.00  0.00    -0.354 N 
ATOM     65  N   UNL A   1      44.587  25.049  28.208  1.00  0.00    -0.248 NA
ATOM     66  C   UNL A   1      43.347  23.886  29.800  1.00  0.00     0.031 C 
ATOM     67  C   UNL A   1      46.628  28.234  31.301  1.00  0.00     0.029 A 
ATOM     68  C   UNL A   1      46.240  26.943  30.936  1.00  0.00     0.049 A 
ATOM     69  H   UNL A   1      46.057  25.382  32.343  1.00  0.00     0.167 HD
ATOM     70  C   UNL A   1      45.176  25.268  29.443  1.00  0.00     0.074 A 
ATOM     71  C   UNL A   1      44.437  24.410  30.367  1.00  0.00     0.031 C 
ATOM     72  C   UNL A   1      46.010  26.332  29.646  1.00  0.00     0.031 A 
BRANCH  59  73
ATOM     73  C   UNL A   1      44.238  25.861  34.689  1.00  0.00    -0.014 A 
ATOM     74  C   UNL A   1      45.047  25.893  35.841  1.00  0.00     0.009 A 
ATOM     75  C   UNL A   1      43.648  24.626  34.363  1.00  0.00     0.009 A 
ATOM     76  C   UNL A   1      45.308  24.734  36.583  1.00  0.00     0.001 A 
ATOM     77  C   UNL A   1      43.871  23.477  35.128  1.00  0.00     0.001 A 
ATOM     78  C   UNL A   1      44.725  23.524  36.221  1.00  0.00     0.000 A 
ENDBRANCH  59  73
BRANCH  60  79
ATOM     79  C   UNL A   1      41.457  23.718  27.027  1.00  0.00    -0.014 A 
ATOM     80  C   UNL A   1      42.130  22.609  26.491  1.00  0.00     0.009 A 
ATOM     81  C   UNL A   1      40.055  23.655  27.119  1.00  0.00     0.009 A 
ATOM     82  C   UNL A   1      41.429  21.456  26.113  1.00  0.00     0.001 A 
ATOM     83  C   UNL A   1      39.355  22.506  26.739  1.00  0.00     0.001 A 
ATOM     84  C   UNL A   1      40.044  21.399  26.254  1.00  0.00     0.000 A 
ENDBRANCH  60  79
BRANCH  72  85
ATOM     85  C   UNL A   1      46.494  27.095  28.435  1.00  0.00    -0.014 A 
ATOM     86  C   UNL A   1      45.755  28.126  27.827  1.00  0.00     0.009 A 
ATOM     87  C   UNL A   1      47.792  26.848  27.966  1.00  0.00     0.009 A 
ATOM     88  C   UNL A   1      46.281  28.851  26.753  1.00  0.00     0.001 A 
ATOM     89  C   UNL A   1      48.328  27.590  26.912  1.00  0.00     0.001 A 
ATOM     90  C   UNL A   1      47.569  28.583  26.297  1.00  0.00     0.000 A 
ENDBRANCH  72  85
ENDBRANCH  46  47
ENDBRANCH  38  41
ENDBRANCH  36  37
ENDBRANCH  35  36
ENDBRANCH  34  35
ENDBRANCH   1  34
TORSDOF 17
ENDMDL
MODEL 3
REMARK VINA RESULT:     -11.1      2.994      4.401
REMARK SMILES COC(=O)c1c(NC(=O)[C@@H]2C[C@@H]2C(=O)NCCCCNC(=O)c2ccc(-c3c4nc(c(-c5ccccc5)c5ccc([nH]5)c(-c5ccccc5)c5nc(c(-c6ccccc6)c6ccc3[nH]6)C=C5)C=C4)cc2)sc2c1CC[N@@H+](Cc1ccccc1)C2
REMARK SMILES IDX 16 1 15 2 13 3 14 4 12 6 10 7 11 8 8 9 7 10 9 12 6 13 5 14
REMARK SMILES IDX 73 15 71 16 72 17 74 18 84 19 75 20 76 21 3 23 4 24 2 25
REMARK SMILES IDX 1 26 77 27 78 28 79 29 83 30 80 31 82 32 81 33 17 34 18 35
REMARK SMILES IDX 19 36 20 37 21 38 22 40 23 41 24 42 70 43 25 44 69 45 26 46
REMARK SMILES IDX 27 47 28 48 63 49 29 50 68 51 62 52 64 53 30 54 67 55 61 56
REMARK SMILES IDX 60 57 31 59 53 60 38 61 52 62 39 63 42 64 51 65 65 66 40 67
REMARK SMILES IDX 41 68 50 70 66 71 43 72 32 73 33 74 37 75 34 76 36 77 35 78
REMARK SMILES IDX 54 79 55 80 59 81 56 82 58 83 57 84 44 85 45 86 49 87 46 88
REMARK SMILES IDX 48 89 47 90
REMARK H PARENT 15 5 7 11 76 22 20 39 64 58 42 69
REMARK Flexibility Score: inf
ROOT
ATOM      1  C   UNL A   1      40.030  21.328  26.517  1.00  0.00     0.116 C 
ENDROOT
BRANCH   1   2
ATOM      2  N   UNL A   1      38.857  20.852  25.840  1.00  0.00    -0.356 N 
ATOM      3  C   UNL A   1      37.831  21.548  25.264  1.00  0.00     0.223 C 
ATOM      4  O   UNL A   1      37.173  20.953  24.411  1.00  0.00    -0.275 OA
ATOM      5  H   UNL A   1      38.780  19.872  25.783  1.00  0.00     0.163 HD
BRANCH   3   6
ATOM      6  C   UNL A   1      37.395  22.929  25.608  1.00  0.00     0.091 C 
ATOM      7  C   UNL A   1      36.148  23.726  25.888  1.00  0.00     0.092 C 
ATOM      8  C   UNL A   1      36.592  23.556  24.474  1.00  0.00     0.028 C 
BRANCH   7   9
ATOM      9  C   UNL A   1      34.835  23.263  26.359  1.00  0.00     0.228 C 
ATOM     10  N   UNL A   1      33.670  23.817  25.889  1.00  0.00    -0.317 N 
ATOM     11  H   UNL A   1      32.845  23.337  26.132  1.00  0.00     0.170 HD
ATOM     12  O   UNL A   1      34.776  22.356  27.185  1.00  0.00    -0.274 OA
BRANCH  10  13
ATOM     13  C   UNL A   1      33.496  24.948  25.125  1.00  0.00     0.110 A 
ATOM     14  C   UNL A   1      33.501  25.301  23.788  1.00  0.00     0.098 A 
ATOM     15  C   UNL A   1      33.446  26.746  23.651  1.00  0.00    -0.006 A 
ATOM     16  S   UNL A   1      33.227  26.278  26.156  1.00  0.00    -0.116 S 
ATOM     17  C   UNL A   1      33.251  27.364  24.868  1.00  0.00     0.065 A 
ATOM     18  C   UNL A   1      33.346  27.545  22.378  1.00  0.00     0.099 C 
ATOM     19  C   UNL A   1      32.903  28.805  25.029  1.00  0.00     0.310 C 
ATOM     20  C   UNL A   1      32.857  29.004  22.611  1.00  0.00     0.267 C 
ATOM     21  N   UNL A   1      32.153  29.306  23.870  1.00  0.00    -0.326 N 
ATOM     22  H   UNL A   1      32.143  30.323  23.935  1.00  0.00     0.348 HD
BRANCH  14  23
ATOM     23  C   UNL A   1      33.440  24.391  22.650  1.00  0.00     0.341 C 
ATOM     24  O   UNL A   1      33.284  24.763  21.500  1.00  0.00    -0.246 OA
BRANCH  23  25
ATOM     25  O   UNL A   1      33.530  23.080  23.030  1.00  0.00    -0.465 OA
ATOM     26  C   UNL A   1      32.453  22.262  22.573  1.00  0.00     0.282 C 
ENDBRANCH  23  25
ENDBRANCH  14  23
BRANCH  21  27
ATOM     27  C   UNL A   1      30.706  29.020  23.898  1.00  0.00     0.299 C 
BRANCH  27  28
ATOM     28  C   UNL A   1      29.768  29.997  23.218  1.00  0.00     0.006 A 
ATOM     29  C   UNL A   1      29.258  29.730  21.941  1.00  0.00     0.009 A 
ATOM     30  C   UNL A   1      29.336  31.158  23.878  1.00  0.00     0.009 A 
ATOM     31  C   UNL A   1      28.265  30.541  21.386  1.00  0.00     0.001 A 
ATOM     32  C   UNL A   1      28.333  31.962  23.330  1.00  0.00     0.001 A 
ATOM     33  C   UNL A   1      27.785  31.641  22.091  1.00  0.00     0.000 A 
ENDBRANCH  27  28
ENDBRANCH  21  27
ENDBRANCH  10  13
ENDBRANCH   7   9
ENDBRANCH   3   6
ENDBRANCH   1   2
BRANCH   1  34
ATOM     34  C   UNL A   1      41.100  20.275  26.796  1.00  0.00     0.023 C 
BRANCH  34  35
ATOM     35  C   UNL A   1      42.388  20.450  25.978  1.00  0.00     0.023 C 
BRANCH  35  36
ATOM     36  C   UNL A   1      43.257  19.195  25.864  1.00  0.00     0.116 C 
BRANCH  36  37
ATOM     37  N   UNL A   1      44.117  19.164  24.684  1.00  0.00    -0.352 N 
ATOM     38  C   UNL A   1      44.582  20.258  23.974  1.00  0.00     0.251 C 
ATOM     39  H   UNL A   1      44.394  18.276  24.362  1.00  0.00     0.163 HD
ATOM     40  O   UNL A   1      44.975  20.151  22.819  1.00  0.00    -0.269 OA
BRANCH  38  41
ATOM     41  C   UNL A   1      44.613  21.572  24.647  1.00  0.00     0.039 A 
ATOM     42  C   UNL A   1      43.814  22.633  24.224  1.00  0.00     0.014 A 
ATOM     43  C   UNL A   1      45.443  21.712  25.756  1.00  0.00     0.014 A 
ATOM     44  C   UNL A   1      43.785  23.803  24.987  1.00  0.00     0.010 A 
ATOM     45  C   UNL A   1      45.358  22.836  26.550  1.00  0.00     0.010 A 
ATOM     46  C   UNL A   1      44.541  23.895  26.167  1.00  0.00    -0.014 A 
BRANCH  46  47
ATOM     47  C   UNL A   1      44.352  25.021  27.085  1.00  0.00     0.031 A 
ATOM     48  C   UNL A   1      45.394  26.086  27.031  1.00  0.00     0.074 A 
ATOM     49  C   UNL A   1      43.217  25.266  27.776  1.00  0.00     0.049 A 
ATOM     50  N   UNL A   1      46.167  26.474  27.991  1.00  0.00    -0.248 NA
ATOM     51  C   UNL A   1      45.644  26.763  25.750  1.00  0.00     0.031 C 
ATOM     52  C   UNL A   1      41.957  24.526  27.731  1.00  0.00     0.029 A 
ATOM     53  N   UNL A   1      42.911  26.331  28.572  1.00  0.00    -0.354 N 
ATOM     54  C   UNL A   1      46.898  27.550  27.496  1.00  0.00     0.074 A 
ATOM     55  C   UNL A   1      46.623  27.609  26.081  1.00  0.00     0.031 C 
ATOM     56  C   UNL A   1      40.965  25.291  28.238  1.00  0.00     0.029 A 
ATOM     57  C   UNL A   1      41.552  26.486  28.814  1.00  0.00     0.049 A 
ATOM     58  H   UNL A   1      43.594  26.935  28.943  1.00  0.00     0.167 HD
ATOM     59  C   UNL A   1      47.524  28.434  28.323  1.00  0.00     0.031 A 
ATOM     60  C   UNL A   1      40.944  27.529  29.427  1.00  0.00     0.031 A 
ATOM     61  C   UNL A   1      47.609  27.943  29.673  1.00  0.00     0.049 A 
ATOM     62  C   UNL A   1      41.963  28.229  30.236  1.00  0.00     0.074 A 
ATOM     63  C   UNL A   1      48.163  26.833  30.279  1.00  0.00     0.029 A 
ATOM     64  N   UNL A   1      46.736  28.471  30.593  1.00  0.00    -0.354 N 
ATOM     65  N   UNL A   1      42.513  27.717  31.297  1.00  0.00    -0.248 NA
ATOM     66  C   UNL A   1      42.668  29.356  29.649  1.00  0.00     0.031 C 
ATOM     67  C   UNL A   1      47.238  26.475  31.305  1.00  0.00     0.029 A 
ATOM     68  C   UNL A   1      46.210  27.420  31.297  1.00  0.00     0.049 A 
ATOM     69  H   UNL A   1      46.528  29.424  30.721  1.00  0.00     0.167 HD
ATOM     70  C   UNL A   1      43.833  28.135  31.241  1.00  0.00     0.074 A 
ATOM     71  C   UNL A   1      43.834  29.246  30.292  1.00  0.00     0.031 C 
ATOM     72  C   UNL A   1      44.838  27.359  31.747  1.00  0.00     0.031 A 
BRANCH  59  73
ATOM     73  C   UNL A   1      47.729  29.894  28.005  1.00  0.00    -0.014 A 
ATOM     74  C   UNL A   1      46.608  30.682  27.681  1.00  0.00     0.009 A 
ATOM     75  C   UNL A   1      48.993  30.449  27.732  1.00  0.00     0.009 A 
ATOM     76  C   UNL A   1      46.746  31.925  27.053  1.00  0.00     0.001 A 
ATOM     77  C   UNL A   1      49.135  31.710  27.145  1.00  0.00     0.001 A 
ATOM     78  C   UNL A   1      48.011  32.436  26.779  1.00  0.00     0.000 A 
ENDBRANCH  59  73
BRANCH  60  79
ATOM     79  C   UNL A   1      39.589  28.080  29.226  1.00  0.00    -0.014 A 
ATOM     80  C   UNL A   1      38.703  28.211  30.307  1.00  0.00     0.009 A 
ATOM     81  C   UNL A   1      39.264  28.738  28.026  1.00  0.00     0.009 A 
ATOM     82  C   UNL A   1      37.562  29.017  30.208  1.00  0.00     0.001 A 
ATOM     83  C   UNL A   1      38.124  29.540  27.926  1.00  0.00     0.001 A 
ATOM     84  C   UNL A   1      37.283  29.695  29.023  1.00  0.00     0.000 A 
ENDBRANCH  60  79
BRANCH  72  85
ATOM     85  C   UNL A   1      44.456  26.179  32.610  1.00  0.00    -0.014 A 
ATOM     86  C   UNL A   1      44.447  24.852  32.142  1.00  0.00     0.009 A 
ATOM     87  C   UNL A   1      44.218  26.399  33.974  1.00  0.00     0.009 A 
ATOM     88  C   UNL A   1      44.158  23.788  33.003  1.00  0.00     0.001 A 
ATOM     89  C   UNL A   1      43.956  25.335  34.839  1.00  0.00     0.001 A 
ATOM     90  C   UNL A   1      43.914  24.030  34.351  1.00  0.00     0.000 A 
ENDBRANCH  72  85
ENDBRANCH  46  47
ENDBRANCH  38  41
ENDBRANCH  36  37
ENDBRANCH  35  36
ENDBRANCH  34  35
ENDBRANCH   1  34
TORSDOF 17
ENDMDL
