MODEL 1
REMARK VINA RESULT:     -10.0      0.000      0.000
REMARK SMILES O=C(CNC(=O)CN1C(=O)S/C(=C\c2cccc(Br)c2)C1=O)NCCCCNC(=O)c1ccc(-c2c3nc(c(-c4ccccc4)c4ccc([nH]4)c(-c4ccccc4)c4nc(c(-c5ccccc5)c5ccc2[nH]5)C=C4)C=C3)cc1
REMARK SMILES IDX 24 1 23 2 1 3 2 4 3 6 4 7 5 8 6 10 7 11 8 12 9 13 21 14
REMARK SMILES IDX 10 15 11 16 12 17 22 18 13 19 14 20 15 21 20 22 16 23 18 24
REMARK SMILES IDX 17 25 19 26 25 27 26 28 27 29 28 30 29 31 30 33 31 34 32 35
REMARK SMILES IDX 78 36 33 37 77 38 34 39 35 40 36 41 71 42 37 43 76 44 70 45
REMARK SMILES IDX 72 46 38 47 75 48 69 49 68 50 39 52 61 53 46 54 60 55 47 56
REMARK SMILES IDX 50 57 59 58 73 59 48 60 49 61 58 63 74 64 51 65 40 66 41 67
REMARK SMILES IDX 45 68 42 69 44 70 43 71 62 72 63 73 67 74 64 75 66 76 65 77
REMARK SMILES IDX 52 78 53 79 57 80 54 81 56 82 55 83
REMARK H PARENT 23 5 4 9 28 32 72 51 50 62
REMARK Flexibility Score: inf
ROOT
ATOM      1  C   UNL A   1      33.040  35.357  29.582  1.00  0.00     0.116 C 
ENDROOT
BRANCH   1   2
ATOM      2  N   UNL A   1      33.713  35.837  30.776  1.00  0.00    -0.355 N 
ATOM      3  O   UNL A   1      31.938  35.513  32.191  1.00  0.00    -0.273 OA
ATOM      4  C   UNL A   1      33.114  35.818  32.019  1.00  0.00     0.239 C 
ATOM      5  H   UNL A   1      34.628  36.190  30.695  1.00  0.00     0.163 HD
BRANCH   4   6
ATOM      6  C   UNL A   1      33.995  36.324  33.169  1.00  0.00     0.216 C 
BRANCH   6   7
ATOM      7  N   UNL A   1      34.325  35.278  34.129  1.00  0.00    -0.345 N 
ATOM      8  C   UNL A   1      35.410  34.465  34.212  1.00  0.00     0.240 C 
ATOM      9  H   UNL A   1      33.650  35.139  34.833  1.00  0.00     0.164 HD
ATOM     10  O   UNL A   1      35.537  33.811  35.250  1.00  0.00    -0.273 OA
BRANCH   8  11
ATOM     11  C   UNL A   1      36.483  34.424  33.123  1.00  0.00     0.229 C 
BRANCH  11  12
ATOM     12  N   UNL A   1      37.657  33.634  33.455  1.00  0.00    -0.259 N 
ATOM     13  C   UNL A   1      38.771  34.224  33.981  1.00  0.00     0.294 C 
ATOM     14  C   UNL A   1      37.756  32.297  33.143  1.00  0.00     0.268 C 
ATOM     15  O   UNL A   1      38.862  35.355  34.435  1.00  0.00    -0.261 OA
ATOM     16  S   UNL A   1      40.104  33.082  34.016  1.00  0.00    -0.022 SA
ATOM     17  C   UNL A   1      39.078  31.773  33.582  1.00  0.00     0.083 C 
ATOM     18  O   UNL A   1      36.891  31.617  32.615  1.00  0.00    -0.268 OA
ATOM     19  C   UNL A   1      39.310  30.459  33.710  1.00  0.00     0.029 C 
BRANCH  19  20
ATOM     20  C   UNL A   1      40.486  29.878  34.368  1.00  0.00    -0.023 A 
ATOM     21  C   UNL A   1      40.863  30.375  35.623  1.00  0.00     0.008 A 
ATOM     22  C   UNL A   1      41.244  28.865  33.778  1.00  0.00     0.023 A 
ATOM     23  C   UNL A   1      42.016  29.916  36.258  1.00  0.00     0.002 A 
ATOM     24  C   UNL A   1      42.381  28.385  34.434  1.00  0.00     0.018 A 
ATOM     25  C   UNL A   1      42.779  28.916  35.662  1.00  0.00     0.016 A 
ATOM     26  Br  UNL A   1      43.394  26.992  33.655  1.00  0.00    -0.051 Br
ENDBRANCH  19  20
ENDBRANCH  11  12
ENDBRANCH   8  11
ENDBRANCH   6   7
ENDBRANCH   4   6
ENDBRANCH   1   2
BRANCH   1  27
ATOM     27  C   UNL A   1      34.006  34.868  28.506  1.00  0.00     0.023 C 
BRANCH  27  28
ATOM     28  C   UNL A   1      35.223  34.126  29.052  1.00  0.00     0.023 C 
BRANCH  28  29
ATOM     29  C   UNL A   1      34.955  32.803  29.753  1.00  0.00     0.116 C 
BRANCH  29  30
ATOM     30  N   UNL A   1      34.231  31.871  28.905  1.00  0.00    -0.352 N 
ATOM     31  C   UNL A   1      34.667  30.735  28.267  1.00  0.00     0.251 C 
ATOM     32  H   UNL A   1      33.280  32.088  28.768  1.00  0.00     0.163 HD
ATOM     33  O   UNL A   1      33.933  30.192  27.445  1.00  0.00    -0.269 OA
BRANCH  31  34
ATOM     34  C   UNL A   1      36.012  30.168  28.534  1.00  0.00     0.039 A 
ATOM     35  C   UNL A   1      36.989  30.264  27.537  1.00  0.00     0.014 A 
ATOM     36  C   UNL A   1      36.315  29.513  29.731  1.00  0.00     0.014 A 
ATOM     37  C   UNL A   1      38.273  29.757  27.760  1.00  0.00     0.010 A 
ATOM     38  C   UNL A   1      37.618  29.087  29.987  1.00  0.00     0.010 A 
ATOM     39  C   UNL A   1      38.610  29.195  29.002  1.00  0.00    -0.014 A 
BRANCH  39  40
ATOM     40  C   UNL A   1      39.990  28.716  29.284  1.00  0.00     0.031 A 
ATOM     41  C   UNL A   1      40.970  29.595  30.017  1.00  0.00     0.074 A 
ATOM     42  C   UNL A   1      40.385  27.508  28.835  1.00  0.00     0.049 A 
ATOM     43  N   UNL A   1      42.224  29.366  30.314  1.00  0.00    -0.248 NA
ATOM     44  C   UNL A   1      40.482  30.913  30.455  1.00  0.00     0.031 C 
ATOM     45  C   UNL A   1      39.548  26.568  28.086  1.00  0.00     0.029 A 
ATOM     46  N   UNL A   1      41.593  26.865  28.941  1.00  0.00    -0.354 N 
ATOM     47  C   UNL A   1      42.678  30.514  30.954  1.00  0.00     0.074 A 
ATOM     48  C   UNL A   1      41.580  31.456  30.960  1.00  0.00     0.031 C 
ATOM     49  C   UNL A   1      40.257  25.456  27.831  1.00  0.00     0.029 A 
ATOM     50  C   UNL A   1      41.611  25.623  28.350  1.00  0.00     0.049 A 
ATOM     51  H   UNL A   1      42.373  27.256  29.395  1.00  0.00     0.167 HD
ATOM     52  C   UNL A   1      43.893  30.758  31.502  1.00  0.00     0.031 A 
ATOM     53  C   UNL A   1      42.604  24.723  28.231  1.00  0.00     0.031 A 
ATOM     54  C   UNL A   1      44.987  29.824  31.500  1.00  0.00     0.049 A 
ATOM     55  C   UNL A   1      43.955  25.034  28.818  1.00  0.00     0.074 A 
ATOM     56  C   UNL A   1      46.237  29.958  32.080  1.00  0.00     0.029 A 
ATOM     57  N   UNL A   1      44.966  28.583  30.880  1.00  0.00    -0.354 N 
ATOM     58  N   UNL A   1      44.344  26.094  29.483  1.00  0.00    -0.248 NA
ATOM     59  C   UNL A   1      45.000  24.016  28.643  1.00  0.00     0.031 C 
ATOM     60  C   UNL A   1      46.994  28.829  31.754  1.00  0.00     0.029 A 
ATOM     61  C   UNL A   1      46.193  27.958  31.035  1.00  0.00     0.049 A 
ATOM     62  H   UNL A   1      44.194  28.204  30.401  1.00  0.00     0.167 HD
ATOM     63  C   UNL A   1      45.667  25.857  29.833  1.00  0.00     0.074 A 
ATOM     64  C   UNL A   1      46.007  24.545  29.322  1.00  0.00     0.031 C 
ATOM     65  C   UNL A   1      46.522  26.653  30.521  1.00  0.00     0.031 A 
BRANCH  52  66
ATOM     66  C   UNL A   1      44.112  32.107  32.137  1.00  0.00    -0.014 A 
ATOM     67  C   UNL A   1      44.543  33.210  31.382  1.00  0.00     0.009 A 
ATOM     68  C   UNL A   1      43.840  32.286  33.502  1.00  0.00     0.009 A 
ATOM     69  C   UNL A   1      44.736  34.453  31.991  1.00  0.00     0.001 A 
ATOM     70  C   UNL A   1      44.003  33.536  34.101  1.00  0.00     0.001 A 
ATOM     71  C   UNL A   1      44.460  34.616  33.348  1.00  0.00     0.000 A 
ENDBRANCH  52  66
BRANCH  53  72
ATOM     72  C   UNL A   1      42.364  23.431  27.535  1.00  0.00    -0.014 A 
ATOM     73  C   UNL A   1      41.819  22.339  28.228  1.00  0.00     0.009 A 
ATOM     74  C   UNL A   1      42.691  23.277  26.179  1.00  0.00     0.009 A 
ATOM     75  C   UNL A   1      41.636  21.112  27.586  1.00  0.00     0.001 A 
ATOM     76  C   UNL A   1      42.476  22.058  25.531  1.00  0.00     0.001 A 
ATOM     77  C   UNL A   1      41.960  20.974  26.237  1.00  0.00     0.000 A 
ENDBRANCH  53  72
BRANCH  65  78
ATOM     78  C   UNL A   1      47.898  26.113  30.799  1.00  0.00    -0.014 A 
ATOM     79  C   UNL A   1      48.913  26.153  29.830  1.00  0.00     0.009 A 
ATOM     80  C   UNL A   1      48.193  25.588  32.067  1.00  0.00     0.009 A 
ATOM     81  C   UNL A   1      50.182  25.647  30.115  1.00  0.00     0.001 A 
ATOM     82  C   UNL A   1      49.471  25.115  32.362  1.00  0.00     0.001 A 
ATOM     83  C   UNL A   1      50.462  25.134  31.382  1.00  0.00     0.000 A 
ENDBRANCH  65  78
ENDBRANCH  39  40
ENDBRANCH  31  34
ENDBRANCH  29  30
ENDBRANCH  28  29
ENDBRANCH  27  28
ENDBRANCH   1  27
TORSDOF 15
ENDMDL
MODEL 2
REMARK VINA RESULT:      -9.8      5.272     10.790
REMARK SMILES O=C(CNC(=O)CN1C(=O)S/C(=C\c2cccc(Br)c2)C1=O)NCCCCNC(=O)c1ccc(-c2c3nc(c(-c4ccccc4)c4ccc([nH]4)c(-c4ccccc4)c4nc(c(-c5ccccc5)c5ccc2[nH]5)C=C4)C=C3)cc1
REMARK SMILES IDX 24 1 23 2 1 3 2 4 3 6 4 7 5 8 6 10 7 11 8 12 9 13 21 14
REMARK SMILES IDX 10 15 11 16 12 17 22 18 13 19 14 20 15 21 20 22 16 23 18 24
REMARK SMILES IDX 17 25 19 26 25 27 26 28 27 29 28 30 29 31 30 33 31 34 32 35
REMARK SMILES IDX 78 36 33 37 77 38 34 39 35 40 36 41 71 42 37 43 76 44 70 45
REMARK SMILES IDX 72 46 38 47 75 48 69 49 68 50 39 52 61 53 46 54 60 55 47 56
REMARK SMILES IDX 50 57 59 58 73 59 48 60 49 61 58 63 74 64 51 65 40 66 41 67
REMARK SMILES IDX 45 68 42 69 44 70 43 71 62 72 63 73 67 74 64 75 66 76 65 77
REMARK SMILES IDX 52 78 53 79 57 80 54 81 56 82 55 83
REMARK H PARENT 23 5 4 9 28 32 72 51 50 62
REMARK Flexibility Score: inf
ROOT
ATOM      1  C   UNL A   1      31.931  28.288  27.318  1.00  0.00     0.116 C 
ENDROOT
BRANCH   1   2
ATOM      2  N   UNL A   1      31.829  26.941  26.786  1.00  0.00    -0.355 N 
ATOM      3  O   UNL A   1      33.884  26.936  25.769  1.00  0.00    -0.273 OA
ATOM      4  C   UNL A   1      32.860  26.342  26.093  1.00  0.00     0.239 C 
ATOM      5  H   UNL A   1      30.995  26.439  26.924  1.00  0.00     0.163 HD
BRANCH   4   6
ATOM      6  C   UNL A   1      32.587  24.899  25.646  1.00  0.00     0.216 C 
BRANCH   6   7
ATOM      7  N   UNL A   1      33.587  24.400  24.710  1.00  0.00    -0.345 N 
ATOM      8  C   UNL A   1      33.569  24.325  23.354  1.00  0.00     0.240 C 
ATOM      9  H   UNL A   1      34.411  24.064  25.131  1.00  0.00     0.164 HD
ATOM     10  O   UNL A   1      34.636  24.057  22.797  1.00  0.00    -0.273 OA
BRANCH   8  11
ATOM     11  C   UNL A   1      32.318  24.650  22.536  1.00  0.00     0.229 C 
BRANCH  11  12
ATOM     12  N   UNL A   1      31.903  26.041  22.586  1.00  0.00    -0.259 N 
ATOM     13  C   UNL A   1      32.765  27.041  22.231  1.00  0.00     0.294 C 
ATOM     14  C   UNL A   1      30.691  26.430  23.107  1.00  0.00     0.268 C 
ATOM     15  O   UNL A   1      33.830  26.923  21.645  1.00  0.00    -0.261 OA
ATOM     16  S   UNL A   1      32.089  28.604  22.654  1.00  0.00    -0.022 SA
ATOM     17  C   UNL A   1      30.565  27.911  23.047  1.00  0.00     0.083 C 
ATOM     18  O   UNL A   1      29.820  25.686  23.531  1.00  0.00    -0.268 OA
ATOM     19  C   UNL A   1      29.380  28.526  23.168  1.00  0.00     0.029 C 
BRANCH  19  20
ATOM     20  C   UNL A   1      29.140  29.943  22.873  1.00  0.00    -0.023 A 
ATOM     21  C   UNL A   1      29.393  30.886  23.877  1.00  0.00     0.008 A 
ATOM     22  C   UNL A   1      28.653  30.373  21.637  1.00  0.00     0.023 A 
ATOM     23  C   UNL A   1      29.109  32.237  23.679  1.00  0.00     0.002 A 
ATOM     24  C   UNL A   1      28.400  31.733  21.432  1.00  0.00     0.018 A 
ATOM     25  C   UNL A   1      28.610  32.663  22.451  1.00  0.00     0.016 A 
ATOM     26  Br  UNL A   1      27.772  32.326  19.750  1.00  0.00    -0.051 Br
ENDBRANCH  19  20
ENDBRANCH  11  12
ENDBRANCH   8  11
ENDBRANCH   6   7
ENDBRANCH   4   6
ENDBRANCH   1   2
BRANCH   1  27
ATOM     27  C   UNL A   1      31.594  29.366  26.289  1.00  0.00     0.023 C 
BRANCH  27  28
ATOM     28  C   UNL A   1      31.459  30.767  26.877  1.00  0.00     0.023 C 
BRANCH  28  29
ATOM     29  C   UNL A   1      32.651  31.697  26.701  1.00  0.00     0.116 C 
BRANCH  29  30
ATOM     30  N   UNL A   1      32.377  33.037  27.189  1.00  0.00    -0.352 N 
ATOM     31  C   UNL A   1      33.043  33.790  28.126  1.00  0.00     0.251 C 
ATOM     32  H   UNL A   1      31.591  33.474  26.785  1.00  0.00     0.163 HD
ATOM     33  O   UNL A   1      32.533  34.833  28.527  1.00  0.00    -0.269 OA
BRANCH  31  34
ATOM     34  C   UNL A   1      34.352  33.356  28.675  1.00  0.00     0.039 A 
ATOM     35  C   UNL A   1      34.374  32.701  29.911  1.00  0.00     0.014 A 
ATOM     36  C   UNL A   1      35.556  33.616  28.014  1.00  0.00     0.014 A 
ATOM     37  C   UNL A   1      35.587  32.261  30.451  1.00  0.00     0.010 A 
ATOM     38  C   UNL A   1      36.753  33.102  28.510  1.00  0.00     0.010 A 
ATOM     39  C   UNL A   1      36.785  32.427  29.738  1.00  0.00    -0.014 A 
BRANCH  39  40
ATOM     40  C   UNL A   1      38.075  31.902  30.262  1.00  0.00     0.031 A 
ATOM     41  C   UNL A   1      38.652  30.618  29.727  1.00  0.00     0.074 A 
ATOM     42  C   UNL A   1      38.706  32.552  31.260  1.00  0.00     0.049 A 
ATOM     43  N   UNL A   1      39.740  29.985  30.090  1.00  0.00    -0.248 NA
ATOM     44  C   UNL A   1      37.897  29.945  28.657  1.00  0.00     0.031 C 
ATOM     45  C   UNL A   1      38.243  33.789  31.892  1.00  0.00     0.029 A 
ATOM     46  N   UNL A   1      39.873  32.258  31.922  1.00  0.00    -0.354 N 
ATOM     47  C   UNL A   1      39.789  28.836  29.310  1.00  0.00     0.074 A 
ATOM     48  C   UNL A   1      38.599  28.833  28.488  1.00  0.00     0.031 C 
ATOM     49  C   UNL A   1      39.133  34.167  32.824  1.00  0.00     0.029 A 
ATOM     50  C   UNL A   1      40.201  33.175  32.893  1.00  0.00     0.049 A 
ATOM     51  H   UNL A   1      40.422  31.467  31.721  1.00  0.00     0.167 HD
ATOM     52  C   UNL A   1      40.744  27.876  29.269  1.00  0.00     0.031 A 
ATOM     53  C   UNL A   1      41.239  33.210  33.750  1.00  0.00     0.031 A 
ATOM     54  C   UNL A   1      41.930  27.876  30.084  1.00  0.00     0.049 A 
ATOM     55  C   UNL A   1      42.268  32.113  33.707  1.00  0.00     0.074 A 
ATOM     56  C   UNL A   1      42.983  26.977  30.072  1.00  0.00     0.029 A 
ATOM     57  N   UNL A   1      42.217  28.815  31.063  1.00  0.00    -0.354 N 
ATOM     58  N   UNL A   1      42.336  31.073  32.913  1.00  0.00    -0.248 NA
ATOM     59  C   UNL A   1      43.369  32.203  34.676  1.00  0.00     0.031 C 
ATOM     60  C   UNL A   1      43.874  27.335  31.089  1.00  0.00     0.029 A 
ATOM     61  C   UNL A   1      43.413  28.498  31.684  1.00  0.00     0.049 A 
ATOM     62  H   UNL A   1      41.653  29.592  31.283  1.00  0.00     0.167 HD
ATOM     63  C   UNL A   1      43.502  30.403  33.264  1.00  0.00     0.074 A 
ATOM     64  C   UNL A   1      44.117  31.165  34.331  1.00  0.00     0.031 C 
ATOM     65  C   UNL A   1      44.017  29.262  32.746  1.00  0.00     0.031 A 
BRANCH  52  66
ATOM     66  C   UNL A   1      40.535  26.726  28.318  1.00  0.00    -0.014 A 
ATOM     67  C   UNL A   1      39.837  25.571  28.708  1.00  0.00     0.009 A 
ATOM     68  C   UNL A   1      41.006  26.819  26.999  1.00  0.00     0.009 A 
ATOM     69  C   UNL A   1      39.652  24.518  27.808  1.00  0.00     0.001 A 
ATOM     70  C   UNL A   1      40.791  25.779  26.093  1.00  0.00     0.001 A 
ATOM     71  C   UNL A   1      40.124  24.626  26.501  1.00  0.00     0.000 A 
ENDBRANCH  52  66
BRANCH  53  72
ATOM     72  C   UNL A   1      41.370  34.330  34.720  1.00  0.00    -0.014 A 
ATOM     73  C   UNL A   1      40.801  34.235  35.999  1.00  0.00     0.009 A 
ATOM     74  C   UNL A   1      42.052  35.505  34.369  1.00  0.00     0.009 A 
ATOM     75  C   UNL A   1      40.884  35.304  36.894  1.00  0.00     0.001 A 
ATOM     76  C   UNL A   1      42.163  36.560  35.278  1.00  0.00     0.001 A 
ATOM     77  C   UNL A   1      41.569  36.464  36.535  1.00  0.00     0.000 A 
ENDBRANCH  53  72
BRANCH  65  78
ATOM     78  C   UNL A   1      45.334  28.787  33.296  1.00  0.00    -0.014 A 
ATOM     79  C   UNL A   1      46.554  29.199  32.739  1.00  0.00     0.009 A 
ATOM     80  C   UNL A   1      45.352  27.940  34.416  1.00  0.00     0.009 A 
ATOM     81  C   UNL A   1      47.763  28.745  33.271  1.00  0.00     0.001 A 
ATOM     82  C   UNL A   1      46.560  27.515  34.967  1.00  0.00     0.001 A 
ATOM     83  C   UNL A   1      47.766  27.909  34.387  1.00  0.00     0.000 A 
ENDBRANCH  65  78
ENDBRANCH  39  40
ENDBRANCH  31  34
ENDBRANCH  29  30
ENDBRANCH  28  29
ENDBRANCH  27  28
ENDBRANCH   1  27
TORSDOF 15
ENDMDL
MODEL 3
REMARK VINA RESULT:      -9.8      5.209      8.513
REMARK SMILES O=C(CNC(=O)CN1C(=O)S/C(=C\c2cccc(Br)c2)C1=O)NCCCCNC(=O)c1ccc(-c2c3nc(c(-c4ccccc4)c4ccc([nH]4)c(-c4ccccc4)c4nc(c(-c5ccccc5)c5ccc2[nH]5)C=C4)C=C3)cc1
REMARK SMILES IDX 24 1 23 2 1 3 2 4 3 6 4 7 5 8 6 10 7 11 8 12 9 13 21 14
REMARK SMILES IDX 10 15 11 16 12 17 22 18 13 19 14 20 15 21 20 22 16 23 18 24
REMARK SMILES IDX 17 25 19 26 25 27 26 28 27 29 28 30 29 31 30 33 31 34 32 35
REMARK SMILES IDX 78 36 33 37 77 38 34 39 35 40 36 41 71 42 37 43 76 44 70 45
REMARK SMILES IDX 72 46 38 47 75 48 69 49 68 50 39 52 61 53 46 54 60 55 47 56
REMARK SMILES IDX 50 57 59 58 73 59 48 60 49 61 58 63 74 64 51 65 40 66 41 67
REMARK SMILES IDX 45 68 42 69 44 70 43 71 62 72 63 73 67 74 64 75 66 76 65 77
REMARK SMILES IDX 52 78 53 79 57 80 54 81 56 82 55 83
REMARK H PARENT 23 5 4 9 28 32 72 51 50 62
REMARK Flexibility Score: inf
ROOT
ATOM      1  C   UNL A   1      31.079  29.187  24.307  1.00  0.00     0.116 C 
ENDROOT
BRANCH   1   2
ATOM      2  N   UNL A   1      30.664  27.797  24.355  1.00  0.00    -0.355 N 
ATOM      3  O   UNL A   1      30.595  27.494  22.084  1.00  0.00    -0.273 OA
ATOM      4  C   UNL A   1      30.512  27.032  23.217  1.00  0.00     0.239 C 
ATOM      5  H   UNL A   1      30.483  27.386  25.231  1.00  0.00     0.163 HD
BRANCH   4   6
ATOM      6  C   UNL A   1      30.110  25.572  23.467  1.00  0.00     0.216 C 
BRANCH   6   7
ATOM      7  N   UNL A   1      30.192  25.198  24.873  1.00  0.00    -0.345 N 
ATOM      8  C   UNL A   1      31.261  24.839  25.632  1.00  0.00     0.240 C 
ATOM      9  H   UNL A   1      29.331  25.208  25.352  1.00  0.00     0.164 HD
ATOM     10  O   UNL A   1      31.083  24.779  26.851  1.00  0.00    -0.273 OA
BRANCH   8  11
ATOM     11  C   UNL A   1      32.649  24.613  25.030  1.00  0.00     0.229 C 
BRANCH  11  12
ATOM     12  N   UNL A   1      33.123  23.241  25.093  1.00  0.00    -0.259 N 
ATOM     13  C   UNL A   1      34.111  22.882  25.966  1.00  0.00     0.294 C 
ATOM     14  C   UNL A   1      32.706  22.277  24.205  1.00  0.00     0.268 C 
ATOM     15  O   UNL A   1      34.539  23.536  26.905  1.00  0.00    -0.261 OA
ATOM     16  S   UNL A   1      34.661  21.251  25.623  1.00  0.00    -0.022 SA
ATOM     17  C   UNL A   1      33.384  20.986  24.503  1.00  0.00     0.083 C 
ATOM     18  O   UNL A   1      31.880  22.427  23.317  1.00  0.00    -0.268 OA
ATOM     19  C   UNL A   1      32.926  19.820  24.027  1.00  0.00     0.029 C 
BRANCH  19  20
ATOM     20  C   UNL A   1      33.382  18.499  24.473  1.00  0.00    -0.023 A 
ATOM     21  C   UNL A   1      34.736  18.175  24.326  1.00  0.00     0.008 A 
ATOM     22  C   UNL A   1      32.508  17.557  25.019  1.00  0.00     0.023 A 
ATOM     23  C   UNL A   1      35.210  16.906  24.661  1.00  0.00     0.002 A 
ATOM     24  C   UNL A   1      32.994  16.297  25.383  1.00  0.00     0.018 A 
ATOM     25  C   UNL A   1      34.335  15.962  25.192  1.00  0.00     0.016 A 
ATOM     26  Br  UNL A   1      31.823  15.028  26.153  1.00  0.00    -0.051 Br
ENDBRANCH  19  20
ENDBRANCH  11  12
ENDBRANCH   8  11
ENDBRANCH   6   7
ENDBRANCH   4   6
ENDBRANCH   1   2
BRANCH   1  27
ATOM     27  C   UNL A   1      32.099  29.545  25.386  1.00  0.00     0.023 C 
BRANCH  27  28
ATOM     28  C   UNL A   1      32.846  28.345  25.959  1.00  0.00     0.023 C 
BRANCH  28  29
ATOM     29  C   UNL A   1      33.612  28.574  27.253  1.00  0.00     0.116 C 
BRANCH  29  30
ATOM     30  N   UNL A   1      33.596  29.969  27.659  1.00  0.00    -0.352 N 
ATOM     31  C   UNL A   1      34.555  30.713  28.304  1.00  0.00     0.251 C 
ATOM     32  H   UNL A   1      32.769  30.456  27.437  1.00  0.00     0.163 HD
ATOM     33  O   UNL A   1      34.264  31.831  28.720  1.00  0.00    -0.269 OA
BRANCH  31  34
ATOM     34  C   UNL A   1      35.923  30.182  28.526  1.00  0.00     0.039 A 
ATOM     35  C   UNL A   1      36.835  30.219  27.465  1.00  0.00     0.014 A 
ATOM     36  C   UNL A   1      36.310  29.618  29.744  1.00  0.00     0.014 A 
ATOM     37  C   UNL A   1      38.138  29.745  27.642  1.00  0.00     0.010 A 
ATOM     38  C   UNL A   1      37.633  29.226  29.947  1.00  0.00     0.010 A 
ATOM     39  C   UNL A   1      38.561  29.276  28.897  1.00  0.00    -0.014 A 
BRANCH  39  40
ATOM     40  C   UNL A   1      39.963  28.835  29.125  1.00  0.00     0.031 A 
ATOM     41  C   UNL A   1      40.966  29.770  29.749  1.00  0.00     0.074 A 
ATOM     42  C   UNL A   1      40.354  27.610  28.721  1.00  0.00     0.049 A 
ATOM     43  N   UNL A   1      42.240  29.577  29.986  1.00  0.00    -0.248 NA
ATOM     44  C   UNL A   1      40.479  31.103  30.141  1.00  0.00     0.031 C 
ATOM     45  C   UNL A   1      39.494  26.617  28.075  1.00  0.00     0.029 A 
ATOM     46  N   UNL A   1      41.579  26.993  28.792  1.00  0.00    -0.354 N 
ATOM     47  C   UNL A   1      42.708  30.766  30.534  1.00  0.00     0.074 A 
ATOM     48  C   UNL A   1      41.595  31.690  30.551  1.00  0.00     0.031 C 
ATOM     49  C   UNL A   1      40.207  25.503  27.841  1.00  0.00     0.029 A 
ATOM     50  C   UNL A   1      41.585  25.721  28.272  1.00  0.00     0.049 A 
ATOM     51  H   UNL A   1      42.376  27.421  29.178  1.00  0.00     0.167 HD
ATOM     52  C   UNL A   1      43.947  31.060  30.996  1.00  0.00     0.031 A 
ATOM     53  C   UNL A   1      42.587  24.830  28.145  1.00  0.00     0.031 A 
ATOM     54  C   UNL A   1      45.057  30.143  30.982  1.00  0.00     0.049 A 
ATOM     55  C   UNL A   1      43.963  25.195  28.634  1.00  0.00     0.074 A 
ATOM     56  C   UNL A   1      46.335  30.330  31.481  1.00  0.00     0.029 A 
ATOM     57  N   UNL A   1      45.023  28.870  30.435  1.00  0.00    -0.354 N 
ATOM     58  N   UNL A   1      44.369  26.297  29.216  1.00  0.00    -0.248 NA
ATOM     59  C   UNL A   1      45.015  24.185  28.456  1.00  0.00     0.031 C 
ATOM     60  C   UNL A   1      47.093  29.196  31.175  1.00  0.00     0.029 A 
ATOM     61  C   UNL A   1      46.268  28.273  30.552  1.00  0.00     0.049 A 
ATOM     62  H   UNL A   1      44.232  28.452  30.023  1.00  0.00     0.167 HD
ATOM     63  C   UNL A   1      45.715  26.100  29.502  1.00  0.00     0.074 A 
ATOM     64  C   UNL A   1      46.049  24.767  29.046  1.00  0.00     0.031 C 
ATOM     65  C   UNL A   1      46.592  26.947  30.094  1.00  0.00     0.031 A 
BRANCH  52  66
ATOM     66  C   UNL A   1      44.176  32.445  31.541  1.00  0.00    -0.014 A 
ATOM     67  C   UNL A   1      43.960  32.743  32.896  1.00  0.00     0.009 A 
ATOM     68  C   UNL A   1      44.658  33.456  30.695  1.00  0.00     0.009 A 
ATOM     69  C   UNL A   1      44.182  34.034  33.382  1.00  0.00     0.001 A 
ATOM     70  C   UNL A   1      44.910  34.737  31.190  1.00  0.00     0.001 A 
ATOM     71  C   UNL A   1      44.663  35.028  32.530  1.00  0.00     0.000 A 
ENDBRANCH  52  66
BRANCH  53  72
ATOM     72  C   UNL A   1      42.332  23.497  27.537  1.00  0.00    -0.014 A 
ATOM     73  C   UNL A   1      42.538  23.288  26.165  1.00  0.00     0.009 A 
ATOM     74  C   UNL A   1      41.866  22.431  28.322  1.00  0.00     0.009 A 
ATOM     75  C   UNL A   1      42.254  22.050  25.586  1.00  0.00     0.001 A 
ATOM     76  C   UNL A   1      41.614  21.183  27.745  1.00  0.00     0.001 A 
ATOM     77  C   UNL A   1      41.797  20.997  26.377  1.00  0.00     0.000 A 
ENDBRANCH  53  72
BRANCH  65  78
ATOM     78  C   UNL A   1      47.991  26.445  30.321  1.00  0.00    -0.014 A 
ATOM     79  C   UNL A   1      48.345  25.761  31.495  1.00  0.00     0.009 A 
ATOM     80  C   UNL A   1      48.963  26.626  29.323  1.00  0.00     0.009 A 
ATOM     81  C   UNL A   1      49.652  25.303  31.679  1.00  0.00     0.001 A 
ATOM     82  C   UNL A   1      50.258  26.137  29.494  1.00  0.00     0.001 A 
ATOM     83  C   UNL A   1      50.605  25.485  30.677  1.00  0.00     0.000 A 
ENDBRANCH  65  78
ENDBRANCH  39  40
ENDBRANCH  31  34
ENDBRANCH  29  30
ENDBRANCH  28  29
ENDBRANCH  27  28
ENDBRANCH   1  27
TORSDOF 15
ENDMDL
