MODEL 1
REMARK VINA RESULT:     -10.9      0.000      0.000
REMARK SMILES CC[C@@](C)([NH2+]CC(=O)N[C@]1(C)CCS(=O)(=O)C1)C(=O)NCCCCNC(=O)c1ccc(-c2c3nc(c(-c4ccccc4)c4ccc([nH]4)c(-c4ccccc4)c4nc(c(-c5ccccc5)c5ccc2[nH]5)C=C4)C=C3)cc1
REMARK SMILES IDX 21 1 20 2 18 3 19 4 3 6 4 7 2 8 1 9 5 10 6 13 7 14 8 15 9 16
REMARK SMILES IDX 10 18 12 19 17 20 11 21 13 22 14 23 15 24 16 25 22 26 23 27
REMARK SMILES IDX 24 28 25 29 26 30 27 32 28 33 29 34 75 35 30 36 74 37 31 38
REMARK SMILES IDX 32 39 33 40 68 41 34 42 73 43 67 44 69 45 35 46 72 47 66 48
REMARK SMILES IDX 65 49 36 51 58 52 43 53 57 54 44 55 47 56 56 57 70 58 45 59
REMARK SMILES IDX 46 60 55 62 71 63 48 64 37 65 38 66 42 67 39 68 41 69 40 70
REMARK SMILES IDX 59 71 60 72 64 73 61 74 63 75 62 76 49 77 50 78 54 79 51 80
REMARK SMILES IDX 53 81 52 82
REMARK H PARENT 20 5 5 11 5 12 9 17 25 31 69 50 47 61
REMARK Flexibility Score: inf
ROOT
ATOM      1  C   UNL A   1      35.606  22.695  24.115  1.00  0.00     0.116 C 
ENDROOT
BRANCH   1   2
ATOM      2  N   UNL A   1      34.949  22.390  25.366  1.00  0.00    -0.351 N 
ATOM      3  C   UNL A   1      34.037  21.486  25.818  1.00  0.00     0.281 C 
ATOM      4  O   UNL A   1      34.293  21.201  27.000  1.00  0.00    -0.268 OA
ATOM      5  H   UNL A   1      35.238  22.999  26.083  1.00  0.00     0.163 HD
BRANCH   3   6
ATOM      6  C   UNL A   1      32.704  20.877  25.075  1.00  0.00     0.172 C 
ATOM      7  C   UNL A   1      32.252  20.824  23.599  1.00  0.00     0.090 C 
BRANCH   6   8
ATOM      8  C   UNL A   1      32.881  19.324  25.379  1.00  0.00     0.075 C 
ATOM      9  C   UNL A   1      32.527  18.402  24.174  1.00  0.00     0.011 C 
ENDBRANCH   6   8
BRANCH   6  10
ATOM     10  N   UNL A   1      31.541  21.469  25.737  1.00  0.00    -0.326 N 
ATOM     11  H   UNL A   1      31.750  21.477  26.736  1.00  0.00     0.347 HD
ATOM     12  H   UNL A   1      30.777  20.883  25.402  1.00  0.00     0.347 HD
BRANCH  10  13
ATOM     13  C   UNL A   1      31.066  22.830  25.399  1.00  0.00     0.362 C 
BRANCH  13  14
ATOM     14  C   UNL A   1      31.316  24.188  26.131  1.00  0.00     0.275 C 
ATOM     15  O   UNL A   1      30.990  24.184  27.340  1.00  0.00    -0.268 OA
ATOM     16  N   UNL A   1      31.908  25.375  25.848  1.00  0.00    -0.345 N 
ATOM     17  H   UNL A   1      31.769  25.903  26.667  1.00  0.00     0.164 HD
BRANCH  16  18
ATOM     18  C   UNL A   1      32.681  26.333  24.925  1.00  0.00     0.052 C 
ATOM     19  C   UNL A   1      31.628  26.942  23.931  1.00  0.00     0.045 C 
ATOM     20  C   UNL A   1      33.820  25.791  24.033  1.00  0.00     0.165 C 
ATOM     21  C   UNL A   1      33.206  27.527  25.748  1.00  0.00     0.036 C 
ATOM     22  C   UNL A   1      31.569  26.057  22.700  1.00  0.00     0.139 C 
ATOM     23  S   UNL A   1      33.279  25.797  22.330  1.00  0.00     0.152 S 
ATOM     24  O   UNL A   1      33.795  26.999  21.697  1.00  0.00    -0.229 OA
ATOM     25  O   UNL A   1      33.442  24.497  21.731  1.00  0.00    -0.229 OA
ENDBRANCH  16  18
ENDBRANCH  13  14
ENDBRANCH  10  13
ENDBRANCH   6  10
ENDBRANCH   3   6
ENDBRANCH   1   2
BRANCH   1  26
ATOM     26  C   UNL A   1      37.060  22.220  24.004  1.00  0.00     0.023 C 
BRANCH  26  27
ATOM     27  C   UNL A   1      37.383  20.998  24.858  1.00  0.00     0.023 C 
BRANCH  27  28
ATOM     28  C   UNL A   1      38.647  21.131  25.706  1.00  0.00     0.116 C 
BRANCH  28  29
ATOM     29  N   UNL A   1      39.512  19.957  25.678  1.00  0.00    -0.352 N 
ATOM     30  C   UNL A   1      40.838  19.858  26.044  1.00  0.00     0.251 C 
ATOM     31  H   UNL A   1      39.094  19.126  25.355  1.00  0.00     0.163 HD
ATOM     32  O   UNL A   1      41.462  18.817  25.883  1.00  0.00    -0.269 OA
BRANCH  30  33
ATOM     33  C   UNL A   1      41.515  21.050  26.597  1.00  0.00     0.039 A 
ATOM     34  C   UNL A   1      42.027  22.008  25.722  1.00  0.00     0.014 A 
ATOM     35  C   UNL A   1      41.550  21.258  27.978  1.00  0.00     0.014 A 
ATOM     36  C   UNL A   1      42.488  23.224  26.232  1.00  0.00     0.010 A 
ATOM     37  C   UNL A   1      41.915  22.505  28.472  1.00  0.00     0.010 A 
ATOM     38  C   UNL A   1      42.386  23.503  27.605  1.00  0.00    -0.014 A 
BRANCH  38  39
ATOM     39  C   UNL A   1      42.764  24.832  28.153  1.00  0.00     0.031 A 
ATOM     40  C   UNL A   1      41.713  25.889  28.356  1.00  0.00     0.074 A 
ATOM     41  C   UNL A   1      44.059  25.112  28.410  1.00  0.00     0.049 A 
ATOM     42  N   UNL A   1      41.850  27.121  28.779  1.00  0.00    -0.248 NA
ATOM     43  C   UNL A   1      40.329  25.526  28.011  1.00  0.00     0.031 C 
ATOM     44  C   UNL A   1      45.183  24.192  28.215  1.00  0.00     0.029 A 
ATOM     45  N   UNL A   1      44.649  26.255  28.891  1.00  0.00    -0.354 N 
ATOM     46  C   UNL A   1      40.579  27.679  28.732  1.00  0.00     0.074 A 
ATOM     47  C   UNL A   1      39.695  26.675  28.183  1.00  0.00     0.031 C 
ATOM     48  C   UNL A   1      46.317  24.792  28.613  1.00  0.00     0.029 A 
ATOM     49  C   UNL A   1      46.011  26.152  29.044  1.00  0.00     0.049 A 
ATOM     50  H   UNL A   1      44.143  27.072  29.107  1.00  0.00     0.167 HD
ATOM     51  C   UNL A   1      40.176  28.907  29.133  1.00  0.00     0.031 A 
ATOM     52  C   UNL A   1      46.914  27.053  29.479  1.00  0.00     0.031 A 
ATOM     53  C   UNL A   1      41.052  29.901  29.690  1.00  0.00     0.049 A 
ATOM     54  C   UNL A   1      46.443  28.420  29.894  1.00  0.00     0.074 A 
ATOM     55  C   UNL A   1      40.729  31.154  30.183  1.00  0.00     0.029 A 
ATOM     56  N   UNL A   1      42.424  29.759  29.823  1.00  0.00    -0.354 N 
ATOM     57  N   UNL A   1      45.224  28.903  29.919  1.00  0.00    -0.248 NA
ATOM     58  C   UNL A   1      47.473  29.362  30.354  1.00  0.00     0.031 C 
ATOM     59  C   UNL A   1      41.915  31.794  30.553  1.00  0.00     0.029 A 
ATOM     60  C   UNL A   1      42.968  30.913  30.359  1.00  0.00     0.049 A 
ATOM     61  H   UNL A   1      42.936  28.956  29.573  1.00  0.00     0.167 HD
ATOM     62  C   UNL A   1      45.338  30.191  30.427  1.00  0.00     0.074 A 
ATOM     63  C   UNL A   1      46.740  30.407  30.714  1.00  0.00     0.031 C 
ATOM     64  C   UNL A   1      44.367  31.113  30.639  1.00  0.00     0.031 A 
BRANCH  51  65
ATOM     65  C   UNL A   1      38.718  29.246  28.971  1.00  0.00    -0.014 A 
ATOM     66  C   UNL A   1      38.202  29.688  27.742  1.00  0.00     0.009 A 
ATOM     67  C   UNL A   1      37.842  29.089  30.056  1.00  0.00     0.009 A 
ATOM     68  C   UNL A   1      36.848  30.006  27.615  1.00  0.00     0.001 A 
ATOM     69  C   UNL A   1      36.482  29.373  29.917  1.00  0.00     0.001 A 
ATOM     70  C   UNL A   1      35.988  29.842  28.700  1.00  0.00     0.000 A 
ENDBRANCH  51  65
BRANCH  52  71
ATOM     71  C   UNL A   1      48.356  26.694  29.561  1.00  0.00    -0.014 A 
ATOM     72  C   UNL A   1      49.223  26.968  28.491  1.00  0.00     0.009 A 
ATOM     73  C   UNL A   1      48.872  26.055  30.700  1.00  0.00     0.009 A 
ATOM     74  C   UNL A   1      50.563  26.581  28.546  1.00  0.00     0.001 A 
ATOM     75  C   UNL A   1      50.221  25.699  30.765  1.00  0.00     0.001 A 
ATOM     76  C   UNL A   1      51.063  25.951  29.684  1.00  0.00     0.000 A 
ENDBRANCH  52  71
BRANCH  64  77
ATOM     77  C   UNL A   1      44.779  32.424  31.251  1.00  0.00    -0.014 A 
ATOM     78  C   UNL A   1      45.129  33.527  30.455  1.00  0.00     0.009 A 
ATOM     79  C   UNL A   1      44.774  32.568  32.647  1.00  0.00     0.009 A 
ATOM     80  C   UNL A   1      45.501  34.735  31.049  1.00  0.00     0.001 A 
ATOM     81  C   UNL A   1      45.111  33.786  33.237  1.00  0.00     0.001 A 
ATOM     82  C   UNL A   1      45.485  34.865  32.438  1.00  0.00     0.000 A 
ENDBRANCH  64  77
ENDBRANCH  38  39
ENDBRANCH  30  33
ENDBRANCH  28  29
ENDBRANCH  27  28
ENDBRANCH  26  27
ENDBRANCH   1  26
TORSDOF 16
ENDMDL
MODEL 2
REMARK VINA RESULT:     -10.6      4.376      9.118
REMARK SMILES CC[C@@](C)([NH2+]CC(=O)N[C@]1(C)CCS(=O)(=O)C1)C(=O)NCCCCNC(=O)c1ccc(-c2c3nc(c(-c4ccccc4)c4ccc([nH]4)c(-c4ccccc4)c4nc(c(-c5ccccc5)c5ccc2[nH]5)C=C4)C=C3)cc1
REMARK SMILES IDX 21 1 20 2 18 3 19 4 3 6 4 7 2 8 1 9 5 10 6 13 7 14 8 15 9 16
REMARK SMILES IDX 10 18 12 19 17 20 11 21 13 22 14 23 15 24 16 25 22 26 23 27
REMARK SMILES IDX 24 28 25 29 26 30 27 32 28 33 29 34 75 35 30 36 74 37 31 38
REMARK SMILES IDX 32 39 33 40 68 41 34 42 73 43 67 44 69 45 35 46 72 47 66 48
REMARK SMILES IDX 65 49 36 51 58 52 43 53 57 54 44 55 47 56 56 57 70 58 45 59
REMARK SMILES IDX 46 60 55 62 71 63 48 64 37 65 38 66 42 67 39 68 41 69 40 70
REMARK SMILES IDX 59 71 60 72 64 73 61 74 63 75 62 76 49 77 50 78 54 79 51 80
REMARK SMILES IDX 53 81 52 82
REMARK H PARENT 20 5 5 11 5 12 9 17 25 31 69 50 47 61
REMARK Flexibility Score: inf
ROOT
ATOM      1  C   UNL A   1      31.412  30.034  25.082  1.00  0.00     0.116 C 
ENDROOT
BRANCH   1   2
ATOM      2  N   UNL A   1      32.375  29.373  24.232  1.00  0.00    -0.351 N 
ATOM      3  C   UNL A   1      32.402  28.285  23.415  1.00  0.00     0.281 C 
ATOM      4  O   UNL A   1      33.161  28.510  22.457  1.00  0.00    -0.268 OA
ATOM      5  H   UNL A   1      33.245  29.832  24.249  1.00  0.00     0.163 HD
BRANCH   3   6
ATOM      6  C   UNL A   1      31.694  26.815  23.600  1.00  0.00     0.172 C 
ATOM      7  C   UNL A   1      30.253  26.374  23.935  1.00  0.00     0.090 C 
BRANCH   6   8
ATOM      8  C   UNL A   1      31.841  26.229  22.126  1.00  0.00     0.075 C 
ATOM      9  C   UNL A   1      32.867  25.063  22.012  1.00  0.00     0.011 C 
ENDBRANCH   6   8
BRANCH   6  10
ATOM     10  N   UNL A   1      32.482  26.086  24.595  1.00  0.00    -0.326 N 
ATOM     11  H   UNL A   1      33.284  26.677  24.817  1.00  0.00     0.347 HD
ATOM     12  H   UNL A   1      32.646  25.192  24.132  1.00  0.00     0.347 HD
BRANCH  10  13
ATOM     13  C   UNL A   1      31.901  25.669  25.891  1.00  0.00     0.362 C 
BRANCH  13  14
ATOM     14  C   UNL A   1      31.733  24.239  26.499  1.00  0.00     0.275 C 
ATOM     15  O   UNL A   1      30.652  24.066  27.106  1.00  0.00    -0.268 OA
ATOM     16  N   UNL A   1      32.401  23.060  26.461  1.00  0.00    -0.345 N 
ATOM     17  H   UNL A   1      31.868  22.474  27.045  1.00  0.00     0.164 HD
BRANCH  16  18
ATOM     18  C   UNL A   1      33.550  22.151  25.989  1.00  0.00     0.052 C 
ATOM     19  C   UNL A   1      33.460  22.096  24.422  1.00  0.00     0.045 C 
ATOM     20  C   UNL A   1      33.605  20.678  26.449  1.00  0.00     0.165 C 
ATOM     21  C   UNL A   1      34.901  22.829  26.298  1.00  0.00     0.036 C 
ATOM     22  C   UNL A   1      32.583  20.919  24.037  1.00  0.00     0.139 C 
ATOM     23  S   UNL A   1      33.209  19.621  25.062  1.00  0.00     0.152 S 
ATOM     24  O   UNL A   1      34.456  19.148  24.486  1.00  0.00    -0.229 OA
ATOM     25  O   UNL A   1      32.136  18.717  25.391  1.00  0.00    -0.229 OA
ENDBRANCH  16  18
ENDBRANCH  13  14
ENDBRANCH  10  13
ENDBRANCH   6  10
ENDBRANCH   3   6
ENDBRANCH   1   2
BRANCH   1  26
ATOM     26  C   UNL A   1      31.957  30.545  26.422  1.00  0.00     0.023 C 
BRANCH  26  27
ATOM     27  C   UNL A   1      31.585  31.991  26.736  1.00  0.00     0.023 C 
BRANCH  27  28
ATOM     28  C   UNL A   1      32.720  32.825  27.328  1.00  0.00     0.116 C 
BRANCH  28  29
ATOM     29  N   UNL A   1      32.351  34.200  27.640  1.00  0.00    -0.352 N 
ATOM     30  C   UNL A   1      32.921  35.055  28.559  1.00  0.00     0.251 C 
ATOM     31  H   UNL A   1      31.594  34.567  27.127  1.00  0.00     0.163 HD
ATOM     32  O   UNL A   1      32.444  36.163  28.774  1.00  0.00    -0.269 OA
BRANCH  30  33
ATOM     33  C   UNL A   1      34.101  34.596  29.323  1.00  0.00     0.039 A 
ATOM     34  C   UNL A   1      33.913  34.001  30.570  1.00  0.00     0.014 A 
ATOM     35  C   UNL A   1      35.375  34.669  28.755  1.00  0.00     0.014 A 
ATOM     36  C   UNL A   1      34.995  33.388  31.207  1.00  0.00     0.010 A 
ATOM     37  C   UNL A   1      36.425  33.973  29.342  1.00  0.00     0.010 A 
ATOM     38  C   UNL A   1      36.248  33.323  30.573  1.00  0.00    -0.014 A 
BRANCH  38  39
ATOM     39  C   UNL A   1      37.382  32.579  31.179  1.00  0.00     0.031 A 
ATOM     40  C   UNL A   1      37.934  33.004  32.513  1.00  0.00     0.074 A 
ATOM     41  C   UNL A   1      37.959  31.563  30.504  1.00  0.00     0.049 A 
ATOM     42  N   UNL A   1      38.947  32.512  33.183  1.00  0.00    -0.248 NA
ATOM     43  C   UNL A   1      37.283  34.149  33.169  1.00  0.00     0.031 C 
ATOM     44  C   UNL A   1      37.551  31.079  29.183  1.00  0.00     0.029 A 
ATOM     45  N   UNL A   1      39.016  30.752  30.840  1.00  0.00    -0.354 N 
ATOM     46  C   UNL A   1      39.061  33.299  34.323  1.00  0.00     0.074 A 
ATOM     47  C   UNL A   1      38.058  34.336  34.225  1.00  0.00     0.031 C 
ATOM     48  C   UNL A   1      38.319  30.031  28.841  1.00  0.00     0.029 A 
ATOM     49  C   UNL A   1      39.304  29.799  29.892  1.00  0.00     0.049 A 
ATOM     50  H   UNL A   1      39.520  30.845  31.681  1.00  0.00     0.167 HD
ATOM     51  C   UNL A   1      39.907  33.158  35.370  1.00  0.00     0.031 A 
ATOM     52  C   UNL A   1      40.257  28.846  29.870  1.00  0.00     0.031 A 
ATOM     53  C   UNL A   1      40.896  32.120  35.473  1.00  0.00     0.049 A 
ATOM     54  C   UNL A   1      41.201  28.728  31.036  1.00  0.00     0.074 A 
ATOM     55  C   UNL A   1      41.761  31.857  36.522  1.00  0.00     0.029 A 
ATOM     56  N   UNL A   1      41.159  31.179  34.490  1.00  0.00    -0.354 N 
ATOM     57  N   UNL A   1      41.243  29.430  32.142  1.00  0.00    -0.248 NA
ATOM     58  C   UNL A   1      42.223  27.675  30.953  1.00  0.00     0.031 C 
ATOM     59  C   UNL A   1      42.590  30.796  36.145  1.00  0.00     0.029 A 
ATOM     60  C   UNL A   1      42.193  30.353  34.893  1.00  0.00     0.049 A 
ATOM     61  H   UNL A   1      40.679  31.109  33.633  1.00  0.00     0.167 HD
ATOM     62  C   UNL A   1      42.270  28.883  32.899  1.00  0.00     0.074 A 
ATOM     63  C   UNL A   1      42.815  27.781  32.134  1.00  0.00     0.031 C 
ATOM     64  C   UNL A   1      42.724  29.259  34.120  1.00  0.00     0.031 A 
BRANCH  51  65
ATOM     65  C   UNL A   1      39.803  34.163  36.486  1.00  0.00    -0.014 A 
ATOM     66  C   UNL A   1      38.996  33.926  37.610  1.00  0.00     0.009 A 
ATOM     67  C   UNL A   1      40.548  35.350  36.426  1.00  0.00     0.009 A 
ATOM     68  C   UNL A   1      38.907  34.875  38.631  1.00  0.00     0.001 A 
ATOM     69  C   UNL A   1      40.485  36.281  37.464  1.00  0.00     0.001 A 
ATOM     70  C   UNL A   1      39.656  36.048  38.561  1.00  0.00     0.000 A 
ENDBRANCH  51  65
BRANCH  52  71
ATOM     71  C   UNL A   1      40.363  27.915  28.715  1.00  0.00    -0.014 A 
ATOM     72  C   UNL A   1      41.124  28.260  27.586  1.00  0.00     0.009 A 
ATOM     73  C   UNL A   1      39.688  26.684  28.722  1.00  0.00     0.009 A 
ATOM     74  C   UNL A   1      41.178  27.411  26.479  1.00  0.00     0.001 A 
ATOM     75  C   UNL A   1      39.771  25.821  27.626  1.00  0.00     0.001 A 
ATOM     76  C   UNL A   1      40.505  26.190  26.501  1.00  0.00     0.000 A 
ENDBRANCH  52  71
BRANCH  64  77
ATOM     77  C   UNL A   1      43.834  28.446  34.727  1.00  0.00    -0.014 A 
ATOM     78  C   UNL A   1      43.569  27.303  35.499  1.00  0.00     0.009 A 
ATOM     79  C   UNL A   1      45.168  28.806  34.484  1.00  0.00     0.009 A 
ATOM     80  C   UNL A   1      44.619  26.561  36.044  1.00  0.00     0.001 A 
ATOM     81  C   UNL A   1      46.216  28.043  35.000  1.00  0.00     0.001 A 
ATOM     82  C   UNL A   1      45.940  26.928  35.789  1.00  0.00     0.000 A 
ENDBRANCH  64  77
ENDBRANCH  38  39
ENDBRANCH  30  33
ENDBRANCH  28  29
ENDBRANCH  27  28
ENDBRANCH  26  27
ENDBRANCH   1  26
TORSDOF 16
ENDMDL
MODEL 3
REMARK VINA RESULT:     -10.5      1.575      2.060
REMARK SMILES CC[C@@](C)([NH2+]CC(=O)N[C@]1(C)CCS(=O)(=O)C1)C(=O)NCCCCNC(=O)c1ccc(-c2c3nc(c(-c4ccccc4)c4ccc([nH]4)c(-c4ccccc4)c4nc(c(-c5ccccc5)c5ccc2[nH]5)C=C4)C=C3)cc1
REMARK SMILES IDX 21 1 20 2 18 3 19 4 3 6 4 7 2 8 1 9 5 10 6 13 7 14 8 15 9 16
REMARK SMILES IDX 10 18 12 19 17 20 11 21 13 22 14 23 15 24 16 25 22 26 23 27
REMARK SMILES IDX 24 28 25 29 26 30 27 32 28 33 29 34 75 35 30 36 74 37 31 38
REMARK SMILES IDX 32 39 33 40 68 41 34 42 73 43 67 44 69 45 35 46 72 47 66 48
REMARK SMILES IDX 65 49 36 51 58 52 43 53 57 54 44 55 47 56 56 57 70 58 45 59
REMARK SMILES IDX 46 60 55 62 71 63 48 64 37 65 38 66 42 67 39 68 41 69 40 70
REMARK SMILES IDX 59 71 60 72 64 73 61 74 63 75 62 76 49 77 50 78 54 79 51 80
REMARK SMILES IDX 53 81 52 82
REMARK H PARENT 20 5 5 11 5 12 9 17 25 31 69 50 47 61
REMARK Flexibility Score: inf
ROOT
ATOM      1  C   UNL A   1      35.936  22.022  24.475  1.00  0.00     0.116 C 
ENDROOT
BRANCH   1   2
ATOM      2  N   UNL A   1      35.150  21.961  25.685  1.00  0.00    -0.351 N 
ATOM      3  C   UNL A   1      33.934  21.476  26.061  1.00  0.00     0.281 C 
ATOM      4  O   UNL A   1      33.997  21.075  27.236  1.00  0.00    -0.268 OA
ATOM      5  H   UNL A   1      35.618  22.383  26.441  1.00  0.00     0.163 HD
BRANCH   3   6
ATOM      6  C   UNL A   1      32.509  21.468  25.244  1.00  0.00     0.172 C 
ATOM      7  C   UNL A   1      32.089  21.991  23.853  1.00  0.00     0.090 C 
BRANCH   6   8
ATOM      8  C   UNL A   1      32.295  19.902  25.041  1.00  0.00     0.075 C 
ATOM      9  C   UNL A   1      33.444  19.208  24.251  1.00  0.00     0.011 C 
ENDBRANCH   6   8
BRANCH   6  10
ATOM     10  N   UNL A   1      31.512  22.081  26.122  1.00  0.00    -0.326 N 
ATOM     11  H   UNL A   1      31.512  21.534  26.984  1.00  0.00     0.347 HD
ATOM     12  H   UNL A   1      30.675  22.076  25.539  1.00  0.00     0.347 HD
BRANCH  10  13
ATOM     13  C   UNL A   1      31.606  23.501  26.529  1.00  0.00     0.362 C 
BRANCH  13  14
ATOM     14  C   UNL A   1      30.709  24.717  26.132  1.00  0.00     0.275 C 
ATOM     15  O   UNL A   1      29.624  24.776  26.754  1.00  0.00    -0.268 OA
ATOM     16  N   UNL A   1      30.823  25.825  25.358  1.00  0.00    -0.345 N 
ATOM     17  H   UNL A   1      29.943  26.257  25.442  1.00  0.00     0.164 HD
BRANCH  16  18
ATOM     18  C   UNL A   1      31.600  26.765  24.419  1.00  0.00     0.052 C 
ATOM     19  C   UNL A   1      30.896  26.678  23.018  1.00  0.00     0.045 C 
ATOM     20  C   UNL A   1      33.098  26.509  24.141  1.00  0.00     0.165 C 
ATOM     21  C   UNL A   1      31.413  28.224  24.882  1.00  0.00     0.036 C 
ATOM     22  C   UNL A   1      31.566  25.579  22.215  1.00  0.00     0.139 C 
ATOM     23  S   UNL A   1      33.285  25.914  22.466  1.00  0.00     0.152 S 
ATOM     24  O   UNL A   1      33.655  27.040  21.626  1.00  0.00    -0.229 OA
ATOM     25  O   UNL A   1      34.019  24.675  22.436  1.00  0.00    -0.229 OA
ENDBRANCH  16  18
ENDBRANCH  13  14
ENDBRANCH  10  13
ENDBRANCH   6  10
ENDBRANCH   3   6
ENDBRANCH   1   2
BRANCH   1  26
ATOM     26  C   UNL A   1      37.456  21.957  24.674  1.00  0.00     0.023 C 
BRANCH  26  27
ATOM     27  C   UNL A   1      37.979  20.569  25.028  1.00  0.00     0.023 C 
BRANCH  27  28
ATOM     28  C   UNL A   1      39.120  20.560  26.044  1.00  0.00     0.116 C 
BRANCH  28  29
ATOM     29  N   UNL A   1      39.960  19.369  25.989  1.00  0.00    -0.352 N 
ATOM     30  C   UNL A   1      41.330  19.279  26.119  1.00  0.00     0.251 C 
ATOM     31  H   UNL A   1      39.487  18.519  25.838  1.00  0.00     0.163 HD
ATOM     32  O   UNL A   1      41.911  18.212  25.962  1.00  0.00    -0.269 OA
BRANCH  30  33
ATOM     33  C   UNL A   1      42.101  20.506  26.408  1.00  0.00     0.039 A 
ATOM     34  C   UNL A   1      42.561  21.286  25.347  1.00  0.00     0.014 A 
ATOM     35  C   UNL A   1      42.278  20.927  27.728  1.00  0.00     0.014 A 
ATOM     36  C   UNL A   1      43.114  22.541  25.609  1.00  0.00     0.010 A 
ATOM     37  C   UNL A   1      42.735  22.216  27.978  1.00  0.00     0.010 A 
ATOM     38  C   UNL A   1      43.157  23.039  26.922  1.00  0.00    -0.014 A 
BRANCH  38  39
ATOM     39  C   UNL A   1      43.635  24.416  27.212  1.00  0.00     0.031 A 
ATOM     40  C   UNL A   1      42.659  25.476  27.645  1.00  0.00     0.074 A 
ATOM     41  C   UNL A   1      44.933  24.732  27.024  1.00  0.00     0.049 A 
ATOM     42  N   UNL A   1      42.874  26.742  27.900  1.00  0.00    -0.248 NA
ATOM     43  C   UNL A   1      41.252  25.067  27.785  1.00  0.00     0.031 C 
ATOM     44  C   UNL A   1      45.975  23.810  26.563  1.00  0.00     0.029 A 
ATOM     45  N   UNL A   1      45.599  25.921  27.198  1.00  0.00    -0.354 N 
ATOM     46  C   UNL A   1      41.630  27.280  28.209  1.00  0.00     0.074 A 
ATOM     47  C   UNL A   1      40.659  26.221  28.050  1.00  0.00     0.031 C 
ATOM     48  C   UNL A   1      47.153  24.457  26.533  1.00  0.00     0.029 A 
ATOM     49  C   UNL A   1      46.944  25.846  26.924  1.00  0.00     0.049 A 
ATOM     50  H   UNL A   1      45.154  26.748  27.494  1.00  0.00     0.167 HD
ATOM     51  C   UNL A   1      41.325  28.535  28.612  1.00  0.00     0.031 A 
ATOM     52  C   UNL A   1      47.901  26.793  26.977  1.00  0.00     0.031 A 
ATOM     53  C   UNL A   1      42.292  29.585  28.782  1.00  0.00     0.049 A 
ATOM     54  C   UNL A   1      47.530  28.188  27.404  1.00  0.00     0.074 A 
ATOM     55  C   UNL A   1      42.090  30.874  29.245  1.00  0.00     0.029 A 
ATOM     56  N   UNL A   1      43.641  29.471  28.488  1.00  0.00    -0.354 N 
ATOM     57  N   UNL A   1      46.363  28.658  27.770  1.00  0.00    -0.248 NA
ATOM     58  C   UNL A   1      48.615  29.179  27.437  1.00  0.00     0.031 C 
ATOM     59  C   UNL A   1      43.307  31.558  29.169  1.00  0.00     0.029 A 
ATOM     60  C   UNL A   1      44.280  30.674  28.728  1.00  0.00     0.049 A 
ATOM     61  H   UNL A   1      44.080  28.653  28.158  1.00  0.00     0.167 HD
ATOM     62  C   UNL A   1      46.579  29.987  28.108  1.00  0.00     0.074 A 
ATOM     63  C   UNL A   1      47.991  30.244  27.920  1.00  0.00     0.031 C 
ATOM     64  C   UNL A   1      45.687  30.914  28.537  1.00  0.00     0.031 A 
BRANCH  51  65
ATOM     65  C   UNL A   1      39.877  28.842  28.889  1.00  0.00    -0.014 A 
ATOM     66  C   UNL A   1      39.326  28.672  30.169  1.00  0.00     0.009 A 
ATOM     67  C   UNL A   1      39.062  29.339  27.862  1.00  0.00     0.009 A 
ATOM     68  C   UNL A   1      37.978  28.954  30.404  1.00  0.00     0.001 A 
ATOM     69  C   UNL A   1      37.724  29.655  28.107  1.00  0.00     0.001 A 
ATOM     70  C   UNL A   1      37.180  29.451  29.375  1.00  0.00     0.000 A 
ENDBRANCH  51  65
BRANCH  52  71
ATOM     71  C   UNL A   1      49.310  26.459  26.631  1.00  0.00    -0.014 A 
ATOM     72  C   UNL A   1      50.196  25.994  27.617  1.00  0.00     0.009 A 
ATOM     73  C   UNL A   1      49.784  26.622  25.320  1.00  0.00     0.009 A 
ATOM     74  C   UNL A   1      51.532  25.735  27.304  1.00  0.00     0.001 A 
ATOM     75  C   UNL A   1      51.113  26.329  25.004  1.00  0.00     0.001 A 
ATOM     76  C   UNL A   1      51.989  25.897  25.998  1.00  0.00     0.000 A 
ENDBRANCH  52  71
BRANCH  64  77
ATOM     77  C   UNL A   1      46.218  32.280  28.877  1.00  0.00    -0.014 A 
ATOM     78  C   UNL A   1      46.210  33.324  27.939  1.00  0.00     0.009 A 
ATOM     79  C   UNL A   1      46.694  32.534  30.173  1.00  0.00     0.009 A 
ATOM     80  C   UNL A   1      46.703  34.585  28.283  1.00  0.00     0.001 A 
ATOM     81  C   UNL A   1      47.153  33.804  30.524  1.00  0.00     0.001 A 
ATOM     82  C   UNL A   1      47.167  34.825  29.576  1.00  0.00     0.000 A 
ENDBRANCH  64  77
ENDBRANCH  38  39
ENDBRANCH  30  33
ENDBRANCH  28  29
ENDBRANCH  27  28
ENDBRANCH  26  27
ENDBRANCH   1  26
TORSDOF 16
ENDMDL
