MODEL 1
REMARK VINA RESULT:     -11.2      0.000      0.000
REMARK SMILES CCCc1cc(OC(F)(F)F)cc2c1O[C@@H](C(F)(F)F)C(C(=O)NCCCCNC(=O)c1ccc(-c3c4nc(c(-c5ccccc5)c5ccc([nH]5)c(-c5ccccc5)c5nc(c(-c6ccccc6)c6ccc3[nH]6)C=C5)C=C4)cc1)=C2
REMARK SMILES IDX 26 1 25 2 24 3 22 4 23 5 21 7 4 8 5 9 14 10 6 11 13 12 15 13
REMARK SMILES IDX 12 14 80 15 16 16 3 17 2 18 1 19 7 20 8 21 9 22 10 23 11 24
REMARK SMILES IDX 17 25 18 26 19 27 20 28 27 29 28 30 29 31 30 32 31 34 32 35
REMARK SMILES IDX 33 36 79 37 34 38 78 39 35 40 36 41 37 42 72 43 38 44 77 45
REMARK SMILES IDX 71 46 73 47 39 48 76 49 70 50 69 51 40 53 62 54 47 55 61 56
REMARK SMILES IDX 48 57 51 58 60 59 74 60 49 61 50 62 59 64 75 65 52 66 41 67
REMARK SMILES IDX 42 68 46 69 43 70 45 71 44 72 63 73 64 74 68 75 65 76 67 77
REMARK SMILES IDX 66 78 53 79 54 80 58 81 55 82 57 83 56 84
REMARK H PARENT 24 6 29 33 73 52 51 63
REMARK Flexibility Score: inf
ROOT
ATOM      1  C   UNL A   1      37.093  22.529  24.140  1.00  0.00     0.023 C 
ENDROOT
BRANCH   1   2
ATOM      2  C   UNL A   1      35.605  22.773  23.860  1.00  0.00     0.116 C 
BRANCH   2   3
ATOM      3  N   UNL A   1      34.797  22.240  24.943  1.00  0.00    -0.352 N 
ATOM      4  C   UNL A   1      33.786  22.774  25.680  1.00  0.00     0.251 C 
ATOM      5  O   UNL A   1      33.380  22.135  26.647  1.00  0.00    -0.270 OA
ATOM      6  H   UNL A   1      35.025  21.315  25.192  1.00  0.00     0.163 HD
BRANCH   4   7
ATOM      7  C   UNL A   1      33.119  24.055  25.328  1.00  0.00     0.067 C 
ATOM      8  C   UNL A   1      31.213  27.567  23.976  1.00  0.00    -0.002 A 
ATOM      9  C   UNL A   1      31.641  28.801  24.501  1.00  0.00     0.054 A 
ATOM     10  C   UNL A   1      31.833  26.391  24.439  1.00  0.00     0.131 A 
ATOM     11  C   UNL A   1      32.701  28.874  25.407  1.00  0.00     0.130 A 
ATOM     12  C   UNL A   1      32.864  26.455  25.374  1.00  0.00     0.021 A 
ATOM     13  O   UNL A   1      31.434  25.205  23.889  1.00  0.00    -0.475 OA
ATOM     14  C   UNL A   1      33.299  27.695  25.849  1.00  0.00     0.058 A 
ATOM     15  C   UNL A   1      33.547  25.240  25.784  1.00  0.00     0.025 C 
ATOM     16  C   UNL A   1      31.807  23.962  24.556  1.00  0.00     0.314 C 
BRANCH   8  17
ATOM     17  C   UNL A   1      30.086  27.459  22.965  1.00  0.00     0.039 C 
BRANCH  17  18
ATOM     18  C   UNL A   1      29.423  28.750  22.465  1.00  0.00     0.001 C 
ATOM     19  C   UNL A   1      28.039  28.989  23.057  1.00  0.00     0.004 C 
ENDBRANCH  17  18
ENDBRANCH   8  17
BRANCH  11  20
ATOM     20  O   UNL A   1      33.250  30.012  25.927  1.00  0.00    -0.406 OA
BRANCH  20  21
ATOM     21  C   UNL A   1      32.509  30.713  26.911  1.00  0.00     0.573 C 
ATOM     22  F   UNL A   1      31.765  29.872  27.661  1.00  0.00    -0.132 F 
ATOM     23  F   UNL A   1      33.328  31.428  27.709  1.00  0.00    -0.132 F 
ATOM     24  F   UNL A   1      31.670  31.571  26.290  1.00  0.00    -0.132 F 
ENDBRANCH  20  21
ENDBRANCH  11  20
BRANCH  16  25
ATOM     25  C   UNL A   1      31.705  22.838  23.499  1.00  0.00     0.429 C 
ATOM     26  F   UNL A   1      31.766  21.602  24.038  1.00  0.00    -0.167 F 
ATOM     27  F   UNL A   1      30.508  22.890  22.852  1.00  0.00    -0.167 F 
ATOM     28  F   UNL A   1      32.664  22.936  22.549  1.00  0.00    -0.167 F 
ENDBRANCH  16  25
ENDBRANCH   4   7
ENDBRANCH   2   3
ENDBRANCH   1   2
BRANCH   1  29
ATOM     29  C   UNL A   1      37.425  21.112  24.612  1.00  0.00     0.023 C 
BRANCH  29  30
ATOM     30  C   UNL A   1      38.417  21.037  25.766  1.00  0.00     0.116 C 
BRANCH  30  31
ATOM     31  N   UNL A   1      39.326  19.905  25.671  1.00  0.00    -0.352 N 
ATOM     32  C   UNL A   1      40.660  19.845  26.002  1.00  0.00     0.251 C 
ATOM     33  H   UNL A   1      38.934  19.071  25.323  1.00  0.00     0.163 HD
ATOM     34  O   UNL A   1      41.313  18.840  25.771  1.00  0.00    -0.269 OA
BRANCH  32  35
ATOM     35  C   UNL A   1      41.303  21.034  26.598  1.00  0.00     0.039 A 
ATOM     36  C   UNL A   1      41.932  21.948  25.750  1.00  0.00     0.014 A 
ATOM     37  C   UNL A   1      41.239  21.267  27.974  1.00  0.00     0.014 A 
ATOM     38  C   UNL A   1      42.425  23.143  26.274  1.00  0.00     0.010 A 
ATOM     39  C   UNL A   1      41.675  22.486  28.484  1.00  0.00     0.010 A 
ATOM     40  C   UNL A   1      42.257  23.440  27.636  1.00  0.00    -0.014 A 
BRANCH  40  41
ATOM     41  C   UNL A   1      42.640  24.762  28.183  1.00  0.00     0.031 A 
ATOM     42  C   UNL A   1      41.606  25.833  28.381  1.00  0.00     0.074 A 
ATOM     43  C   UNL A   1      43.939  25.022  28.427  1.00  0.00     0.049 A 
ATOM     44  N   UNL A   1      41.767  27.066  28.790  1.00  0.00    -0.248 NA
ATOM     45  C   UNL A   1      40.215  25.481  28.057  1.00  0.00     0.031 C 
ATOM     46  C   UNL A   1      45.044  24.080  28.230  1.00  0.00     0.029 A 
ATOM     47  N   UNL A   1      44.553  26.161  28.884  1.00  0.00    -0.354 N 
ATOM     48  C   UNL A   1      40.502  27.639  28.760  1.00  0.00     0.074 A 
ATOM     49  C   UNL A   1      39.593  26.635  28.252  1.00  0.00     0.031 C 
ATOM     50  C   UNL A   1      46.195  24.671  28.586  1.00  0.00     0.029 A 
ATOM     51  C   UNL A   1      45.916  26.043  28.997  1.00  0.00     0.049 A 
ATOM     52  H   UNL A   1      44.061  26.984  29.108  1.00  0.00     0.167 HD
ATOM     53  C   UNL A   1      40.130  28.885  29.137  1.00  0.00     0.031 A 
ATOM     54  C   UNL A   1      46.842  26.943  29.381  1.00  0.00     0.031 A 
ATOM     55  C   UNL A   1      41.033  29.882  29.648  1.00  0.00     0.049 A 
ATOM     56  C   UNL A   1      46.404  28.325  29.771  1.00  0.00     0.074 A 
ATOM     57  C   UNL A   1      40.740  31.148  30.123  1.00  0.00     0.029 A 
ATOM     58  N   UNL A   1      42.407  29.725  29.742  1.00  0.00    -0.354 N 
ATOM     59  N   UNL A   1      45.194  28.826  29.812  1.00  0.00    -0.248 NA
ATOM     60  C   UNL A   1      47.462  29.265  30.169  1.00  0.00     0.031 C 
ATOM     61  C   UNL A   1      41.944  31.778  30.456  1.00  0.00     0.029 A 
ATOM     62  C   UNL A   1      42.980  30.886  30.234  1.00  0.00     0.049 A 
ATOM     63  H   UNL A   1      42.902  28.911  29.494  1.00  0.00     0.167 HD
ATOM     64  C   UNL A   1      45.342  30.133  30.254  1.00  0.00     0.074 A 
ATOM     65  C   UNL A   1      46.757  30.341  30.487  1.00  0.00     0.031 C 
ATOM     66  C   UNL A   1      44.391  31.080  30.446  1.00  0.00     0.031 A 
BRANCH  53  67
ATOM     67  C   UNL A   1      38.677  29.241  29.003  1.00  0.00    -0.014 A 
ATOM     68  C   UNL A   1      37.790  29.092  30.082  1.00  0.00     0.009 A 
ATOM     69  C   UNL A   1      38.194  29.764  27.794  1.00  0.00     0.009 A 
ATOM     70  C   UNL A   1      36.442  29.428  29.941  1.00  0.00     0.001 A 
ATOM     71  C   UNL A   1      36.852  30.124  27.664  1.00  0.00     0.001 A 
ATOM     72  C   UNL A   1      35.975  29.948  28.734  1.00  0.00     0.000 A 
ENDBRANCH  53  67
BRANCH  54  73
ATOM     73  C   UNL A   1      48.276  26.561  29.419  1.00  0.00    -0.014 A 
ATOM     74  C   UNL A   1      48.830  25.998  30.578  1.00  0.00     0.009 A 
ATOM     75  C   UNL A   1      49.099  26.759  28.299  1.00  0.00     0.009 A 
ATOM     76  C   UNL A   1      50.185  25.660  30.623  1.00  0.00     0.001 A 
ATOM     77  C   UNL A   1      50.447  26.397  28.338  1.00  0.00     0.001 A 
ATOM     78  C   UNL A   1      50.990  25.855  29.502  1.00  0.00     0.000 A 
ENDBRANCH  54  73
BRANCH  66  79
ATOM     79  C   UNL A   1      44.852  32.421  30.939  1.00  0.00    -0.014 A 
ATOM     80  C   UNL A   1      44.970  32.684  32.313  1.00  0.00     0.009 A 
ATOM     81  C   UNL A   1      45.208  33.420  30.020  1.00  0.00     0.009 A 
ATOM     82  C   UNL A   1      45.409  33.932  32.756  1.00  0.00     0.001 A 
ATOM     83  C   UNL A   1      45.671  34.658  30.466  1.00  0.00     0.001 A 
ATOM     84  C   UNL A   1      45.764  34.915  31.834  1.00  0.00     0.000 A 
ENDBRANCH  66  79
ENDBRANCH  40  41
ENDBRANCH  32  35
ENDBRANCH  30  31
ENDBRANCH  29  30
ENDBRANCH   1  29
TORSDOF 16
ENDMDL
MODEL 2
REMARK VINA RESULT:     -11.2      2.310      6.612
REMARK SMILES CCCc1cc(OC(F)(F)F)cc2c1O[C@@H](C(F)(F)F)C(C(=O)NCCCCNC(=O)c1ccc(-c3c4nc(c(-c5ccccc5)c5ccc([nH]5)c(-c5ccccc5)c5nc(c(-c6ccccc6)c6ccc3[nH]6)C=C5)C=C4)cc1)=C2
REMARK SMILES IDX 26 1 25 2 24 3 22 4 23 5 21 7 4 8 5 9 14 10 6 11 13 12 15 13
REMARK SMILES IDX 12 14 80 15 16 16 3 17 2 18 1 19 7 20 8 21 9 22 10 23 11 24
REMARK SMILES IDX 17 25 18 26 19 27 20 28 27 29 28 30 29 31 30 32 31 34 32 35
REMARK SMILES IDX 33 36 79 37 34 38 78 39 35 40 36 41 37 42 72 43 38 44 77 45
REMARK SMILES IDX 71 46 73 47 39 48 76 49 70 50 69 51 40 53 62 54 47 55 61 56
REMARK SMILES IDX 48 57 51 58 60 59 74 60 49 61 50 62 59 64 75 65 52 66 41 67
REMARK SMILES IDX 42 68 46 69 43 70 45 71 44 72 63 73 64 74 68 75 65 76 67 77
REMARK SMILES IDX 66 78 53 79 54 80 58 81 55 82 57 83 56 84
REMARK H PARENT 24 6 29 33 73 52 51 63
REMARK Flexibility Score: inf
ROOT
ATOM      1  C   UNL A   1      35.467  21.897  26.234  1.00  0.00     0.023 C 
ENDROOT
BRANCH   1   2
ATOM      2  C   UNL A   1      34.448  21.816  27.377  1.00  0.00     0.116 C 
BRANCH   2   3
ATOM      3  N   UNL A   1      33.154  21.395  26.867  1.00  0.00    -0.352 N 
ATOM      4  C   UNL A   1      32.199  22.042  26.146  1.00  0.00     0.251 C 
ATOM      5  O   UNL A   1      31.122  21.475  25.981  1.00  0.00    -0.270 OA
ATOM      6  H   UNL A   1      32.925  20.463  27.085  1.00  0.00     0.163 HD
BRANCH   4   7
ATOM      7  C   UNL A   1      32.426  23.364  25.506  1.00  0.00     0.067 C 
ATOM      8  C   UNL A   1      33.306  26.942  23.452  1.00  0.00    -0.002 A 
ATOM      9  C   UNL A   1      33.470  28.119  24.206  1.00  0.00     0.054 A 
ATOM     10  C   UNL A   1      32.993  25.750  24.132  1.00  0.00     0.131 A 
ATOM     11  C   UNL A   1      33.395  28.103  25.600  1.00  0.00     0.130 A 
ATOM     12  C   UNL A   1      32.877  25.735  25.520  1.00  0.00     0.021 A 
ATOM     13  O   UNL A   1      32.877  24.607  23.389  1.00  0.00    -0.475 OA
ATOM     14  C   UNL A   1      33.084  26.909  26.250  1.00  0.00     0.058 A 
ATOM     15  C   UNL A   1      32.631  24.483  26.214  1.00  0.00     0.025 C 
ATOM     16  C   UNL A   1      32.247  23.439  23.993  1.00  0.00     0.314 C 
BRANCH   8  17
ATOM     17  C   UNL A   1      33.414  26.923  21.938  1.00  0.00     0.039 C 
BRANCH  17  18
ATOM     18  C   UNL A   1      32.239  26.364  21.125  1.00  0.00     0.001 C 
ATOM     19  C   UNL A   1      32.673  25.510  19.941  1.00  0.00     0.004 C 
ENDBRANCH  17  18
ENDBRANCH   8  17
BRANCH  11  20
ATOM     20  O   UNL A   1      33.607  29.160  26.439  1.00  0.00    -0.406 OA
BRANCH  20  21
ATOM     21  C   UNL A   1      32.503  29.999  26.735  1.00  0.00     0.573 C 
ATOM     22  F   UNL A   1      31.910  30.451  25.609  1.00  0.00    -0.132 F 
ATOM     23  F   UNL A   1      31.597  29.350  27.495  1.00  0.00    -0.132 F 
ATOM     24  F   UNL A   1      32.949  31.069  27.430  1.00  0.00    -0.132 F 
ENDBRANCH  20  21
ENDBRANCH  11  20
BRANCH  16  25
ATOM     25  C   UNL A   1      32.712  22.208  23.180  1.00  0.00     0.429 C 
ATOM     26  F   UNL A   1      31.783  21.229  23.130  1.00  0.00    -0.167 F 
ATOM     27  F   UNL A   1      32.948  22.548  21.883  1.00  0.00    -0.167 F 
ATOM     28  F   UNL A   1      33.862  21.679  23.659  1.00  0.00    -0.167 F 
ENDBRANCH  16  25
ENDBRANCH   4   7
ENDBRANCH   2   3
ENDBRANCH   1   2
BRANCH   1  29
ATOM     29  C   UNL A   1      36.012  23.302  25.969  1.00  0.00     0.023 C 
BRANCH  29  30
ATOM     30  C   UNL A   1      37.239  23.353  25.066  1.00  0.00     0.116 C 
BRANCH  30  31
ATOM     31  N   UNL A   1      38.312  22.473  25.503  1.00  0.00    -0.352 N 
ATOM     32  C   UNL A   1      39.406  22.774  26.279  1.00  0.00     0.251 C 
ATOM     33  H   UNL A   1      38.245  21.538  25.202  1.00  0.00     0.163 HD
ATOM     34  O   UNL A   1      40.275  21.940  26.478  1.00  0.00    -0.269 OA
BRANCH  32  35
ATOM     35  C   UNL A   1      39.539  24.139  26.829  1.00  0.00     0.039 A 
ATOM     36  C   UNL A   1      39.039  24.394  28.109  1.00  0.00     0.014 A 
ATOM     37  C   UNL A   1      40.196  25.138  26.109  1.00  0.00     0.014 A 
ATOM     38  C   UNL A   1      39.276  25.634  28.701  1.00  0.00     0.010 A 
ATOM     39  C   UNL A   1      40.483  26.352  26.725  1.00  0.00     0.010 A 
ATOM     40  C   UNL A   1      40.039  26.604  28.032  1.00  0.00    -0.014 A 
BRANCH  40  41
ATOM     41  C   UNL A   1      40.425  27.869  28.701  1.00  0.00     0.031 A 
ATOM     42  C   UNL A   1      41.781  28.015  29.330  1.00  0.00     0.074 A 
ATOM     43  C   UNL A   1      39.518  28.859  28.808  1.00  0.00     0.049 A 
ATOM     44  N   UNL A   1      42.268  29.022  30.008  1.00  0.00    -0.248 NA
ATOM     45  C   UNL A   1      42.699  26.873  29.200  1.00  0.00     0.031 C 
ATOM     46  C   UNL A   1      38.152  28.820  28.279  1.00  0.00     0.029 A 
ATOM     47  N   UNL A   1      39.606  30.090  29.408  1.00  0.00    -0.354 N 
ATOM     48  C   UNL A   1      43.543  28.632  30.396  1.00  0.00     0.074 A 
ATOM     49  C   UNL A   1      43.738  27.281  29.915  1.00  0.00     0.031 C 
ATOM     50  C   UNL A   1      37.540  29.980  28.557  1.00  0.00     0.029 A 
ATOM     51  C   UNL A   1      38.452  30.829  29.317  1.00  0.00     0.049 A 
ATOM     52  H   UNL A   1      40.419  30.412  29.861  1.00  0.00     0.167 HD
ATOM     53  C   UNL A   1      44.474  29.341  31.077  1.00  0.00     0.031 A 
ATOM     54  C   UNL A   1      38.157  32.051  29.799  1.00  0.00     0.031 A 
ATOM     55  C   UNL A   1      44.283  30.686  31.549  1.00  0.00     0.049 A 
ATOM     56  C   UNL A   1      39.200  32.806  30.571  1.00  0.00     0.074 A 
ATOM     57  C   UNL A   1      45.191  31.514  32.186  1.00  0.00     0.029 A 
ATOM     58  N   UNL A   1      43.098  31.398  31.442  1.00  0.00    -0.354 N 
ATOM     59  N   UNL A   1      40.428  32.454  30.861  1.00  0.00    -0.248 NA
ATOM     60  C   UNL A   1      38.814  34.130  31.082  1.00  0.00     0.031 C 
ATOM     61  C   UNL A   1      44.540  32.708  32.511  1.00  0.00     0.029 A 
ATOM     62  C   UNL A   1      43.241  32.642  32.033  1.00  0.00     0.049 A 
ATOM     63  H   UNL A   1      42.277  31.068  31.011  1.00  0.00     0.167 HD
ATOM     64  C   UNL A   1      40.967  33.515  31.574  1.00  0.00     0.074 A 
ATOM     65  C   UNL A   1      39.939  34.533  31.655  1.00  0.00     0.031 C 
ATOM     66  C   UNL A   1      42.203  33.636  32.117  1.00  0.00     0.031 A 
BRANCH  53  67
ATOM     67  C   UNL A   1      45.787  28.666  31.357  1.00  0.00    -0.014 A 
ATOM     68  C   UNL A   1      45.984  27.917  32.528  1.00  0.00     0.009 A 
ATOM     69  C   UNL A   1      46.829  28.752  30.421  1.00  0.00     0.009 A 
ATOM     70  C   UNL A   1      47.210  27.295  32.771  1.00  0.00     0.001 A 
ATOM     71  C   UNL A   1      48.045  28.107  30.655  1.00  0.00     0.001 A 
ATOM     72  C   UNL A   1      48.238  27.387  31.833  1.00  0.00     0.000 A 
ENDBRANCH  53  67
BRANCH  54  73
ATOM     73  C   UNL A   1      36.814  32.638  29.560  1.00  0.00    -0.014 A 
ATOM     74  C   UNL A   1      35.807  32.522  30.529  1.00  0.00     0.009 A 
ATOM     75  C   UNL A   1      36.533  33.316  28.364  1.00  0.00     0.009 A 
ATOM     76  C   UNL A   1      34.536  33.055  30.295  1.00  0.00     0.001 A 
ATOM     77  C   UNL A   1      35.270  33.870  28.144  1.00  0.00     0.001 A 
ATOM     78  C   UNL A   1      34.271  33.731  29.106  1.00  0.00     0.000 A 
ENDBRANCH  54  73
BRANCH  66  79
ATOM     79  C   UNL A   1      42.510  34.916  32.839  1.00  0.00    -0.014 A 
ATOM     80  C   UNL A   1      43.234  35.943  32.213  1.00  0.00     0.009 A 
ATOM     81  C   UNL A   1      42.038  35.114  34.146  1.00  0.00     0.009 A 
ATOM     82  C   UNL A   1      43.504  37.131  32.893  1.00  0.00     0.001 A 
ATOM     83  C   UNL A   1      42.287  36.313  34.813  1.00  0.00     0.001 A 
ATOM     84  C   UNL A   1      43.026  37.318  34.189  1.00  0.00     0.000 A 
ENDBRANCH  66  79
ENDBRANCH  40  41
ENDBRANCH  32  35
ENDBRANCH  30  31
ENDBRANCH  29  30
ENDBRANCH   1  29
TORSDOF 16
ENDMDL
MODEL 3
REMARK VINA RESULT:     -11.1      3.281      8.589
REMARK SMILES CCCc1cc(OC(F)(F)F)cc2c1O[C@@H](C(F)(F)F)C(C(=O)NCCCCNC(=O)c1ccc(-c3c4nc(c(-c5ccccc5)c5ccc([nH]5)c(-c5ccccc5)c5nc(c(-c6ccccc6)c6ccc3[nH]6)C=C5)C=C4)cc1)=C2
REMARK SMILES IDX 26 1 25 2 24 3 22 4 23 5 21 7 4 8 5 9 14 10 6 11 13 12 15 13
REMARK SMILES IDX 12 14 80 15 16 16 3 17 2 18 1 19 7 20 8 21 9 22 10 23 11 24
REMARK SMILES IDX 17 25 18 26 19 27 20 28 27 29 28 30 29 31 30 32 31 34 32 35
REMARK SMILES IDX 33 36 79 37 34 38 78 39 35 40 36 41 37 42 72 43 38 44 77 45
REMARK SMILES IDX 71 46 73 47 39 48 76 49 70 50 69 51 40 53 62 54 47 55 61 56
REMARK SMILES IDX 48 57 51 58 60 59 74 60 49 61 50 62 59 64 75 65 52 66 41 67
REMARK SMILES IDX 42 68 46 69 43 70 45 71 44 72 63 73 64 74 68 75 65 76 67 77
REMARK SMILES IDX 66 78 53 79 54 80 58 81 55 82 57 83 56 84
REMARK H PARENT 24 6 29 33 73 52 51 63
REMARK Flexibility Score: inf
ROOT
ATOM      1  C   UNL A   1      32.098  29.126  27.344  1.00  0.00     0.023 C 
ENDROOT
BRANCH   1   2
ATOM      2  C   UNL A   1      31.709  27.951  26.438  1.00  0.00     0.116 C 
BRANCH   2   3
ATOM      3  N   UNL A   1      32.026  28.257  25.054  1.00  0.00    -0.352 N 
ATOM      4  C   UNL A   1      32.630  27.536  24.071  1.00  0.00     0.251 C 
ATOM      5  O   UNL A   1      32.905  28.112  23.022  1.00  0.00    -0.270 OA
ATOM      6  H   UNL A   1      31.752  29.160  24.773  1.00  0.00     0.163 HD
BRANCH   4   7
ATOM      7  C   UNL A   1      32.910  26.081  24.192  1.00  0.00     0.067 C 
ATOM      8  C   UNL A   1      33.359  21.915  24.679  1.00  0.00    -0.002 A 
ATOM      9  C   UNL A   1      34.597  21.428  25.138  1.00  0.00     0.054 A 
ATOM     10  C   UNL A   1      33.212  23.303  24.496  1.00  0.00     0.131 A 
ATOM     11  C   UNL A   1      35.637  22.297  25.475  1.00  0.00     0.130 A 
ATOM     12  C   UNL A   1      34.259  24.172  24.792  1.00  0.00     0.021 A 
ATOM     13  O   UNL A   1      31.990  23.763  24.088  1.00  0.00    -0.475 OA
ATOM     14  C   UNL A   1      35.465  23.667  25.286  1.00  0.00     0.058 A 
ATOM     15  C   UNL A   1      34.067  25.607  24.674  1.00  0.00     0.025 C 
ATOM     16  C   UNL A   1      31.888  25.127  23.583  1.00  0.00     0.314 C 
BRANCH   8  17
ATOM     17  C   UNL A   1      32.199  20.997  24.336  1.00  0.00     0.039 C 
BRANCH  17  18
ATOM     18  C   UNL A   1      32.451  19.484  24.289  1.00  0.00     0.001 C 
ATOM     19  C   UNL A   1      32.450  18.914  22.875  1.00  0.00     0.004 C 
ENDBRANCH  17  18
ENDBRANCH   8  17
BRANCH  11  20
ATOM     20  O   UNL A   1      36.851  21.950  25.997  1.00  0.00    -0.406 OA
BRANCH  20  21
ATOM     21  C   UNL A   1      37.786  21.324  25.135  1.00  0.00     0.573 C 
ATOM     22  F   UNL A   1      39.057  21.599  25.501  1.00  0.00    -0.132 F 
ATOM     23  F   UNL A   1      37.600  19.988  25.113  1.00  0.00    -0.132 F 
ATOM     24  F   UNL A   1      37.602  21.796  23.883  1.00  0.00    -0.132 F 
ENDBRANCH  20  21
ENDBRANCH  11  20
BRANCH  16  25
ATOM     25  C   UNL A   1      30.402  25.539  23.702  1.00  0.00     0.429 C 
ATOM     26  F   UNL A   1      30.112  26.668  23.019  1.00  0.00    -0.167 F 
ATOM     27  F   UNL A   1      29.591  24.580  23.174  1.00  0.00    -0.167 F 
ATOM     28  F   UNL A   1      30.015  25.709  24.988  1.00  0.00    -0.167 F 
ENDBRANCH  16  25
ENDBRANCH   4   7
ENDBRANCH   2   3
ENDBRANCH   1   2
BRANCH   1  29
ATOM     29  C   UNL A   1      31.903  30.505  26.710  1.00  0.00     0.023 C 
BRANCH  29  30
ATOM     30  C   UNL A   1      33.012  31.508  27.004  1.00  0.00     0.116 C 
BRANCH  30  31
ATOM     31  N   UNL A   1      32.515  32.818  27.394  1.00  0.00    -0.352 N 
ATOM     32  C   UNL A   1      33.096  33.744  28.228  1.00  0.00     0.251 C 
ATOM     33  H   UNL A   1      31.645  33.076  27.010  1.00  0.00     0.163 HD
ATOM     34  O   UNL A   1      32.502  34.765  28.535  1.00  0.00    -0.269 OA
BRANCH  32  35
ATOM     35  C   UNL A   1      34.435  33.462  28.787  1.00  0.00     0.039 A 
ATOM     36  C   UNL A   1      34.522  32.718  29.967  1.00  0.00     0.014 A 
ATOM     37  C   UNL A   1      35.590  33.883  28.124  1.00  0.00     0.014 A 
ATOM     38  C   UNL A   1      35.774  32.323  30.437  1.00  0.00     0.010 A 
ATOM     39  C   UNL A   1      36.833  33.436  28.561  1.00  0.00     0.010 A 
ATOM     40  C   UNL A   1      36.934  32.640  29.711  1.00  0.00    -0.014 A 
BRANCH  40  41
ATOM     41  C   UNL A   1      38.256  32.106  30.113  1.00  0.00     0.031 A 
ATOM     42  C   UNL A   1      38.737  30.785  29.586  1.00  0.00     0.074 A 
ATOM     43  C   UNL A   1      38.990  32.781  31.019  1.00  0.00     0.049 A 
ATOM     44  N   UNL A   1      39.835  30.135  29.874  1.00  0.00    -0.248 NA
ATOM     45  C   UNL A   1      37.859  30.094  28.628  1.00  0.00     0.031 C 
ATOM     46  C   UNL A   1      38.610  34.053  31.641  1.00  0.00     0.029 A 
ATOM     47  N   UNL A   1      40.205  32.486  31.584  1.00  0.00    -0.354 N 
ATOM     48  C   UNL A   1      39.776  28.955  29.144  1.00  0.00     0.074 A 
ATOM     49  C   UNL A   1      38.515  28.958  28.435  1.00  0.00     0.031 C 
ATOM     50  C   UNL A   1      39.582  34.439  32.482  1.00  0.00     0.029 A 
ATOM     51  C   UNL A   1      40.633  33.426  32.489  1.00  0.00     0.049 A 
ATOM     52  H   UNL A   1      40.720  31.677  31.361  1.00  0.00     0.167 HD
ATOM     53  C   UNL A   1      40.697  27.966  29.061  1.00  0.00     0.031 A 
ATOM     54  C   UNL A   1      41.744  33.465  33.248  1.00  0.00     0.031 A 
ATOM     55  C   UNL A   1      41.953  27.965  29.761  1.00  0.00     0.049 A 
ATOM     56  C   UNL A   1      42.738  32.343  33.154  1.00  0.00     0.074 A 
ATOM     57  C   UNL A   1      42.982  27.043  29.686  1.00  0.00     0.029 A 
ATOM     58  N   UNL A   1      42.346  28.933  30.673  1.00  0.00    -0.354 N 
ATOM     59  N   UNL A   1      42.702  31.272  32.399  1.00  0.00    -0.248 NA
ATOM     60  C   UNL A   1      43.925  32.437  34.016  1.00  0.00     0.031 C 
ATOM     61  C   UNL A   1      43.977  27.425  30.592  1.00  0.00     0.029 A 
ATOM     62  C   UNL A   1      43.588  28.610  31.194  1.00  0.00     0.049 A 
ATOM     63  H   UNL A   1      41.821  29.730  30.915  1.00  0.00     0.167 HD
ATOM     64  C   UNL A   1      43.867  30.573  32.683  1.00  0.00     0.074 A 
ATOM     65  C   UNL A   1      44.597  31.350  33.664  1.00  0.00     0.031 C 
ATOM     66  C   UNL A   1      44.293  29.388  32.180  1.00  0.00     0.031 A 
BRANCH  53  67
ATOM     67  C   UNL A   1      40.371  26.793  28.180  1.00  0.00    -0.014 A 
ATOM     68  C   UNL A   1      39.572  25.735  28.643  1.00  0.00     0.009 A 
ATOM     69  C   UNL A   1      40.839  26.763  26.857  1.00  0.00     0.009 A 
ATOM     70  C   UNL A   1      39.278  24.654  27.810  1.00  0.00     0.001 A 
ATOM     71  C   UNL A   1      40.521  25.693  26.019  1.00  0.00     0.001 A 
ATOM     72  C   UNL A   1      39.749  24.635  26.498  1.00  0.00     0.000 A 
ENDBRANCH  53  67
BRANCH  54  73
ATOM     73  C   UNL A   1      41.978  34.612  34.163  1.00  0.00    -0.014 A 
ATOM     74  C   UNL A   1      41.501  34.577  35.481  1.00  0.00     0.009 A 
ATOM     75  C   UNL A   1      42.678  35.746  33.722  1.00  0.00     0.009 A 
ATOM     76  C   UNL A   1      41.700  35.665  36.335  1.00  0.00     0.001 A 
ATOM     77  C   UNL A   1      42.898  36.821  34.586  1.00  0.00     0.001 A 
ATOM     78  C   UNL A   1      42.403  36.783  35.888  1.00  0.00     0.000 A 
ENDBRANCH  54  73
BRANCH  66  79
ATOM     79  C   UNL A   1      45.611  28.870  32.677  1.00  0.00    -0.014 A 
ATOM     80  C   UNL A   1      45.678  28.007  33.782  1.00  0.00     0.009 A 
ATOM     81  C   UNL A   1      46.796  29.217  32.010  1.00  0.00     0.009 A 
ATOM     82  C   UNL A   1      46.910  27.525  34.227  1.00  0.00     0.001 A 
ATOM     83  C   UNL A   1      48.023  28.713  32.441  1.00  0.00     0.001 A 
ATOM     84  C   UNL A   1      48.080  27.873  33.553  1.00  0.00     0.000 A 
ENDBRANCH  66  79
ENDBRANCH  40  41
ENDBRANCH  32  35
ENDBRANCH  30  31
ENDBRANCH  29  30
ENDBRANCH   1  29
TORSDOF 16
ENDMDL
