MODEL 1
REMARK VINA RESULT:     -10.1      0.000      0.000
REMARK SMILES CN(CCOCC1CC1)c1nccnc1C(=O)NCCCCNC(=O)c1ccc(-c2c3nc(c(-c4ccccc4)c4ccc([nH]4)c(-c4ccccc4)c4nc(c(-c5ccccc5)c5ccc2[nH]5)C=C4)C=C3)cc1
REMARK SMILES IDX 16 1 17 2 18 3 15 5 10 6 11 7 12 8 14 9 13 10 2 11 1 12 3 13
REMARK SMILES IDX 4 14 5 15 6 16 7 17 8 18 9 19 19 20 20 21 21 22 22 23 23 24
REMARK SMILES IDX 24 25 25 27 26 28 27 29 73 30 28 31 72 32 29 33 30 34 31 35
REMARK SMILES IDX 66 36 32 37 71 38 65 39 67 40 33 41 70 42 64 43 63 44 34 46
REMARK SMILES IDX 56 47 41 48 55 49 42 50 45 51 54 52 68 53 43 54 44 55 53 57
REMARK SMILES IDX 69 58 46 59 35 60 36 61 40 62 37 63 39 64 38 65 57 66 58 67
REMARK SMILES IDX 62 68 59 69 61 70 60 71 47 72 48 73 52 74 49 75 51 76 50 77
REMARK H PARENT 18 4 23 26 67 45 45 56
REMARK Flexibility Score: inf
ROOT
ATOM      1  C   UNL A   1      31.748  25.517  26.224  1.00  0.00     0.273 C 
ATOM      2  O   UNL A   1      31.415  24.561  26.975  1.00  0.00    -0.267 OA
ATOM      3  N   UNL A   1      31.368  26.674  26.977  1.00  0.00    -0.351 N 
ATOM      4  H   UNL A   1      30.638  26.314  27.531  1.00  0.00     0.163 HD
ENDROOT
BRANCH   1   5
ATOM      5  C   UNL A   1      32.339  24.950  24.730  1.00  0.00     0.170 A 
ATOM      6  C   UNL A   1      33.219  23.956  24.080  1.00  0.00     0.160 A 
ATOM      7  N   UNL A   1      33.442  23.978  22.720  1.00  0.00    -0.235 NA
ATOM      8  C   UNL A   1      32.865  24.919  21.969  1.00  0.00     0.133 A 
ATOM      9  N   UNL A   1      31.770  25.865  23.852  1.00  0.00    -0.246 NA
ATOM     10  C   UNL A   1      32.035  25.841  22.528  1.00  0.00     0.132 A 
BRANCH   6  11
ATOM     11  N   UNL A   1      34.019  22.947  24.583  1.00  0.00    -0.355 N 
ATOM     12  C   UNL A   1      35.220  22.529  23.820  1.00  0.00     0.145 C 
BRANCH  11  13
ATOM     13  C   UNL A   1      33.451  21.815  25.330  1.00  0.00     0.146 C 
BRANCH  13  14
ATOM     14  C   UNL A   1      32.123  21.394  24.704  1.00  0.00     0.181 C 
BRANCH  14  15
ATOM     15  O   UNL A   1      32.293  20.090  24.092  1.00  0.00    -0.379 OA
BRANCH  15  16
ATOM     16  C   UNL A   1      33.322  19.377  24.804  1.00  0.00     0.163 C 
BRANCH  16  17
ATOM     17  C   UNL A   1      33.428  17.882  24.530  1.00  0.00     0.015 C 
ATOM     18  C   UNL A   1      33.597  17.009  23.285  1.00  0.00     0.006 C 
ATOM     19  C   UNL A   1      34.782  17.187  24.136  1.00  0.00     0.006 C 
ENDBRANCH  16  17
ENDBRANCH  15  16
ENDBRANCH  14  15
ENDBRANCH  13  14
ENDBRANCH  11  13
ENDBRANCH   6  11
ENDBRANCH   1   5
BRANCH   3  20
ATOM     20  C   UNL A   1      31.412  28.174  27.455  1.00  0.00     0.116 C 
BRANCH  20  21
ATOM     21  C   UNL A   1      32.574  29.220  27.195  1.00  0.00     0.023 C 
BRANCH  21  22
ATOM     22  C   UNL A   1      32.247  30.722  26.906  1.00  0.00     0.023 C 
BRANCH  22  23
ATOM     23  C   UNL A   1      33.262  31.828  27.252  1.00  0.00     0.116 C 
BRANCH  23  24
ATOM     24  N   UNL A   1      32.720  33.130  27.664  1.00  0.00    -0.352 N 
ATOM     25  C   UNL A   1      33.263  34.108  28.479  1.00  0.00     0.251 C 
ATOM     26  H   UNL A   1      31.829  33.342  27.301  1.00  0.00     0.163 HD
ATOM     27  O   UNL A   1      32.679  35.183  28.660  1.00  0.00    -0.269 OA
BRANCH  25  28
ATOM     28  C   UNL A   1      34.532  33.864  29.200  1.00  0.00     0.039 A 
ATOM     29  C   UNL A   1      34.511  33.184  30.421  1.00  0.00     0.014 A 
ATOM     30  C   UNL A   1      35.752  34.234  28.635  1.00  0.00     0.014 A 
ATOM     31  C   UNL A   1      35.708  32.724  30.980  1.00  0.00     0.010 A 
ATOM     32  C   UNL A   1      36.933  33.693  29.137  1.00  0.00     0.010 A 
ATOM     33  C   UNL A   1      36.921  32.897  30.293  1.00  0.00    -0.014 A 
BRANCH  33  34
ATOM     34  C   UNL A   1      38.166  32.199  30.722  1.00  0.00     0.031 A 
ATOM     35  C   UNL A   1      39.066  32.803  31.764  1.00  0.00     0.074 A 
ATOM     36  C   UNL A   1      38.541  31.062  30.099  1.00  0.00     0.049 A 
ATOM     37  N   UNL A   1      40.224  32.375  32.205  1.00  0.00    -0.248 NA
ATOM     38  C   UNL A   1      38.623  34.068  32.372  1.00  0.00     0.031 C 
ATOM     39  C   UNL A   1      37.796  30.391  29.029  1.00  0.00     0.029 A 
ATOM     40  N   UNL A   1      39.651  30.268  30.270  1.00  0.00    -0.354 N 
ATOM     41  C   UNL A   1      40.651  33.324  33.125  1.00  0.00     0.074 A 
ATOM     42  C   UNL A   1      39.659  34.377  33.138  1.00  0.00     0.031 C 
ATOM     43  C   UNL A   1      38.448  29.274  28.669  1.00  0.00     0.029 A 
ATOM     44  C   UNL A   1      39.680  29.169  29.444  1.00  0.00     0.049 A 
ATOM     45  H   UNL A   1      40.359  30.467  30.925  1.00  0.00     0.167 HD
ATOM     46  C   UNL A   1      41.756  33.312  33.909  1.00  0.00     0.031 A 
ATOM     47  C   UNL A   1      40.594  28.187  29.317  1.00  0.00     0.031 A 
ATOM     48  C   UNL A   1      42.743  32.264  33.907  1.00  0.00     0.049 A 
ATOM     49  C   UNL A   1      41.822  28.207  30.185  1.00  0.00     0.074 A 
ATOM     50  C   UNL A   1      43.866  32.138  34.707  1.00  0.00     0.029 A 
ATOM     51  N   UNL A   1      42.730  31.167  33.060  1.00  0.00    -0.354 N 
ATOM     52  N   UNL A   1      42.170  29.072  31.106  1.00  0.00    -0.248 NA
ATOM     53  C   UNL A   1      42.780  27.106  30.001  1.00  0.00     0.031 C 
ATOM     54  C   UNL A   1      44.561  30.992  34.306  1.00  0.00     0.029 A 
ATOM     55  C   UNL A   1      43.838  30.373  33.300  1.00  0.00     0.049 A 
ATOM     56  H   UNL A   1      42.034  30.981  32.387  1.00  0.00     0.167 HD
ATOM     57  C   UNL A   1      43.367  28.604  31.632  1.00  0.00     0.074 A 
ATOM     58  C   UNL A   1      43.678  27.371  30.940  1.00  0.00     0.031 C 
ATOM     59  C   UNL A   1      44.138  29.148  32.605  1.00  0.00     0.031 A 
BRANCH  46  60
ATOM     60  C   UNL A   1      41.955  34.477  34.839  1.00  0.00    -0.014 A 
ATOM     61  C   UNL A   1      41.469  34.450  36.156  1.00  0.00     0.009 A 
ATOM     62  C   UNL A   1      42.668  35.606  34.404  1.00  0.00     0.009 A 
ATOM     63  C   UNL A   1      41.654  35.543  37.003  1.00  0.00     0.001 A 
ATOM     64  C   UNL A   1      42.881  36.685  35.264  1.00  0.00     0.001 A 
ATOM     65  C   UNL A   1      42.363  36.658  36.558  1.00  0.00     0.000 A 
ENDBRANCH  46  60
BRANCH  47  66
ATOM     66  C   UNL A   1      40.382  27.087  28.338  1.00  0.00    -0.014 A 
ATOM     67  C   UNL A   1      40.899  27.183  27.036  1.00  0.00     0.009 A 
ATOM     68  C   UNL A   1      39.646  25.944  28.690  1.00  0.00     0.009 A 
ATOM     69  C   UNL A   1      40.659  26.174  26.100  1.00  0.00     0.001 A 
ATOM     70  C   UNL A   1      39.433  24.923  27.761  1.00  0.00     0.001 A 
ATOM     71  C   UNL A   1      39.930  25.043  26.464  1.00  0.00     0.000 A 
ENDBRANCH  47  66
BRANCH  59  72
ATOM     72  C   UNL A   1      45.376  28.394  33.008  1.00  0.00    -0.014 A 
ATOM     73  C   UNL A   1      46.619  28.654  32.409  1.00  0.00     0.009 A 
ATOM     74  C   UNL A   1      45.303  27.440  34.034  1.00  0.00     0.009 A 
ATOM     75  C   UNL A   1      47.756  27.948  32.807  1.00  0.00     0.001 A 
ATOM     76  C   UNL A   1      46.447  26.759  34.452  1.00  0.00     0.001 A 
ATOM     77  C   UNL A   1      47.670  27.007  33.832  1.00  0.00     0.000 A 
ENDBRANCH  59  72
ENDBRANCH  33  34
ENDBRANCH  25  28
ENDBRANCH  23  24
ENDBRANCH  22  23
ENDBRANCH  21  22
ENDBRANCH  20  21
ENDBRANCH   3  20
TORSDOF 17
ENDMDL
MODEL 2
REMARK VINA RESULT:      -9.8      0.533      6.027
REMARK SMILES CN(CCOCC1CC1)c1nccnc1C(=O)NCCCCNC(=O)c1ccc(-c2c3nc(c(-c4ccccc4)c4ccc([nH]4)c(-c4ccccc4)c4nc(c(-c5ccccc5)c5ccc2[nH]5)C=C4)C=C3)cc1
REMARK SMILES IDX 16 1 17 2 18 3 15 5 10 6 11 7 12 8 14 9 13 10 2 11 1 12 3 13
REMARK SMILES IDX 4 14 5 15 6 16 7 17 8 18 9 19 19 20 20 21 21 22 22 23 23 24
REMARK SMILES IDX 24 25 25 27 26 28 27 29 73 30 28 31 72 32 29 33 30 34 31 35
REMARK SMILES IDX 66 36 32 37 71 38 65 39 67 40 33 41 70 42 64 43 63 44 34 46
REMARK SMILES IDX 56 47 41 48 55 49 42 50 45 51 54 52 68 53 43 54 44 55 53 57
REMARK SMILES IDX 69 58 46 59 35 60 36 61 40 62 37 63 39 64 38 65 57 66 58 67
REMARK SMILES IDX 62 68 59 69 61 70 60 71 47 72 48 73 52 74 49 75 51 76 50 77
REMARK H PARENT 18 4 23 26 67 45 45 56
REMARK Flexibility Score: inf
ROOT
ATOM      1  C   UNL A   1      31.919  25.683  26.110  1.00  0.00     0.273 C 
ATOM      2  O   UNL A   1      31.491  24.681  26.744  1.00  0.00    -0.267 OA
ATOM      3  N   UNL A   1      31.600  26.779  26.976  1.00  0.00    -0.351 N 
ATOM      4  H   UNL A   1      30.827  26.419  27.468  1.00  0.00     0.163 HD
ENDROOT
BRANCH   1   5
ATOM      5  C   UNL A   1      32.517  25.236  24.579  1.00  0.00     0.170 A 
ATOM      6  C   UNL A   1      33.523  24.418  23.869  1.00  0.00     0.160 A 
ATOM      7  N   UNL A   1      33.662  24.483  22.499  1.00  0.00    -0.235 NA
ATOM      8  C   UNL A   1      32.884  25.307  21.794  1.00  0.00     0.133 A 
ATOM      9  N   UNL A   1      31.745  26.036  23.745  1.00  0.00    -0.246 NA
ATOM     10  C   UNL A   1      31.935  26.065  22.409  1.00  0.00     0.132 A 
BRANCH   6  11
ATOM     11  N   UNL A   1      34.517  23.567  24.314  1.00  0.00    -0.355 N 
ATOM     12  C   UNL A   1      35.446  22.963  23.328  1.00  0.00     0.145 C 
BRANCH  11  13
ATOM     13  C   UNL A   1      34.305  22.666  25.457  1.00  0.00     0.146 C 
BRANCH  13  14
ATOM     14  C   UNL A   1      33.435  21.485  25.030  1.00  0.00     0.181 C 
BRANCH  14  15
ATOM     15  O   UNL A   1      34.208  20.266  25.172  1.00  0.00    -0.379 OA
BRANCH  15  16
ATOM     16  C   UNL A   1      33.712  19.293  24.234  1.00  0.00     0.163 C 
BRANCH  16  17
ATOM     17  C   UNL A   1      34.287  17.886  24.345  1.00  0.00     0.015 C 
ATOM     18  C   UNL A   1      33.711  16.488  24.578  1.00  0.00     0.006 C 
ATOM     19  C   UNL A   1      34.126  16.814  23.207  1.00  0.00     0.006 C 
ENDBRANCH  16  17
ENDBRANCH  15  16
ENDBRANCH  14  15
ENDBRANCH  13  14
ENDBRANCH  11  13
ENDBRANCH   6  11
ENDBRANCH   1   5
BRANCH   3  20
ATOM     20  C   UNL A   1      31.739  28.211  27.616  1.00  0.00     0.116 C 
BRANCH  20  21
ATOM     21  C   UNL A   1      31.436  29.599  26.914  1.00  0.00     0.023 C 
BRANCH  21  22
ATOM     22  C   UNL A   1      32.598  30.483  26.353  1.00  0.00     0.023 C 
BRANCH  22  23
ATOM     23  C   UNL A   1      33.412  31.397  27.289  1.00  0.00     0.116 C 
BRANCH  23  24
ATOM     24  N   UNL A   1      32.835  32.711  27.609  1.00  0.00    -0.352 N 
ATOM     25  C   UNL A   1      33.353  33.758  28.352  1.00  0.00     0.251 C 
ATOM     26  H   UNL A   1      31.939  32.872  27.235  1.00  0.00     0.163 HD
ATOM     27  O   UNL A   1      32.740  34.827  28.457  1.00  0.00    -0.269 OA
BRANCH  25  28
ATOM     28  C   UNL A   1      34.629  33.599  29.084  1.00  0.00     0.039 A 
ATOM     29  C   UNL A   1      34.640  32.923  30.308  1.00  0.00     0.014 A 
ATOM     30  C   UNL A   1      35.827  34.046  28.529  1.00  0.00     0.014 A 
ATOM     31  C   UNL A   1      35.860  32.543  30.879  1.00  0.00     0.010 A 
ATOM     32  C   UNL A   1      37.036  33.584  29.043  1.00  0.00     0.010 A 
ATOM     33  C   UNL A   1      37.066  32.793  30.202  1.00  0.00    -0.014 A 
BRANCH  33  34
ATOM     34  C   UNL A   1      38.350  32.179  30.644  1.00  0.00     0.031 A 
ATOM     35  C   UNL A   1      38.834  30.889  30.042  1.00  0.00     0.074 A 
ATOM     36  C   UNL A   1      39.037  32.735  31.664  1.00  0.00     0.049 A 
ATOM     37  N   UNL A   1      39.886  30.174  30.355  1.00  0.00    -0.248 NA
ATOM     38  C   UNL A   1      38.014  30.310  28.966  1.00  0.00     0.031 C 
ATOM     39  C   UNL A   1      38.657  33.955  32.383  1.00  0.00     0.029 A 
ATOM     40  N   UNL A   1      40.201  32.343  32.282  1.00  0.00    -0.354 N 
ATOM     41  C   UNL A   1      39.845  29.059  29.529  1.00  0.00     0.074 A 
ATOM     42  C   UNL A   1      38.635  29.162  28.741  1.00  0.00     0.031 C 
ATOM     43  C   UNL A   1      39.586  34.229  33.313  1.00  0.00     0.029 A 
ATOM     44  C   UNL A   1      40.604  33.184  33.293  1.00  0.00     0.049 A 
ATOM     45  H   UNL A   1      40.701  31.535  32.024  1.00  0.00     0.167 HD
ATOM     46  C   UNL A   1      40.742  28.051  29.414  1.00  0.00     0.031 A 
ATOM     47  C   UNL A   1      41.668  33.122  34.118  1.00  0.00     0.031 A 
ATOM     48  C   UNL A   1      41.951  27.946  30.189  1.00  0.00     0.049 A 
ATOM     49  C   UNL A   1      42.639  31.982  33.984  1.00  0.00     0.074 A 
ATOM     50  C   UNL A   1      42.948  26.990  30.102  1.00  0.00     0.029 A 
ATOM     51  N   UNL A   1      42.322  28.822  31.196  1.00  0.00    -0.354 N 
ATOM     52  N   UNL A   1      42.625  30.978  33.142  1.00  0.00    -0.248 NA
ATOM     53  C   UNL A   1      43.782  31.974  34.910  1.00  0.00     0.031 C 
ATOM     54  C   UNL A   1      43.897  27.258  31.095  1.00  0.00     0.029 A 
ATOM     55  C   UNL A   1      43.521  28.415  31.757  1.00  0.00     0.049 A 
ATOM     56  H   UNL A   1      41.809  29.617  31.472  1.00  0.00     0.167 HD
ATOM     57  C   UNL A   1      43.768  30.238  33.415  1.00  0.00     0.074 A 
ATOM     58  C   UNL A   1      44.462  30.917  34.488  1.00  0.00     0.031 C 
ATOM     59  C   UNL A   1      44.203  29.098  32.825  1.00  0.00     0.031 A 
BRANCH  46  60
ATOM     60  C   UNL A   1      40.444  26.973  28.408  1.00  0.00    -0.014 A 
ATOM     61  C   UNL A   1      40.961  27.031  27.104  1.00  0.00     0.009 A 
ATOM     62  C   UNL A   1      39.663  25.866  28.778  1.00  0.00     0.009 A 
ATOM     63  C   UNL A   1      40.668  26.027  26.180  1.00  0.00     0.001 A 
ATOM     64  C   UNL A   1      39.398  24.847  27.862  1.00  0.00     0.001 A 
ATOM     65  C   UNL A   1      39.891  24.934  26.561  1.00  0.00     0.000 A 
ENDBRANCH  46  60
BRANCH  47  66
ATOM     66  C   UNL A   1      41.887  34.181  35.140  1.00  0.00    -0.014 A 
ATOM     67  C   UNL A   1      42.620  35.336  34.822  1.00  0.00     0.009 A 
ATOM     68  C   UNL A   1      41.385  34.037  36.442  1.00  0.00     0.009 A 
ATOM     69  C   UNL A   1      42.870  36.309  35.794  1.00  0.00     0.001 A 
ATOM     70  C   UNL A   1      41.611  35.025  37.404  1.00  0.00     0.001 A 
ATOM     71  C   UNL A   1      42.362  36.154  37.082  1.00  0.00     0.000 A 
ENDBRANCH  47  66
BRANCH  59  72
ATOM     72  C   UNL A   1      45.513  28.530  33.302  1.00  0.00    -0.014 A 
ATOM     73  C   UNL A   1      45.566  27.576  34.330  1.00  0.00     0.009 A 
ATOM     74  C   UNL A   1      46.707  28.926  32.679  1.00  0.00     0.009 A 
ATOM     75  C   UNL A   1      46.793  27.057  34.748  1.00  0.00     0.001 A 
ATOM     76  C   UNL A   1      47.928  28.381  33.077  1.00  0.00     0.001 A 
ATOM     77  C   UNL A   1      47.971  27.455  34.117  1.00  0.00     0.000 A 
ENDBRANCH  59  72
ENDBRANCH  33  34
ENDBRANCH  25  28
ENDBRANCH  23  24
ENDBRANCH  22  23
ENDBRANCH  21  22
ENDBRANCH  20  21
ENDBRANCH   3  20
TORSDOF 17
ENDMDL
MODEL 3
REMARK VINA RESULT:      -9.8      5.162      9.878
REMARK SMILES CN(CCOCC1CC1)c1nccnc1C(=O)NCCCCNC(=O)c1ccc(-c2c3nc(c(-c4ccccc4)c4ccc([nH]4)c(-c4ccccc4)c4nc(c(-c5ccccc5)c5ccc2[nH]5)C=C4)C=C3)cc1
REMARK SMILES IDX 16 1 17 2 18 3 15 5 10 6 11 7 12 8 14 9 13 10 2 11 1 12 3 13
REMARK SMILES IDX 4 14 5 15 6 16 7 17 8 18 9 19 19 20 20 21 21 22 22 23 23 24
REMARK SMILES IDX 24 25 25 27 26 28 27 29 73 30 28 31 72 32 29 33 30 34 31 35
REMARK SMILES IDX 66 36 32 37 71 38 65 39 67 40 33 41 70 42 64 43 63 44 34 46
REMARK SMILES IDX 56 47 41 48 55 49 42 50 45 51 54 52 68 53 43 54 44 55 53 57
REMARK SMILES IDX 69 58 46 59 35 60 36 61 40 62 37 63 39 64 38 65 57 66 58 67
REMARK SMILES IDX 62 68 59 69 61 70 60 71 47 72 48 73 52 74 49 75 51 76 50 77
REMARK H PARENT 18 4 23 26 67 45 45 56
REMARK Flexibility Score: inf
ROOT
ATOM      1  C   UNL A   1      36.867  22.331  25.700  1.00  0.00     0.273 C 
ATOM      2  O   UNL A   1      36.827  21.231  25.086  1.00  0.00    -0.267 OA
ATOM      3  N   UNL A   1      38.186  22.346  26.259  1.00  0.00    -0.351 N 
ATOM      4  H   UNL A   1      38.375  21.383  26.338  1.00  0.00     0.163 HD
ENDROOT
BRANCH   1   5
ATOM      5  C   UNL A   1      35.361  23.125  25.641  1.00  0.00     0.170 A 
ATOM      6  C   UNL A   1      33.934  23.035  26.016  1.00  0.00     0.160 A 
ATOM      7  N   UNL A   1      33.027  23.993  25.618  1.00  0.00    -0.235 NA
ATOM      8  C   UNL A   1      33.434  25.020  24.869  1.00  0.00     0.133 A 
ATOM      9  N   UNL A   1      35.680  24.247  24.884  1.00  0.00    -0.246 NA
ATOM     10  C   UNL A   1      34.743  25.147  24.516  1.00  0.00     0.132 A 
BRANCH   6  11
ATOM     11  N   UNL A   1      33.204  22.069  26.681  1.00  0.00    -0.355 N 
ATOM     12  C   UNL A   1      32.553  22.414  27.969  1.00  0.00     0.145 C 
BRANCH  11  13
ATOM     13  C   UNL A   1      33.596  20.652  26.654  1.00  0.00     0.146 C 
BRANCH  13  14
ATOM     14  C   UNL A   1      33.364  20.076  25.258  1.00  0.00     0.181 C 
BRANCH  14  15
ATOM     15  O   UNL A   1      32.197  19.217  25.301  1.00  0.00    -0.379 OA
BRANCH  15  16
ATOM     16  C   UNL A   1      32.382  18.140  24.363  1.00  0.00     0.163 C 
BRANCH  16  17
ATOM     17  C   UNL A   1      33.819  17.718  24.084  1.00  0.00     0.015 C 
ATOM     18  C   UNL A   1      34.685  16.503  24.424  1.00  0.00     0.006 C 
ATOM     19  C   UNL A   1      34.186  16.597  23.045  1.00  0.00     0.006 C 
ENDBRANCH  16  17
ENDBRANCH  15  16
ENDBRANCH  14  15
ENDBRANCH  13  14
ENDBRANCH  11  13
ENDBRANCH   6  11
ENDBRANCH   1   5
BRANCH   3  20
ATOM     20  C   UNL A   1      39.516  22.973  26.825  1.00  0.00     0.116 C 
BRANCH  20  21
ATOM     21  C   UNL A   1      40.921  22.255  26.960  1.00  0.00     0.023 C 
BRANCH  21  22
ATOM     22  C   UNL A   1      41.379  21.187  25.912  1.00  0.00     0.023 C 
BRANCH  22  23
ATOM     23  C   UNL A   1      42.320  20.038  26.320  1.00  0.00     0.116 C 
BRANCH  23  24
ATOM     24  N   UNL A   1      43.071  19.374  25.246  1.00  0.00    -0.352 N 
ATOM     25  C   UNL A   1      44.218  19.768  24.579  1.00  0.00     0.251 C 
ATOM     26  H   UNL A   1      42.699  18.510  24.954  1.00  0.00     0.163 HD
ATOM     27  O   UNL A   1      44.749  19.035  23.738  1.00  0.00    -0.269 OA
BRANCH  25  28
ATOM     28  C   UNL A   1      44.802  21.106  24.821  1.00  0.00     0.039 A 
ATOM     29  C   UNL A   1      44.587  22.129  23.892  1.00  0.00     0.014 A 
ATOM     30  C   UNL A   1      45.497  21.376  25.999  1.00  0.00     0.014 A 
ATOM     31  C   UNL A   1      44.909  23.449  24.228  1.00  0.00     0.010 A 
ATOM     32  C   UNL A   1      45.727  22.697  26.373  1.00  0.00     0.010 A 
ATOM     33  C   UNL A   1      45.399  23.754  25.509  1.00  0.00    -0.014 A 
BRANCH  33  34
ATOM     34  C   UNL A   1      45.505  25.160  25.990  1.00  0.00     0.031 A 
ATOM     35  C   UNL A   1      46.827  25.877  25.985  1.00  0.00     0.074 A 
ATOM     36  C   UNL A   1      44.423  25.765  26.524  1.00  0.00     0.049 A 
ATOM     37  N   UNL A   1      47.120  27.073  26.434  1.00  0.00    -0.248 NA
ATOM     38  C   UNL A   1      47.977  25.145  25.431  1.00  0.00     0.031 C 
ATOM     39  C   UNL A   1      43.089  25.170  26.648  1.00  0.00     0.029 A 
ATOM     40  N   UNL A   1      44.274  27.016  27.075  1.00  0.00    -0.354 N 
ATOM     41  C   UNL A   1      48.485  27.228  26.230  1.00  0.00     0.074 A 
ATOM     42  C   UNL A   1      48.972  25.985  25.672  1.00  0.00     0.031 C 
ATOM     43  C   UNL A   1      42.254  26.067  27.199  1.00  0.00     0.029 A 
ATOM     44  C   UNL A   1      42.998  27.281  27.513  1.00  0.00     0.049 A 
ATOM     45  H   UNL A   1      45.013  27.663  27.147  1.00  0.00     0.167 HD
ATOM     46  C   UNL A   1      49.263  28.313  26.462  1.00  0.00     0.031 A 
ATOM     47  C   UNL A   1      42.480  28.375  28.106  1.00  0.00     0.031 A 
ATOM     48  C   UNL A   1      48.783  29.554  27.010  1.00  0.00     0.049 A 
ATOM     49  C   UNL A   1      43.369  29.560  28.371  1.00  0.00     0.074 A 
ATOM     50  C   UNL A   1      49.485  30.727  27.228  1.00  0.00     0.029 A 
ATOM     51  N   UNL A   1      47.483  29.782  27.433  1.00  0.00    -0.354 N 
ATOM     52  N   UNL A   1      44.641  29.717  28.099  1.00  0.00    -0.248 NA
ATOM     53  C   UNL A   1      42.744  30.724  29.017  1.00  0.00     0.031 C 
ATOM     54  C   UNL A   1      48.622  31.647  27.834  1.00  0.00     0.029 A 
ATOM     55  C   UNL A   1      47.368  31.067  27.935  1.00  0.00     0.049 A 
ATOM     56  H   UNL A   1      46.750  29.125  27.385  1.00  0.00     0.167 HD
ATOM     57  C   UNL A   1      44.961  31.004  28.510  1.00  0.00     0.074 A 
ATOM     58  C   UNL A   1      43.746  31.592  29.035  1.00  0.00     0.031 C 
ATOM     59  C   UNL A   1      46.155  31.642  28.455  1.00  0.00     0.031 A 
BRANCH  46  60
ATOM     60  C   UNL A   1      50.723  28.200  26.122  1.00  0.00    -0.014 A 
ATOM     61  C   UNL A   1      51.641  27.649  27.031  1.00  0.00     0.009 A 
ATOM     62  C   UNL A   1      51.185  28.619  24.864  1.00  0.00     0.009 A 
ATOM     63  C   UNL A   1      52.995  27.559  26.704  1.00  0.00     0.001 A 
ATOM     64  C   UNL A   1      52.533  28.498  24.527  1.00  0.00     0.001 A 
ATOM     65  C   UNL A   1      53.439  27.980  25.451  1.00  0.00     0.000 A 
ENDBRANCH  46  60
BRANCH  47  66
ATOM     66  C   UNL A   1      41.041  28.416  28.480  1.00  0.00    -0.014 A 
ATOM     67  C   UNL A   1      40.096  28.991  27.615  1.00  0.00     0.009 A 
ATOM     68  C   UNL A   1      40.604  27.900  29.710  1.00  0.00     0.009 A 
ATOM     69  C   UNL A   1      38.752  29.076  27.986  1.00  0.00     0.001 A 
ATOM     70  C   UNL A   1      39.254  27.959  30.066  1.00  0.00     0.001 A 
ATOM     71  C   UNL A   1      38.331  28.556  29.209  1.00  0.00     0.000 A 
ENDBRANCH  47  66
BRANCH  59  72
ATOM     72  C   UNL A   1      46.201  33.065  28.941  1.00  0.00    -0.014 A 
ATOM     73  C   UNL A   1      46.575  33.378  30.257  1.00  0.00     0.009 A 
ATOM     74  C   UNL A   1      45.908  34.111  28.051  1.00  0.00     0.009 A 
ATOM     75  C   UNL A   1      46.620  34.707  30.682  1.00  0.00     0.001 A 
ATOM     76  C   UNL A   1      45.986  35.440  28.469  1.00  0.00     0.001 A 
ATOM     77  C   UNL A   1      46.332  35.737  29.785  1.00  0.00     0.000 A 
ENDBRANCH  59  72
ENDBRANCH  33  34
ENDBRANCH  25  28
ENDBRANCH  23  24
ENDBRANCH  22  23
ENDBRANCH  21  22
ENDBRANCH  20  21
ENDBRANCH   3  20
TORSDOF 17
ENDMDL
