MODEL 1
REMARK VINA RESULT:     -10.3      0.000      0.000
REMARK SMILES CC(C)C[C@@H](C(=O)NCCCCNC(=O)c1ccc(-c2c3nc(c(-c4ccccc4)c4ccc([nH]4)c(-c4ccccc4)c4nc(c(-c5ccccc5)c5ccc2[nH]5)C=C4)C=C3)cc1)[C@@H]1CCC[C@@H](C)C1
REMARK SMILES IDX 10 1 9 2 8 3 6 4 7 5 5 7 4 8 2 9 1 10 3 11 64 12 65 13 70 14
REMARK SMILES IDX 66 15 68 16 67 17 69 18 11 19 12 20 13 21 14 22 15 24 16 25
REMARK SMILES IDX 17 26 63 27 18 28 62 29 19 30 20 31 21 32 56 33 22 34 61 35
REMARK SMILES IDX 55 36 57 37 23 38 60 39 54 40 53 41 24 43 46 44 31 45 45 46
REMARK SMILES IDX 32 47 35 48 44 49 58 50 33 51 34 52 43 54 59 55 36 56 25 57
REMARK SMILES IDX 26 58 30 59 27 60 29 61 28 62 47 63 48 64 52 65 49 66 51 67
REMARK SMILES IDX 50 68 37 69 38 70 42 71 39 72 41 73 40 74
REMARK H PARENT 8 6 13 23 57 42 35 53
REMARK Flexibility Score: inf
ROOT
ATOM      1  C   UNL A   1      37.245  20.951  24.603  1.00  0.00     0.023 C 
ENDROOT
BRANCH   1   2
ATOM      2  C   UNL A   1      37.365  22.227  25.436  1.00  0.00     0.116 C 
BRANCH   2   3
ATOM      3  N   UNL A   1      36.322  22.377  26.435  1.00  0.00    -0.356 N 
ATOM      4  C   UNL A   1      34.993  22.652  26.403  1.00  0.00     0.223 C 
ATOM      5  O   UNL A   1      34.407  22.507  27.487  1.00  0.00    -0.275 OA
ATOM      6  H   UNL A   1      36.658  22.249  27.352  1.00  0.00     0.163 HD
BRANCH   4   7
ATOM      7  C   UNL A   1      34.189  23.166  25.184  1.00  0.00     0.082 C 
BRANCH   7   8
ATOM      8  C   UNL A   1      33.908  22.052  24.151  1.00  0.00     0.016 C 
BRANCH   8   9
ATOM      9  C   UNL A   1      32.487  21.448  24.058  1.00  0.00    -0.017 C 
ATOM     10  C   UNL A   1      31.454  22.240  24.860  1.00  0.00     0.007 C 
ATOM     11  C   UNL A   1      32.046  21.462  22.586  1.00  0.00     0.007 C 
ENDBRANCH   8   9
ENDBRANCH   7   8
BRANCH   7  12
ATOM     12  C   UNL A   1      34.547  24.613  24.677  1.00  0.00     0.002 C 
ATOM     13  C   UNL A   1      34.113  25.821  25.519  1.00  0.00     0.004 C 
ATOM     14  C   UNL A   1      34.160  24.902  23.202  1.00  0.00     0.007 C 
ATOM     15  C   UNL A   1      32.642  26.097  25.403  1.00  0.00     0.001 C 
ATOM     16  C   UNL A   1      32.670  25.233  22.990  1.00  0.00    -0.014 C 
ATOM     17  C   UNL A   1      32.171  26.304  23.967  1.00  0.00     0.003 C 
ATOM     18  C   UNL A   1      32.397  25.659  21.545  1.00  0.00     0.007 C 
ENDBRANCH   7  12
ENDBRANCH   4   7
ENDBRANCH   2   3
ENDBRANCH   1   2
BRANCH   1  19
ATOM     19  C   UNL A   1      38.176  19.822  24.981  1.00  0.00     0.023 C 
BRANCH  19  20
ATOM     20  C   UNL A   1      39.267  20.265  25.922  1.00  0.00     0.116 C 
BRANCH  20  21
ATOM     21  N   UNL A   1      40.387  19.322  25.947  1.00  0.00    -0.352 N 
ATOM     22  C   UNL A   1      41.730  19.584  26.051  1.00  0.00     0.251 C 
ATOM     23  H   UNL A   1      40.143  18.370  25.879  1.00  0.00     0.163 HD
ATOM     24  O   UNL A   1      42.570  18.730  25.793  1.00  0.00    -0.269 OA
BRANCH  22  25
ATOM     25  C   UNL A   1      42.130  20.928  26.492  1.00  0.00     0.039 A 
ATOM     26  C   UNL A   1      42.459  21.915  25.564  1.00  0.00     0.014 A 
ATOM     27  C   UNL A   1      42.085  21.209  27.859  1.00  0.00     0.014 A 
ATOM     28  C   UNL A   1      42.682  23.213  26.016  1.00  0.00     0.010 A 
ATOM     29  C   UNL A   1      42.131  22.520  28.277  1.00  0.00     0.010 A 
ATOM     30  C   UNL A   1      42.486  23.526  27.371  1.00  0.00    -0.014 A 
BRANCH  30  31
ATOM     31  C   UNL A   1      42.730  24.874  27.919  1.00  0.00     0.031 A 
ATOM     32  C   UNL A   1      44.125  25.226  28.366  1.00  0.00     0.074 A 
ATOM     33  C   UNL A   1      41.700  25.717  28.114  1.00  0.00     0.049 A 
ATOM     34  N   UNL A   1      44.546  26.283  29.009  1.00  0.00    -0.248 NA
ATOM     35  C   UNL A   1      45.177  24.221  28.117  1.00  0.00     0.031 C 
ATOM     36  C   UNL A   1      40.298  25.441  27.791  1.00  0.00     0.029 A 
ATOM     37  N   UNL A   1      41.679  26.979  28.643  1.00  0.00    -0.354 N 
ATOM     38  C   UNL A   1      45.888  26.043  29.275  1.00  0.00     0.074 A 
ATOM     39  C   UNL A   1      46.189  24.709  28.812  1.00  0.00     0.031 C 
ATOM     40  C   UNL A   1      39.559  26.520  28.092  1.00  0.00     0.029 A 
ATOM     41  C   UNL A   1      40.428  27.543  28.663  1.00  0.00     0.049 A 
ATOM     42  H   UNL A   1      42.483  27.438  28.977  1.00  0.00     0.167 HD
ATOM     43  C   UNL A   1      46.805  26.877  29.815  1.00  0.00     0.031 A 
ATOM     44  C   UNL A   1      40.035  28.755  29.094  1.00  0.00     0.031 A 
ATOM     45  C   UNL A   1      46.501  28.218  30.219  1.00  0.00     0.049 A 
ATOM     46  C   UNL A   1      41.079  29.691  29.638  1.00  0.00     0.074 A 
ATOM     47  C   UNL A   1      47.353  29.191  30.705  1.00  0.00     0.029 A 
ATOM     48  N   UNL A   1      45.233  28.779  30.163  1.00  0.00    -0.354 N 
ATOM     49  N   UNL A   1      42.362  29.483  29.814  1.00  0.00    -0.248 NA
ATOM     50  C   UNL A   1      40.624  31.032  30.022  1.00  0.00     0.031 C 
ATOM     51  C   UNL A   1      46.590  30.332  30.980  1.00  0.00     0.029 A 
ATOM     52  C   UNL A   1      45.275  30.084  30.616  1.00  0.00     0.049 A 
ATOM     53  H   UNL A   1      44.423  28.316  29.847  1.00  0.00     0.167 HD
ATOM     54  C   UNL A   1      42.874  30.673  30.310  1.00  0.00     0.074 A 
ATOM     55  C   UNL A   1      41.764  31.603  30.385  1.00  0.00     0.031 C 
ATOM     56  C   UNL A   1      44.145  30.976  30.676  1.00  0.00     0.031 A 
BRANCH  43  57
ATOM     57  C   UNL A   1      48.207  26.350  29.972  1.00  0.00    -0.014 A 
ATOM     58  C   UNL A   1      48.625  25.733  31.164  1.00  0.00     0.009 A 
ATOM     59  C   UNL A   1      49.129  26.490  28.925  1.00  0.00     0.009 A 
ATOM     60  C   UNL A   1      49.949  25.323  31.326  1.00  0.00     0.001 A 
ATOM     61  C   UNL A   1      50.445  26.045  29.076  1.00  0.00     0.001 A 
ATOM     62  C   UNL A   1      50.857  25.476  30.281  1.00  0.00     0.000 A 
ENDBRANCH  43  57
BRANCH  44  63
ATOM     63  C   UNL A   1      38.610  29.156  28.982  1.00  0.00    -0.014 A 
ATOM     64  C   UNL A   1      37.750  29.043  30.086  1.00  0.00     0.009 A 
ATOM     65  C   UNL A   1      38.106  29.685  27.784  1.00  0.00     0.009 A 
ATOM     66  C   UNL A   1      36.411  29.426  29.985  1.00  0.00     0.001 A 
ATOM     67  C   UNL A   1      36.773  30.095  27.694  1.00  0.00     0.001 A 
ATOM     68  C   UNL A   1      35.925  29.957  28.791  1.00  0.00     0.000 A 
ENDBRANCH  44  63
BRANCH  56  69
ATOM     69  C   UNL A   1      44.398  32.373  31.160  1.00  0.00    -0.014 A 
ATOM     70  C   UNL A   1      44.677  33.412  30.261  1.00  0.00     0.009 A 
ATOM     71  C   UNL A   1      44.301  32.658  32.531  1.00  0.00     0.009 A 
ATOM     72  C   UNL A   1      44.886  34.709  30.731  1.00  0.00     0.001 A 
ATOM     73  C   UNL A   1      44.482  33.961  32.994  1.00  0.00     0.001 A 
ATOM     74  C   UNL A   1      44.782  34.983  32.094  1.00  0.00     0.000 A 
ENDBRANCH  56  69
ENDBRANCH  30  31
ENDBRANCH  22  25
ENDBRANCH  20  21
ENDBRANCH  19  20
ENDBRANCH   1  19
TORSDOF 14
ENDMDL
MODEL 2
REMARK VINA RESULT:     -10.2      2.202      3.713
REMARK SMILES CC(C)C[C@@H](C(=O)NCCCCNC(=O)c1ccc(-c2c3nc(c(-c4ccccc4)c4ccc([nH]4)c(-c4ccccc4)c4nc(c(-c5ccccc5)c5ccc2[nH]5)C=C4)C=C3)cc1)[C@@H]1CCC[C@@H](C)C1
REMARK SMILES IDX 10 1 9 2 8 3 6 4 7 5 5 7 4 8 2 9 1 10 3 11 64 12 65 13 70 14
REMARK SMILES IDX 66 15 68 16 67 17 69 18 11 19 12 20 13 21 14 22 15 24 16 25
REMARK SMILES IDX 17 26 63 27 18 28 62 29 19 30 20 31 21 32 56 33 22 34 61 35
REMARK SMILES IDX 55 36 57 37 23 38 60 39 54 40 53 41 24 43 46 44 31 45 45 46
REMARK SMILES IDX 32 47 35 48 44 49 58 50 33 51 34 52 43 54 59 55 36 56 25 57
REMARK SMILES IDX 26 58 30 59 27 60 29 61 28 62 47 63 48 64 52 65 49 66 51 67
REMARK SMILES IDX 50 68 37 69 38 70 42 71 39 72 41 73 40 74
REMARK H PARENT 8 6 13 23 57 42 35 53
REMARK Flexibility Score: inf
ROOT
ATOM      1  C   UNL A   1      34.663  23.236  26.695  1.00  0.00     0.023 C 
ENDROOT
BRANCH   1   2
ATOM      2  C   UNL A   1      33.707  22.049  26.810  1.00  0.00     0.116 C 
BRANCH   2   3
ATOM      3  N   UNL A   1      32.396  22.399  27.326  1.00  0.00    -0.356 N 
ATOM      4  C   UNL A   1      31.360  23.156  26.884  1.00  0.00     0.223 C 
ATOM      5  O   UNL A   1      30.319  23.050  27.550  1.00  0.00    -0.275 OA
ATOM      6  H   UNL A   1      32.216  21.991  28.205  1.00  0.00     0.163 HD
BRANCH   4   7
ATOM      7  C   UNL A   1      31.385  24.145  25.693  1.00  0.00     0.082 C 
BRANCH   7   8
ATOM      8  C   UNL A   1      30.886  25.553  26.085  1.00  0.00     0.016 C 
BRANCH   8   9
ATOM      9  C   UNL A   1      31.890  26.729  26.115  1.00  0.00    -0.017 C 
ATOM     10  C   UNL A   1      33.309  26.306  25.738  1.00  0.00     0.007 C 
ATOM     11  C   UNL A   1      31.432  27.788  25.099  1.00  0.00     0.007 C 
ENDBRANCH   8   9
ENDBRANCH   7   8
BRANCH   7  12
ATOM     12  C   UNL A   1      30.988  23.550  24.290  1.00  0.00     0.002 C 
ATOM     13  C   UNL A   1      31.825  22.404  23.707  1.00  0.00     0.004 C 
ATOM     14  C   UNL A   1      30.785  24.604  23.169  1.00  0.00     0.007 C 
ATOM     15  C   UNL A   1      33.150  22.876  23.180  1.00  0.00     0.001 C 
ATOM     16  C   UNL A   1      32.093  25.123  22.540  1.00  0.00    -0.014 C 
ATOM     17  C   UNL A   1      33.032  23.980  22.134  1.00  0.00     0.003 C 
ATOM     18  C   UNL A   1      31.810  26.033  21.342  1.00  0.00     0.007 C 
ENDBRANCH   7  12
ENDBRANCH   4   7
ENDBRANCH   2   3
ENDBRANCH   1   2
BRANCH   1  19
ATOM     19  C   UNL A   1      35.688  23.157  25.588  1.00  0.00     0.023 C 
BRANCH  19  20
ATOM     20  C   UNL A   1      37.032  23.696  26.008  1.00  0.00     0.116 C 
BRANCH  20  21
ATOM     21  N   UNL A   1      38.044  22.641  26.093  1.00  0.00    -0.352 N 
ATOM     22  C   UNL A   1      39.392  22.758  26.321  1.00  0.00     0.251 C 
ATOM     23  H   UNL A   1      37.713  21.722  25.970  1.00  0.00     0.163 HD
ATOM     24  O   UNL A   1      40.161  21.829  26.105  1.00  0.00    -0.269 OA
BRANCH  22  25
ATOM     25  C   UNL A   1      39.887  24.041  26.843  1.00  0.00     0.039 A 
ATOM     26  C   UNL A   1      40.343  25.034  25.979  1.00  0.00     0.014 A 
ATOM     27  C   UNL A   1      39.801  24.265  28.219  1.00  0.00     0.014 A 
ATOM     28  C   UNL A   1      40.656  26.286  26.502  1.00  0.00     0.010 A 
ATOM     29  C   UNL A   1      39.940  25.546  28.701  1.00  0.00     0.010 A 
ATOM     30  C   UNL A   1      40.424  26.556  27.860  1.00  0.00    -0.014 A 
BRANCH  30  31
ATOM     31  C   UNL A   1      40.758  27.852  28.483  1.00  0.00     0.031 A 
ATOM     32  C   UNL A   1      42.153  28.056  29.011  1.00  0.00     0.074 A 
ATOM     33  C   UNL A   1      39.798  28.775  28.667  1.00  0.00     0.049 A 
ATOM     34  N   UNL A   1      42.633  29.042  29.722  1.00  0.00    -0.248 NA
ATOM     35  C   UNL A   1      43.124  26.972  28.765  1.00  0.00     0.031 C 
ATOM     36  C   UNL A   1      38.396  28.642  28.265  1.00  0.00     0.029 A 
ATOM     37  N   UNL A   1      39.861  30.011  29.254  1.00  0.00    -0.354 N 
ATOM     38  C   UNL A   1      43.933  28.669  30.041  1.00  0.00     0.074 A 
ATOM     39  C   UNL A   1      44.138  27.335  29.530  1.00  0.00     0.031 C 
ATOM     40  C   UNL A   1      37.740  29.769  28.581  1.00  0.00     0.029 A 
ATOM     41  C   UNL A   1      38.665  30.684  29.241  1.00  0.00     0.049 A 
ATOM     42  H   UNL A   1      40.684  30.380  29.647  1.00  0.00     0.167 HD
ATOM     43  C   UNL A   1      44.891  29.393  30.662  1.00  0.00     0.031 A 
ATOM     44  C   UNL A   1      38.360  31.907  29.709  1.00  0.00     0.031 A 
ATOM     45  C   UNL A   1      44.686  30.738  31.114  1.00  0.00     0.049 A 
ATOM     46  C   UNL A   1      39.453  32.721  30.346  1.00  0.00     0.074 A 
ATOM     47  C   UNL A   1      45.595  31.608  31.686  1.00  0.00     0.029 A 
ATOM     48  N   UNL A   1      43.477  31.413  31.025  1.00  0.00    -0.354 N 
ATOM     49  N   UNL A   1      40.702  32.390  30.573  1.00  0.00    -0.248 NA
ATOM     50  C   UNL A   1      39.100  34.080  30.771  1.00  0.00     0.031 C 
ATOM     51  C   UNL A   1      44.923  32.800  31.978  1.00  0.00     0.029 A 
ATOM     52  C   UNL A   1      43.611  32.689  31.541  1.00  0.00     0.049 A 
ATOM     53  H   UNL A   1      42.647  31.040  30.649  1.00  0.00     0.167 HD
ATOM     54  C   UNL A   1      41.291  33.506  31.149  1.00  0.00     0.074 A 
ATOM     55  C   UNL A   1      40.265  34.529  31.215  1.00  0.00     0.031 C 
ATOM     56  C   UNL A   1      42.563  33.676  31.589  1.00  0.00     0.031 A 
BRANCH  43  57
ATOM     57  C   UNL A   1      46.230  28.735  30.861  1.00  0.00    -0.014 A 
ATOM     58  C   UNL A   1      46.525  28.020  32.036  1.00  0.00     0.009 A 
ATOM     59  C   UNL A   1      47.219  28.848  29.874  1.00  0.00     0.009 A 
ATOM     60  C   UNL A   1      47.797  27.485  32.241  1.00  0.00     0.001 A 
ATOM     61  C   UNL A   1      48.481  28.279  30.067  1.00  0.00     0.001 A 
ATOM     62  C   UNL A   1      48.773  27.612  31.255  1.00  0.00     0.000 A 
ENDBRANCH  43  57
BRANCH  44  63
ATOM     63  C   UNL A   1      36.983  32.441  29.549  1.00  0.00    -0.014 A 
ATOM     64  C   UNL A   1      36.629  33.161  28.398  1.00  0.00     0.009 A 
ATOM     65  C   UNL A   1      36.006  32.208  30.529  1.00  0.00     0.009 A 
ATOM     66  C   UNL A   1      35.333  33.657  28.243  1.00  0.00     0.001 A 
ATOM     67  C   UNL A   1      34.703  32.681  30.358  1.00  0.00     0.001 A 
ATOM     68  C   UNL A   1      34.369  33.412  29.219  1.00  0.00     0.000 A 
ENDBRANCH  44  63
BRANCH  56  69
ATOM     69  C   UNL A   1      42.913  35.023  32.150  1.00  0.00    -0.014 A 
ATOM     70  C   UNL A   1      43.488  36.016  31.344  1.00  0.00     0.009 A 
ATOM     71  C   UNL A   1      42.612  35.313  33.489  1.00  0.00     0.009 A 
ATOM     72  C   UNL A   1      43.784  37.269  31.880  1.00  0.00     0.001 A 
ATOM     73  C   UNL A   1      42.883  36.577  34.014  1.00  0.00     0.001 A 
ATOM     74  C   UNL A   1      43.476  37.550  33.212  1.00  0.00     0.000 A 
ENDBRANCH  56  69
ENDBRANCH  30  31
ENDBRANCH  22  25
ENDBRANCH  20  21
ENDBRANCH  19  20
ENDBRANCH   1  19
TORSDOF 14
ENDMDL
MODEL 3
REMARK VINA RESULT:     -10.2      4.347      9.402
REMARK SMILES CC(C)C[C@@H](C(=O)NCCCCNC(=O)c1ccc(-c2c3nc(c(-c4ccccc4)c4ccc([nH]4)c(-c4ccccc4)c4nc(c(-c5ccccc5)c5ccc2[nH]5)C=C4)C=C3)cc1)[C@@H]1CCC[C@@H](C)C1
REMARK SMILES IDX 10 1 9 2 8 3 6 4 7 5 5 7 4 8 2 9 1 10 3 11 64 12 65 13 70 14
REMARK SMILES IDX 66 15 68 16 67 17 69 18 11 19 12 20 13 21 14 22 15 24 16 25
REMARK SMILES IDX 17 26 63 27 18 28 62 29 19 30 20 31 21 32 56 33 22 34 61 35
REMARK SMILES IDX 55 36 57 37 23 38 60 39 54 40 53 41 24 43 46 44 31 45 45 46
REMARK SMILES IDX 32 47 35 48 44 49 58 50 33 51 34 52 43 54 59 55 36 56 25 57
REMARK SMILES IDX 26 58 30 59 27 60 29 61 28 62 47 63 48 64 52 65 49 66 51 67
REMARK SMILES IDX 50 68 37 69 38 70 42 71 39 72 41 73 40 74
REMARK H PARENT 8 6 13 23 57 42 35 53
REMARK Flexibility Score: inf
ROOT
ATOM      1  C   UNL A   1      31.599  30.817  26.152  1.00  0.00     0.023 C 
ENDROOT
BRANCH   1   2
ATOM      2  C   UNL A   1      32.947  30.164  26.458  1.00  0.00     0.116 C 
BRANCH   2   3
ATOM      3  N   UNL A   1      33.639  29.668  25.281  1.00  0.00    -0.356 N 
ATOM      4  C   UNL A   1      33.491  28.599  24.458  1.00  0.00     0.223 C 
ATOM      5  O   UNL A   1      34.189  28.633  23.434  1.00  0.00    -0.275 OA
ATOM      6  H   UNL A   1      34.395  30.243  25.020  1.00  0.00     0.163 HD
BRANCH   4   7
ATOM      7  C   UNL A   1      32.596  27.361  24.709  1.00  0.00     0.082 C 
BRANCH   7   8
ATOM      8  C   UNL A   1      31.090  27.707  24.685  1.00  0.00     0.016 C 
BRANCH   8   9
ATOM      9  C   UNL A   1      30.249  27.332  23.443  1.00  0.00    -0.017 C 
ATOM     10  C   UNL A   1      31.070  26.631  22.361  1.00  0.00     0.007 C 
ATOM     11  C   UNL A   1      29.134  26.368  23.881  1.00  0.00     0.007 C 
ENDBRANCH   8   9
ENDBRANCH   7   8
BRANCH   7  12
ATOM     12  C   UNL A   1      33.130  26.322  25.766  1.00  0.00     0.002 C 
ATOM     13  C   UNL A   1      34.325  25.435  25.394  1.00  0.00     0.004 C 
ATOM     14  C   UNL A   1      32.041  25.410  26.391  1.00  0.00     0.007 C 
ATOM     15  C   UNL A   1      33.945  24.337  24.441  1.00  0.00     0.001 C 
ATOM     16  C   UNL A   1      31.612  24.229  25.498  1.00  0.00    -0.014 C 
ATOM     17  C   UNL A   1      32.815  23.451  24.952  1.00  0.00     0.003 C 
ATOM     18  C   UNL A   1      30.659  23.290  26.240  1.00  0.00     0.007 C 
ENDBRANCH   7  12
ENDBRANCH   4   7
ENDBRANCH   2   3
ENDBRANCH   1   2
BRANCH   1  19
ATOM     19  C   UNL A   1      31.411  32.223  26.670  1.00  0.00     0.023 C 
BRANCH  19  20
ATOM     20  C   UNL A   1      32.671  32.788  27.276  1.00  0.00     0.116 C 
BRANCH  20  21
ATOM     21  N   UNL A   1      32.526  34.203  27.625  1.00  0.00    -0.352 N 
ATOM     22  C   UNL A   1      33.097  34.896  28.662  1.00  0.00     0.251 C 
ATOM     23  H   UNL A   1      31.938  34.729  27.035  1.00  0.00     0.163 HD
ATOM     24  O   UNL A   1      32.687  36.001  28.996  1.00  0.00    -0.269 OA
BRANCH  22  25
ATOM     25  C   UNL A   1      34.229  34.268  29.361  1.00  0.00     0.039 A 
ATOM     26  C   UNL A   1      34.016  33.433  30.456  1.00  0.00     0.014 A 
ATOM     27  C   UNL A   1      35.509  34.463  28.840  1.00  0.00     0.014 A 
ATOM     28  C   UNL A   1      35.098  32.739  30.990  1.00  0.00     0.010 A 
ATOM     29  C   UNL A   1      36.535  33.644  29.254  1.00  0.00     0.010 A 
ATOM     30  C   UNL A   1      36.356  32.817  30.370  1.00  0.00    -0.014 A 
BRANCH  30  31
ATOM     31  C   UNL A   1      37.549  32.128  30.899  1.00  0.00     0.031 A 
ATOM     32  C   UNL A   1      38.168  32.640  32.173  1.00  0.00     0.074 A 
ATOM     33  C   UNL A   1      38.124  31.140  30.191  1.00  0.00     0.049 A 
ATOM     34  N   UNL A   1      39.291  32.296  32.744  1.00  0.00    -0.248 NA
ATOM     35  C   UNL A   1      37.461  33.738  32.862  1.00  0.00     0.031 C 
ATOM     36  C   UNL A   1      37.649  30.624  28.904  1.00  0.00     0.029 A 
ATOM     37  N   UNL A   1      39.244  30.399  30.455  1.00  0.00    -0.354 N 
ATOM     38  C   UNL A   1      39.439  33.162  33.820  1.00  0.00     0.074 A 
ATOM     39  C   UNL A   1      38.347  34.105  33.770  1.00  0.00     0.031 C 
ATOM     40  C   UNL A   1      38.452  29.622  28.512  1.00  0.00     0.029 A 
ATOM     41  C   UNL A   1      39.514  29.455  29.497  1.00  0.00     0.049 A 
ATOM     42  H   UNL A   1      39.803  30.532  31.255  1.00  0.00     0.167 HD
ATOM     43  C   UNL A   1      40.376  33.147  34.795  1.00  0.00     0.031 A 
ATOM     44  C   UNL A   1      40.511  28.554  29.431  1.00  0.00     0.031 A 
ATOM     45  C   UNL A   1      41.423  32.169  34.859  1.00  0.00     0.049 A 
ATOM     46  C   UNL A   1      41.510  28.513  30.554  1.00  0.00     0.074 A 
ATOM     47  C   UNL A   1      42.386  31.993  35.834  1.00  0.00     0.029 A 
ATOM     48  N   UNL A   1      41.626  31.184  33.903  1.00  0.00    -0.354 N 
ATOM     49  N   UNL A   1      41.598  29.287  31.609  1.00  0.00    -0.248 NA
ATOM     50  C   UNL A   1      42.534  27.464  30.486  1.00  0.00     0.031 C 
ATOM     51  C   UNL A   1      43.199  30.922  35.447  1.00  0.00     0.029 A 
ATOM     52  C   UNL A   1      42.708  30.400  34.258  1.00  0.00     0.049 A 
ATOM     53  H   UNL A   1      41.081  31.060  33.092  1.00  0.00     0.167 HD
ATOM     54  C   UNL A   1      42.672  28.807  32.344  1.00  0.00     0.074 A 
ATOM     55  C   UNL A   1      43.190  27.661  31.621  1.00  0.00     0.031 C 
ATOM     56  C   UNL A   1      43.192  29.268  33.509  1.00  0.00     0.031 A 
BRANCH  43  57
ATOM     57  C   UNL A   1      40.281  34.208  35.858  1.00  0.00    -0.014 A 
ATOM     58  C   UNL A   1      39.520  34.008  37.023  1.00  0.00     0.009 A 
ATOM     59  C   UNL A   1      40.942  35.433  35.686  1.00  0.00     0.009 A 
ATOM     60  C   UNL A   1      39.374  35.031  37.961  1.00  0.00     0.001 A 
ATOM     61  C   UNL A   1      40.824  36.442  36.645  1.00  0.00     0.001 A 
ATOM     62  C   UNL A   1      40.029  36.246  37.774  1.00  0.00     0.000 A 
ENDBRANCH  43  57
BRANCH  44  63
ATOM     63  C   UNL A   1      40.576  27.601  28.294  1.00  0.00    -0.014 A 
ATOM     64  C   UNL A   1      39.887  26.380  28.348  1.00  0.00     0.009 A 
ATOM     65  C   UNL A   1      41.301  27.918  27.135  1.00  0.00     0.009 A 
ATOM     66  C   UNL A   1      39.942  25.486  27.276  1.00  0.00     0.001 A 
ATOM     67  C   UNL A   1      41.330  27.035  26.053  1.00  0.00     0.001 A 
ATOM     68  C   UNL A   1      40.658  25.816  26.127  1.00  0.00     0.000 A 
ENDBRANCH  44  63
BRANCH  56  69
ATOM     69  C   UNL A   1      44.357  28.515  34.079  1.00  0.00    -0.014 A 
ATOM     70  C   UNL A   1      44.163  27.419  34.932  1.00  0.00     0.009 A 
ATOM     71  C   UNL A   1      45.662  28.877  33.710  1.00  0.00     0.009 A 
ATOM     72  C   UNL A   1      45.261  26.718  35.432  1.00  0.00     0.001 A 
ATOM     73  C   UNL A   1      46.755  28.155  34.189  1.00  0.00     0.001 A 
ATOM     74  C   UNL A   1      46.554  27.082  35.056  1.00  0.00     0.000 A 
ENDBRANCH  56  69
ENDBRANCH  30  31
ENDBRANCH  22  25
ENDBRANCH  20  21
ENDBRANCH  19  20
ENDBRANCH   1  19
TORSDOF 14
ENDMDL
