MODEL 1
REMARK VINA RESULT:     -12.0      0.000      0.000
REMARK SMILES CCn1cccc1C(=O)N(C)c1snc(C)c1C(=O)NCCCCNC(=O)c1ccc(-c2c3nc(c(-c4ccccc4)c4ccc([nH]4)c(-c4ccccc4)c4nc(c(-c5ccccc5)c5ccc2[nH]5)C=C4)C=C3)cc1
REMARK SMILES IDX 21 1 20 2 18 3 19 4 17 6 12 7 13 8 14 9 15 10 16 11 10 12
REMARK SMILES IDX 11 13 8 14 9 15 7 16 3 17 4 18 5 19 6 20 2 21 1 22 22 23
REMARK SMILES IDX 23 24 24 25 25 26 26 27 27 29 28 30 29 31 75 32 30 33 74 34
REMARK SMILES IDX 31 35 32 36 33 37 68 38 34 39 73 40 67 41 69 42 35 43 72 44
REMARK SMILES IDX 66 45 65 46 36 48 58 49 43 50 57 51 44 52 47 53 56 54 70 55
REMARK SMILES IDX 45 56 46 57 55 59 71 60 48 61 37 62 38 63 42 64 39 65 41 66
REMARK SMILES IDX 40 67 59 68 60 69 64 70 61 71 63 72 62 73 49 74 50 75 54 76
REMARK SMILES IDX 51 77 53 78 52 79
REMARK H PARENT 20 5 25 28 69 47 47 58
REMARK Flexibility Score: inf
ROOT
ATOM      1  C   UNL A   1      32.220  26.914  26.473  1.00  0.00     0.116 C 
ENDROOT
BRANCH   1   2
ATOM      2  N   UNL A   1      31.414  25.785  26.835  1.00  0.00    -0.352 N 
ATOM      3  C   UNL A   1      31.636  24.432  26.640  1.00  0.00     0.256 C 
ATOM      4  O   UNL A   1      30.854  23.703  27.258  1.00  0.00    -0.269 OA
ATOM      5  H   UNL A   1      30.571  26.006  27.295  1.00  0.00     0.163 HD
BRANCH   3   6
ATOM      6  C   UNL A   1      32.636  23.841  25.723  1.00  0.00     0.097 A 
ATOM      7  C   UNL A   1      32.752  23.861  24.333  1.00  0.00     0.131 A 
ATOM      8  S   UNL A   1      34.172  23.047  23.832  1.00  0.00    -0.017 S 
ATOM      9  N   UNL A   1      34.631  22.561  25.325  1.00  0.00    -0.195 NA
ATOM     10  C   UNL A   1      33.766  23.032  26.227  1.00  0.00     0.066 A 
ATOM     11  C   UNL A   1      34.046  22.608  27.633  1.00  0.00     0.069 C 
BRANCH   7  12
ATOM     12  N   UNL A   1      31.972  24.338  23.267  1.00  0.00    -0.300 N 
ATOM     13  C   UNL A   1      30.652  23.733  23.125  1.00  0.00     0.154 C 
BRANCH  12  14
ATOM     14  C   UNL A   1      32.558  25.358  22.498  1.00  0.00     0.275 C 
ATOM     15  O   UNL A   1      33.275  25.012  21.547  1.00  0.00    -0.267 OA
BRANCH  14  16
ATOM     16  C   UNL A   1      32.479  26.812  22.785  1.00  0.00     0.107 A 
ATOM     17  N   UNL A   1      31.497  27.766  23.048  1.00  0.00    -0.344 N 
ATOM     18  C   UNL A   1      32.089  28.972  23.378  1.00  0.00     0.086 A 
ATOM     19  C   UNL A   1      33.423  28.896  23.113  1.00  0.00     0.020 A 
ATOM     20  C   UNL A   1      33.673  27.555  22.788  1.00  0.00     0.033 A 
BRANCH  17  21
ATOM     21  C   UNL A   1      30.054  27.747  22.896  1.00  0.00     0.119 C 
ATOM     22  C   UNL A   1      29.467  29.105  22.576  1.00  0.00     0.027 C 
ENDBRANCH  17  21
ENDBRANCH  14  16
ENDBRANCH  12  14
ENDBRANCH   7  12
ENDBRANCH   3   6
ENDBRANCH   1   2
BRANCH   1  23
ATOM     23  C   UNL A   1      32.034  28.231  27.216  1.00  0.00     0.023 C 
BRANCH  23  24
ATOM     24  C   UNL A   1      33.026  29.361  26.948  1.00  0.00     0.023 C 
BRANCH  24  25
ATOM     25  C   UNL A   1      34.390  29.220  27.619  1.00  0.00     0.116 C 
BRANCH  25  26
ATOM     26  N   UNL A   1      34.769  30.385  28.403  1.00  0.00    -0.352 N 
ATOM     27  C   UNL A   1      35.944  30.643  29.080  1.00  0.00     0.251 C 
ATOM     28  H   UNL A   1      34.088  31.093  28.460  1.00  0.00     0.163 HD
ATOM     29  O   UNL A   1      35.946  31.505  29.950  1.00  0.00    -0.269 OA
BRANCH  27  30
ATOM     30  C   UNL A   1      37.200  29.902  28.788  1.00  0.00     0.039 A 
ATOM     31  C   UNL A   1      37.840  29.222  29.834  1.00  0.00     0.014 A 
ATOM     32  C   UNL A   1      37.820  29.967  27.537  1.00  0.00     0.014 A 
ATOM     33  C   UNL A   1      39.047  28.560  29.604  1.00  0.00     0.010 A 
ATOM     34  C   UNL A   1      39.033  29.331  27.302  1.00  0.00     0.010 A 
ATOM     35  C   UNL A   1      39.623  28.593  28.326  1.00  0.00    -0.014 A 
BRANCH  35  36
ATOM     36  C   UNL A   1      40.683  27.624  27.978  1.00  0.00     0.031 A 
ATOM     37  C   UNL A   1      42.059  28.312  27.933  1.00  0.00     0.074 A 
ATOM     38  C   UNL A   1      40.321  26.325  27.755  1.00  0.00     0.049 A 
ATOM     39  N   UNL A   1      43.129  27.975  27.287  1.00  0.00    -0.248 NA
ATOM     40  C   UNL A   1      42.265  29.597  28.665  1.00  0.00     0.031 C 
ATOM     41  C   UNL A   1      38.947  25.799  27.905  1.00  0.00     0.029 A 
ATOM     42  N   UNL A   1      41.006  25.189  27.367  1.00  0.00    -0.354 N 
ATOM     43  C   UNL A   1      44.148  28.892  27.627  1.00  0.00     0.074 A 
ATOM     44  C   UNL A   1      43.535  29.917  28.411  1.00  0.00     0.031 C 
ATOM     45  C   UNL A   1      38.882  24.500  27.536  1.00  0.00     0.029 A 
ATOM     46  C   UNL A   1      40.198  24.047  27.124  1.00  0.00     0.049 A 
ATOM     47  H   UNL A   1      41.986  25.173  27.266  1.00  0.00     0.167 HD
ATOM     48  C   UNL A   1      45.465  28.678  27.342  1.00  0.00     0.031 A 
ATOM     49  C   UNL A   1      40.547  22.837  26.586  1.00  0.00     0.031 A 
ATOM     50  C   UNL A   1      45.612  27.484  26.585  1.00  0.00     0.049 A 
ATOM     51  C   UNL A   1      42.010  22.846  26.457  1.00  0.00     0.074 A 
ATOM     52  C   UNL A   1      45.253  27.153  25.305  1.00  0.00     0.029 A 
ATOM     53  N   UNL A   1      45.827  26.338  27.310  1.00  0.00    -0.354 N 
ATOM     54  N   UNL A   1      42.844  22.728  27.442  1.00  0.00    -0.248 NA
ATOM     55  C   UNL A   1      42.603  23.042  25.128  1.00  0.00     0.031 C 
ATOM     56  C   UNL A   1      44.764  25.838  25.446  1.00  0.00     0.029 A 
ATOM     57  C   UNL A   1      45.068  25.358  26.726  1.00  0.00     0.049 A 
ATOM     58  H   UNL A   1      46.412  26.238  28.096  1.00  0.00     0.167 HD
ATOM     59  C   UNL A   1      43.993  23.247  26.904  1.00  0.00     0.074 A 
ATOM     60  C   UNL A   1      43.888  23.087  25.469  1.00  0.00     0.031 C 
ATOM     61  C   UNL A   1      44.622  24.262  27.550  1.00  0.00     0.031 A 
BRANCH  48  62
ATOM     62  C   UNL A   1      46.717  29.301  27.889  1.00  0.00    -0.014 A 
ATOM     63  C   UNL A   1      47.812  29.439  27.001  1.00  0.00     0.009 A 
ATOM     64  C   UNL A   1      46.979  29.436  29.255  1.00  0.00     0.009 A 
ATOM     65  C   UNL A   1      49.123  29.572  27.460  1.00  0.00     0.001 A 
ATOM     66  C   UNL A   1      48.293  29.611  29.716  1.00  0.00     0.001 A 
ATOM     67  C   UNL A   1      49.364  29.639  28.823  1.00  0.00     0.000 A 
ENDBRANCH  48  62
BRANCH  49  68
ATOM     68  C   UNL A   1      39.864  21.603  26.044  1.00  0.00    -0.014 A 
ATOM     69  C   UNL A   1      40.334  20.293  26.135  1.00  0.00     0.009 A 
ATOM     70  C   UNL A   1      38.575  21.747  25.453  1.00  0.00     0.009 A 
ATOM     71  C   UNL A   1      39.524  19.201  25.752  1.00  0.00     0.001 A 
ATOM     72  C   UNL A   1      37.749  20.670  25.119  1.00  0.00     0.001 A 
ATOM     73  C   UNL A   1      38.223  19.385  25.284  1.00  0.00     0.000 A 
ENDBRANCH  49  68
BRANCH  61  74
ATOM     74  C   UNL A   1      44.382  24.324  29.050  1.00  0.00    -0.014 A 
ATOM     75  C   UNL A   1      44.242  25.571  29.681  1.00  0.00     0.009 A 
ATOM     76  C   UNL A   1      44.405  23.187  29.879  1.00  0.00     0.009 A 
ATOM     77  C   UNL A   1      44.152  25.682  31.075  1.00  0.00     0.001 A 
ATOM     78  C   UNL A   1      44.313  23.294  31.277  1.00  0.00     0.001 A 
ATOM     79  C   UNL A   1      44.190  24.544  31.874  1.00  0.00     0.000 A 
ENDBRANCH  61  74
ENDBRANCH  35  36
ENDBRANCH  27  30
ENDBRANCH  25  26
ENDBRANCH  24  25
ENDBRANCH  23  24
ENDBRANCH   1  23
TORSDOF 15
ENDMDL
MODEL 2
REMARK VINA RESULT:     -11.5      3.906      8.862
REMARK SMILES CCn1cccc1C(=O)N(C)c1snc(C)c1C(=O)NCCCCNC(=O)c1ccc(-c2c3nc(c(-c4ccccc4)c4ccc([nH]4)c(-c4ccccc4)c4nc(c(-c5ccccc5)c5ccc2[nH]5)C=C4)C=C3)cc1
REMARK SMILES IDX 21 1 20 2 18 3 19 4 17 6 12 7 13 8 14 9 15 10 16 11 10 12
REMARK SMILES IDX 11 13 8 14 9 15 7 16 3 17 4 18 5 19 6 20 2 21 1 22 22 23
REMARK SMILES IDX 23 24 24 25 25 26 26 27 27 29 28 30 29 31 75 32 30 33 74 34
REMARK SMILES IDX 31 35 32 36 33 37 68 38 34 39 73 40 67 41 69 42 35 43 72 44
REMARK SMILES IDX 66 45 65 46 36 48 58 49 43 50 57 51 44 52 47 53 56 54 70 55
REMARK SMILES IDX 45 56 46 57 55 59 71 60 48 61 37 62 38 63 42 64 39 65 41 66
REMARK SMILES IDX 40 67 59 68 60 69 64 70 61 71 63 72 62 73 49 74 50 75 54 76
REMARK SMILES IDX 51 77 53 78 52 79
REMARK H PARENT 20 5 25 28 69 47 47 58
REMARK Flexibility Score: inf
ROOT
ATOM      1  C   UNL A   1      35.235  23.693  23.987  1.00  0.00     0.116 C 
ENDROOT
BRANCH   1   2
ATOM      2  N   UNL A   1      34.653  24.330  22.842  1.00  0.00    -0.352 N 
ATOM      3  C   UNL A   1      33.762  25.387  22.766  1.00  0.00     0.256 C 
ATOM      4  O   UNL A   1      33.619  25.839  21.626  1.00  0.00    -0.269 OA
ATOM      5  H   UNL A   1      34.930  23.956  21.973  1.00  0.00     0.163 HD
BRANCH   3   6
ATOM      6  C   UNL A   1      32.954  25.921  23.885  1.00  0.00     0.097 A 
ATOM      7  C   UNL A   1      31.916  25.366  24.634  1.00  0.00     0.131 A 
ATOM      8  S   UNL A   1      31.405  26.448  25.857  1.00  0.00    -0.017 S 
ATOM      9  N   UNL A   1      32.393  27.678  25.426  1.00  0.00    -0.195 NA
ATOM     10  C   UNL A   1      33.153  27.294  24.397  1.00  0.00     0.066 A 
ATOM     11  C   UNL A   1      34.066  28.355  23.872  1.00  0.00     0.069 C 
BRANCH   7  12
ATOM     12  N   UNL A   1      31.174  24.174  24.591  1.00  0.00    -0.300 N 
ATOM     13  C   UNL A   1      30.479  23.902  23.339  1.00  0.00     0.154 C 
BRANCH  12  14
ATOM     14  C   UNL A   1      31.228  23.387  25.755  1.00  0.00     0.275 C 
ATOM     15  O   UNL A   1      30.281  23.483  26.550  1.00  0.00    -0.267 OA
BRANCH  14  16
ATOM     16  C   UNL A   1      32.368  22.531  26.168  1.00  0.00     0.107 A 
ATOM     17  N   UNL A   1      33.088  21.448  25.666  1.00  0.00    -0.344 N 
ATOM     18  C   UNL A   1      34.163  21.172  26.492  1.00  0.00     0.086 A 
ATOM     19  C   UNL A   1      34.032  21.894  27.640  1.00  0.00     0.020 A 
ATOM     20  C   UNL A   1      32.952  22.761  27.427  1.00  0.00     0.033 A 
BRANCH  17  21
ATOM     21  C   UNL A   1      32.828  20.527  24.574  1.00  0.00     0.119 C 
ATOM     22  C   UNL A   1      33.729  19.310  24.589  1.00  0.00     0.027 C 
ENDBRANCH  17  21
ENDBRANCH  14  16
ENDBRANCH  12  14
ENDBRANCH   7  12
ENDBRANCH   3   6
ENDBRANCH   1   2
BRANCH   1  23
ATOM     23  C   UNL A   1      36.682  23.219  23.922  1.00  0.00     0.023 C 
BRANCH  23  24
ATOM     24  C   UNL A   1      37.317  22.651  25.189  1.00  0.00     0.023 C 
BRANCH  24  25
ATOM     25  C   UNL A   1      38.036  23.659  26.081  1.00  0.00     0.116 C 
BRANCH  25  26
ATOM     26  N   UNL A   1      39.470  23.435  26.166  1.00  0.00    -0.352 N 
ATOM     27  C   UNL A   1      40.464  24.275  26.625  1.00  0.00     0.251 C 
ATOM     28  H   UNL A   1      39.777  22.555  25.848  1.00  0.00     0.163 HD
ATOM     29  O   UNL A   1      41.623  24.047  26.302  1.00  0.00    -0.269 OA
BRANCH  27  30
ATOM     30  C   UNL A   1      40.168  25.447  27.491  1.00  0.00     0.039 A 
ATOM     31  C   UNL A   1      40.769  26.677  27.188  1.00  0.00     0.014 A 
ATOM     32  C   UNL A   1      39.411  25.327  28.660  1.00  0.00     0.014 A 
ATOM     33  C   UNL A   1      40.551  27.784  28.010  1.00  0.00     0.010 A 
ATOM     34  C   UNL A   1      39.207  26.415  29.498  1.00  0.00     0.010 A 
ATOM     35  C   UNL A   1      39.744  27.653  29.149  1.00  0.00    -0.014 A 
BRANCH  35  36
ATOM     36  C   UNL A   1      39.219  28.864  29.814  1.00  0.00     0.031 A 
ATOM     37  C   UNL A   1      39.991  29.150  31.114  1.00  0.00     0.074 A 
ATOM     38  C   UNL A   1      38.180  29.526  29.222  1.00  0.00     0.049 A 
ATOM     39  N   UNL A   1      39.617  29.800  32.169  1.00  0.00    -0.248 NA
ATOM     40  C   UNL A   1      41.360  28.583  31.300  1.00  0.00     0.031 C 
ATOM     41  C   UNL A   1      37.583  29.158  27.920  1.00  0.00     0.029 A 
ATOM     42  N   UNL A   1      37.418  30.626  29.570  1.00  0.00    -0.354 N 
ATOM     43  C   UNL A   1      40.710  29.844  33.063  1.00  0.00     0.074 A 
ATOM     44  C   UNL A   1      41.726  29.005  32.511  1.00  0.00     0.031 C 
ATOM     45  C   UNL A   1      36.522  29.945  27.634  1.00  0.00     0.029 A 
ATOM     46  C   UNL A   1      36.327  30.904  28.704  1.00  0.00     0.049 A 
ATOM     47  H   UNL A   1      37.618  31.177  30.361  1.00  0.00     0.167 HD
ATOM     48  C   UNL A   1      40.752  30.673  34.145  1.00  0.00     0.031 A 
ATOM     49  C   UNL A   1      35.311  31.809  28.856  1.00  0.00     0.031 A 
ATOM     50  C   UNL A   1      39.522  31.372  34.272  1.00  0.00     0.049 A 
ATOM     51  C   UNL A   1      35.644  32.616  30.038  1.00  0.00     0.074 A 
ATOM     52  C   UNL A   1      38.257  30.962  34.603  1.00  0.00     0.029 A 
ATOM     53  N   UNL A   1      39.455  32.589  33.638  1.00  0.00    -0.354 N 
ATOM     54  N   UNL A   1      36.561  33.532  30.078  1.00  0.00    -0.248 NA
ATOM     55  C   UNL A   1      34.930  32.360  31.295  1.00  0.00     0.031 C 
ATOM     56  C   UNL A   1      37.446  31.687  33.706  1.00  0.00     0.029 A 
ATOM     57  C   UNL A   1      38.217  32.660  33.057  1.00  0.00     0.049 A 
ATOM     58  H   UNL A   1      40.160  33.277  33.608  1.00  0.00     0.167 HD
ATOM     59  C   UNL A   1      36.795  33.639  31.425  1.00  0.00     0.074 A 
ATOM     60  C   UNL A   1      35.589  33.198  32.092  1.00  0.00     0.031 C 
ATOM     61  C   UNL A   1      38.063  33.487  31.886  1.00  0.00     0.031 A 
BRANCH  48  62
ATOM     62  C   UNL A   1      41.896  31.139  34.999  1.00  0.00    -0.014 A 
ATOM     63  C   UNL A   1      42.046  30.529  36.269  1.00  0.00     0.009 A 
ATOM     64  C   UNL A   1      42.592  32.331  34.775  1.00  0.00     0.009 A 
ATOM     65  C   UNL A   1      42.748  31.144  37.306  1.00  0.00     0.001 A 
ATOM     66  C   UNL A   1      43.332  32.930  35.806  1.00  0.00     0.001 A 
ATOM     67  C   UNL A   1      43.377  32.358  37.077  1.00  0.00     0.000 A 
ENDBRANCH  48  62
BRANCH  49  68
ATOM     68  C   UNL A   1      33.976  32.126  28.222  1.00  0.00    -0.014 A 
ATOM     69  C   UNL A   1      33.420  33.395  28.062  1.00  0.00     0.009 A 
ATOM     70  C   UNL A   1      33.229  31.057  27.646  1.00  0.00     0.009 A 
ATOM     71  C   UNL A   1      32.250  33.585  27.292  1.00  0.00     0.001 A 
ATOM     72  C   UNL A   1      32.102  31.242  26.843  1.00  0.00     0.001 A 
ATOM     73  C   UNL A   1      31.616  32.519  26.652  1.00  0.00     0.000 A 
ENDBRANCH  49  68
BRANCH  61  74
ATOM     74  C   UNL A   1      39.161  33.820  30.888  1.00  0.00    -0.014 A 
ATOM     75  C   UNL A   1      40.372  33.109  30.923  1.00  0.00     0.009 A 
ATOM     76  C   UNL A   1      39.077  34.897  29.985  1.00  0.00     0.009 A 
ATOM     77  C   UNL A   1      41.457  33.469  30.113  1.00  0.00     0.001 A 
ATOM     78  C   UNL A   1      40.162  35.259  29.170  1.00  0.00     0.001 A 
ATOM     79  C   UNL A   1      41.354  34.545  29.238  1.00  0.00     0.000 A 
ENDBRANCH  61  74
ENDBRANCH  35  36
ENDBRANCH  27  30
ENDBRANCH  25  26
ENDBRANCH  24  25
ENDBRANCH  23  24
ENDBRANCH   1  23
TORSDOF 15
ENDMDL
MODEL 3
REMARK VINA RESULT:     -11.4      4.508      9.022
REMARK SMILES CCn1cccc1C(=O)N(C)c1snc(C)c1C(=O)NCCCCNC(=O)c1ccc(-c2c3nc(c(-c4ccccc4)c4ccc([nH]4)c(-c4ccccc4)c4nc(c(-c5ccccc5)c5ccc2[nH]5)C=C4)C=C3)cc1
REMARK SMILES IDX 21 1 20 2 18 3 19 4 17 6 12 7 13 8 14 9 15 10 16 11 10 12
REMARK SMILES IDX 11 13 8 14 9 15 7 16 3 17 4 18 5 19 6 20 2 21 1 22 22 23
REMARK SMILES IDX 23 24 24 25 25 26 26 27 27 29 28 30 29 31 75 32 30 33 74 34
REMARK SMILES IDX 31 35 32 36 33 37 68 38 34 39 73 40 67 41 69 42 35 43 72 44
REMARK SMILES IDX 66 45 65 46 36 48 58 49 43 50 57 51 44 52 47 53 56 54 70 55
REMARK SMILES IDX 45 56 46 57 55 59 71 60 48 61 37 62 38 63 42 64 39 65 41 66
REMARK SMILES IDX 40 67 59 68 60 69 64 70 61 71 63 72 62 73 49 74 50 75 54 76
REMARK SMILES IDX 51 77 53 78 52 79
REMARK H PARENT 20 5 25 28 69 47 47 58
REMARK Flexibility Score: inf
ROOT
ATOM      1  C   UNL A   1      32.616  30.082  25.883  1.00  0.00     0.116 C 
ENDROOT
BRANCH   1   2
ATOM      2  N   UNL A   1      33.257  29.694  24.660  1.00  0.00    -0.352 N 
ATOM      3  C   UNL A   1      32.791  28.909  23.620  1.00  0.00     0.256 C 
ATOM      4  O   UNL A   1      33.505  28.939  22.613  1.00  0.00    -0.269 OA
ATOM      5  H   UNL A   1      34.172  30.040  24.543  1.00  0.00     0.163 HD
BRANCH   3   6
ATOM      6  C   UNL A   1      31.608  28.020  23.666  1.00  0.00     0.097 A 
ATOM      7  C   UNL A   1      31.434  26.725  24.155  1.00  0.00     0.131 A 
ATOM      8  S   UNL A   1      29.804  26.231  23.993  1.00  0.00    -0.017 S 
ATOM      9  N   UNL A   1      29.289  27.577  23.219  1.00  0.00    -0.195 NA
ATOM     10  C   UNL A   1      30.304  28.436  23.108  1.00  0.00     0.066 A 
ATOM     11  C   UNL A   1      29.973  29.692  22.365  1.00  0.00     0.069 C 
BRANCH   7  12
ATOM     12  N   UNL A   1      32.272  25.733  24.692  1.00  0.00    -0.300 N 
ATOM     13  C   UNL A   1      32.338  25.678  26.147  1.00  0.00     0.154 C 
BRANCH  12  14
ATOM     14  C   UNL A   1      32.911  24.908  23.751  1.00  0.00     0.275 C 
ATOM     15  O   UNL A   1      33.089  25.372  22.615  1.00  0.00    -0.267 OA
BRANCH  14  16
ATOM     16  C   UNL A   1      33.297  23.491  23.965  1.00  0.00     0.107 A 
ATOM     17  N   UNL A   1      34.423  22.770  24.359  1.00  0.00    -0.344 N 
ATOM     18  C   UNL A   1      34.102  21.431  24.498  1.00  0.00     0.086 A 
ATOM     19  C   UNL A   1      32.858  21.221  23.982  1.00  0.00     0.020 A 
ATOM     20  C   UNL A   1      32.344  22.492  23.693  1.00  0.00     0.033 A 
BRANCH  17  21
ATOM     21  C   UNL A   1      35.820  23.141  24.493  1.00  0.00     0.119 C 
ATOM     22  C   UNL A   1      36.631  22.882  23.240  1.00  0.00     0.027 C 
ENDBRANCH  17  21
ENDBRANCH  14  16
ENDBRANCH  12  14
ENDBRANCH   7  12
ENDBRANCH   3   6
ENDBRANCH   1   2
BRANCH   1  23
ATOM     23  C   UNL A   1      31.262  30.780  25.825  1.00  0.00     0.023 C 
BRANCH  23  24
ATOM     24  C   UNL A   1      31.139  32.175  26.433  1.00  0.00     0.023 C 
BRANCH  24  25
ATOM     25  C   UNL A   1      32.366  32.681  27.188  1.00  0.00     0.116 C 
BRANCH  25  26
ATOM     26  N   UNL A   1      32.319  34.106  27.476  1.00  0.00    -0.352 N 
ATOM     27  C   UNL A   1      32.972  34.825  28.455  1.00  0.00     0.251 C 
ATOM     28  H   UNL A   1      31.734  34.635  26.886  1.00  0.00     0.163 HD
ATOM     29  O   UNL A   1      32.548  35.935  28.753  1.00  0.00    -0.269 OA
BRANCH  27  30
ATOM     30  C   UNL A   1      34.168  34.291  29.160  1.00  0.00     0.039 A 
ATOM     31  C   UNL A   1      34.008  33.750  30.443  1.00  0.00     0.014 A 
ATOM     32  C   UNL A   1      35.455  34.425  28.632  1.00  0.00     0.014 A 
ATOM     33  C   UNL A   1      35.118  33.287  31.151  1.00  0.00     0.010 A 
ATOM     34  C   UNL A   1      36.570  33.989  29.336  1.00  0.00     0.010 A 
ATOM     35  C   UNL A   1      36.394  33.382  30.579  1.00  0.00    -0.014 A 
BRANCH  35  36
ATOM     36  C   UNL A   1      37.507  32.589  31.141  1.00  0.00     0.031 A 
ATOM     37  C   UNL A   1      37.716  31.295  30.335  1.00  0.00     0.074 A 
ATOM     38  C   UNL A   1      38.162  33.081  32.235  1.00  0.00     0.049 A 
ATOM     39  N   UNL A   1      38.244  30.171  30.702  1.00  0.00    -0.248 NA
ATOM     40  C   UNL A   1      37.211  31.209  28.932  1.00  0.00     0.031 C 
ATOM     41  C   UNL A   1      37.883  34.392  32.861  1.00  0.00     0.029 A 
ATOM     42  N   UNL A   1      39.181  32.607  33.040  1.00  0.00    -0.354 N 
ATOM     43  C   UNL A   1      38.266  29.315  29.579  1.00  0.00     0.074 A 
ATOM     44  C   UNL A   1      37.540  29.976  28.542  1.00  0.00     0.031 C 
ATOM     45  C   UNL A   1      38.632  34.567  33.973  1.00  0.00     0.029 A 
ATOM     46  C   UNL A   1      39.477  33.405  34.176  1.00  0.00     0.049 A 
ATOM     47  H   UNL A   1      39.667  31.775  32.839  1.00  0.00     0.167 HD
ATOM     48  C   UNL A   1      38.994  28.161  29.538  1.00  0.00     0.031 A 
ATOM     49  C   UNL A   1      40.306  33.135  35.232  1.00  0.00     0.031 A 
ATOM     50  C   UNL A   1      39.609  27.929  30.798  1.00  0.00     0.049 A 
ATOM     51  C   UNL A   1      41.017  31.895  34.896  1.00  0.00     0.074 A 
ATOM     52  C   UNL A   1      39.100  27.595  32.026  1.00  0.00     0.029 A 
ATOM     53  N   UNL A   1      40.873  28.442  30.953  1.00  0.00    -0.354 N 
ATOM     54  N   UNL A   1      41.976  31.799  34.028  1.00  0.00    -0.248 NA
ATOM     55  C   UNL A   1      40.608  30.644  35.546  1.00  0.00     0.031 C 
ATOM     56  C   UNL A   1      39.858  28.393  32.908  1.00  0.00     0.029 A 
ATOM     57  C   UNL A   1      40.928  28.973  32.214  1.00  0.00     0.049 A 
ATOM     58  H   UNL A   1      41.599  28.432  30.287  1.00  0.00     0.167 HD
ATOM     59  C   UNL A   1      41.971  30.457  33.748  1.00  0.00     0.074 A 
ATOM     60  C   UNL A   1      41.405  29.795  34.903  1.00  0.00     0.031 C 
ATOM     61  C   UNL A   1      41.849  30.055  32.457  1.00  0.00     0.031 A 
BRANCH  48  62
ATOM     62  C   UNL A   1      39.443  27.307  28.389  1.00  0.00    -0.014 A 
ATOM     63  C   UNL A   1      39.382  25.902  28.564  1.00  0.00     0.009 A 
ATOM     64  C   UNL A   1      40.210  27.786  27.323  1.00  0.00     0.009 A 
ATOM     65  C   UNL A   1      40.153  25.028  27.798  1.00  0.00     0.001 A 
ATOM     66  C   UNL A   1      40.955  26.903  26.525  1.00  0.00     0.001 A 
ATOM     67  C   UNL A   1      40.956  25.534  26.787  1.00  0.00     0.000 A 
ENDBRANCH  48  62
BRANCH  49  68
ATOM     68  C   UNL A   1      40.604  33.692  36.605  1.00  0.00    -0.014 A 
ATOM     69  C   UNL A   1      41.861  33.782  37.203  1.00  0.00     0.009 A 
ATOM     70  C   UNL A   1      39.534  34.265  37.351  1.00  0.00     0.009 A 
ATOM     71  C   UNL A   1      42.042  34.486  38.414  1.00  0.00     0.001 A 
ATOM     72  C   UNL A   1      39.712  35.005  38.522  1.00  0.00     0.001 A 
ATOM     73  C   UNL A   1      40.980  35.129  39.050  1.00  0.00     0.000 A 
ENDBRANCH  49  68
BRANCH  61  74
ATOM     74  C   UNL A   1      42.333  31.054  31.418  1.00  0.00    -0.014 A 
ATOM     75  C   UNL A   1      43.710  31.186  31.169  1.00  0.00     0.009 A 
ATOM     76  C   UNL A   1      41.476  31.953  30.758  1.00  0.00     0.009 A 
ATOM     77  C   UNL A   1      44.210  32.182  30.320  1.00  0.00     0.001 A 
ATOM     78  C   UNL A   1      41.972  32.953  29.905  1.00  0.00     0.001 A 
ATOM     79  C   UNL A   1      43.342  33.068  29.689  1.00  0.00     0.000 A 
ENDBRANCH  61  74
ENDBRANCH  35  36
ENDBRANCH  27  30
ENDBRANCH  25  26
ENDBRANCH  24  25
ENDBRANCH  23  24
ENDBRANCH   1  23
TORSDOF 15
ENDMDL
