MODEL 1
REMARK VINA RESULT:     -10.9      0.000      0.000
REMARK SMILES CCC[C@@H](CNC(=O)NCc1c(C)nn(C)c1C)C(=O)NCCCCNC(=O)c1ccc(-c2c3nc(c(-c4ccccc4)c4ccc([nH]4)c(-c4ccccc4)c4nc(c(-c5ccccc5)c5ccc2[nH]5)C=C4)C=C3)cc1
REMARK SMILES IDX 22 1 21 2 19 3 20 4 4 6 3 7 2 8 1 9 5 10 6 11 7 12 8 14 9 15
REMARK SMILES IDX 10 17 11 18 12 19 17 20 13 21 14 22 15 23 18 24 16 25 23 26
REMARK SMILES IDX 24 27 25 28 26 29 27 30 28 32 29 33 30 34 76 35 31 36 75 37
REMARK SMILES IDX 32 38 33 39 34 40 69 41 35 42 74 43 68 44 70 45 36 46 73 47
REMARK SMILES IDX 67 48 66 49 37 51 59 52 44 53 58 54 45 55 48 56 57 57 71 58
REMARK SMILES IDX 46 59 47 60 56 62 72 63 49 64 38 65 39 66 43 67 40 68 42 69
REMARK SMILES IDX 41 70 60 71 61 72 65 73 62 74 64 75 63 76 50 77 51 78 55 79
REMARK SMILES IDX 52 80 54 81 53 82
REMARK H PARENT 21 5 6 13 9 16 26 31 70 50 48 61
REMARK Flexibility Score: inf
ROOT
ATOM      1  C   UNL A   1      35.748  23.056  24.800  1.00  0.00     0.116 C 
ENDROOT
BRANCH   1   2
ATOM      2  N   UNL A   1      35.110  22.512  25.985  1.00  0.00    -0.356 N 
ATOM      3  C   UNL A   1      34.222  21.489  26.124  1.00  0.00     0.224 C 
ATOM      4  O   UNL A   1      34.040  21.058  27.267  1.00  0.00    -0.275 OA
ATOM      5  H   UNL A   1      35.362  22.956  26.826  1.00  0.00     0.163 HD
BRANCH   3   6
ATOM      6  C   UNL A   1      33.461  20.872  24.950  1.00  0.00     0.097 C 
BRANCH   6   7
ATOM      7  C   UNL A   1      33.589  19.333  24.900  1.00  0.00     0.015 C 
BRANCH   7   8
ATOM      8  C   UNL A   1      32.867  18.621  23.751  1.00  0.00    -0.003 C 
ATOM      9  C   UNL A   1      33.576  17.374  23.254  1.00  0.00     0.004 C 
ENDBRANCH   7   8
ENDBRANCH   6   7
BRANCH   6  10
ATOM     10  C   UNL A   1      32.063  21.480  24.733  1.00  0.00     0.131 C 
BRANCH  10  11
ATOM     11  N   UNL A   1      31.486  22.156  25.875  1.00  0.00    -0.337 N 
ATOM     12  C   UNL A   1      30.843  23.314  26.065  1.00  0.00     0.315 C 
ATOM     13  H   UNL A   1      31.589  21.642  26.709  1.00  0.00     0.165 HD
ATOM     14  O   UNL A   1      30.577  23.627  27.228  1.00  0.00    -0.249 OA
ATOM     15  N   UNL A   1      30.453  24.139  25.093  1.00  0.00    -0.334 N 
ATOM     16  H   UNL A   1      29.992  24.937  25.441  1.00  0.00     0.165 HD
BRANCH  15  17
ATOM     17  C   UNL A   1      30.547  24.143  23.655  1.00  0.00     0.157 C 
BRANCH  17  18
ATOM     18  C   UNL A   1      31.724  24.922  23.149  1.00  0.00     0.015 A 
ATOM     19  C   UNL A   1      32.903  24.517  22.445  1.00  0.00     0.065 A 
ATOM     20  C   UNL A   1      31.884  26.301  23.291  1.00  0.00     0.040 A 
ATOM     21  C   UNL A   1      33.353  23.179  21.983  1.00  0.00     0.069 C 
ATOM     22  N   UNL A   1      33.694  25.558  22.160  1.00  0.00    -0.178 NA
ATOM     23  N   UNL A   1      33.053  26.620  22.657  1.00  0.00    -0.272 N 
ATOM     24  C   UNL A   1      31.023  27.315  23.953  1.00  0.00     0.067 C 
ATOM     25  C   UNL A   1      33.649  27.919  22.451  1.00  0.00     0.174 C 
ENDBRANCH  17  18
ENDBRANCH  15  17
ENDBRANCH  10  11
ENDBRANCH   6  10
ENDBRANCH   3   6
ENDBRANCH   1   2
BRANCH   1  26
ATOM     26  C   UNL A   1      36.760  22.111  24.166  1.00  0.00     0.023 C 
BRANCH  26  27
ATOM     27  C   UNL A   1      37.270  21.010  25.092  1.00  0.00     0.023 C 
BRANCH  27  28
ATOM     28  C   UNL A   1      38.661  21.233  25.681  1.00  0.00     0.116 C 
BRANCH  28  29
ATOM     29  N   UNL A   1      39.516  20.054  25.639  1.00  0.00    -0.352 N 
ATOM     30  C   UNL A   1      40.834  19.926  26.017  1.00  0.00     0.251 C 
ATOM     31  H   UNL A   1      39.092  19.237  25.293  1.00  0.00     0.163 HD
ATOM     32  O   UNL A   1      41.446  18.888  25.831  1.00  0.00    -0.269 OA
BRANCH  30  33
ATOM     33  C   UNL A   1      41.517  21.093  26.613  1.00  0.00     0.039 A 
ATOM     34  C   UNL A   1      42.101  22.037  25.765  1.00  0.00     0.014 A 
ATOM     35  C   UNL A   1      41.509  21.286  27.996  1.00  0.00     0.014 A 
ATOM     36  C   UNL A   1      42.588  23.229  26.300  1.00  0.00     0.010 A 
ATOM     37  C   UNL A   1      41.931  22.502  28.519  1.00  0.00     0.010 A 
ATOM     38  C   UNL A   1      42.456  23.493  27.673  1.00  0.00    -0.014 A 
BRANCH  38  39
ATOM     39  C   UNL A   1      42.818  24.813  28.246  1.00  0.00     0.031 A 
ATOM     40  C   UNL A   1      41.764  25.862  28.447  1.00  0.00     0.074 A 
ATOM     41  C   UNL A   1      44.112  25.097  28.492  1.00  0.00     0.049 A 
ATOM     42  N   UNL A   1      41.902  27.105  28.832  1.00  0.00    -0.248 NA
ATOM     43  C   UNL A   1      40.375  25.472  28.149  1.00  0.00     0.031 C 
ATOM     44  C   UNL A   1      45.237  24.181  28.294  1.00  0.00     0.029 A 
ATOM     45  N   UNL A   1      44.699  26.249  28.950  1.00  0.00    -0.354 N 
ATOM     46  C   UNL A   1      40.626  27.652  28.799  1.00  0.00     0.074 A 
ATOM     47  C   UNL A   1      39.733  26.618  28.321  1.00  0.00     0.031 C 
ATOM     48  C   UNL A   1      46.376  24.800  28.647  1.00  0.00     0.029 A 
ATOM     49  C   UNL A   1      46.066  26.166  29.056  1.00  0.00     0.049 A 
ATOM     50  H   UNL A   1      44.189  27.059  29.181  1.00  0.00     0.167 HD
ATOM     51  C   UNL A   1      40.230  28.899  29.149  1.00  0.00     0.031 A 
ATOM     52  C   UNL A   1      46.972  27.088  29.430  1.00  0.00     0.031 A 
ATOM     53  C   UNL A   1      41.112  29.919  29.646  1.00  0.00     0.049 A 
ATOM     54  C   UNL A   1      46.508  28.464  29.814  1.00  0.00     0.074 A 
ATOM     55  C   UNL A   1      40.793  31.189  30.096  1.00  0.00     0.029 A 
ATOM     56  N   UNL A   1      42.487  29.788  29.756  1.00  0.00    -0.354 N 
ATOM     57  N   UNL A   1      45.288  28.944  29.842  1.00  0.00    -0.248 NA
ATOM     58  C   UNL A   1      47.544  29.424  30.221  1.00  0.00     0.031 C 
ATOM     59  C   UNL A   1      41.982  31.841  30.442  1.00  0.00     0.029 A 
ATOM     60  C   UNL A   1      43.034  30.962  30.245  1.00  0.00     0.049 A 
ATOM     61  H   UNL A   1      42.998  28.980  29.522  1.00  0.00     0.167 HD
ATOM     62  C   UNL A   1      45.408  30.253  30.289  1.00  0.00     0.074 A 
ATOM     63  C   UNL A   1      46.817  30.488  30.532  1.00  0.00     0.031 C 
ATOM     64  C   UNL A   1      44.438  31.178  30.479  1.00  0.00     0.031 A 
BRANCH  51  65
ATOM     65  C   UNL A   1      38.772  29.225  29.002  1.00  0.00    -0.014 A 
ATOM     66  C   UNL A   1      38.251  29.682  27.782  1.00  0.00     0.009 A 
ATOM     67  C   UNL A   1      37.903  29.043  30.089  1.00  0.00     0.009 A 
ATOM     68  C   UNL A   1      36.893  29.985  27.663  1.00  0.00     0.001 A 
ATOM     69  C   UNL A   1      36.542  29.322  29.960  1.00  0.00     0.001 A 
ATOM     70  C   UNL A   1      36.040  29.801  28.751  1.00  0.00     0.000 A 
ENDBRANCH  51  65
BRANCH  52  71
ATOM     71  C   UNL A   1      48.415  26.740  29.470  1.00  0.00    -0.014 A 
ATOM     72  C   UNL A   1      49.230  26.967  28.351  1.00  0.00     0.009 A 
ATOM     73  C   UNL A   1      48.984  26.178  30.623  1.00  0.00     0.009 A 
ATOM     74  C   UNL A   1      50.582  26.616  28.378  1.00  0.00     0.001 A 
ATOM     75  C   UNL A   1      50.341  25.849  30.656  1.00  0.00     0.001 A 
ATOM     76  C   UNL A   1      51.137  26.061  29.531  1.00  0.00     0.000 A 
ENDBRANCH  52  71
BRANCH  64  77
ATOM     77  C   UNL A   1      44.862  32.521  30.998  1.00  0.00    -0.014 A 
ATOM     78  C   UNL A   1      44.956  32.767  32.376  1.00  0.00     0.009 A 
ATOM     79  C   UNL A   1      45.216  33.536  30.096  1.00  0.00     0.009 A 
ATOM     80  C   UNL A   1      45.376  34.015  32.841  1.00  0.00     0.001 A 
ATOM     81  C   UNL A   1      45.658  34.774  30.564  1.00  0.00     0.001 A 
ATOM     82  C   UNL A   1      45.731  35.014  31.936  1.00  0.00     0.000 A 
ENDBRANCH  64  77
ENDBRANCH  38  39
ENDBRANCH  30  33
ENDBRANCH  28  29
ENDBRANCH  27  28
ENDBRANCH  26  27
ENDBRANCH   1  26
TORSDOF 17
ENDMDL
MODEL 2
REMARK VINA RESULT:     -10.8      1.091      1.712
REMARK SMILES CCC[C@@H](CNC(=O)NCc1c(C)nn(C)c1C)C(=O)NCCCCNC(=O)c1ccc(-c2c3nc(c(-c4ccccc4)c4ccc([nH]4)c(-c4ccccc4)c4nc(c(-c5ccccc5)c5ccc2[nH]5)C=C4)C=C3)cc1
REMARK SMILES IDX 22 1 21 2 19 3 20 4 4 6 3 7 2 8 1 9 5 10 6 11 7 12 8 14 9 15
REMARK SMILES IDX 10 17 11 18 12 19 17 20 13 21 14 22 15 23 18 24 16 25 23 26
REMARK SMILES IDX 24 27 25 28 26 29 27 30 28 32 29 33 30 34 76 35 31 36 75 37
REMARK SMILES IDX 32 38 33 39 34 40 69 41 35 42 74 43 68 44 70 45 36 46 73 47
REMARK SMILES IDX 67 48 66 49 37 51 59 52 44 53 58 54 45 55 48 56 57 57 71 58
REMARK SMILES IDX 46 59 47 60 56 62 72 63 49 64 38 65 39 66 43 67 40 68 42 69
REMARK SMILES IDX 41 70 60 71 61 72 65 73 62 74 64 75 63 76 50 77 51 78 55 79
REMARK SMILES IDX 52 80 54 81 53 82
REMARK H PARENT 21 5 6 13 9 16 26 31 70 50 48 61
REMARK Flexibility Score: inf
ROOT
ATOM      1  C   UNL A   1      35.540  22.848  24.010  1.00  0.00     0.116 C 
ENDROOT
BRANCH   1   2
ATOM      2  N   UNL A   1      34.811  22.706  25.257  1.00  0.00    -0.356 N 
ATOM      3  C   UNL A   1      33.576  22.190  25.509  1.00  0.00     0.224 C 
ATOM      4  O   UNL A   1      33.301  21.945  26.688  1.00  0.00    -0.275 OA
ATOM      5  H   UNL A   1      35.288  23.037  26.052  1.00  0.00     0.163 HD
BRANCH   3   6
ATOM      6  C   UNL A   1      32.544  21.911  24.415  1.00  0.00     0.097 C 
BRANCH   6   7
ATOM      7  C   UNL A   1      32.133  20.424  24.348  1.00  0.00     0.015 C 
BRANCH   7   8
ATOM      8  C   UNL A   1      33.265  19.395  24.431  1.00  0.00    -0.003 C 
ATOM      9  C   UNL A   1      32.976  18.231  25.363  1.00  0.00     0.004 C 
ENDBRANCH   7   8
ENDBRANCH   6   7
BRANCH   6  10
ATOM     10  C   UNL A   1      31.423  22.965  24.342  1.00  0.00     0.131 C 
BRANCH  10  11
ATOM     11  N   UNL A   1      30.540  23.026  25.487  1.00  0.00    -0.337 N 
ATOM     12  C   UNL A   1      30.437  23.816  26.562  1.00  0.00     0.315 C 
ATOM     13  H   UNL A   1      29.853  22.320  25.472  1.00  0.00     0.165 HD
ATOM     14  O   UNL A   1      29.603  23.501  27.415  1.00  0.00    -0.249 OA
ATOM     15  N   UNL A   1      31.151  24.923  26.768  1.00  0.00    -0.334 N 
ATOM     16  H   UNL A   1      30.921  25.364  27.618  1.00  0.00     0.165 HD
BRANCH  15  17
ATOM     17  C   UNL A   1      32.178  25.626  26.044  1.00  0.00     0.157 C 
BRANCH  17  18
ATOM     18  C   UNL A   1      31.757  27.003  25.623  1.00  0.00     0.015 A 
ATOM     19  C   UNL A   1      32.077  28.297  26.145  1.00  0.00     0.065 A 
ATOM     20  C   UNL A   1      30.906  27.281  24.554  1.00  0.00     0.040 A 
ATOM     21  C   UNL A   1      32.935  28.706  27.285  1.00  0.00     0.069 C 
ATOM     22  N   UNL A   1      31.496  29.275  25.439  1.00  0.00    -0.178 NA
ATOM     23  N   UNL A   1      30.816  28.644  24.477  1.00  0.00    -0.272 N 
ATOM     24  C   UNL A   1      30.202  26.372  23.611  1.00  0.00     0.067 C 
ATOM     25  C   UNL A   1      30.117  29.455  23.508  1.00  0.00     0.174 C 
ENDBRANCH  17  18
ENDBRANCH  15  17
ENDBRANCH  10  11
ENDBRANCH   6  10
ENDBRANCH   3   6
ENDBRANCH   1   2
BRANCH   1  26
ATOM     26  C   UNL A   1      37.040  22.630  24.156  1.00  0.00     0.023 C 
BRANCH  26  27
ATOM     27  C   UNL A   1      37.434  21.273  24.734  1.00  0.00     0.023 C 
BRANCH  27  28
ATOM     28  C   UNL A   1      38.593  21.289  25.727  1.00  0.00     0.116 C 
BRANCH  28  29
ATOM     29  N   UNL A   1      39.444  20.108  25.660  1.00  0.00    -0.352 N 
ATOM     30  C   UNL A   1      40.769  19.974  26.010  1.00  0.00     0.251 C 
ATOM     31  H   UNL A   1      39.011  19.294  25.318  1.00  0.00     0.163 HD
ATOM     32  O   UNL A   1      41.375  18.935  25.805  1.00  0.00    -0.269 OA
BRANCH  30  33
ATOM     33  C   UNL A   1      41.467  21.136  26.600  1.00  0.00     0.039 A 
ATOM     34  C   UNL A   1      42.013  22.097  25.747  1.00  0.00     0.014 A 
ATOM     35  C   UNL A   1      41.511  21.305  27.985  1.00  0.00     0.014 A 
ATOM     36  C   UNL A   1      42.514  23.283  26.283  1.00  0.00     0.010 A 
ATOM     37  C   UNL A   1      41.945  22.514  28.512  1.00  0.00     0.010 A 
ATOM     38  C   UNL A   1      42.432  23.523  27.664  1.00  0.00    -0.014 A 
BRANCH  38  39
ATOM     39  C   UNL A   1      42.807  24.836  28.245  1.00  0.00     0.031 A 
ATOM     40  C   UNL A   1      41.763  25.892  28.460  1.00  0.00     0.074 A 
ATOM     41  C   UNL A   1      44.105  25.108  28.487  1.00  0.00     0.049 A 
ATOM     42  N   UNL A   1      41.913  27.130  28.854  1.00  0.00    -0.248 NA
ATOM     43  C   UNL A   1      40.370  25.515  28.167  1.00  0.00     0.031 C 
ATOM     44  C   UNL A   1      45.221  24.184  28.275  1.00  0.00     0.029 A 
ATOM     45  N   UNL A   1      44.704  26.252  28.950  1.00  0.00    -0.354 N 
ATOM     46  C   UNL A   1      40.641  27.688  28.832  1.00  0.00     0.074 A 
ATOM     47  C   UNL A   1      39.737  26.665  28.351  1.00  0.00     0.031 C 
ATOM     48  C   UNL A   1      46.367  24.792  28.626  1.00  0.00     0.029 A 
ATOM     49  C   UNL A   1      46.071  26.156  29.048  1.00  0.00     0.049 A 
ATOM     50  H   UNL A   1      44.202  27.064  29.190  1.00  0.00     0.167 HD
ATOM     51  C   UNL A   1      40.257  28.935  29.194  1.00  0.00     0.031 A 
ATOM     52  C   UNL A   1      46.986  27.069  29.424  1.00  0.00     0.031 A 
ATOM     53  C   UNL A   1      41.150  29.945  29.694  1.00  0.00     0.049 A 
ATOM     54  C   UNL A   1      46.535  28.445  29.821  1.00  0.00     0.074 A 
ATOM     55  C   UNL A   1      40.843  31.213  30.156  1.00  0.00     0.029 A 
ATOM     56  N   UNL A   1      42.525  29.801  29.796  1.00  0.00    -0.354 N 
ATOM     57  N   UNL A   1      45.319  28.934  29.860  1.00  0.00    -0.248 NA
ATOM     58  C   UNL A   1      47.581  29.393  30.229  1.00  0.00     0.031 C 
ATOM     59  C   UNL A   1      42.039  31.853  30.500  1.00  0.00     0.029 A 
ATOM     60  C   UNL A   1      43.084  30.967  30.291  1.00  0.00     0.049 A 
ATOM     61  H   UNL A   1      43.028  28.991  29.552  1.00  0.00     0.167 HD
ATOM     62  C   UNL A   1      45.452  30.239  30.316  1.00  0.00     0.074 A 
ATOM     63  C   UNL A   1      46.864  30.461  30.553  1.00  0.00     0.031 C 
ATOM     64  C   UNL A   1      44.490  31.170  30.519  1.00  0.00     0.031 A 
BRANCH  51  65
ATOM     65  C   UNL A   1      38.801  29.274  29.058  1.00  0.00    -0.014 A 
ATOM     66  C   UNL A   1      38.266  29.687  27.828  1.00  0.00     0.009 A 
ATOM     67  C   UNL A   1      37.949  29.148  30.165  1.00  0.00     0.009 A 
ATOM     68  C   UNL A   1      36.909  30.002  27.719  1.00  0.00     0.001 A 
ATOM     69  C   UNL A   1      36.589  29.440  30.047  1.00  0.00     0.001 A 
ATOM     70  C   UNL A   1      36.072  29.875  28.827  1.00  0.00     0.000 A 
ENDBRANCH  51  65
BRANCH  52  71
ATOM     71  C   UNL A   1      48.427  26.709  29.453  1.00  0.00    -0.014 A 
ATOM     72  C   UNL A   1      48.988  26.124  30.598  1.00  0.00     0.009 A 
ATOM     73  C   UNL A   1      49.247  26.952  28.341  1.00  0.00     0.009 A 
ATOM     74  C   UNL A   1      50.349  25.809  30.637  1.00  0.00     0.001 A 
ATOM     75  C   UNL A   1      50.602  26.614  28.374  1.00  0.00     0.001 A 
ATOM     76  C   UNL A   1      51.154  26.052  29.524  1.00  0.00     0.000 A 
ENDBRANCH  52  71
BRANCH  64  77
ATOM     77  C   UNL A   1      44.928  32.505  31.046  1.00  0.00    -0.014 A 
ATOM     78  C   UNL A   1      44.986  32.755  32.425  1.00  0.00     0.009 A 
ATOM     79  C   UNL A   1      45.332  33.509  30.151  1.00  0.00     0.009 A 
ATOM     80  C   UNL A   1      45.419  33.995  32.898  1.00  0.00     0.001 A 
ATOM     81  C   UNL A   1      45.786  34.739  30.629  1.00  0.00     0.001 A 
ATOM     82  C   UNL A   1      45.823  34.983  32.001  1.00  0.00     0.000 A 
ENDBRANCH  64  77
ENDBRANCH  38  39
ENDBRANCH  30  33
ENDBRANCH  28  29
ENDBRANCH  27  28
ENDBRANCH  26  27
ENDBRANCH   1  26
TORSDOF 17
ENDMDL
MODEL 3
REMARK VINA RESULT:     -10.7      0.953      5.959
REMARK SMILES CCC[C@@H](CNC(=O)NCc1c(C)nn(C)c1C)C(=O)NCCCCNC(=O)c1ccc(-c2c3nc(c(-c4ccccc4)c4ccc([nH]4)c(-c4ccccc4)c4nc(c(-c5ccccc5)c5ccc2[nH]5)C=C4)C=C3)cc1
REMARK SMILES IDX 22 1 21 2 19 3 20 4 4 6 3 7 2 8 1 9 5 10 6 11 7 12 8 14 9 15
REMARK SMILES IDX 10 17 11 18 12 19 17 20 13 21 14 22 15 23 18 24 16 25 23 26
REMARK SMILES IDX 24 27 25 28 26 29 27 30 28 32 29 33 30 34 76 35 31 36 75 37
REMARK SMILES IDX 32 38 33 39 34 40 69 41 35 42 74 43 68 44 70 45 36 46 73 47
REMARK SMILES IDX 67 48 66 49 37 51 59 52 44 53 58 54 45 55 48 56 57 57 71 58
REMARK SMILES IDX 46 59 47 60 56 62 72 63 49 64 38 65 39 66 43 67 40 68 42 69
REMARK SMILES IDX 41 70 60 71 61 72 65 73 62 74 64 75 63 76 50 77 51 78 55 79
REMARK SMILES IDX 52 80 54 81 53 82
REMARK H PARENT 21 5 6 13 9 16 26 31 70 50 48 61
REMARK Flexibility Score: inf
ROOT
ATOM      1  C   UNL A   1      36.270  23.074  25.043  1.00  0.00     0.116 C 
ENDROOT
BRANCH   1   2
ATOM      2  N   UNL A   1      35.499  22.611  26.182  1.00  0.00    -0.356 N 
ATOM      3  C   UNL A   1      34.479  21.711  26.257  1.00  0.00     0.224 C 
ATOM      4  O   UNL A   1      34.176  21.302  27.382  1.00  0.00    -0.275 OA
ATOM      5  H   UNL A   1      35.756  23.014  27.042  1.00  0.00     0.163 HD
BRANCH   3   6
ATOM      6  C   UNL A   1      33.715  21.204  25.032  1.00  0.00     0.097 C 
BRANCH   6   7
ATOM      7  C   UNL A   1      33.768  19.667  24.892  1.00  0.00     0.015 C 
BRANCH   7   8
ATOM      8  C   UNL A   1      32.469  18.970  24.476  1.00  0.00    -0.003 C 
ATOM      9  C   UNL A   1      32.461  18.482  23.038  1.00  0.00     0.004 C 
ENDBRANCH   7   8
ENDBRANCH   6   7
BRANCH   6  10
ATOM     10  C   UNL A   1      32.354  21.894  24.826  1.00  0.00     0.131 C 
BRANCH  10  11
ATOM     11  N   UNL A   1      31.571  22.114  26.023  1.00  0.00    -0.337 N 
ATOM     12  C   UNL A   1      30.765  23.089  26.461  1.00  0.00     0.315 C 
ATOM     13  H   UNL A   1      31.649  21.373  26.667  1.00  0.00     0.165 HD
ATOM     14  O   UNL A   1      30.335  22.989  27.613  1.00  0.00    -0.249 OA
ATOM     15  N   UNL A   1      30.379  24.142  25.741  1.00  0.00    -0.334 N 
ATOM     16  H   UNL A   1      29.781  24.741  26.245  1.00  0.00     0.165 HD
BRANCH  15  17
ATOM     17  C   UNL A   1      30.628  24.613  24.402  1.00  0.00     0.157 C 
BRANCH  17  18
ATOM     18  C   UNL A   1      31.122  26.028  24.364  1.00  0.00     0.015 A 
ATOM     19  C   UNL A   1      30.488  27.247  23.962  1.00  0.00     0.065 A 
ATOM     20  C   UNL A   1      32.399  26.434  24.750  1.00  0.00     0.040 A 
ATOM     21  C   UNL A   1      29.122  27.513  23.443  1.00  0.00     0.069 C 
ATOM     22  N   UNL A   1      31.297  28.302  24.116  1.00  0.00    -0.178 NA
ATOM     23  N   UNL A   1      32.430  27.795  24.610  1.00  0.00    -0.272 N 
ATOM     24  C   UNL A   1      33.560  25.649  25.246  1.00  0.00     0.067 C 
ATOM     25  C   UNL A   1      33.492  28.718  24.937  1.00  0.00     0.174 C 
ENDBRANCH  17  18
ENDBRANCH  15  17
ENDBRANCH  10  11
ENDBRANCH   6  10
ENDBRANCH   3   6
ENDBRANCH   1   2
BRANCH   1  26
ATOM     26  C   UNL A   1      36.834  21.944  24.191  1.00  0.00     0.023 C 
BRANCH  26  27
ATOM     27  C   UNL A   1      37.393  20.766  24.985  1.00  0.00     0.023 C 
BRANCH  27  28
ATOM     28  C   UNL A   1      38.713  21.024  25.707  1.00  0.00     0.116 C 
BRANCH  28  29
ATOM     29  N   UNL A   1      39.632  19.893  25.679  1.00  0.00    -0.352 N 
ATOM     30  C   UNL A   1      40.962  19.847  26.034  1.00  0.00     0.251 C 
ATOM     31  H   UNL A   1      39.248  19.044  25.362  1.00  0.00     0.163 HD
ATOM     32  O   UNL A   1      41.627  18.840  25.864  1.00  0.00    -0.269 OA
BRANCH  30  33
ATOM     33  C   UNL A   1      41.589  21.066  26.588  1.00  0.00     0.039 A 
ATOM     34  C   UNL A   1      42.141  21.998  25.706  1.00  0.00     0.014 A 
ATOM     35  C   UNL A   1      41.559  21.314  27.961  1.00  0.00     0.014 A 
ATOM     36  C   UNL A   1      42.573  23.230  26.196  1.00  0.00     0.010 A 
ATOM     37  C   UNL A   1      41.924  22.567  28.437  1.00  0.00     0.010 A 
ATOM     38  C   UNL A   1      42.416  23.544  27.556  1.00  0.00    -0.014 A 
BRANCH  38  39
ATOM     39  C   UNL A   1      42.716  24.901  28.076  1.00  0.00     0.031 A 
ATOM     40  C   UNL A   1      44.106  25.247  28.526  1.00  0.00     0.074 A 
ATOM     41  C   UNL A   1      41.714  25.788  28.233  1.00  0.00     0.049 A 
ATOM     42  N   UNL A   1      44.536  26.338  29.105  1.00  0.00    -0.248 NA
ATOM     43  C   UNL A   1      45.142  24.220  28.324  1.00  0.00     0.031 C 
ATOM     44  C   UNL A   1      40.311  25.558  27.879  1.00  0.00     0.029 A 
ATOM     45  N   UNL A   1      41.721  27.060  28.747  1.00  0.00    -0.354 N 
ATOM     46  C   UNL A   1      45.884  26.121  29.360  1.00  0.00     0.074 A 
ATOM     47  C   UNL A   1      46.192  24.781  28.906  1.00  0.00     0.031 C 
ATOM     48  C   UNL A   1      39.598  26.660  28.169  1.00  0.00     0.029 A 
ATOM     49  C   UNL A   1      40.484  27.655  28.764  1.00  0.00     0.049 A 
ATOM     50  H   UNL A   1      42.537  27.504  29.073  1.00  0.00     0.167 HD
ATOM     51  C   UNL A   1      46.789  26.966  29.907  1.00  0.00     0.031 A 
ATOM     52  C   UNL A   1      40.100  28.862  29.219  1.00  0.00     0.031 A 
ATOM     53  C   UNL A   1      46.491  28.305  30.337  1.00  0.00     0.049 A 
ATOM     54  C   UNL A   1      41.122  29.781  29.822  1.00  0.00     0.074 A 
ATOM     55  C   UNL A   1      47.357  29.262  30.836  1.00  0.00     0.029 A 
ATOM     56  N   UNL A   1      45.228  28.876  30.319  1.00  0.00    -0.354 N 
ATOM     57  N   UNL A   1      42.408  29.586  29.993  1.00  0.00    -0.248 NA
ATOM     58  C   UNL A   1      40.643  31.088  30.293  1.00  0.00     0.031 C 
ATOM     59  C   UNL A   1      46.610  30.400  31.159  1.00  0.00     0.029 A 
ATOM     60  C   UNL A   1      45.288  30.164  30.821  1.00  0.00     0.049 A 
ATOM     61  H   UNL A   1      44.411  28.431  29.997  1.00  0.00     0.167 HD
ATOM     62  C   UNL A   1      42.893  30.751  30.570  1.00  0.00     0.074 A 
ATOM     63  C   UNL A   1      41.768  31.654  30.709  1.00  0.00     0.031 C 
ATOM     64  C   UNL A   1      44.158  31.047  30.953  1.00  0.00     0.031 A 
BRANCH  51  65
ATOM     65  C   UNL A   1      48.192  26.459  30.074  1.00  0.00    -0.014 A 
ATOM     66  C   UNL A   1      49.146  26.619  29.057  1.00  0.00     0.009 A 
ATOM     67  C   UNL A   1      48.572  25.840  31.275  1.00  0.00     0.009 A 
ATOM     68  C   UNL A   1      50.446  26.138  29.228  1.00  0.00     0.001 A 
ATOM     69  C   UNL A   1      49.879  25.383  31.452  1.00  0.00     0.001 A 
ATOM     70  C   UNL A   1      50.812  25.524  30.425  1.00  0.00     0.000 A 
ENDBRANCH  51  65
BRANCH  52  71
ATOM     71  C   UNL A   1      38.679  29.280  29.113  1.00  0.00    -0.014 A 
ATOM     72  C   UNL A   1      38.191  29.839  27.923  1.00  0.00     0.009 A 
ATOM     73  C   UNL A   1      37.805  29.125  30.201  1.00  0.00     0.009 A 
ATOM     74  C   UNL A   1      36.861  30.257  27.831  1.00  0.00     0.001 A 
ATOM     75  C   UNL A   1      36.469  29.522  30.098  1.00  0.00     0.001 A 
ATOM     76  C   UNL A   1      36.001  30.095  28.916  1.00  0.00     0.000 A 
ENDBRANCH  52  71
BRANCH  64  77
ATOM     77  C   UNL A   1      44.399  32.409  31.534  1.00  0.00    -0.014 A 
ATOM     78  C   UNL A   1      44.321  32.630  32.917  1.00  0.00     0.009 A 
ATOM     79  C   UNL A   1      44.754  33.473  30.690  1.00  0.00     0.009 A 
ATOM     80  C   UNL A   1      44.573  33.899  33.443  1.00  0.00     0.001 A 
ATOM     81  C   UNL A   1      45.028  34.734  31.222  1.00  0.00     0.001 A 
ATOM     82  C   UNL A   1      44.930  34.947  32.596  1.00  0.00     0.000 A 
ENDBRANCH  64  77
ENDBRANCH  38  39
ENDBRANCH  30  33
ENDBRANCH  28  29
ENDBRANCH  27  28
ENDBRANCH  26  27
ENDBRANCH   1  26
TORSDOF 17
ENDMDL
