MODEL 1
REMARK VINA RESULT:     -12.5      0.000      0.000
REMARK SMILES Cc1nn2c(nnc3c(=O)n(CCCC(=O)NCCCCNC(=O)c4ccc(-c5c6nc(c(-c7ccccc7)c7ccc([nH]7)c(-c7ccccc7)c7nc(c(-c8ccccc8)c8ccc5[nH]8)C=C7)C=C6)cc4)ccc32)c1-c1ccc(F)cc1
REMARK SMILES IDX 18 1 17 2 15 3 16 4 14 6 13 7 12 8 11 9 1 10 2 11 3 12 76 13
REMARK SMILES IDX 4 14 5 15 75 16 6 17 8 18 74 19 7 20 9 21 73 22 10 23 77 24
REMARK SMILES IDX 78 25 83 26 79 27 82 28 80 29 81 30 19 31 20 32 21 33 22 34
REMARK SMILES IDX 23 35 24 37 25 38 26 39 72 40 27 41 71 42 28 43 29 44 30 45
REMARK SMILES IDX 65 46 31 47 70 48 64 49 66 50 32 51 69 52 63 53 62 54 33 56
REMARK SMILES IDX 55 57 40 58 54 59 41 60 44 61 53 62 67 63 42 64 43 65 52 67
REMARK SMILES IDX 68 68 45 69 34 70 35 71 39 72 36 73 38 74 37 75 56 76 57 77
REMARK SMILES IDX 61 78 58 79 60 80 59 81 46 82 47 83 51 84 48 85 50 86 49 87
REMARK H PARENT 17 5 22 36 66 55 44 66
REMARK Flexibility Score: inf
ROOT
ATOM      1  C   UNL A   1      38.204  22.795  25.784  1.00  0.00     0.116 C 
ENDROOT
BRANCH   1   2
ATOM      2  N   UNL A   1      37.896  21.431  25.427  1.00  0.00    -0.356 N 
ATOM      3  C   UNL A   1      36.769  20.789  25.042  1.00  0.00     0.220 C 
ATOM      4  O   UNL A   1      36.945  19.609  24.701  1.00  0.00    -0.275 OA
ATOM      5  H   UNL A   1      38.679  20.836  25.473  1.00  0.00     0.163 HD
BRANCH   3   6
ATOM      6  C   UNL A   1      35.369  21.376  24.906  1.00  0.00     0.102 C 
BRANCH   6   7
ATOM      7  C   UNL A   1      34.987  22.611  24.087  1.00  0.00     0.032 C 
BRANCH   7   8
ATOM      8  C   UNL A   1      33.893  22.681  23.013  1.00  0.00     0.126 C 
BRANCH   8   9
ATOM      9  N   UNL A   1      32.803  23.684  23.020  1.00  0.00    -0.313 N 
ATOM     10  C   UNL A   1      26.405  27.742  23.890  1.00  0.00     0.069 C 
ATOM     11  C   UNL A   1      27.854  27.547  23.639  1.00  0.00     0.070 A 
ATOM     12  N   UNL A   1      28.431  26.363  23.906  1.00  0.00    -0.170 NA
ATOM     13  C   UNL A   1      28.768  28.467  23.078  1.00  0.00     0.051 A 
ATOM     14  N   UNL A   1      29.710  26.490  23.459  1.00  0.00    -0.210 N 
ATOM     15  C   UNL A   1      29.951  27.773  22.986  1.00  0.00     0.186 A 
ATOM     16  C   UNL A   1      30.726  25.537  23.376  1.00  0.00     0.102 A 
ATOM     17  N   UNL A   1      31.176  28.126  22.507  1.00  0.00    -0.129 NA
ATOM     18  C   UNL A   1      31.866  25.959  22.807  1.00  0.00     0.177 A 
ATOM     19  C   UNL A   1      30.607  24.175  23.840  1.00  0.00     0.049 A 
ATOM     20  N   UNL A   1      32.076  27.261  22.397  1.00  0.00    -0.141 NA
ATOM     21  C   UNL A   1      32.988  25.002  22.598  1.00  0.00     0.280 A 
ATOM     22  C   UNL A   1      31.619  23.315  23.659  1.00  0.00     0.091 A 
ATOM     23  O   UNL A   1      34.018  25.452  22.114  1.00  0.00    -0.267 OA
BRANCH  13  24
ATOM     24  C   UNL A   1      28.659  29.831  22.615  1.00  0.00    -0.012 A 
ATOM     25  C   UNL A   1      28.226  30.102  21.313  1.00  0.00     0.012 A 
ATOM     26  C   UNL A   1      28.855  30.888  23.520  1.00  0.00     0.012 A 
ATOM     27  C   UNL A   1      27.974  31.420  20.925  1.00  0.00     0.040 A 
ATOM     28  C   UNL A   1      28.604  32.202  23.129  1.00  0.00     0.040 A 
ATOM     29  C   UNL A   1      28.160  32.455  21.838  1.00  0.00     0.123 A 
ATOM     30  F   UNL A   1      27.892  33.714  21.469  1.00  0.00    -0.207 F 
ENDBRANCH  13  24
ENDBRANCH   8   9
ENDBRANCH   7   8
ENDBRANCH   6   7
ENDBRANCH   3   6
ENDBRANCH   1   2
BRANCH   1  31
ATOM     31  C   UNL A   1      39.270  22.876  26.882  1.00  0.00     0.023 C 
BRANCH  31  32
ATOM     32  C   UNL A   1      40.231  21.686  26.943  1.00  0.00     0.023 C 
BRANCH  32  33
ATOM     33  C   UNL A   1      41.246  21.773  28.077  1.00  0.00     0.116 C 
BRANCH  33  34
ATOM     34  N   UNL A   1      42.626  21.645  27.616  1.00  0.00    -0.352 N 
ATOM     35  C   UNL A   1      43.435  22.646  27.114  1.00  0.00     0.251 C 
ATOM     36  H   UNL A   1      43.023  20.746  27.669  1.00  0.00     0.163 HD
ATOM     37  O   UNL A   1      44.415  22.393  26.435  1.00  0.00    -0.269 OA
BRANCH  35  38
ATOM     38  C   UNL A   1      43.092  24.042  27.436  1.00  0.00     0.039 A 
ATOM     39  C   UNL A   1      42.328  24.812  26.556  1.00  0.00     0.014 A 
ATOM     40  C   UNL A   1      43.544  24.562  28.650  1.00  0.00     0.014 A 
ATOM     41  C   UNL A   1      41.966  26.100  26.938  1.00  0.00     0.010 A 
ATOM     42  C   UNL A   1      43.106  25.795  29.069  1.00  0.00     0.010 A 
ATOM     43  C   UNL A   1      42.351  26.577  28.199  1.00  0.00    -0.014 A 
BRANCH  43  44
ATOM     44  C   UNL A   1      41.891  27.875  28.663  1.00  0.00     0.031 A 
ATOM     45  C   UNL A   1      42.776  29.022  28.330  1.00  0.00     0.074 A 
ATOM     46  C   UNL A   1      40.660  28.068  29.176  1.00  0.00     0.049 A 
ATOM     47  N   UNL A   1      43.465  29.744  29.148  1.00  0.00    -0.248 NA
ATOM     48  C   UNL A   1      43.003  29.343  26.911  1.00  0.00     0.031 C 
ATOM     49  C   UNL A   1      39.549  27.114  29.270  1.00  0.00     0.029 A 
ATOM     50  N   UNL A   1      40.105  29.222  29.627  1.00  0.00    -0.354 N 
ATOM     51  C   UNL A   1      44.080  30.725  28.377  1.00  0.00     0.074 A 
ATOM     52  C   UNL A   1      43.884  30.341  27.001  1.00  0.00     0.031 C 
ATOM     53  C   UNL A   1      38.403  27.783  29.528  1.00  0.00     0.029 A 
ATOM     54  C   UNL A   1      38.725  29.175  29.781  1.00  0.00     0.049 A 
ATOM     55  H   UNL A   1      40.636  30.026  29.827  1.00  0.00     0.167 HD
ATOM     56  C   UNL A   1      44.515  31.896  28.920  1.00  0.00     0.031 A 
ATOM     57  C   UNL A   1      37.916  30.225  30.059  1.00  0.00     0.031 A 
ATOM     58  C   UNL A   1      44.537  31.847  30.358  1.00  0.00     0.049 A 
ATOM     59  C   UNL A   1      38.767  31.273  30.673  1.00  0.00     0.074 A 
ATOM     60  C   UNL A   1      45.202  31.085  31.295  1.00  0.00     0.029 A 
ATOM     61  N   UNL A   1      43.468  32.410  31.014  1.00  0.00    -0.354 N 
ATOM     62  N   UNL A   1      39.359  31.133  31.825  1.00  0.00    -0.248 NA
ATOM     63  C   UNL A   1      39.320  32.303  29.807  1.00  0.00     0.031 C 
ATOM     64  C   UNL A   1      44.236  30.838  32.315  1.00  0.00     0.029 A 
ATOM     65  C   UNL A   1      43.065  31.519  31.973  1.00  0.00     0.049 A 
ATOM     66  H   UNL A   1      43.068  33.291  30.829  1.00  0.00     0.167 HD
ATOM     67  C   UNL A   1      40.599  31.733  31.660  1.00  0.00     0.074 A 
ATOM     68  C   UNL A   1      40.477  32.524  30.437  1.00  0.00     0.031 C 
ATOM     69  C   UNL A   1      41.688  31.311  32.367  1.00  0.00     0.031 A 
BRANCH  56  70
ATOM     70  C   UNL A   1      44.551  33.204  28.178  1.00  0.00    -0.014 A 
ATOM     71  C   UNL A   1      43.430  34.051  28.232  1.00  0.00     0.009 A 
ATOM     72  C   UNL A   1      45.530  33.502  27.212  1.00  0.00     0.009 A 
ATOM     73  C   UNL A   1      43.279  35.115  27.333  1.00  0.00     0.001 A 
ATOM     74  C   UNL A   1      45.400  34.585  26.340  1.00  0.00     0.001 A 
ATOM     75  C   UNL A   1      44.264  35.378  26.386  1.00  0.00     0.000 A 
ENDBRANCH  56  70
BRANCH  57  76
ATOM     76  C   UNL A   1      36.558  30.507  29.537  1.00  0.00    -0.014 A 
ATOM     77  C   UNL A   1      35.839  31.623  30.000  1.00  0.00     0.009 A 
ATOM     78  C   UNL A   1      36.085  29.861  28.381  1.00  0.00     0.009 A 
ATOM     79  C   UNL A   1      34.729  32.110  29.296  1.00  0.00     0.001 A 
ATOM     80  C   UNL A   1      34.971  30.343  27.683  1.00  0.00     0.001 A 
ATOM     81  C   UNL A   1      34.307  31.480  28.129  1.00  0.00     0.000 A 
ENDBRANCH  57  76
BRANCH  69  82
ATOM     82  C   UNL A   1      41.473  30.326  33.488  1.00  0.00    -0.014 A 
ATOM     83  C   UNL A   1      41.474  28.933  33.287  1.00  0.00     0.009 A 
ATOM     84  C   UNL A   1      41.490  30.811  34.803  1.00  0.00     0.009 A 
ATOM     85  C   UNL A   1      41.497  28.055  34.377  1.00  0.00     0.001 A 
ATOM     86  C   UNL A   1      41.530  29.934  35.889  1.00  0.00     0.001 A 
ATOM     87  C   UNL A   1      41.537  28.557  35.676  1.00  0.00     0.000 A 
ENDBRANCH  69  82
ENDBRANCH  43  44
ENDBRANCH  35  38
ENDBRANCH  33  34
ENDBRANCH  32  33
ENDBRANCH  31  32
ENDBRANCH   1  31
TORSDOF 15
ENDMDL
MODEL 2
REMARK VINA RESULT:     -12.4      3.794      9.228
REMARK SMILES Cc1nn2c(nnc3c(=O)n(CCCC(=O)NCCCCNC(=O)c4ccc(-c5c6nc(c(-c7ccccc7)c7ccc([nH]7)c(-c7ccccc7)c7nc(c(-c8ccccc8)c8ccc5[nH]8)C=C7)C=C6)cc4)ccc32)c1-c1ccc(F)cc1
REMARK SMILES IDX 18 1 17 2 15 3 16 4 14 6 13 7 12 8 11 9 1 10 2 11 3 12 76 13
REMARK SMILES IDX 4 14 5 15 75 16 6 17 8 18 74 19 7 20 9 21 73 22 10 23 77 24
REMARK SMILES IDX 78 25 83 26 79 27 82 28 80 29 81 30 19 31 20 32 21 33 22 34
REMARK SMILES IDX 23 35 24 37 25 38 26 39 72 40 27 41 71 42 28 43 29 44 30 45
REMARK SMILES IDX 65 46 31 47 70 48 64 49 66 50 32 51 69 52 63 53 62 54 33 56
REMARK SMILES IDX 55 57 40 58 54 59 41 60 44 61 53 62 67 63 42 64 43 65 52 67
REMARK SMILES IDX 68 68 45 69 34 70 35 71 39 72 36 73 38 74 37 75 56 76 57 77
REMARK SMILES IDX 61 78 58 79 60 80 59 81 46 82 47 83 51 84 48 85 50 86 49 87
REMARK H PARENT 17 5 22 36 66 55 44 66
REMARK Flexibility Score: inf
ROOT
ATOM      1  C   UNL A   1      33.959  29.928  27.264  1.00  0.00     0.116 C 
ENDROOT
BRANCH   1   2
ATOM      2  N   UNL A   1      32.850  30.818  27.010  1.00  0.00    -0.356 N 
ATOM      3  C   UNL A   1      31.827  30.821  26.126  1.00  0.00     0.220 C 
ATOM      4  O   UNL A   1      30.995  31.723  26.310  1.00  0.00    -0.275 OA
ATOM      5  H   UNL A   1      32.837  31.596  27.614  1.00  0.00     0.163 HD
BRANCH   3   6
ATOM      6  C   UNL A   1      31.556  29.808  25.019  1.00  0.00     0.102 C 
BRANCH   6   7
ATOM      7  C   UNL A   1      31.640  28.286  25.153  1.00  0.00     0.032 C 
BRANCH   7   8
ATOM      8  C   UNL A   1      31.695  27.277  23.996  1.00  0.00     0.126 C 
BRANCH   8   9
ATOM      9  N   UNL A   1      32.335  25.946  24.102  1.00  0.00    -0.313 N 
ATOM     10  C   UNL A   1      36.941  19.932  24.987  1.00  0.00     0.069 C 
ATOM     11  C   UNL A   1      35.635  20.635  24.941  1.00  0.00     0.070 A 
ATOM     12  N   UNL A   1      35.592  21.978  24.956  1.00  0.00    -0.170 NA
ATOM     13  C   UNL A   1      34.348  20.066  24.827  1.00  0.00     0.051 A 
ATOM     14  N   UNL A   1      34.277  22.286  24.787  1.00  0.00    -0.210 N 
ATOM     15  C   UNL A   1      33.495  21.141  24.744  1.00  0.00     0.186 A 
ATOM     16  C   UNL A   1      33.666  23.528  24.611  1.00  0.00     0.102 A 
ATOM     17  N   UNL A   1      32.143  21.218  24.599  1.00  0.00    -0.129 NA
ATOM     18  C   UNL A   1      32.343  23.493  24.386  1.00  0.00     0.177 A 
ATOM     19  C   UNL A   1      34.363  24.793  24.643  1.00  0.00     0.049 A 
ATOM     20  N   UNL A   1      31.600  22.329  24.403  1.00  0.00    -0.141 NA
ATOM     21  C   UNL A   1      31.606  24.756  24.109  1.00  0.00     0.280 A 
ATOM     22  C   UNL A   1      33.699  25.931  24.400  1.00  0.00     0.091 A 
ATOM     23  O   UNL A   1      30.394  24.669  23.953  1.00  0.00    -0.267 OA
BRANCH  13  24
ATOM     24  C   UNL A   1      33.855  18.708  24.758  1.00  0.00    -0.012 A 
ATOM     25  C   UNL A   1      34.451  17.786  23.891  1.00  0.00     0.012 A 
ATOM     26  C   UNL A   1      32.869  18.282  25.663  1.00  0.00     0.012 A 
ATOM     27  C   UNL A   1      34.074  16.442  23.944  1.00  0.00     0.040 A 
ATOM     28  C   UNL A   1      32.496  16.940  25.711  1.00  0.00     0.040 A 
ATOM     29  C   UNL A   1      33.105  16.032  24.855  1.00  0.00     0.123 A 
ATOM     30  F   UNL A   1      32.766  14.738  24.919  1.00  0.00    -0.207 F 
ENDBRANCH  13  24
ENDBRANCH   8   9
ENDBRANCH   7   8
ENDBRANCH   6   7
ENDBRANCH   3   6
ENDBRANCH   1   2
BRANCH   1  31
ATOM     31  C   UNL A   1      35.153  30.659  27.885  1.00  0.00     0.023 C 
BRANCH  31  32
ATOM     32  C   UNL A   1      35.026  32.184  27.938  1.00  0.00     0.023 C 
BRANCH  32  33
ATOM     33  C   UNL A   1      36.080  32.858  28.808  1.00  0.00     0.116 C 
BRANCH  33  34
ATOM     34  N   UNL A   1      35.626  33.087  30.177  1.00  0.00    -0.352 N 
ATOM     35  C   UNL A   1      35.831  32.270  31.272  1.00  0.00     0.251 C 
ATOM     36  H   UNL A   1      35.118  33.914  30.337  1.00  0.00     0.163 HD
ATOM     37  O   UNL A   1      35.132  32.350  32.267  1.00  0.00    -0.269 OA
BRANCH  35  38
ATOM     38  C   UNL A   1      36.939  31.301  31.217  1.00  0.00     0.039 A 
ATOM     39  C   UNL A   1      36.688  29.935  31.071  1.00  0.00     0.014 A 
ATOM     40  C   UNL A   1      38.243  31.794  31.302  1.00  0.00     0.014 A 
ATOM     41  C   UNL A   1      37.768  29.067  30.947  1.00  0.00     0.010 A 
ATOM     42  C   UNL A   1      39.305  30.951  31.083  1.00  0.00     0.010 A 
ATOM     43  C   UNL A   1      39.071  29.586  30.945  1.00  0.00    -0.014 A 
BRANCH  43  44
ATOM     44  C   UNL A   1      40.207  28.712  30.707  1.00  0.00     0.031 A 
ATOM     45  C   UNL A   1      41.023  28.386  31.905  1.00  0.00     0.074 A 
ATOM     46  C   UNL A   1      40.398  28.074  29.535  1.00  0.00     0.049 A 
ATOM     47  N   UNL A   1      42.237  28.752  32.150  1.00  0.00    -0.248 NA
ATOM     48  C   UNL A   1      40.385  27.651  33.009  1.00  0.00     0.031 C 
ATOM     49  C   UNL A   1      39.514  28.025  28.366  1.00  0.00     0.029 A 
ATOM     50  N   UNL A   1      41.400  27.224  29.191  1.00  0.00    -0.354 N 
ATOM     51  C   UNL A   1      42.587  28.154  33.357  1.00  0.00     0.074 A 
ATOM     52  C   UNL A   1      41.369  27.617  33.911  1.00  0.00     0.031 C 
ATOM     53  C   UNL A   1      39.904  27.020  27.549  1.00  0.00     0.029 A 
ATOM     54  C   UNL A   1      41.150  26.473  28.050  1.00  0.00     0.049 A 
ATOM     55  H   UNL A   1      42.235  27.147  29.708  1.00  0.00     0.167 HD
ATOM     56  C   UNL A   1      43.887  27.952  33.706  1.00  0.00     0.031 A 
ATOM     57  C   UNL A   1      41.907  25.448  27.587  1.00  0.00     0.031 A 
ATOM     58  C   UNL A   1      44.792  28.681  32.858  1.00  0.00     0.049 A 
ATOM     59  C   UNL A   1      43.259  25.614  28.171  1.00  0.00     0.074 A 
ATOM     60  C   UNL A   1      45.002  30.015  32.578  1.00  0.00     0.029 A 
ATOM     61  N   UNL A   1      45.382  27.979  31.833  1.00  0.00    -0.354 N 
ATOM     62  N   UNL A   1      44.043  26.617  27.893  1.00  0.00    -0.248 NA
ATOM     63  C   UNL A   1      43.568  24.901  29.401  1.00  0.00     0.031 C 
ATOM     64  C   UNL A   1      45.266  30.056  31.177  1.00  0.00     0.029 A 
ATOM     65  C   UNL A   1      45.268  28.743  30.700  1.00  0.00     0.049 A 
ATOM     66  H   UNL A   1      45.808  27.094  31.900  1.00  0.00     0.167 HD
ATOM     67  C   UNL A   1      44.654  26.932  29.098  1.00  0.00     0.074 A 
ATOM     68  C   UNL A   1      44.403  25.780  29.962  1.00  0.00     0.031 C 
ATOM     69  C   UNL A   1      45.058  28.207  29.373  1.00  0.00     0.031 A 
BRANCH  56  70
ATOM     70  C   UNL A   1      44.360  26.805  34.556  1.00  0.00    -0.014 A 
ATOM     71  C   UNL A   1      44.791  27.060  35.870  1.00  0.00     0.009 A 
ATOM     72  C   UNL A   1      44.655  25.536  34.023  1.00  0.00     0.009 A 
ATOM     73  C   UNL A   1      45.519  26.107  36.594  1.00  0.00     0.001 A 
ATOM     74  C   UNL A   1      45.348  24.570  34.757  1.00  0.00     0.001 A 
ATOM     75  C   UNL A   1      45.799  24.865  36.035  1.00  0.00     0.000 A 
ENDBRANCH  56  70
BRANCH  57  76
ATOM     76  C   UNL A   1      41.460  24.182  26.960  1.00  0.00    -0.014 A 
ATOM     77  C   UNL A   1      42.402  23.282  26.434  1.00  0.00     0.009 A 
ATOM     78  C   UNL A   1      40.144  23.719  27.135  1.00  0.00     0.009 A 
ATOM     79  C   UNL A   1      42.055  21.952  26.157  1.00  0.00     0.001 A 
ATOM     80  C   UNL A   1      39.795  22.393  26.849  1.00  0.00     0.001 A 
ATOM     81  C   UNL A   1      40.756  21.504  26.381  1.00  0.00     0.000 A 
ENDBRANCH  57  76
BRANCH  69  82
ATOM     82  C   UNL A   1      45.025  29.222  28.258  1.00  0.00    -0.014 A 
ATOM     83  C   UNL A   1      43.881  29.985  27.958  1.00  0.00     0.009 A 
ATOM     84  C   UNL A   1      46.237  29.569  27.647  1.00  0.00     0.009 A 
ATOM     85  C   UNL A   1      43.957  31.067  27.074  1.00  0.00     0.001 A 
ATOM     86  C   UNL A   1      46.315  30.659  26.777  1.00  0.00     0.001 A 
ATOM     87  C   UNL A   1      45.176  31.410  26.494  1.00  0.00     0.000 A 
ENDBRANCH  69  82
ENDBRANCH  43  44
ENDBRANCH  35  38
ENDBRANCH  33  34
ENDBRANCH  32  33
ENDBRANCH  31  32
ENDBRANCH   1  31
TORSDOF 15
ENDMDL
MODEL 3
REMARK VINA RESULT:     -12.3      4.054      8.534
REMARK SMILES Cc1nn2c(nnc3c(=O)n(CCCC(=O)NCCCCNC(=O)c4ccc(-c5c6nc(c(-c7ccccc7)c7ccc([nH]7)c(-c7ccccc7)c7nc(c(-c8ccccc8)c8ccc5[nH]8)C=C7)C=C6)cc4)ccc32)c1-c1ccc(F)cc1
REMARK SMILES IDX 18 1 17 2 15 3 16 4 14 6 13 7 12 8 11 9 1 10 2 11 3 12 76 13
REMARK SMILES IDX 4 14 5 15 75 16 6 17 8 18 74 19 7 20 9 21 73 22 10 23 77 24
REMARK SMILES IDX 78 25 83 26 79 27 82 28 80 29 81 30 19 31 20 32 21 33 22 34
REMARK SMILES IDX 23 35 24 37 25 38 26 39 72 40 27 41 71 42 28 43 29 44 30 45
REMARK SMILES IDX 65 46 31 47 70 48 64 49 66 50 32 51 69 52 63 53 62 54 33 56
REMARK SMILES IDX 55 57 40 58 54 59 41 60 44 61 53 62 67 63 42 64 43 65 52 67
REMARK SMILES IDX 68 68 45 69 34 70 35 71 39 72 36 73 38 74 37 75 56 76 57 77
REMARK SMILES IDX 61 78 58 79 60 80 59 81 46 82 47 83 51 84 48 85 50 86 49 87
REMARK H PARENT 17 5 22 36 66 55 44 66
REMARK Flexibility Score: inf
ROOT
ATOM      1  C   UNL A   1      34.084  25.645  24.731  1.00  0.00     0.116 C 
ENDROOT
BRANCH   1   2
ATOM      2  N   UNL A   1      34.444  26.801  25.517  1.00  0.00    -0.356 N 
ATOM      3  C   UNL A   1      33.752  27.837  26.042  1.00  0.00     0.220 C 
ATOM      4  O   UNL A   1      34.423  28.582  26.772  1.00  0.00    -0.275 OA
ATOM      5  H   UNL A   1      35.408  26.845  25.714  1.00  0.00     0.163 HD
BRANCH   3   6
ATOM      6  C   UNL A   1      32.260  28.121  25.902  1.00  0.00     0.102 C 
BRANCH   6   7
ATOM      7  C   UNL A   1      31.128  27.319  26.550  1.00  0.00     0.032 C 
BRANCH   7   8
ATOM      8  C   UNL A   1      30.146  26.391  25.822  1.00  0.00     0.126 C 
BRANCH   8   9
ATOM      9  N   UNL A   1      30.519  25.060  25.292  1.00  0.00    -0.313 N 
ATOM     10  C   UNL A   1      32.179  18.880  21.143  1.00  0.00     0.069 C 
ATOM     11  C   UNL A   1      32.217  19.745  22.347  1.00  0.00     0.070 A 
ATOM     12  N   UNL A   1      31.810  21.023  22.272  1.00  0.00    -0.170 NA
ATOM     13  C   UNL A   1      32.598  19.387  23.660  1.00  0.00     0.051 A 
ATOM     14  N   UNL A   1      31.866  21.482  23.552  1.00  0.00    -0.210 N 
ATOM     15  C   UNL A   1      32.377  20.518  24.409  1.00  0.00     0.186 A 
ATOM     16  C   UNL A   1      31.449  22.705  24.080  1.00  0.00     0.102 A 
ATOM     17  N   UNL A   1      32.537  20.773  25.737  1.00  0.00    -0.129 NA
ATOM     18  C   UNL A   1      31.565  22.825  25.413  1.00  0.00     0.177 A 
ATOM     19  C   UNL A   1      30.910  23.792  23.298  1.00  0.00     0.049 A 
ATOM     20  N   UNL A   1      32.128  21.855  26.218  1.00  0.00    -0.141 NA
ATOM     21  C   UNL A   1      31.078  24.059  26.089  1.00  0.00     0.280 A 
ATOM     22  C   UNL A   1      30.478  24.905  23.906  1.00  0.00     0.091 A 
ATOM     23  O   UNL A   1      31.248  24.132  27.300  1.00  0.00    -0.267 OA
BRANCH  13  24
ATOM     24  C   UNL A   1      33.085  18.168  24.265  1.00  0.00    -0.012 A 
ATOM     25  C   UNL A   1      32.281  17.455  25.161  1.00  0.00     0.012 A 
ATOM     26  C   UNL A   1      34.312  17.628  23.844  1.00  0.00     0.012 A 
ATOM     27  C   UNL A   1      32.695  16.202  25.617  1.00  0.00     0.040 A 
ATOM     28  C   UNL A   1      34.721  16.377  24.303  1.00  0.00     0.040 A 
ATOM     29  C   UNL A   1      33.907  15.674  25.181  1.00  0.00     0.123 A 
ATOM     30  F   UNL A   1      34.287  14.461  25.602  1.00  0.00    -0.207 F 
ENDBRANCH  13  24
ENDBRANCH   8   9
ENDBRANCH   7   8
ENDBRANCH   6   7
ENDBRANCH   3   6
ENDBRANCH   1   2
BRANCH   1  31
ATOM     31  C   UNL A   1      34.840  24.388  25.174  1.00  0.00     0.023 C 
BRANCH  31  32
ATOM     32  C   UNL A   1      35.078  23.352  24.073  1.00  0.00     0.023 C 
BRANCH  32  33
ATOM     33  C   UNL A   1      36.530  22.900  23.958  1.00  0.00     0.116 C 
BRANCH  33  34
ATOM     34  N   UNL A   1      36.745  21.545  24.459  1.00  0.00    -0.352 N 
ATOM     35  C   UNL A   1      37.849  21.072  25.140  1.00  0.00     0.251 C 
ATOM     36  H   UNL A   1      36.022  20.898  24.292  1.00  0.00     0.163 HD
ATOM     37  O   UNL A   1      38.099  19.881  25.200  1.00  0.00    -0.269 OA
BRANCH  35  38
ATOM     38  C   UNL A   1      38.718  22.051  25.815  1.00  0.00     0.039 A 
ATOM     39  C   UNL A   1      38.285  23.360  26.037  1.00  0.00     0.014 A 
ATOM     40  C   UNL A   1      39.980  21.624  26.235  1.00  0.00     0.014 A 
ATOM     41  C   UNL A   1      39.111  24.226  26.746  1.00  0.00     0.010 A 
ATOM     42  C   UNL A   1      40.753  22.447  27.017  1.00  0.00     0.010 A 
ATOM     43  C   UNL A   1      40.337  23.756  27.240  1.00  0.00    -0.014 A 
BRANCH  43  44
ATOM     44  C   UNL A   1      41.165  24.609  28.076  1.00  0.00     0.031 A 
ATOM     45  C   UNL A   1      40.649  25.986  28.291  1.00  0.00     0.074 A 
ATOM     46  C   UNL A   1      42.216  24.138  28.776  1.00  0.00     0.049 A 
ATOM     47  N   UNL A   1      41.158  27.091  27.858  1.00  0.00    -0.248 NA
ATOM     48  C   UNL A   1      39.362  26.152  28.984  1.00  0.00     0.031 C 
ATOM     49  C   UNL A   1      42.659  22.749  28.936  1.00  0.00     0.029 A 
ATOM     50  N   UNL A   1      43.053  24.819  29.601  1.00  0.00    -0.354 N 
ATOM     51  C   UNL A   1      40.360  28.111  28.364  1.00  0.00     0.074 A 
ATOM     52  C   UNL A   1      39.192  27.475  28.920  1.00  0.00     0.031 C 
ATOM     53  C   UNL A   1      43.526  22.670  29.971  1.00  0.00     0.029 A 
ATOM     54  C   UNL A   1      43.822  24.014  30.431  1.00  0.00     0.049 A 
ATOM     55  H   UNL A   1      43.111  25.801  29.608  1.00  0.00     0.167 HD
ATOM     56  C   UNL A   1      40.820  29.387  28.487  1.00  0.00     0.031 A 
ATOM     57  C   UNL A   1      44.611  24.438  31.448  1.00  0.00     0.031 A 
ATOM     58  C   UNL A   1      42.053  29.586  27.773  1.00  0.00     0.049 A 
ATOM     59  C   UNL A   1      44.919  25.864  31.187  1.00  0.00     0.074 A 
ATOM     60  C   UNL A   1      42.435  29.501  26.450  1.00  0.00     0.029 A 
ATOM     61  N   UNL A   1      43.212  29.529  28.509  1.00  0.00    -0.354 N 
ATOM     62  N   UNL A   1      45.623  26.272  30.169  1.00  0.00    -0.248 NA
ATOM     63  C   UNL A   1      44.075  26.873  31.808  1.00  0.00     0.031 C 
ATOM     64  C   UNL A   1      43.732  28.909  26.484  1.00  0.00     0.029 A 
ATOM     65  C   UNL A   1      44.091  28.731  27.823  1.00  0.00     0.049 A 
ATOM     66  H   UNL A   1      43.381  29.978  29.369  1.00  0.00     0.167 HD
ATOM     67  C   UNL A   1      45.000  27.440  29.754  1.00  0.00     0.074 A 
ATOM     68  C   UNL A   1      44.121  27.814  30.860  1.00  0.00     0.031 C 
ATOM     69  C   UNL A   1      45.040  27.836  28.448  1.00  0.00     0.031 A 
BRANCH  56  70
ATOM     70  C   UNL A   1      40.370  30.343  29.558  1.00  0.00    -0.014 A 
ATOM     71  C   UNL A   1      41.155  30.492  30.715  1.00  0.00     0.009 A 
ATOM     72  C   UNL A   1      39.073  30.888  29.592  1.00  0.00     0.009 A 
ATOM     73  C   UNL A   1      40.647  31.116  31.862  1.00  0.00     0.001 A 
ATOM     74  C   UNL A   1      38.578  31.545  30.722  1.00  0.00     0.001 A 
ATOM     75  C   UNL A   1      39.358  31.639  31.864  1.00  0.00     0.000 A 
ENDBRANCH  56  70
BRANCH  57  76
ATOM     76  C   UNL A   1      44.835  23.804  32.768  1.00  0.00    -0.014 A 
ATOM     77  C   UNL A   1      45.912  24.209  33.575  1.00  0.00     0.009 A 
ATOM     78  C   UNL A   1      43.834  23.016  33.366  1.00  0.00     0.009 A 
ATOM     79  C   UNL A   1      45.951  23.893  34.940  1.00  0.00     0.001 A 
ATOM     80  C   UNL A   1      43.878  22.693  34.727  1.00  0.00     0.001 A 
ATOM     81  C   UNL A   1      44.926  23.150  35.519  1.00  0.00     0.000 A 
ENDBRANCH  57  76
BRANCH  69  82
ATOM     82  C   UNL A   1      45.956  27.097  27.506  1.00  0.00    -0.014 A 
ATOM     83  C   UNL A   1      47.290  27.485  27.280  1.00  0.00     0.009 A 
ATOM     84  C   UNL A   1      45.528  25.858  27.008  1.00  0.00     0.009 A 
ATOM     85  C   UNL A   1      48.167  26.650  26.580  1.00  0.00     0.001 A 
ATOM     86  C   UNL A   1      46.409  25.018  26.324  1.00  0.00     0.001 A 
ATOM     87  C   UNL A   1      47.730  25.412  26.113  1.00  0.00     0.000 A 
ENDBRANCH  69  82
ENDBRANCH  43  44
ENDBRANCH  35  38
ENDBRANCH  33  34
ENDBRANCH  32  33
ENDBRANCH  31  32
ENDBRANCH   1  31
TORSDOF 15
ENDMDL
