MODEL 1
REMARK VINA RESULT:     -10.4      0.000      0.000
REMARK SMILES O=C(C[C@H]1C[N@@H+](Cc2ccncc2)CCO1)NCCCCNC(=O)c1ccc(-c2c3nc(c(-c4ccccc4)c4ccc([nH]4)c(-c4ccccc4)c4nc(c(-c5ccccc5)c5ccc2[nH]5)C=C4)C=C3)cc1
REMARK SMILES IDX 19 1 18 2 17 3 1 4 2 5 3 7 4 8 5 9 16 10 6 11 15 12 14 13
REMARK SMILES IDX 7 15 8 16 9 17 13 18 10 19 12 20 11 21 20 22 21 23 22 24
REMARK SMILES IDX 23 25 24 27 25 28 26 29 72 30 27 31 71 32 28 33 29 34 30 35
REMARK SMILES IDX 65 36 31 37 70 38 64 39 66 40 32 41 69 42 63 43 62 44 33 46
REMARK SMILES IDX 55 47 40 48 54 49 41 50 44 51 53 52 67 53 42 54 43 55 52 57
REMARK SMILES IDX 68 58 45 59 34 60 35 61 39 62 36 63 38 64 37 65 56 66 57 67
REMARK SMILES IDX 61 68 58 69 60 70 59 71 46 72 47 73 51 74 48 75 50 76 49 77
REMARK H PARENT 17 6 6 14 22 26 66 45 44 56
REMARK Flexibility Score: inf
ROOT
ATOM      1  C   UNL A   1      36.988  21.479  24.254  1.00  0.00     0.023 C 
ENDROOT
BRANCH   1   2
ATOM      2  C   UNL A   1      36.809  22.919  23.715  1.00  0.00     0.116 C 
BRANCH   2   3
ATOM      3  N   UNL A   1      35.858  23.807  24.393  1.00  0.00    -0.356 N 
ATOM      4  O   UNL A   1      34.358  23.713  22.670  1.00  0.00    -0.275 OA
ATOM      5  C   UNL A   1      34.612  24.049  23.834  1.00  0.00     0.222 C 
ATOM      6  H   UNL A   1      36.105  24.232  25.246  1.00  0.00     0.163 HD
BRANCH   5   7
ATOM      7  C   UNL A   1      33.503  24.673  24.697  1.00  0.00     0.138 C 
BRANCH   7   8
ATOM      8  C   UNL A   1      33.136  23.902  26.008  1.00  0.00     0.182 C 
ATOM      9  C   UNL A   1      32.040  22.831  25.853  1.00  0.00     0.295 C 
ATOM     10  O   UNL A   1      34.324  23.360  26.636  1.00  0.00    -0.366 OA
ATOM     11  N   UNL A   1      32.518  21.446  25.927  1.00  0.00    -0.327 N 
ATOM     12  C   UNL A   1      34.094  22.338  27.637  1.00  0.00     0.222 C 
ATOM     13  C   UNL A   1      33.101  21.230  27.237  1.00  0.00     0.291 C 
ATOM     14  H   UNL A   1      31.702  20.845  25.805  1.00  0.00     0.348 HD
BRANCH  11  15
ATOM     15  C   UNL A   1      33.360  20.984  24.827  1.00  0.00     0.299 C 
BRANCH  15  16
ATOM     16  C   UNL A   1      33.354  19.561  24.274  1.00  0.00     0.009 A 
ATOM     17  C   UNL A   1      32.428  19.208  23.291  1.00  0.00     0.029 A 
ATOM     18  C   UNL A   1      34.312  18.590  24.582  1.00  0.00     0.029 A 
ATOM     19  C   UNL A   1      32.515  17.960  22.684  1.00  0.00     0.111 A 
ATOM     20  C   UNL A   1      34.321  17.360  23.940  1.00  0.00     0.111 A 
ATOM     21  N   UNL A   1      33.444  17.029  22.981  1.00  0.00    -0.265 NA
ENDBRANCH  15  16
ENDBRANCH  11  15
ENDBRANCH   7   8
ENDBRANCH   5   7
ENDBRANCH   2   3
ENDBRANCH   1   2
BRANCH   1  22
ATOM     22  C   UNL A   1      38.251  21.037  25.029  1.00  0.00     0.023 C 
BRANCH  22  23
ATOM     23  C   UNL A   1      38.342  19.625  25.647  1.00  0.00     0.116 C 
BRANCH  23  24
ATOM     24  N   UNL A   1      39.665  19.025  25.601  1.00  0.00    -0.352 N 
ATOM     25  C   UNL A   1      40.905  19.466  25.990  1.00  0.00     0.251 C 
ATOM     26  H   UNL A   1      39.674  18.120  25.214  1.00  0.00     0.163 HD
ATOM     27  O   UNL A   1      41.864  18.691  25.782  1.00  0.00    -0.269 OA
BRANCH  25  28
ATOM     28  C   UNL A   1      41.221  20.789  26.608  1.00  0.00     0.039 A 
ATOM     29  C   UNL A   1      41.775  21.773  25.769  1.00  0.00     0.014 A 
ATOM     30  C   UNL A   1      41.134  21.075  27.974  1.00  0.00     0.014 A 
ATOM     31  C   UNL A   1      42.193  23.019  26.265  1.00  0.00     0.010 A 
ATOM     32  C   UNL A   1      41.523  22.344  28.470  1.00  0.00     0.010 A 
ATOM     33  C   UNL A   1      42.051  23.336  27.624  1.00  0.00    -0.014 A 
BRANCH  33  34
ATOM     34  C   UNL A   1      42.415  24.704  28.125  1.00  0.00     0.031 A 
ATOM     35  C   UNL A   1      43.829  25.064  28.514  1.00  0.00     0.074 A 
ATOM     36  C   UNL A   1      41.461  25.652  28.248  1.00  0.00     0.049 A 
ATOM     37  N   UNL A   1      44.296  26.197  28.991  1.00  0.00    -0.248 NA
ATOM     38  C   UNL A   1      44.849  24.020  28.353  1.00  0.00     0.031 C 
ATOM     39  C   UNL A   1      40.048  25.476  27.910  1.00  0.00     0.029 A 
ATOM     40  N   UNL A   1      41.534  26.954  28.692  1.00  0.00    -0.354 N 
ATOM     41  C   UNL A   1      45.658  25.998  29.195  1.00  0.00     0.074 A 
ATOM     42  C   UNL A   1      45.934  24.626  28.819  1.00  0.00     0.031 C 
ATOM     43  C   UNL A   1      39.392  26.623  28.148  1.00  0.00     0.029 A 
ATOM     44  C   UNL A   1      40.324  27.608  28.691  1.00  0.00     0.049 A 
ATOM     45  H   UNL A   1      42.374  27.378  28.981  1.00  0.00     0.167 HD
ATOM     46  C   UNL A   1      46.598  26.872  29.642  1.00  0.00     0.031 A 
ATOM     47  C   UNL A   1      39.984  28.849  29.093  1.00  0.00     0.031 A 
ATOM     48  C   UNL A   1      46.345  28.240  30.025  1.00  0.00     0.049 A 
ATOM     49  C   UNL A   1      41.032  29.783  29.635  1.00  0.00     0.074 A 
ATOM     50  C   UNL A   1      47.252  29.197  30.455  1.00  0.00     0.029 A 
ATOM     51  N   UNL A   1      45.100  28.847  30.031  1.00  0.00    -0.354 N 
ATOM     52  N   UNL A   1      42.318  29.584  29.780  1.00  0.00    -0.248 NA
ATOM     53  C   UNL A   1      40.577  31.116  30.061  1.00  0.00     0.031 C 
ATOM     54  C   UNL A   1      46.549  30.364  30.774  1.00  0.00     0.029 A 
ATOM     55  C   UNL A   1      45.212  30.154  30.485  1.00  0.00     0.049 A 
ATOM     56  H   UNL A   1      44.260  28.415  29.754  1.00  0.00     0.167 HD
ATOM     57  C   UNL A   1      42.830  30.774  30.287  1.00  0.00     0.074 A 
ATOM     58  C   UNL A   1      41.719  31.693  30.411  1.00  0.00     0.031 C 
ATOM     59  C   UNL A   1      44.109  31.072  30.616  1.00  0.00     0.031 A 
BRANCH  46  60
ATOM     60  C   UNL A   1      48.011  26.366  29.769  1.00  0.00    -0.014 A 
ATOM     61  C   UNL A   1      48.931  26.502  28.717  1.00  0.00     0.009 A 
ATOM     62  C   UNL A   1      48.447  25.801  30.980  1.00  0.00     0.009 A 
ATOM     63  C   UNL A   1      50.244  26.044  28.860  1.00  0.00     0.001 A 
ATOM     64  C   UNL A   1      49.767  25.371  31.129  1.00  0.00     0.001 A 
ATOM     65  C   UNL A   1      50.661  25.483  30.066  1.00  0.00     0.000 A 
ENDBRANCH  46  60
BRANCH  47  66
ATOM     66  C   UNL A   1      38.566  29.291  29.009  1.00  0.00    -0.014 A 
ATOM     67  C   UNL A   1      37.720  29.199  30.125  1.00  0.00     0.009 A 
ATOM     68  C   UNL A   1      38.047  29.794  27.805  1.00  0.00     0.009 A 
ATOM     69  C   UNL A   1      36.379  29.582  30.031  1.00  0.00     0.001 A 
ATOM     70  C   UNL A   1      36.716  30.204  27.722  1.00  0.00     0.001 A 
ATOM     71  C   UNL A   1      35.880  30.089  28.831  1.00  0.00     0.000 A 
ENDBRANCH  47  66
BRANCH  59  72
ATOM     72  C   UNL A   1      44.392  32.464  31.113  1.00  0.00    -0.014 A 
ATOM     73  C   UNL A   1      44.313  32.785  32.478  1.00  0.00     0.009 A 
ATOM     74  C   UNL A   1      44.774  33.465  30.204  1.00  0.00     0.009 A 
ATOM     75  C   UNL A   1      44.578  34.085  32.916  1.00  0.00     0.001 A 
ATOM     76  C   UNL A   1      45.065  34.756  30.648  1.00  0.00     0.001 A 
ATOM     77  C   UNL A   1      44.960  35.068  32.002  1.00  0.00     0.000 A 
ENDBRANCH  59  72
ENDBRANCH  33  34
ENDBRANCH  25  28
ENDBRANCH  23  24
ENDBRANCH  22  23
ENDBRANCH   1  22
TORSDOF 14
ENDMDL
MODEL 2
REMARK VINA RESULT:     -10.4      4.691      9.579
REMARK SMILES O=C(C[C@H]1C[N@@H+](Cc2ccncc2)CCO1)NCCCCNC(=O)c1ccc(-c2c3nc(c(-c4ccccc4)c4ccc([nH]4)c(-c4ccccc4)c4nc(c(-c5ccccc5)c5ccc2[nH]5)C=C4)C=C3)cc1
REMARK SMILES IDX 19 1 18 2 17 3 1 4 2 5 3 7 4 8 5 9 16 10 6 11 15 12 14 13
REMARK SMILES IDX 7 15 8 16 9 17 13 18 10 19 12 20 11 21 20 22 21 23 22 24
REMARK SMILES IDX 23 25 24 27 25 28 26 29 72 30 27 31 71 32 28 33 29 34 30 35
REMARK SMILES IDX 65 36 31 37 70 38 64 39 66 40 32 41 69 42 63 43 62 44 33 46
REMARK SMILES IDX 55 47 40 48 54 49 41 50 44 51 53 52 67 53 42 54 43 55 52 57
REMARK SMILES IDX 68 58 45 59 34 60 35 61 39 62 36 63 38 64 37 65 56 66 57 67
REMARK SMILES IDX 61 68 58 69 60 70 59 71 46 72 47 73 51 74 48 75 50 76 49 77
REMARK H PARENT 17 6 6 14 22 26 66 45 44 56
REMARK Flexibility Score: inf
ROOT
ATOM      1  C   UNL A   1      34.430  32.155  28.215  1.00  0.00     0.023 C 
ENDROOT
BRANCH   1   2
ATOM      2  C   UNL A   1      34.385  30.882  27.335  1.00  0.00     0.116 C 
BRANCH   2   3
ATOM      3  N   UNL A   1      33.567  29.751  27.784  1.00  0.00    -0.356 N 
ATOM      4  O   UNL A   1      31.714  30.492  26.668  1.00  0.00    -0.275 OA
ATOM      5  C   UNL A   1      32.277  29.589  27.301  1.00  0.00     0.222 C 
ATOM      6  H   UNL A   1      33.935  29.104  28.430  1.00  0.00     0.163 HD
BRANCH   5   7
ATOM      7  C   UNL A   1      31.563  28.240  27.483  1.00  0.00     0.138 C 
BRANCH   7   8
ATOM      8  C   UNL A   1      31.982  27.101  26.495  1.00  0.00     0.182 C 
ATOM      9  C   UNL A   1      30.900  26.683  25.482  1.00  0.00     0.295 C 
ATOM     10  O   UNL A   1      33.231  27.424  25.836  1.00  0.00    -0.366 OA
ATOM     11  N   UNL A   1      31.153  27.105  24.100  1.00  0.00    -0.327 N 
ATOM     12  C   UNL A   1      33.538  26.643  24.655  1.00  0.00     0.222 C 
ATOM     13  C   UNL A   1      32.382  26.482  23.648  1.00  0.00     0.291 C 
ATOM     14  H   UNL A   1      30.367  26.773  23.541  1.00  0.00     0.348 HD
BRANCH  11  15
ATOM     15  C   UNL A   1      31.088  28.539  23.832  1.00  0.00     0.299 C 
BRANCH  15  16
ATOM     16  C   UNL A   1      29.805  29.298  23.504  1.00  0.00     0.009 A 
ATOM     17  C   UNL A   1      28.679  28.593  23.074  1.00  0.00     0.029 A 
ATOM     18  C   UNL A   1      29.614  30.664  23.733  1.00  0.00     0.029 A 
ATOM     19  C   UNL A   1      27.470  29.262  22.915  1.00  0.00     0.111 A 
ATOM     20  C   UNL A   1      28.377  31.260  23.535  1.00  0.00     0.111 A 
ATOM     21  N   UNL A   1      27.291  30.579  23.142  1.00  0.00    -0.265 NA
ENDBRANCH  15  16
ENDBRANCH  11  15
ENDBRANCH   7   8
ENDBRANCH   5   7
ENDBRANCH   2   3
ENDBRANCH   1   2
BRANCH   1  22
ATOM     22  C   UNL A   1      33.393  33.295  28.076  1.00  0.00     0.023 C 
BRANCH  22  23
ATOM     23  C   UNL A   1      33.699  34.708  28.616  1.00  0.00     0.116 C 
BRANCH  23  24
ATOM     24  N   UNL A   1      33.218  34.961  29.965  1.00  0.00    -0.352 N 
ATOM     25  C   UNL A   1      33.669  34.582  31.204  1.00  0.00     0.251 C 
ATOM     26  H   UNL A   1      32.405  35.515  29.996  1.00  0.00     0.163 HD
ATOM     27  O   UNL A   1      32.991  34.958  32.185  1.00  0.00    -0.269 OA
BRANCH  25  28
ATOM     28  C   UNL A   1      34.871  33.741  31.489  1.00  0.00     0.039 A 
ATOM     29  C   UNL A   1      36.093  34.157  30.930  1.00  0.00     0.014 A 
ATOM     30  C   UNL A   1      34.847  32.509  32.151  1.00  0.00     0.014 A 
ATOM     31  C   UNL A   1      37.265  33.393  31.060  1.00  0.00     0.010 A 
ATOM     32  C   UNL A   1      36.035  31.754  32.311  1.00  0.00     0.010 A 
ATOM     33  C   UNL A   1      37.262  32.187  31.775  1.00  0.00    -0.014 A 
BRANCH  33  34
ATOM     34  C   UNL A   1      38.539  31.426  31.986  1.00  0.00     0.031 A 
ATOM     35  C   UNL A   1      39.484  31.747  33.119  1.00  0.00     0.074 A 
ATOM     36  C   UNL A   1      38.873  30.426  31.142  1.00  0.00     0.049 A 
ATOM     37  N   UNL A   1      40.641  31.196  33.417  1.00  0.00    -0.248 NA
ATOM     38  C   UNL A   1      39.086  32.826  34.032  1.00  0.00     0.031 C 
ATOM     39  C   UNL A   1      38.072  29.981  30.001  1.00  0.00     0.029 A 
ATOM     40  N   UNL A   1      39.978  29.604  31.111  1.00  0.00    -0.354 N 
ATOM     41  C   UNL A   1      41.110  31.866  34.541  1.00  0.00     0.074 A 
ATOM     42  C   UNL A   1      40.127  32.885  34.853  1.00  0.00     0.031 C 
ATOM     43  C   UNL A   1      38.702  28.965  29.391  1.00  0.00     0.029 A 
ATOM     44  C   UNL A   1      39.971  28.707  30.068  1.00  0.00     0.049 A 
ATOM     45  H   UNL A   1      40.704  29.651  31.773  1.00  0.00     0.167 HD
ATOM     46  C   UNL A   1      42.245  31.654  35.258  1.00  0.00     0.031 A 
ATOM     47  C   UNL A   1      40.878  27.789  29.677  1.00  0.00     0.031 A 
ATOM     48  C   UNL A   1      43.238  30.650  34.965  1.00  0.00     0.049 A 
ATOM     49  C   UNL A   1      42.153  27.608  30.456  1.00  0.00     0.074 A 
ATOM     50  C   UNL A   1      44.397  30.351  35.666  1.00  0.00     0.029 A 
ATOM     51  N   UNL A   1      43.198  29.784  33.883  1.00  0.00    -0.354 N 
ATOM     52  N   UNL A   1      42.554  28.226  31.539  1.00  0.00    -0.248 NA
ATOM     53  C   UNL A   1      43.096  26.592  29.959  1.00  0.00     0.031 C 
ATOM     54  C   UNL A   1      45.084  29.345  34.979  1.00  0.00     0.029 A 
ATOM     55  C   UNL A   1      44.325  28.974  33.883  1.00  0.00     0.049 A 
ATOM     56  H   UNL A   1      42.477  29.749  33.215  1.00  0.00     0.167 HD
ATOM     57  C   UNL A   1      43.780  27.657  31.867  1.00  0.00     0.074 A 
ATOM     58  C   UNL A   1      44.050  26.635  30.879  1.00  0.00     0.031 C 
ATOM     59  C   UNL A   1      44.603  27.959  32.900  1.00  0.00     0.031 A 
BRANCH  46  60
ATOM     60  C   UNL A   1      42.497  32.553  36.442  1.00  0.00    -0.014 A 
ATOM     61  C   UNL A   1      42.059  32.203  37.729  1.00  0.00     0.009 A 
ATOM     62  C   UNL A   1      43.234  33.737  36.276  1.00  0.00     0.009 A 
ATOM     63  C   UNL A   1      42.319  33.040  38.818  1.00  0.00     0.001 A 
ATOM     64  C   UNL A   1      43.517  34.558  37.371  1.00  0.00     0.001 A 
ATOM     65  C   UNL A   1      43.050  34.214  38.638  1.00  0.00     0.000 A 
ENDBRANCH  46  60
BRANCH  47  66
ATOM     66  C   UNL A   1      40.622  26.962  28.468  1.00  0.00    -0.014 A 
ATOM     67  C   UNL A   1      39.827  25.809  28.544  1.00  0.00     0.009 A 
ATOM     68  C   UNL A   1      41.186  27.316  27.232  1.00  0.00     0.009 A 
ATOM     69  C   UNL A   1      39.619  25.016  27.412  1.00  0.00     0.001 A 
ATOM     70  C   UNL A   1      40.952  26.538  26.096  1.00  0.00     0.001 A 
ATOM     71  C   UNL A   1      40.177  25.385  26.189  1.00  0.00     0.000 A 
ENDBRANCH  47  66
BRANCH  59  72
ATOM     72  C   UNL A   1      45.865  27.151  33.041  1.00  0.00    -0.014 A 
ATOM     73  C   UNL A   1      45.878  25.926  33.728  1.00  0.00     0.009 A 
ATOM     74  C   UNL A   1      47.055  27.609  32.451  1.00  0.00     0.009 A 
ATOM     75  C   UNL A   1      47.062  25.195  33.848  1.00  0.00     0.001 A 
ATOM     76  C   UNL A   1      48.230  26.861  32.549  1.00  0.00     0.001 A 
ATOM     77  C   UNL A   1      48.235  25.659  33.254  1.00  0.00     0.000 A 
ENDBRANCH  59  72
ENDBRANCH  33  34
ENDBRANCH  25  28
ENDBRANCH  23  24
ENDBRANCH  22  23
ENDBRANCH   1  22
TORSDOF 14
ENDMDL
MODEL 3
REMARK VINA RESULT:     -10.3      1.841      2.586
REMARK SMILES O=C(C[C@H]1C[N@@H+](Cc2ccncc2)CCO1)NCCCCNC(=O)c1ccc(-c2c3nc(c(-c4ccccc4)c4ccc([nH]4)c(-c4ccccc4)c4nc(c(-c5ccccc5)c5ccc2[nH]5)C=C4)C=C3)cc1
REMARK SMILES IDX 19 1 18 2 17 3 1 4 2 5 3 7 4 8 5 9 16 10 6 11 15 12 14 13
REMARK SMILES IDX 7 15 8 16 9 17 13 18 10 19 12 20 11 21 20 22 21 23 22 24
REMARK SMILES IDX 23 25 24 27 25 28 26 29 72 30 27 31 71 32 28 33 29 34 30 35
REMARK SMILES IDX 65 36 31 37 70 38 64 39 66 40 32 41 69 42 63 43 62 44 33 46
REMARK SMILES IDX 55 47 40 48 54 49 41 50 44 51 53 52 67 53 42 54 43 55 52 57
REMARK SMILES IDX 68 58 45 59 34 60 35 61 39 62 36 63 38 64 37 65 56 66 57 67
REMARK SMILES IDX 61 68 58 69 60 70 59 71 46 72 47 73 51 74 48 75 50 76 49 77
REMARK H PARENT 17 6 6 14 22 26 66 45 44 56
REMARK Flexibility Score: inf
ROOT
ATOM      1  C   UNL A   1      40.381  21.669  26.118  1.00  0.00     0.023 C 
ENDROOT
BRANCH   1   2
ATOM      2  C   UNL A   1      38.979  22.259  26.407  1.00  0.00     0.116 C 
BRANCH   2   3
ATOM      3  N   UNL A   1      38.184  22.755  25.279  1.00  0.00    -0.356 N 
ATOM      4  O   UNL A   1      37.250  20.706  24.881  1.00  0.00    -0.275 OA
ATOM      5  C   UNL A   1      37.264  21.923  24.656  1.00  0.00     0.222 C 
ATOM      6  H   UNL A   1      38.302  23.680  24.963  1.00  0.00     0.163 HD
BRANCH   5   7
ATOM      7  C   UNL A   1      36.196  22.531  23.733  1.00  0.00     0.138 C 
BRANCH   7   8
ATOM      8  C   UNL A   1      34.968  23.190  24.444  1.00  0.00     0.182 C 
ATOM      9  C   UNL A   1      33.592  22.659  24.000  1.00  0.00     0.295 C 
ATOM     10  O   UNL A   1      35.118  23.140  25.884  1.00  0.00    -0.366 OA
ATOM     11  N   UNL A   1      32.907  21.820  24.989  1.00  0.00    -0.327 N 
ATOM     12  C   UNL A   1      33.911  23.381  26.650  1.00  0.00     0.222 C 
ATOM     13  C   UNL A   1      32.661  22.616  26.176  1.00  0.00     0.291 C 
ATOM     14  H   UNL A   1      32.022  21.533  24.570  1.00  0.00     0.348 HD
BRANCH  11  15
ATOM     15  C   UNL A   1      33.507  20.518  25.269  1.00  0.00     0.299 C 
BRANCH  15  16
ATOM     16  C   UNL A   1      33.469  19.327  24.314  1.00  0.00     0.009 A 
ATOM     17  C   UNL A   1      34.398  18.296  24.461  1.00  0.00     0.029 A 
ATOM     18  C   UNL A   1      32.469  19.111  23.360  1.00  0.00     0.029 A 
ATOM     19  C   UNL A   1      34.274  17.146  23.689  1.00  0.00     0.111 A 
ATOM     20  C   UNL A   1      32.425  17.940  22.617  1.00  0.00     0.111 A 
ATOM     21  N   UNL A   1      33.305  16.941  22.774  1.00  0.00    -0.265 NA
ENDBRANCH  15  16
ENDBRANCH  11  15
ENDBRANCH   7   8
ENDBRANCH   5   7
ENDBRANCH   2   3
ENDBRANCH   1   2
BRANCH   1  22
ATOM     22  C   UNL A   1      40.668  20.150  26.172  1.00  0.00     0.023 C 
BRANCH  22  23
ATOM     23  C   UNL A   1      42.067  19.626  26.561  1.00  0.00     0.116 C 
BRANCH  23  24
ATOM     24  N   UNL A   1      43.049  19.660  25.489  1.00  0.00    -0.352 N 
ATOM     25  C   UNL A   1      43.840  20.658  24.980  1.00  0.00     0.251 C 
ATOM     26  H   UNL A   1      43.170  18.794  25.038  1.00  0.00     0.163 HD
ATOM     27  O   UNL A   1      44.575  20.351  24.015  1.00  0.00    -0.269 OA
BRANCH  25  28
ATOM     28  C   UNL A   1      43.886  22.077  25.446  1.00  0.00     0.039 A 
ATOM     29  C   UNL A   1      44.148  22.296  26.810  1.00  0.00     0.014 A 
ATOM     30  C   UNL A   1      43.557  23.188  24.662  1.00  0.00     0.014 A 
ATOM     31  C   UNL A   1      44.124  23.584  27.371  1.00  0.00     0.010 A 
ATOM     32  C   UNL A   1      43.565  24.490  25.219  1.00  0.00     0.010 A 
ATOM     33  C   UNL A   1      43.855  24.710  26.578  1.00  0.00    -0.014 A 
BRANCH  33  34
ATOM     34  C   UNL A   1      43.923  26.088  27.168  1.00  0.00     0.031 A 
ATOM     35  C   UNL A   1      45.236  26.802  27.387  1.00  0.00     0.074 A 
ATOM     36  C   UNL A   1      42.787  26.722  27.530  1.00  0.00     0.049 A 
ATOM     37  N   UNL A   1      45.460  27.986  27.912  1.00  0.00    -0.248 NA
ATOM     38  C   UNL A   1      46.454  26.096  26.967  1.00  0.00     0.031 C 
ATOM     39  C   UNL A   1      41.435  26.182  27.382  1.00  0.00     0.029 A 
ATOM     40  N   UNL A   1      42.587  27.961  28.098  1.00  0.00    -0.354 N 
ATOM     41  C   UNL A   1      46.840  28.162  27.894  1.00  0.00     0.074 A 
ATOM     42  C   UNL A   1      47.402  26.949  27.335  1.00  0.00     0.031 C 
ATOM     43  C   UNL A   1      40.549  27.082  27.835  1.00  0.00     0.029 A 
ATOM     44  C   UNL A   1      41.265  28.251  28.343  1.00  0.00     0.049 A 
ATOM     45  H   UNL A   1      43.320  28.582  28.308  1.00  0.00     0.167 HD
ATOM     46  C   UNL A   1      47.576  29.232  28.295  1.00  0.00     0.031 A 
ATOM     47  C   UNL A   1      40.680  29.318  28.923  1.00  0.00     0.031 A 
ATOM     48  C   UNL A   1      47.039  30.447  28.857  1.00  0.00     0.049 A 
ATOM     49  C   UNL A   1      41.520  30.469  29.408  1.00  0.00     0.074 A 
ATOM     50  C   UNL A   1      47.719  31.589  29.254  1.00  0.00     0.029 A 
ATOM     51  N   UNL A   1      45.696  30.681  29.109  1.00  0.00    -0.354 N 
ATOM     52  N   UNL A   1      42.818  30.629  29.343  1.00  0.00    -0.248 NA
ATOM     53  C   UNL A   1      40.807  31.592  30.038  1.00  0.00     0.031 C 
ATOM     54  C   UNL A   1      46.796  32.490  29.796  1.00  0.00     0.029 A 
ATOM     55  C   UNL A   1      45.533  31.935  29.682  1.00  0.00     0.049 A 
ATOM     56  H   UNL A   1      44.967  30.051  28.910  1.00  0.00     0.167 HD
ATOM     57  C   UNL A   1      43.075  31.878  29.898  1.00  0.00     0.074 A 
ATOM     58  C   UNL A   1      41.797  32.440  30.281  1.00  0.00     0.031 C 
ATOM     59  C   UNL A   1      44.266  32.498  30.070  1.00  0.00     0.031 A 
BRANCH  46  60
ATOM     60  C   UNL A   1      49.074  29.133  28.161  1.00  0.00    -0.014 A 
ATOM     61  C   UNL A   1      49.738  29.621  27.024  1.00  0.00     0.009 A 
ATOM     62  C   UNL A   1      49.837  28.600  29.213  1.00  0.00     0.009 A 
ATOM     63  C   UNL A   1      51.129  29.539  26.925  1.00  0.00     0.001 A 
ATOM     64  C   UNL A   1      51.230  28.545  29.124  1.00  0.00     0.001 A 
ATOM     65  C   UNL A   1      51.874  29.004  27.977  1.00  0.00     0.000 A 
ENDBRANCH  46  60
BRANCH  47  66
ATOM     66  C   UNL A   1      39.203  29.352  29.094  1.00  0.00    -0.014 A 
ATOM     67  C   UNL A   1      38.370  29.764  28.042  1.00  0.00     0.009 A 
ATOM     68  C   UNL A   1      38.620  28.988  30.317  1.00  0.00     0.009 A 
ATOM     69  C   UNL A   1      36.985  29.828  28.219  1.00  0.00     0.001 A 
ATOM     70  C   UNL A   1      37.234  29.024  30.482  1.00  0.00     0.001 A 
ATOM     71  C   UNL A   1      36.419  29.454  29.437  1.00  0.00     0.000 A 
ENDBRANCH  47  66
BRANCH  59  72
ATOM     72  C   UNL A   1      44.250  33.878  30.671  1.00  0.00    -0.014 A 
ATOM     73  C   UNL A   1      44.377  34.077  32.055  1.00  0.00     0.009 A 
ATOM     74  C   UNL A   1      44.135  35.001  29.834  1.00  0.00     0.009 A 
ATOM     75  C   UNL A   1      44.357  35.368  32.590  1.00  0.00     0.001 A 
ATOM     76  C   UNL A   1      44.144  36.291  30.369  1.00  0.00     0.001 A 
ATOM     77  C   UNL A   1      44.246  36.473  31.747  1.00  0.00     0.000 A 
ENDBRANCH  59  72
ENDBRANCH  33  34
ENDBRANCH  25  28
ENDBRANCH  23  24
ENDBRANCH  22  23
ENDBRANCH   1  22
TORSDOF 14
ENDMDL
