MODEL 1
REMARK VINA RESULT:      -9.0      0.000      0.000
REMARK SMILES C[C@H](Sc1ccnc(C(=O)NCCCCNC(=O)c2ccc(-c3c4nc(c(-c5ccccc5)c5ccc([nH]5)c(-c5ccccc5)c5nc(c(-c6ccccc6)c6ccc3[nH]6)C=C5)C=C4)cc2)c1)[C@@H](C)O
REMARK SMILES IDX 12 1 11 2 9 3 10 4 8 6 4 7 5 8 67 9 6 10 7 11 3 12 2 13 1 14
REMARK SMILES IDX 68 15 69 16 70 17 13 19 14 20 15 21 16 22 17 23 18 25 19 26
REMARK SMILES IDX 20 27 66 28 21 29 65 30 22 31 23 32 24 33 59 34 25 35 64 36
REMARK SMILES IDX 58 37 60 38 26 39 63 40 57 41 56 42 27 44 49 45 34 46 48 47
REMARK SMILES IDX 35 48 38 49 47 50 61 51 36 52 37 53 46 55 62 56 39 57 28 58
REMARK SMILES IDX 29 59 33 60 30 61 32 62 31 63 50 64 51 65 55 66 52 67 54 68
REMARK SMILES IDX 53 69 40 70 41 71 45 72 42 73 44 74 43 75
REMARK H PARENT 11 5 70 18 16 24 60 43 38 54
REMARK Flexibility Score: inf
ROOT
ATOM      1  C   UNL A   1      34.388  36.284  33.040  1.00  0.00     0.116 C 
ENDROOT
BRANCH   1   2
ATOM      2  N   UNL A   1      33.714  35.005  32.995  1.00  0.00    -0.351 N 
ATOM      3  C   UNL A   1      34.061  33.738  33.405  1.00  0.00     0.269 C 
ATOM      4  O   UNL A   1      33.256  32.848  33.117  1.00  0.00    -0.268 OA
ATOM      5  H   UNL A   1      32.820  35.050  32.584  1.00  0.00     0.163 HD
BRANCH   3   6
ATOM      6  C   UNL A   1      35.287  33.406  34.224  1.00  0.00     0.129 A 
ATOM      7  C   UNL A   1      37.493  32.501  34.584  1.00  0.00     0.011 A 
ATOM      8  C   UNL A   1      37.581  33.282  35.730  1.00  0.00     0.035 A 
ATOM      9  C   UNL A   1      36.304  32.540  33.840  1.00  0.00     0.049 A 
ATOM     10  C   UNL A   1      36.482  34.025  36.113  1.00  0.00     0.113 A 
ATOM     11  N   UNL A   1      35.356  34.112  35.383  1.00  0.00    -0.251 NA
BRANCH   7  12
ATOM     12  S   UNL A   1      38.922  31.743  33.813  1.00  0.00    -0.120 SA
BRANCH  12  13
ATOM     13  C   UNL A   1      38.551  29.962  33.434  1.00  0.00     0.077 C 
ATOM     14  C   UNL A   1      37.396  29.690  32.475  1.00  0.00     0.022 C 
BRANCH  13  15
ATOM     15  C   UNL A   1      39.814  29.146  33.053  1.00  0.00     0.124 C 
ATOM     16  C   UNL A   1      39.531  27.876  32.253  1.00  0.00     0.039 C 
BRANCH  15  17
ATOM     17  O   UNL A   1      40.686  29.956  32.249  1.00  0.00    -0.392 OA
ATOM     18  H   UNL A   1      41.496  29.460  32.052  1.00  0.00     0.210 HD
ENDBRANCH  15  17
ENDBRANCH  13  15
ENDBRANCH  12  13
ENDBRANCH   7  12
ENDBRANCH   3   6
ENDBRANCH   1   2
BRANCH   1  19
ATOM     19  C   UNL A   1      33.769  37.233  32.012  1.00  0.00     0.023 C 
BRANCH  19  20
ATOM     20  C   UNL A   1      32.826  36.539  31.020  1.00  0.00     0.023 C 
BRANCH  20  21
ATOM     21  C   UNL A   1      33.348  36.452  29.588  1.00  0.00     0.116 C 
BRANCH  21  22
ATOM     22  N   UNL A   1      32.665  35.447  28.789  1.00  0.00    -0.352 N 
ATOM     23  C   UNL A   1      33.139  34.238  28.345  1.00  0.00     0.251 C 
ATOM     24  H   UNL A   1      31.739  35.662  28.532  1.00  0.00     0.163 HD
ATOM     25  O   UNL A   1      32.467  33.543  27.590  1.00  0.00    -0.269 OA
BRANCH  23  26
ATOM     26  C   UNL A   1      34.489  33.800  28.750  1.00  0.00     0.039 A 
ATOM     27  C   UNL A   1      34.633  33.086  29.942  1.00  0.00     0.014 A 
ATOM     28  C   UNL A   1      35.598  34.065  27.942  1.00  0.00     0.014 A 
ATOM     29  C   UNL A   1      35.884  32.575  30.291  1.00  0.00     0.010 A 
ATOM     30  C   UNL A   1      36.830  33.503  28.260  1.00  0.00     0.010 A 
ATOM     31  C   UNL A   1      36.983  32.749  29.435  1.00  0.00    -0.014 A 
BRANCH  31  32
ATOM     32  C   UNL A   1      38.298  32.139  29.743  1.00  0.00     0.031 A 
ATOM     33  C   UNL A   1      39.334  32.919  30.502  1.00  0.00     0.074 A 
ATOM     34  C   UNL A   1      38.583  30.905  29.281  1.00  0.00     0.049 A 
ATOM     35  N   UNL A   1      40.559  32.579  30.811  1.00  0.00    -0.248 NA
ATOM     36  C   UNL A   1      38.951  34.267  30.951  1.00  0.00     0.031 C 
ATOM     37  C   UNL A   1      37.678  30.062  28.496  1.00  0.00     0.029 A 
ATOM     38  N   UNL A   1      39.721  30.149  29.401  1.00  0.00    -0.354 N 
ATOM     39  C   UNL A   1      41.097  33.674  31.474  1.00  0.00     0.074 A 
ATOM     40  C   UNL A   1      40.083  34.706  31.482  1.00  0.00     0.031 C 
ATOM     41  C   UNL A   1      38.288  28.897  28.225  1.00  0.00     0.029 A 
ATOM     42  C   UNL A   1      39.636  28.924  28.784  1.00  0.00     0.049 A 
ATOM     43  H   UNL A   1      40.524  30.455  29.882  1.00  0.00     0.167 HD
ATOM     44  C   UNL A   1      42.319  33.803  32.041  1.00  0.00     0.031 A 
ATOM     45  C   UNL A   1      40.543  27.936  28.677  1.00  0.00     0.031 A 
ATOM     46  C   UNL A   1      43.324  32.774  32.046  1.00  0.00     0.049 A 
ATOM     47  C   UNL A   1      41.895  28.108  29.313  1.00  0.00     0.074 A 
ATOM     48  C   UNL A   1      44.572  32.791  32.643  1.00  0.00     0.029 A 
ATOM     49  N   UNL A   1      43.192  31.543  31.425  1.00  0.00    -0.354 N 
ATOM     50  N   UNL A   1      42.364  29.125  29.994  1.00  0.00    -0.248 NA
ATOM     51  C   UNL A   1      42.838  26.989  29.173  1.00  0.00     0.031 C 
ATOM     52  C   UNL A   1      45.214  31.584  32.347  1.00  0.00     0.029 A 
ATOM     53  C   UNL A   1      44.345  30.798  31.607  1.00  0.00     0.049 A 
ATOM     54  H   UNL A   1      42.398  31.243  30.928  1.00  0.00     0.167 HD
ATOM     55  C   UNL A   1      43.645  28.759  30.386  1.00  0.00     0.074 A 
ATOM     56  C   UNL A   1      43.872  27.420  29.881  1.00  0.00     0.031 C 
ATOM     57  C   UNL A   1      44.552  29.467  31.100  1.00  0.00     0.031 A 
BRANCH  44  58
ATOM     58  C   UNL A   1      42.636  35.113  32.708  1.00  0.00    -0.014 A 
ATOM     59  C   UNL A   1      42.222  35.375  34.024  1.00  0.00     0.009 A 
ATOM     60  C   UNL A   1      43.389  36.081  32.027  1.00  0.00     0.009 A 
ATOM     61  C   UNL A   1      42.526  36.594  34.632  1.00  0.00     0.001 A 
ATOM     62  C   UNL A   1      43.715  37.289  32.646  1.00  0.00     0.001 A 
ATOM     63  C   UNL A   1      43.276  37.548  33.944  1.00  0.00     0.000 A 
ENDBRANCH  44  58
BRANCH  45  64
ATOM     64  C   UNL A   1      40.204  26.685  27.952  1.00  0.00    -0.014 A 
ATOM     65  C   UNL A   1      39.466  25.674  28.586  1.00  0.00     0.009 A 
ATOM     66  C   UNL A   1      40.631  26.486  26.630  1.00  0.00     0.009 A 
ATOM     67  C   UNL A   1      39.186  24.478  27.921  1.00  0.00     0.001 A 
ATOM     68  C   UNL A   1      40.327  25.301  25.958  1.00  0.00     0.001 A 
ATOM     69  C   UNL A   1      39.614  24.294  26.607  1.00  0.00     0.000 A 
ENDBRANCH  45  64
BRANCH  57  70
ATOM     70  C   UNL A   1      45.859  28.794  31.408  1.00  0.00    -0.014 A 
ATOM     71  C   UNL A   1      46.978  28.967  30.579  1.00  0.00     0.009 A 
ATOM     72  C   UNL A   1      45.980  28.008  32.564  1.00  0.00     0.009 A 
ATOM     73  C   UNL A   1      48.187  28.339  30.888  1.00  0.00     0.001 A 
ATOM     74  C   UNL A   1      47.196  27.404  32.884  1.00  0.00     0.001 A 
ATOM     75  C   UNL A   1      48.295  27.563  32.043  1.00  0.00     0.000 A 
ENDBRANCH  57  70
ENDBRANCH  31  32
ENDBRANCH  23  26
ENDBRANCH  21  22
ENDBRANCH  20  21
ENDBRANCH  19  20
ENDBRANCH   1  19
TORSDOF 15
ENDMDL
MODEL 2
REMARK VINA RESULT:      -9.0      1.538      6.562
REMARK SMILES C[C@H](Sc1ccnc(C(=O)NCCCCNC(=O)c2ccc(-c3c4nc(c(-c5ccccc5)c5ccc([nH]5)c(-c5ccccc5)c5nc(c(-c6ccccc6)c6ccc3[nH]6)C=C5)C=C4)cc2)c1)[C@@H](C)O
REMARK SMILES IDX 12 1 11 2 9 3 10 4 8 6 4 7 5 8 67 9 6 10 7 11 3 12 2 13 1 14
REMARK SMILES IDX 68 15 69 16 70 17 13 19 14 20 15 21 16 22 17 23 18 25 19 26
REMARK SMILES IDX 20 27 66 28 21 29 65 30 22 31 23 32 24 33 59 34 25 35 64 36
REMARK SMILES IDX 58 37 60 38 26 39 63 40 57 41 56 42 27 44 49 45 34 46 48 47
REMARK SMILES IDX 35 48 38 49 47 50 61 51 36 52 37 53 46 55 62 56 39 57 28 58
REMARK SMILES IDX 29 59 33 60 30 61 32 62 31 63 50 64 51 65 55 66 52 67 54 68
REMARK SMILES IDX 53 69 40 70 41 71 45 72 42 73 44 74 43 75
REMARK H PARENT 11 5 70 18 16 24 60 43 38 54
REMARK Flexibility Score: inf
ROOT
ATOM      1  C   UNL A   1      34.403  36.249  33.272  1.00  0.00     0.116 C 
ENDROOT
BRANCH   1   2
ATOM      2  N   UNL A   1      33.765  34.951  33.204  1.00  0.00    -0.351 N 
ATOM      3  C   UNL A   1      34.215  33.666  33.402  1.00  0.00     0.269 C 
ATOM      4  O   UNL A   1      33.395  32.775  33.165  1.00  0.00    -0.268 OA
ATOM      5  H   UNL A   1      32.811  34.998  32.967  1.00  0.00     0.163 HD
BRANCH   3   6
ATOM      6  C   UNL A   1      35.578  33.308  33.947  1.00  0.00     0.129 A 
ATOM      7  C   UNL A   1      37.389  33.407  35.538  1.00  0.00     0.011 A 
ATOM      8  C   UNL A   1      37.867  32.216  35.004  1.00  0.00     0.035 A 
ATOM      9  C   UNL A   1      36.241  33.979  34.968  1.00  0.00     0.049 A 
ATOM     10  C   UNL A   1      37.222  31.672  33.910  1.00  0.00     0.113 A 
ATOM     11  N   UNL A   1      36.093  32.182  33.388  1.00  0.00    -0.251 NA
BRANCH   7  12
ATOM     12  S   UNL A   1      37.931  34.049  37.120  1.00  0.00    -0.120 SA
BRANCH  12  13
ATOM     13  C   UNL A   1      38.644  32.667  38.138  1.00  0.00     0.077 C 
ATOM     14  C   UNL A   1      39.829  33.013  39.033  1.00  0.00     0.022 C 
BRANCH  13  15
ATOM     15  C   UNL A   1      37.564  31.860  38.906  1.00  0.00     0.124 C 
ATOM     16  C   UNL A   1      36.275  32.632  39.187  1.00  0.00     0.039 C 
BRANCH  15  17
ATOM     17  O   UNL A   1      37.195  30.701  38.144  1.00  0.00    -0.392 OA
ATOM     18  H   UNL A   1      36.229  30.651  38.079  1.00  0.00     0.210 HD
ENDBRANCH  15  17
ENDBRANCH  13  15
ENDBRANCH  12  13
ENDBRANCH   7  12
ENDBRANCH   3   6
ENDBRANCH   1   2
BRANCH   1  19
ATOM     19  C   UNL A   1      33.726  37.210  32.291  1.00  0.00     0.023 C 
BRANCH  19  20
ATOM     20  C   UNL A   1      32.856  36.508  31.240  1.00  0.00     0.023 C 
BRANCH  20  21
ATOM     21  C   UNL A   1      33.508  36.342  29.870  1.00  0.00     0.116 C 
BRANCH  21  22
ATOM     22  N   UNL A   1      32.707  35.556  28.945  1.00  0.00    -0.352 N 
ATOM     23  C   UNL A   1      33.018  34.361  28.345  1.00  0.00     0.251 C 
ATOM     24  H   UNL A   1      31.825  35.930  28.719  1.00  0.00     0.163 HD
ATOM     25  O   UNL A   1      32.271  33.872  27.505  1.00  0.00    -0.269 OA
BRANCH  23  26
ATOM     26  C   UNL A   1      34.287  33.690  28.689  1.00  0.00     0.039 A 
ATOM     27  C   UNL A   1      35.438  34.026  27.973  1.00  0.00     0.014 A 
ATOM     28  C   UNL A   1      34.345  32.764  29.733  1.00  0.00     0.014 A 
ATOM     29  C   UNL A   1      36.667  33.480  28.350  1.00  0.00     0.010 A 
ATOM     30  C   UNL A   1      35.578  32.268  30.146  1.00  0.00     0.010 A 
ATOM     31  C   UNL A   1      36.750  32.626  29.461  1.00  0.00    -0.014 A 
BRANCH  31  32
ATOM     32  C   UNL A   1      38.056  32.107  29.932  1.00  0.00     0.031 A 
ATOM     33  C   UNL A   1      38.566  30.783  29.438  1.00  0.00     0.074 A 
ATOM     34  C   UNL A   1      38.752  32.799  30.856  1.00  0.00     0.049 A 
ATOM     35  N   UNL A   1      39.651  30.137  29.780  1.00  0.00    -0.248 NA
ATOM     36  C   UNL A   1      37.735  30.081  28.446  1.00  0.00     0.031 C 
ATOM     37  C   UNL A   1      38.344  34.075  31.447  1.00  0.00     0.029 A 
ATOM     38  N   UNL A   1      39.948  32.517  31.466  1.00  0.00    -0.354 N 
ATOM     39  C   UNL A   1      39.624  28.950  29.061  1.00  0.00     0.074 A 
ATOM     40  C   UNL A   1      38.395  28.942  28.299  1.00  0.00     0.031 C 
ATOM     41  C   UNL A   1      39.285  34.477  32.316  1.00  0.00     0.029 A 
ATOM     42  C   UNL A   1      40.342  33.473  32.372  1.00  0.00     0.049 A 
ATOM     43  H   UNL A   1      40.473  31.707  31.275  1.00  0.00     0.167 HD
ATOM     44  C   UNL A   1      40.550  27.962  29.024  1.00  0.00     0.031 A 
ATOM     45  C   UNL A   1      41.432  33.531  33.160  1.00  0.00     0.031 A 
ATOM     46  C   UNL A   1      41.779  27.974  29.770  1.00  0.00     0.049 A 
ATOM     47  C   UNL A   1      42.441  32.418  33.102  1.00  0.00     0.074 A 
ATOM     48  C   UNL A   1      42.804  27.046  29.757  1.00  0.00     0.029 A 
ATOM     49  N   UNL A   1      42.148  28.967  30.663  1.00  0.00    -0.354 N 
ATOM     50  N   UNL A   1      42.432  31.333  32.366  1.00  0.00    -0.248 NA
ATOM     51  C   UNL A   1      43.614  32.545  33.977  1.00  0.00     0.031 C 
ATOM     52  C   UNL A   1      43.777  27.456  30.674  1.00  0.00     0.029 A 
ATOM     53  C   UNL A   1      43.378  28.665  31.221  1.00  0.00     0.049 A 
ATOM     54  H   UNL A   1      41.615  29.768  30.869  1.00  0.00     0.167 HD
ATOM     55  C   UNL A   1      43.609  30.662  32.670  1.00  0.00     0.074 A 
ATOM     56  C   UNL A   1      44.315  31.471  33.643  1.00  0.00     0.031 C 
ATOM     57  C   UNL A   1      44.066  29.482  32.186  1.00  0.00     0.031 A 
BRANCH  44  58
ATOM     58  C   UNL A   1      40.263  26.780  28.141  1.00  0.00    -0.014 A 
ATOM     59  C   UNL A   1      40.781  26.707  26.838  1.00  0.00     0.009 A 
ATOM     60  C   UNL A   1      39.497  25.710  28.629  1.00  0.00     0.009 A 
ATOM     61  C   UNL A   1      40.509  25.601  26.030  1.00  0.00     0.001 A 
ATOM     62  C   UNL A   1      39.248  24.594  27.829  1.00  0.00     0.001 A 
ATOM     63  C   UNL A   1      39.747  24.544  26.527  1.00  0.00     0.000 A 
ENDBRANCH  44  58
BRANCH  45  64
ATOM     64  C   UNL A   1      41.638  34.691  34.064  1.00  0.00    -0.014 A 
ATOM     65  C   UNL A   1      42.378  35.804  33.635  1.00  0.00     0.009 A 
ATOM     66  C   UNL A   1      41.114  34.686  35.366  1.00  0.00     0.009 A 
ATOM     67  C   UNL A   1      42.612  36.875  34.500  1.00  0.00     0.001 A 
ATOM     68  C   UNL A   1      41.327  35.770  36.220  1.00  0.00     0.001 A 
ATOM     69  C   UNL A   1      42.085  36.858  35.790  1.00  0.00     0.000 A 
ENDBRANCH  45  64
BRANCH  57  70
ATOM     70  C   UNL A   1      45.406  29.013  32.675  1.00  0.00    -0.014 A 
ATOM     71  C   UNL A   1      45.518  28.173  33.793  1.00  0.00     0.009 A 
ATOM     72  C   UNL A   1      46.568  29.388  31.983  1.00  0.00     0.009 A 
ATOM     73  C   UNL A   1      46.774  27.740  34.226  1.00  0.00     0.001 A 
ATOM     74  C   UNL A   1      47.818  28.933  32.402  1.00  0.00     0.001 A 
ATOM     75  C   UNL A   1      47.921  28.117  33.527  1.00  0.00     0.000 A 
ENDBRANCH  57  70
ENDBRANCH  31  32
ENDBRANCH  23  26
ENDBRANCH  21  22
ENDBRANCH  20  21
ENDBRANCH  19  20
ENDBRANCH   1  19
TORSDOF 15
ENDMDL
MODEL 3
REMARK VINA RESULT:      -8.7      1.485      2.394
REMARK SMILES C[C@H](Sc1ccnc(C(=O)NCCCCNC(=O)c2ccc(-c3c4nc(c(-c5ccccc5)c5ccc([nH]5)c(-c5ccccc5)c5nc(c(-c6ccccc6)c6ccc3[nH]6)C=C5)C=C4)cc2)c1)[C@@H](C)O
REMARK SMILES IDX 12 1 11 2 9 3 10 4 8 6 4 7 5 8 67 9 6 10 7 11 3 12 2 13 1 14
REMARK SMILES IDX 68 15 69 16 70 17 13 19 14 20 15 21 16 22 17 23 18 25 19 26
REMARK SMILES IDX 20 27 66 28 21 29 65 30 22 31 23 32 24 33 59 34 25 35 64 36
REMARK SMILES IDX 58 37 60 38 26 39 63 40 57 41 56 42 27 44 49 45 34 46 48 47
REMARK SMILES IDX 35 48 38 49 47 50 61 51 36 52 37 53 46 55 62 56 39 57 28 58
REMARK SMILES IDX 29 59 33 60 30 61 32 62 31 63 50 64 51 65 55 66 52 67 54 68
REMARK SMILES IDX 53 69 40 70 41 71 45 72 42 73 44 74 43 75
REMARK H PARENT 11 5 70 18 16 24 60 43 38 54
REMARK Flexibility Score: inf
ROOT
ATOM      1  C   UNL A   1      34.525  36.141  32.744  1.00  0.00     0.116 C 
ENDROOT
BRANCH   1   2
ATOM      2  N   UNL A   1      33.778  34.931  33.015  1.00  0.00    -0.351 N 
ATOM      3  C   UNL A   1      34.137  33.675  33.448  1.00  0.00     0.269 C 
ATOM      4  O   UNL A   1      33.225  32.844  33.480  1.00  0.00    -0.268 OA
ATOM      5  H   UNL A   1      32.811  35.026  32.854  1.00  0.00     0.163 HD
BRANCH   3   6
ATOM      6  C   UNL A   1      35.515  33.299  33.943  1.00  0.00     0.129 A 
ATOM      7  C   UNL A   1      37.405  33.413  35.436  1.00  0.00     0.011 A 
ATOM      8  C   UNL A   1      37.821  32.184  34.935  1.00  0.00     0.035 A 
ATOM      9  C   UNL A   1      36.247  33.994  34.897  1.00  0.00     0.049 A 
ATOM     10  C   UNL A   1      37.106  31.613  33.901  1.00  0.00     0.113 A 
ATOM     11  N   UNL A   1      35.968  32.134  33.411  1.00  0.00    -0.251 NA
BRANCH   7  12
ATOM     12  S   UNL A   1      38.044  34.107  36.959  1.00  0.00    -0.120 SA
BRANCH  12  13
ATOM     13  C   UNL A   1      38.757  32.749  38.008  1.00  0.00     0.077 C 
ATOM     14  C   UNL A   1      39.960  33.109  38.875  1.00  0.00     0.022 C 
BRANCH  13  15
ATOM     15  C   UNL A   1      37.680  31.978  38.817  1.00  0.00     0.124 C 
ATOM     16  C   UNL A   1      36.401  32.770  39.085  1.00  0.00     0.039 C 
BRANCH  15  17
ATOM     17  O   UNL A   1      37.293  30.797  38.099  1.00  0.00    -0.392 OA
ATOM     18  H   UNL A   1      37.768  30.031  38.457  1.00  0.00     0.210 HD
ENDBRANCH  15  17
ENDBRANCH  13  15
ENDBRANCH  12  13
ENDBRANCH   7  12
ENDBRANCH   3   6
ENDBRANCH   1   2
BRANCH   1  19
ATOM     19  C   UNL A   1      33.633  37.148  32.015  1.00  0.00     0.023 C 
BRANCH  19  20
ATOM     20  C   UNL A   1      32.724  36.513  30.954  1.00  0.00     0.023 C 
BRANCH  20  21
ATOM     21  C   UNL A   1      33.294  36.507  29.537  1.00  0.00     0.116 C 
BRANCH  21  22
ATOM     22  N   UNL A   1      32.664  35.525  28.669  1.00  0.00    -0.352 N 
ATOM     23  C   UNL A   1      33.137  34.296  28.282  1.00  0.00     0.251 C 
ATOM     24  H   UNL A   1      31.781  35.774  28.312  1.00  0.00     0.163 HD
ATOM     25  O   UNL A   1      32.525  33.624  27.458  1.00  0.00    -0.269 OA
BRANCH  23  26
ATOM     26  C   UNL A   1      34.417  33.810  28.833  1.00  0.00     0.039 A 
ATOM     27  C   UNL A   1      34.388  32.915  29.905  1.00  0.00     0.014 A 
ATOM     28  C   UNL A   1      35.633  34.208  28.273  1.00  0.00     0.014 A 
ATOM     29  C   UNL A   1      35.581  32.363  30.374  1.00  0.00     0.010 A 
ATOM     30  C   UNL A   1      36.815  33.612  28.701  1.00  0.00     0.010 A 
ATOM     31  C   UNL A   1      36.799  32.681  29.751  1.00  0.00    -0.014 A 
BRANCH  31  32
ATOM     32  C   UNL A   1      38.066  32.039  30.175  1.00  0.00     0.031 A 
ATOM     33  C   UNL A   1      38.980  32.736  31.142  1.00  0.00     0.074 A 
ATOM     34  C   UNL A   1      38.424  30.856  29.637  1.00  0.00     0.049 A 
ATOM     35  N   UNL A   1      40.155  32.364  31.582  1.00  0.00    -0.248 NA
ATOM     36  C   UNL A   1      38.525  34.035  31.665  1.00  0.00     0.031 C 
ATOM     37  C   UNL A   1      37.645  30.098  28.656  1.00  0.00     0.029 A 
ATOM     38  N   UNL A   1      39.544  30.089  29.836  1.00  0.00    -0.354 N 
ATOM     39  C   UNL A   1      40.586  33.386  32.417  1.00  0.00     0.074 A 
ATOM     40  C   UNL A   1      39.569  34.415  32.388  1.00  0.00     0.031 C 
ATOM     41  C   UNL A   1      38.299  28.964  28.357  1.00  0.00     0.029 A 
ATOM     42  C   UNL A   1      39.557  28.932  29.096  1.00  0.00     0.049 A 
ATOM     43  H   UNL A   1      40.270  30.343  30.451  1.00  0.00     0.167 HD
ATOM     44  C   UNL A   1      41.717  33.454  33.157  1.00  0.00     0.031 A 
ATOM     45  C   UNL A   1      40.481  27.956  29.018  1.00  0.00     0.031 A 
ATOM     46  C   UNL A   1      42.722  32.427  33.198  1.00  0.00     0.049 A 
ATOM     47  C   UNL A   1      41.731  28.060  29.846  1.00  0.00     0.074 A 
ATOM     48  C   UNL A   1      43.877  32.381  33.959  1.00  0.00     0.029 A 
ATOM     49  N   UNL A   1      42.690  31.264  32.445  1.00  0.00    -0.354 N 
ATOM     50  N   UNL A   1      42.091  29.003  30.682  1.00  0.00    -0.248 NA
ATOM     51  C   UNL A   1      42.695  26.957  29.727  1.00  0.00     0.031 C 
ATOM     52  C   UNL A   1      44.566  31.207  33.636  1.00  0.00     0.029 A 
ATOM     53  C   UNL A   1      43.814  30.501  32.710  1.00  0.00     0.049 A 
ATOM     54  H   UNL A   1      41.974  31.017  31.817  1.00  0.00     0.167 HD
ATOM     55  C   UNL A   1      43.310  28.596  31.208  1.00  0.00     0.074 A 
ATOM     56  C   UNL A   1      43.619  27.313  30.610  1.00  0.00     0.031 C 
ATOM     57  C   UNL A   1      44.103  29.226  32.107  1.00  0.00     0.031 A 
BRANCH  44  58
ATOM     58  C   UNL A   1      41.926  34.690  33.987  1.00  0.00    -0.014 A 
ATOM     59  C   UNL A   1      42.555  35.825  33.450  1.00  0.00     0.009 A 
ATOM     60  C   UNL A   1      41.455  34.734  35.309  1.00  0.00     0.009 A 
ATOM     61  C   UNL A   1      42.739  36.968  34.232  1.00  0.00     0.001 A 
ATOM     62  C   UNL A   1      41.617  35.886  36.080  1.00  0.00     0.001 A 
ATOM     63  C   UNL A   1      42.266  36.999  35.544  1.00  0.00     0.000 A 
ENDBRANCH  44  58
BRANCH  45  64
ATOM     64  C   UNL A   1      40.257  26.784  28.132  1.00  0.00    -0.014 A 
ATOM     65  C   UNL A   1      40.800  26.757  26.839  1.00  0.00     0.009 A 
ATOM     66  C   UNL A   1      39.487  25.695  28.568  1.00  0.00     0.009 A 
ATOM     67  C   UNL A   1      40.552  25.676  25.989  1.00  0.00     0.001 A 
ATOM     68  C   UNL A   1      39.263  24.604  27.727  1.00  0.00     0.001 A 
ATOM     69  C   UNL A   1      39.787  24.601  26.434  1.00  0.00     0.000 A 
ENDBRANCH  45  64
BRANCH  57  70
ATOM     70  C   UNL A   1      45.363  28.522  32.523  1.00  0.00    -0.014 A 
ATOM     71  C   UNL A   1      46.579  28.760  31.866  1.00  0.00     0.009 A 
ATOM     72  C   UNL A   1      45.336  27.638  33.612  1.00  0.00     0.009 A 
ATOM     73  C   UNL A   1      47.741  28.102  32.275  1.00  0.00     0.001 A 
ATOM     74  C   UNL A   1      46.504  27.002  34.035  1.00  0.00     0.001 A 
ATOM     75  C   UNL A   1      47.702  27.228  33.361  1.00  0.00     0.000 A 
ENDBRANCH  57  70
ENDBRANCH  31  32
ENDBRANCH  23  26
ENDBRANCH  21  22
ENDBRANCH  20  21
ENDBRANCH  19  20
ENDBRANCH   1  19
TORSDOF 15
ENDMDL
