MODEL 1
REMARK VINA RESULT:     -10.2      0.000      0.000
REMARK SMILES Cc1ccnc(C(=O)c2[nH]c3ccc(F)cc3c2CC(=O)NCCCCNC(=O)c2ccc(-c3c4nc(c(-c5ccccc5)c5ccc([nH]5)c(-c5ccccc5)c5nc(c(-c6ccccc6)c6ccc3[nH]6)C=C5)C=C4)cc2)c1
REMARK SMILES IDX 24 1 23 2 22 3 20 4 21 5 19 7 18 8 9 9 10 10 11 11 17 13
REMARK SMILES IDX 12 14 16 15 13 16 14 17 15 18 7 19 8 20 6 21 1 22 2 23 3 24
REMARK SMILES IDX 78 25 4 26 5 27 25 28 26 29 27 30 28 31 29 33 30 34 31 35
REMARK SMILES IDX 77 36 32 37 76 38 33 39 34 40 35 41 70 42 36 43 75 44 69 45
REMARK SMILES IDX 71 46 37 47 74 48 68 49 67 50 38 52 60 53 45 54 59 55 46 56
REMARK SMILES IDX 49 57 58 58 72 59 47 60 48 61 57 63 73 64 50 65 39 66 40 67
REMARK SMILES IDX 44 68 41 69 43 70 42 71 61 72 62 73 66 74 63 75 65 76 64 77
REMARK SMILES IDX 51 78 52 79 56 80 53 81 55 82 54 83
REMARK H PARENT 22 6 10 12 27 32 71 51 49 62
REMARK Flexibility Score: inf
ROOT
ATOM      1  C   UNL A   1      45.757  19.751  24.258  1.00  0.00     0.023 C 
ENDROOT
BRANCH   1   2
ATOM      2  C   UNL A   1      45.706  21.141  24.898  1.00  0.00     0.116 C 
BRANCH   2   3
ATOM      3  N   UNL A   1      46.417  22.169  24.168  1.00  0.00    -0.356 N 
ATOM      4  C   UNL A   1      46.271  23.525  24.169  1.00  0.00     0.224 C 
ATOM      5  O   UNL A   1      47.157  24.175  23.604  1.00  0.00    -0.275 OA
ATOM      6  H   UNL A   1      47.123  21.834  23.571  1.00  0.00     0.163 HD
BRANCH   4   7
ATOM      7  C   UNL A   1      45.131  24.241  24.872  1.00  0.00     0.138 C 
BRANCH   7   8
ATOM      8  C   UNL A   1      45.477  25.493  25.630  1.00  0.00    -0.002 A 
ATOM      9  C   UNL A   1      46.660  25.839  26.291  1.00  0.00     0.093 A 
ATOM     10  N   UNL A   1      46.420  27.043  26.927  1.00  0.00    -0.352 N 
ATOM     11  C   UNL A   1      45.174  27.532  26.640  1.00  0.00     0.046 A 
ATOM     12  H   UNL A   1      47.066  27.494  27.516  1.00  0.00     0.167 HD
ATOM     13  C   UNL A   1      44.524  26.550  25.898  1.00  0.00     0.007 A 
ATOM     14  C   UNL A   1      44.576  28.746  27.002  1.00  0.00     0.030 A 
ATOM     15  C   UNL A   1      43.173  26.773  25.552  1.00  0.00     0.049 A 
ATOM     16  C   UNL A   1      43.259  28.965  26.592  1.00  0.00     0.041 A 
ATOM     17  C   UNL A   1      42.573  27.985  25.890  1.00  0.00     0.123 A 
ATOM     18  F   UNL A   1      41.309  28.213  25.510  1.00  0.00    -0.207 F 
BRANCH   9  19
ATOM     19  C   UNL A   1      47.951  25.196  26.521  1.00  0.00     0.227 C 
ATOM     20  O   UNL A   1      47.999  24.180  27.216  1.00  0.00    -0.285 OA
BRANCH  19  21
ATOM     21  C   UNL A   1      49.249  25.804  26.075  1.00  0.00     0.113 A 
ATOM     22  C   UNL A   1      53.006  25.452  26.500  1.00  0.00     0.044 C 
ATOM     23  C   UNL A   1      51.655  25.890  26.021  1.00  0.00    -0.047 A 
ATOM     24  C   UNL A   1      51.554  26.907  25.073  1.00  0.00     0.023 A 
ATOM     25  C   UNL A   1      50.476  25.295  26.487  1.00  0.00     0.036 A 
ATOM     26  C   UNL A   1      50.295  27.315  24.671  1.00  0.00     0.112 A 
ATOM     27  N   UNL A   1      49.146  26.796  25.153  1.00  0.00    -0.253 NA
ENDBRANCH  19  21
ENDBRANCH   9  19
ENDBRANCH   7   8
ENDBRANCH   4   7
ENDBRANCH   2   3
ENDBRANCH   1   2
BRANCH   1  28
ATOM     28  C   UNL A   1      44.624  18.781  24.597  1.00  0.00     0.023 C 
BRANCH  28  29
ATOM     29  C   UNL A   1      43.793  19.125  25.822  1.00  0.00     0.116 C 
BRANCH  29  30
ATOM     30  N   UNL A   1      42.378  18.878  25.618  1.00  0.00    -0.352 N 
ATOM     31  C   UNL A   1      41.304  19.645  25.992  1.00  0.00     0.251 C 
ATOM     32  H   UNL A   1      42.159  18.042  25.147  1.00  0.00     0.163 HD
ATOM     33  O   UNL A   1      40.167  19.202  25.864  1.00  0.00    -0.269 OA
BRANCH  31  34
ATOM     34  C   UNL A   1      41.509  20.989  26.577  1.00  0.00     0.039 A 
ATOM     35  C   UNL A   1      41.265  21.162  27.943  1.00  0.00     0.014 A 
ATOM     36  C   UNL A   1      41.908  22.077  25.795  1.00  0.00     0.014 A 
ATOM     37  C   UNL A   1      41.469  22.410  28.532  1.00  0.00     0.010 A 
ATOM     38  C   UNL A   1      42.165  23.310  26.395  1.00  0.00     0.010 A 
ATOM     39  C   UNL A   1      41.945  23.488  27.769  1.00  0.00    -0.014 A 
BRANCH  39  40
ATOM     40  C   UNL A   1      42.226  24.799  28.405  1.00  0.00     0.031 A 
ATOM     41  C   UNL A   1      43.576  25.092  28.995  1.00  0.00     0.074 A 
ATOM     42  C   UNL A   1      41.245  25.719  28.482  1.00  0.00     0.049 A 
ATOM     43  N   UNL A   1      43.999  26.182  29.586  1.00  0.00    -0.248 NA
ATOM     44  C   UNL A   1      44.578  24.016  28.932  1.00  0.00     0.031 C 
ATOM     45  C   UNL A   1      39.879  25.545  27.985  1.00  0.00     0.029 A 
ATOM     46  N   UNL A   1      41.250  26.986  29.010  1.00  0.00    -0.354 N 
ATOM     47  C   UNL A   1      45.307  25.921  29.972  1.00  0.00     0.074 A 
ATOM     48  C   UNL A   1      45.596  24.556  29.588  1.00  0.00     0.031 C 
ATOM     49  C   UNL A   1      39.186  26.673  28.206  1.00  0.00     0.029 A 
ATOM     50  C   UNL A   1      40.048  27.638  28.882  1.00  0.00     0.049 A 
ATOM     51  H   UNL A   1      42.039  27.389  29.437  1.00  0.00     0.167 HD
ATOM     52  C   UNL A   1      46.196  26.747  30.575  1.00  0.00     0.031 A 
ATOM     53  C   UNL A   1      39.679  28.873  29.266  1.00  0.00     0.031 A 
ATOM     54  C   UNL A   1      45.915  28.107  30.954  1.00  0.00     0.049 A 
ATOM     55  C   UNL A   1      40.682  29.769  29.935  1.00  0.00     0.074 A 
ATOM     56  C   UNL A   1      46.769  29.038  31.518  1.00  0.00     0.029 A 
ATOM     57  N   UNL A   1      44.685  28.729  30.808  1.00  0.00    -0.354 N 
ATOM     58  N   UNL A   1      41.936  29.529  30.229  1.00  0.00    -0.248 NA
ATOM     59  C   UNL A   1      40.218  31.111  30.313  1.00  0.00     0.031 C 
ATOM     60  C   UNL A   1      46.044  30.211  31.757  1.00  0.00     0.029 A 
ATOM     61  C   UNL A   1      44.751  30.024  31.296  1.00  0.00     0.049 A 
ATOM     62  H   UNL A   1      43.884  28.312  30.417  1.00  0.00     0.167 HD
ATOM     63  C   UNL A   1      42.417  30.696  30.808  1.00  0.00     0.074 A 
ATOM     64  C   UNL A   1      41.325  31.648  30.805  1.00  0.00     0.031 C 
ATOM     65  C   UNL A   1      43.652  30.955  31.300  1.00  0.00     0.031 A 
BRANCH  52  66
ATOM     66  C   UNL A   1      47.561  26.194  30.870  1.00  0.00    -0.014 A 
ATOM     67  C   UNL A   1      48.582  26.228  29.907  1.00  0.00     0.009 A 
ATOM     68  C   UNL A   1      47.843  25.666  32.140  1.00  0.00     0.009 A 
ATOM     69  C   UNL A   1      49.847  25.712  30.198  1.00  0.00     0.001 A 
ATOM     70  C   UNL A   1      49.116  25.175  32.437  1.00  0.00     0.001 A 
ATOM     71  C   UNL A   1      50.114  25.191  31.463  1.00  0.00     0.000 A 
ENDBRANCH  52  66
BRANCH  53  72
ATOM     72  C   UNL A   1      38.297  29.349  29.004  1.00  0.00    -0.014 A 
ATOM     73  C   UNL A   1      37.948  29.858  27.744  1.00  0.00     0.009 A 
ATOM     74  C   UNL A   1      37.322  29.298  30.012  1.00  0.00     0.009 A 
ATOM     75  C   UNL A   1      36.655  30.331  27.507  1.00  0.00     0.001 A 
ATOM     76  C   UNL A   1      36.024  29.748  29.763  1.00  0.00     0.001 A 
ATOM     77  C   UNL A   1      35.694  30.271  28.514  1.00  0.00     0.000 A 
ENDBRANCH  53  72
BRANCH  65  78
ATOM     78  C   UNL A   1      43.888  32.330  31.858  1.00  0.00    -0.014 A 
ATOM     79  C   UNL A   1      43.633  32.618  33.208  1.00  0.00     0.009 A 
ATOM     80  C   UNL A   1      44.385  33.345  31.027  1.00  0.00     0.009 A 
ATOM     81  C   UNL A   1      43.835  33.907  33.705  1.00  0.00     0.001 A 
ATOM     82  C   UNL A   1      44.612  34.626  31.533  1.00  0.00     0.001 A 
ATOM     83  C   UNL A   1      44.326  34.908  32.868  1.00  0.00     0.000 A 
ENDBRANCH  65  78
ENDBRANCH  39  40
ENDBRANCH  31  34
ENDBRANCH  29  30
ENDBRANCH  28  29
ENDBRANCH   1  28
TORSDOF 14
ENDMDL
MODEL 2
REMARK VINA RESULT:     -10.0      0.322      5.838
REMARK SMILES Cc1ccnc(C(=O)c2[nH]c3ccc(F)cc3c2CC(=O)NCCCCNC(=O)c2ccc(-c3c4nc(c(-c5ccccc5)c5ccc([nH]5)c(-c5ccccc5)c5nc(c(-c6ccccc6)c6ccc3[nH]6)C=C5)C=C4)cc2)c1
REMARK SMILES IDX 24 1 23 2 22 3 20 4 21 5 19 7 18 8 9 9 10 10 11 11 17 13
REMARK SMILES IDX 12 14 16 15 13 16 14 17 15 18 7 19 8 20 6 21 1 22 2 23 3 24
REMARK SMILES IDX 78 25 4 26 5 27 25 28 26 29 27 30 28 31 29 33 30 34 31 35
REMARK SMILES IDX 77 36 32 37 76 38 33 39 34 40 35 41 70 42 36 43 75 44 69 45
REMARK SMILES IDX 71 46 37 47 74 48 68 49 67 50 38 52 60 53 45 54 59 55 46 56
REMARK SMILES IDX 49 57 58 58 72 59 47 60 48 61 57 63 73 64 50 65 39 66 40 67
REMARK SMILES IDX 44 68 41 69 43 70 42 71 61 72 62 73 66 74 63 75 65 76 64 77
REMARK SMILES IDX 51 78 52 79 56 80 53 81 55 82 54 83
REMARK H PARENT 22 6 10 12 27 32 71 51 49 62
REMARK Flexibility Score: inf
ROOT
ATOM      1  C   UNL A   1      45.774  19.658  24.375  1.00  0.00     0.023 C 
ENDROOT
BRANCH   1   2
ATOM      2  C   UNL A   1      45.814  21.043  25.026  1.00  0.00     0.116 C 
BRANCH   2   3
ATOM      3  N   UNL A   1      46.466  22.064  24.235  1.00  0.00    -0.356 N 
ATOM      4  C   UNL A   1      46.287  23.416  24.201  1.00  0.00     0.224 C 
ATOM      5  O   UNL A   1      47.131  24.068  23.579  1.00  0.00    -0.275 OA
ATOM      6  H   UNL A   1      47.155  21.727  23.618  1.00  0.00     0.163 HD
BRANCH   4   7
ATOM      7  C   UNL A   1      45.161  24.126  24.932  1.00  0.00     0.138 C 
BRANCH   7   8
ATOM      8  C   UNL A   1      45.504  25.418  25.622  1.00  0.00    -0.002 A 
ATOM      9  C   UNL A   1      46.696  25.812  26.240  1.00  0.00     0.093 A 
ATOM     10  N   UNL A   1      46.451  27.042  26.822  1.00  0.00    -0.352 N 
ATOM     11  C   UNL A   1      45.193  27.499  26.539  1.00  0.00     0.046 A 
ATOM     12  H   UNL A   1      47.103  27.529  27.375  1.00  0.00     0.167 HD
ATOM     13  C   UNL A   1      44.542  26.474  25.859  1.00  0.00     0.007 A 
ATOM     14  C   UNL A   1      44.585  28.721  26.855  1.00  0.00     0.030 A 
ATOM     15  C   UNL A   1      43.181  26.661  25.531  1.00  0.00     0.049 A 
ATOM     16  C   UNL A   1      43.257  28.902  26.463  1.00  0.00     0.041 A 
ATOM     17  C   UNL A   1      42.571  27.879  25.823  1.00  0.00     0.123 A 
ATOM     18  F   UNL A   1      41.296  28.072  25.459  1.00  0.00    -0.207 F 
BRANCH   9  19
ATOM     19  C   UNL A   1      48.000  25.198  26.473  1.00  0.00     0.227 C 
ATOM     20  O   UNL A   1      48.069  24.181  27.166  1.00  0.00    -0.285 OA
BRANCH  19  21
ATOM     21  C   UNL A   1      49.285  25.837  26.033  1.00  0.00     0.113 A 
ATOM     22  C   UNL A   1      53.052  25.490  26.366  1.00  0.00     0.044 C 
ATOM     23  C   UNL A   1      51.689  25.942  25.936  1.00  0.00    -0.047 A 
ATOM     24  C   UNL A   1      51.563  27.005  25.043  1.00  0.00     0.023 A 
ATOM     25  C   UNL A   1      50.524  25.316  26.395  1.00  0.00     0.036 A 
ATOM     26  C   UNL A   1      50.294  27.424  24.687  1.00  0.00     0.112 A 
ATOM     27  N   UNL A   1      49.158  26.873  25.165  1.00  0.00    -0.253 NA
ENDBRANCH  19  21
ENDBRANCH   9  19
ENDBRANCH   7   8
ENDBRANCH   4   7
ENDBRANCH   2   3
ENDBRANCH   1   2
BRANCH   1  28
ATOM     28  C   UNL A   1      44.484  18.850  24.524  1.00  0.00     0.023 C 
BRANCH  28  29
ATOM     29  C   UNL A   1      43.672  19.111  25.781  1.00  0.00     0.116 C 
BRANCH  29  30
ATOM     30  N   UNL A   1      42.249  18.919  25.571  1.00  0.00    -0.352 N 
ATOM     31  C   UNL A   1      41.202  19.715  25.963  1.00  0.00     0.251 C 
ATOM     32  H   UNL A   1      42.001  18.104  25.079  1.00  0.00     0.163 HD
ATOM     33  O   UNL A   1      40.050  19.316  25.824  1.00  0.00    -0.269 OA
BRANCH  31  34
ATOM     34  C   UNL A   1      41.454  21.037  26.581  1.00  0.00     0.039 A 
ATOM     35  C   UNL A   1      41.348  21.149  27.970  1.00  0.00     0.014 A 
ATOM     36  C   UNL A   1      41.764  22.161  25.809  1.00  0.00     0.014 A 
ATOM     37  C   UNL A   1      41.600  22.375  28.589  1.00  0.00     0.010 A 
ATOM     38  C   UNL A   1      42.070  23.371  26.432  1.00  0.00     0.010 A 
ATOM     39  C   UNL A   1      41.988  23.489  27.828  1.00  0.00    -0.014 A 
BRANCH  39  40
ATOM     40  C   UNL A   1      42.321  24.777  28.487  1.00  0.00     0.031 A 
ATOM     41  C   UNL A   1      41.293  25.866  28.606  1.00  0.00     0.074 A 
ATOM     42  C   UNL A   1      43.569  24.977  28.950  1.00  0.00     0.049 A 
ATOM     43  N   UNL A   1      41.408  27.051  29.151  1.00  0.00    -0.248 NA
ATOM     44  C   UNL A   1      39.970  25.600  28.020  1.00  0.00     0.031 C 
ATOM     45  C   UNL A   1      44.671  24.017  28.860  1.00  0.00     0.029 A 
ATOM     46  N   UNL A   1      44.121  26.060  29.589  1.00  0.00    -0.354 N 
ATOM     47  C   UNL A   1      40.180  27.674  28.968  1.00  0.00     0.074 A 
ATOM     48  C   UNL A   1      39.348  26.754  28.222  1.00  0.00     0.031 C 
ATOM     49  C   UNL A   1      45.758  24.541  29.449  1.00  0.00     0.029 A 
ATOM     50  C   UNL A   1      45.439  25.882  29.931  1.00  0.00     0.049 A 
ATOM     51  H   UNL A   1      43.620  26.883  29.785  1.00  0.00     0.167 HD
ATOM     52  C   UNL A   1      39.773  28.893  29.396  1.00  0.00     0.031 A 
ATOM     53  C   UNL A   1      46.296  26.704  30.563  1.00  0.00     0.031 A 
ATOM     54  C   UNL A   1      40.594  29.809  30.143  1.00  0.00     0.049 A 
ATOM     55  C   UNL A   1      45.821  28.052  31.025  1.00  0.00     0.074 A 
ATOM     56  C   UNL A   1      40.251  31.043  30.668  1.00  0.00     0.029 A 
ATOM     57  N   UNL A   1      41.924  29.592  30.468  1.00  0.00    -0.354 N 
ATOM     58  N   UNL A   1      44.636  28.596  30.903  1.00  0.00    -0.248 NA
ATOM     59  C   UNL A   1      46.803  28.892  31.723  1.00  0.00     0.031 C 
ATOM     60  C   UNL A   1      41.387  31.594  31.273  1.00  0.00     0.029 A 
ATOM     61  C   UNL A   1      42.424  30.680  31.165  1.00  0.00     0.049 A 
ATOM     62  H   UNL A   1      42.438  28.784  30.237  1.00  0.00     0.167 HD
ATOM     63  C   UNL A   1      44.723  29.834  31.527  1.00  0.00     0.074 A 
ATOM     64  C   UNL A   1      46.072  29.950  32.042  1.00  0.00     0.031 C 
ATOM     65  C   UNL A   1      43.771  30.789  31.659  1.00  0.00     0.031 A 
BRANCH  52  66
ATOM     66  C   UNL A   1      38.370  29.311  29.056  1.00  0.00    -0.014 A 
ATOM     67  C   UNL A   1      37.354  29.295  30.024  1.00  0.00     0.009 A 
ATOM     68  C   UNL A   1      38.068  29.761  27.761  1.00  0.00     0.009 A 
ATOM     69  C   UNL A   1      36.055  29.689  29.694  1.00  0.00     0.001 A 
ATOM     70  C   UNL A   1      36.775  30.179  27.440  1.00  0.00     0.001 A 
ATOM     71  C   UNL A   1      35.769  30.135  28.404  1.00  0.00     0.000 A 
ENDBRANCH  52  66
BRANCH  53  72
ATOM     72  C   UNL A   1      47.691  26.265  30.820  1.00  0.00    -0.014 A 
ATOM     73  C   UNL A   1      48.042  25.701  32.056  1.00  0.00     0.009 A 
ATOM     74  C   UNL A   1      48.677  26.410  29.833  1.00  0.00     0.009 A 
ATOM     75  C   UNL A   1      49.360  25.313  32.306  1.00  0.00     0.001 A 
ATOM     76  C   UNL A   1      49.989  25.998  30.078  1.00  0.00     0.001 A 
ATOM     77  C   UNL A   1      50.330  25.457  31.317  1.00  0.00     0.000 A 
ENDBRANCH  53  72
BRANCH  65  78
ATOM     78  C   UNL A   1      44.157  32.034  32.406  1.00  0.00    -0.014 A 
ATOM     79  C   UNL A   1      44.688  33.147  31.735  1.00  0.00     0.009 A 
ATOM     80  C   UNL A   1      43.972  32.099  33.795  1.00  0.00     0.009 A 
ATOM     81  C   UNL A   1      45.062  34.288  32.448  1.00  0.00     0.001 A 
ATOM     82  C   UNL A   1      44.323  33.251  34.502  1.00  0.00     0.001 A 
ATOM     83  C   UNL A   1      44.876  34.340  33.829  1.00  0.00     0.000 A 
ENDBRANCH  65  78
ENDBRANCH  39  40
ENDBRANCH  31  34
ENDBRANCH  29  30
ENDBRANCH  28  29
ENDBRANCH   1  28
TORSDOF 14
ENDMDL
MODEL 3
REMARK VINA RESULT:     -10.0      4.311      8.299
REMARK SMILES Cc1ccnc(C(=O)c2[nH]c3ccc(F)cc3c2CC(=O)NCCCCNC(=O)c2ccc(-c3c4nc(c(-c5ccccc5)c5ccc([nH]5)c(-c5ccccc5)c5nc(c(-c6ccccc6)c6ccc3[nH]6)C=C5)C=C4)cc2)c1
REMARK SMILES IDX 24 1 23 2 22 3 20 4 21 5 19 7 18 8 9 9 10 10 11 11 17 13
REMARK SMILES IDX 12 14 16 15 13 16 14 17 15 18 7 19 8 20 6 21 1 22 2 23 3 24
REMARK SMILES IDX 78 25 4 26 5 27 25 28 26 29 27 30 28 31 29 33 30 34 31 35
REMARK SMILES IDX 77 36 32 37 76 38 33 39 34 40 35 41 70 42 36 43 75 44 69 45
REMARK SMILES IDX 71 46 37 47 74 48 68 49 67 50 38 52 60 53 45 54 59 55 46 56
REMARK SMILES IDX 49 57 58 58 72 59 47 60 48 61 57 63 73 64 50 65 39 66 40 67
REMARK SMILES IDX 44 68 41 69 43 70 42 71 61 72 62 73 66 74 63 75 65 76 64 77
REMARK SMILES IDX 51 78 52 79 56 80 53 81 55 82 54 83
REMARK H PARENT 22 6 10 12 27 32 71 51 49 62
REMARK Flexibility Score: inf
ROOT
ATOM      1  C   UNL A   1      36.596  20.730  24.718  1.00  0.00     0.023 C 
ENDROOT
BRANCH   1   2
ATOM      2  C   UNL A   1      36.932  22.144  24.234  1.00  0.00     0.116 C 
BRANCH   2   3
ATOM      3  N   UNL A   1      35.865  22.806  23.515  1.00  0.00    -0.356 N 
ATOM      4  C   UNL A   1      35.092  23.877  23.856  1.00  0.00     0.224 C 
ATOM      5  O   UNL A   1      34.395  24.361  22.958  1.00  0.00    -0.275 OA
ATOM      6  H   UNL A   1      35.663  22.420  22.634  1.00  0.00     0.163 HD
BRANCH   4   7
ATOM      7  C   UNL A   1      35.108  24.512  25.235  1.00  0.00     0.138 C 
BRANCH   7   8
ATOM      8  C   UNL A   1      33.779  24.903  25.822  1.00  0.00    -0.002 A 
ATOM      9  C   UNL A   1      32.827  24.117  26.478  1.00  0.00     0.093 A 
ATOM     10  N   UNL A   1      31.735  24.932  26.712  1.00  0.00    -0.352 N 
ATOM     11  C   UNL A   1      31.968  26.222  26.320  1.00  0.00     0.046 A 
ATOM     12  H   UNL A   1      30.891  24.622  27.112  1.00  0.00     0.167 HD
ATOM     13  C   UNL A   1      33.206  26.226  25.683  1.00  0.00     0.007 A 
ATOM     14  C   UNL A   1      31.171  27.366  26.459  1.00  0.00     0.030 A 
ATOM     15  C   UNL A   1      33.642  27.434  25.095  1.00  0.00     0.049 A 
ATOM     16  C   UNL A   1      31.656  28.560  25.922  1.00  0.00     0.041 A 
ATOM     17  C   UNL A   1      32.865  28.582  25.244  1.00  0.00     0.123 A 
ATOM     18  F   UNL A   1      33.310  29.738  24.733  1.00  0.00    -0.207 F 
BRANCH   9  19
ATOM     19  C   UNL A   1      32.709  22.706  26.838  1.00  0.00     0.227 C 
ATOM     20  O   UNL A   1      32.766  22.384  28.026  1.00  0.00    -0.285 OA
BRANCH  19  21
ATOM     21  C   UNL A   1      32.676  21.610  25.813  1.00  0.00     0.113 A 
ATOM     22  C   UNL A   1      31.923  20.980  22.145  1.00  0.00     0.044 C 
ATOM     23  C   UNL A   1      32.357  20.799  23.569  1.00  0.00    -0.047 A 
ATOM     24  C   UNL A   1      32.797  19.550  24.003  1.00  0.00     0.023 A 
ATOM     25  C   UNL A   1      32.349  21.859  24.484  1.00  0.00     0.036 A 
ATOM     26  C   UNL A   1      33.161  19.401  25.330  1.00  0.00     0.112 A 
ATOM     27  N   UNL A   1      33.104  20.394  26.241  1.00  0.00    -0.253 NA
ENDBRANCH  19  21
ENDBRANCH   9  19
ENDBRANCH   7   8
ENDBRANCH   4   7
ENDBRANCH   2   3
ENDBRANCH   1   2
BRANCH   1  28
ATOM     28  C   UNL A   1      37.759  19.752  24.887  1.00  0.00     0.023 C 
BRANCH  28  29
ATOM     29  C   UNL A   1      38.863  20.183  25.839  1.00  0.00     0.116 C 
BRANCH  29  30
ATOM     30  N   UNL A   1      40.021  19.312  25.774  1.00  0.00    -0.352 N 
ATOM     31  C   UNL A   1      41.335  19.599  26.045  1.00  0.00     0.251 C 
ATOM     32  H   UNL A   1      39.838  18.386  25.497  1.00  0.00     0.163 HD
ATOM     33  O   UNL A   1      42.203  18.770  25.793  1.00  0.00    -0.269 OA
BRANCH  31  34
ATOM     34  C   UNL A   1      41.715  20.914  26.610  1.00  0.00     0.039 A 
ATOM     35  C   UNL A   1      42.153  21.910  25.732  1.00  0.00     0.014 A 
ATOM     36  C   UNL A   1      41.670  21.164  27.985  1.00  0.00     0.014 A 
ATOM     37  C   UNL A   1      42.499  23.169  26.227  1.00  0.00     0.010 A 
ATOM     38  C   UNL A   1      41.962  22.438  28.471  1.00  0.00     0.010 A 
ATOM     39  C   UNL A   1      42.382  23.451  27.597  1.00  0.00    -0.014 A 
BRANCH  39  40
ATOM     40  C   UNL A   1      42.685  24.808  28.118  1.00  0.00     0.031 A 
ATOM     41  C   UNL A   1      44.086  25.184  28.507  1.00  0.00     0.074 A 
ATOM     42  C   UNL A   1      41.682  25.693  28.275  1.00  0.00     0.049 A 
ATOM     43  N   UNL A   1      44.533  26.322  28.978  1.00  0.00    -0.248 NA
ATOM     44  C   UNL A   1      45.118  24.145  28.369  1.00  0.00     0.031 C 
ATOM     45  C   UNL A   1      40.272  25.439  27.974  1.00  0.00     0.029 A 
ATOM     46  N   UNL A   1      41.699  26.989  28.728  1.00  0.00    -0.354 N 
ATOM     47  C   UNL A   1      45.891  26.134  29.199  1.00  0.00     0.074 A 
ATOM     48  C   UNL A   1      46.188  24.760  28.854  1.00  0.00     0.031 C 
ATOM     49  C   UNL A   1      39.564  26.552  28.223  1.00  0.00     0.029 A 
ATOM     50  C   UNL A   1      40.463  27.586  28.727  1.00  0.00     0.049 A 
ATOM     51  H   UNL A   1      42.518  27.446  29.024  1.00  0.00     0.167 HD
ATOM     52  C   UNL A   1      46.812  27.027  29.634  1.00  0.00     0.031 A 
ATOM     53  C   UNL A   1      40.092  28.828  29.089  1.00  0.00     0.031 A 
ATOM     54  C   UNL A   1      46.524  28.395  29.972  1.00  0.00     0.049 A 
ATOM     55  C   UNL A   1      41.133  29.798  29.569  1.00  0.00     0.074 A 
ATOM     56  C   UNL A   1      47.402  29.389  30.368  1.00  0.00     0.029 A 
ATOM     57  N   UNL A   1      45.259  28.962  29.958  1.00  0.00    -0.354 N 
ATOM     58  N   UNL A   1      42.424  29.623  29.707  1.00  0.00    -0.248 NA
ATOM     59  C   UNL A   1      40.663  31.142  29.933  1.00  0.00     0.031 C 
ATOM     60  C   UNL A   1      46.662  30.547  30.637  1.00  0.00     0.029 A 
ATOM     61  C   UNL A   1      45.329  30.285  30.363  1.00  0.00     0.049 A 
ATOM     62  H   UNL A   1      44.432  28.493  29.700  1.00  0.00     0.167 HD
ATOM     63  C   UNL A   1      42.924  30.839  30.153  1.00  0.00     0.074 A 
ATOM     64  C   UNL A   1      41.800  31.748  30.243  1.00  0.00     0.031 C 
ATOM     65  C   UNL A   1      44.201  31.173  30.462  1.00  0.00     0.031 A 
BRANCH  52  66
ATOM     66  C   UNL A   1      48.228  26.543  29.775  1.00  0.00    -0.014 A 
ATOM     67  C   UNL A   1      48.673  25.933  30.958  1.00  0.00     0.009 A 
ATOM     68  C   UNL A   1      49.120  26.665  28.697  1.00  0.00     0.009 A 
ATOM     69  C   UNL A   1      49.991  25.485  31.073  1.00  0.00     0.001 A 
ATOM     70  C   UNL A   1      50.430  26.193  28.805  1.00  0.00     0.001 A 
ATOM     71  C   UNL A   1      50.866  25.612  29.995  1.00  0.00     0.000 A 
ENDBRANCH  52  66
BRANCH  53  72
ATOM     72  C   UNL A   1      38.668  29.235  28.987  1.00  0.00    -0.014 A 
ATOM     73  C   UNL A   1      37.821  29.139  30.103  1.00  0.00     0.009 A 
ATOM     74  C   UNL A   1      38.149  29.719  27.777  1.00  0.00     0.009 A 
ATOM     75  C   UNL A   1      36.475  29.496  29.999  1.00  0.00     0.001 A 
ATOM     76  C   UNL A   1      36.809  30.098  27.684  1.00  0.00     0.001 A 
ATOM     77  C   UNL A   1      35.971  29.980  28.793  1.00  0.00     0.000 A 
ENDBRANCH  53  72
BRANCH  65  78
ATOM     78  C   UNL A   1      44.445  32.586  30.909  1.00  0.00    -0.014 A 
ATOM     79  C   UNL A   1      44.701  33.607  29.980  1.00  0.00     0.009 A 
ATOM     80  C   UNL A   1      44.403  32.902  32.276  1.00  0.00     0.009 A 
ATOM     81  C   UNL A   1      44.949  34.911  30.415  1.00  0.00     0.001 A 
ATOM     82  C   UNL A   1      44.625  34.212  32.706  1.00  0.00     0.001 A 
ATOM     83  C   UNL A   1      44.908  35.212  31.776  1.00  0.00     0.000 A 
ENDBRANCH  65  78
ENDBRANCH  39  40
ENDBRANCH  31  34
ENDBRANCH  29  30
ENDBRANCH  28  29
ENDBRANCH   1  28
TORSDOF 14
ENDMDL
