MODEL 1
REMARK VINA RESULT:      -9.1      0.000      0.000
REMARK SMILES O=C(NCCCCNC(=O)c1ccc(-c2c3nc(c(-c4ccccc4)c4ccc([nH]4)c(-c4ccccc4)c4nc(c(-c5ccccc5)c5ccc2[nH]5)C=C4)C=C3)cc1)c1ccc(/C=C2\SC(=S)N(NC(=O)c3ccc(Cl)cc3)C2=O)cc1
REMARK SMILES IDX 5 1 4 2 3 3 1 4 2 5 59 7 60 8 82 9 61 10 81 11 62 12 63 13
REMARK SMILES IDX 64 14 65 15 79 16 66 17 68 18 80 19 67 20 69 21 70 22 71 24
REMARK SMILES IDX 72 25 73 26 78 27 74 28 77 29 75 30 76 31 6 32 7 33 8 34
REMARK SMILES IDX 9 35 10 37 11 38 12 39 58 40 13 41 57 42 14 43 15 44 16 45
REMARK SMILES IDX 51 46 17 47 56 48 50 49 52 50 18 51 55 52 49 53 48 54 19 56
REMARK SMILES IDX 41 57 26 58 40 59 27 60 30 61 39 62 53 63 28 64 29 65 38 67
REMARK SMILES IDX 54 68 31 69 20 70 21 71 25 72 22 73 24 74 23 75 42 76 43 77
REMARK SMILES IDX 47 78 44 79 46 80 45 81 32 82 33 83 37 84 34 85 36 86 35 87
REMARK H PARENT 3 6 69 23 8 36 52 55 30 66
REMARK Flexibility Score: inf
ROOT
ATOM      1  C   UNL A   1      43.799  23.316  24.619  1.00  0.00     0.023 C 
ENDROOT
BRANCH   1   2
ATOM      2  C   UNL A   1      42.655  23.914  25.432  1.00  0.00     0.116 C 
BRANCH   2   3
ATOM      3  N   UNL A   1      41.654  22.930  25.822  1.00  0.00    -0.352 N 
ATOM      4  O   UNL A   1      39.999  22.049  27.095  1.00  0.00    -0.269 OA
ATOM      5  C   UNL A   1      40.709  23.008  26.819  1.00  0.00     0.251 C 
ATOM      6  H   UNL A   1      41.654  22.095  25.300  1.00  0.00     0.163 HD
BRANCH   5   7
ATOM      7  C   UNL A   1      40.599  24.260  27.591  1.00  0.00     0.039 A 
ATOM      8  C   UNL A   1      39.473  25.073  27.464  1.00  0.00     0.014 A 
ATOM      9  C   UNL A   1      41.679  24.666  28.372  1.00  0.00     0.014 A 
ATOM     10  C   UNL A   1      39.505  26.369  27.975  1.00  0.00     0.009 A 
ATOM     11  C   UNL A   1      41.690  25.954  28.912  1.00  0.00     0.009 A 
ATOM     12  C   UNL A   1      40.646  26.849  28.640  1.00  0.00    -0.024 A 
BRANCH  12  13
ATOM     13  C   UNL A   1      40.663  28.283  28.976  1.00  0.00     0.029 C 
ATOM     14  C   UNL A   1      40.412  28.893  30.144  1.00  0.00     0.082 C 
ATOM     15  S   UNL A   1      39.840  28.248  31.632  1.00  0.00    -0.052 SA
ATOM     16  C   UNL A   1      40.588  30.364  30.280  1.00  0.00     0.285 C 
ATOM     17  C   UNL A   1      39.437  29.836  32.268  1.00  0.00     0.168 C 
ATOM     18  N   UNL A   1      39.855  30.800  31.368  1.00  0.00    -0.198 N 
ATOM     19  O   UNL A   1      41.314  31.030  29.544  1.00  0.00    -0.266 OA
ATOM     20  S   UNL A   1      38.687  30.074  33.738  1.00  0.00    -0.050 S 
BRANCH  18  21
ATOM     21  N   UNL A   1      39.681  32.162  31.658  1.00  0.00    -0.255 N 
ATOM     22  C   UNL A   1      38.572  32.930  31.368  1.00  0.00     0.270 C 
ATOM     23  H   UNL A   1      40.426  32.615  32.113  1.00  0.00     0.192 HD
ATOM     24  O   UNL A   1      38.489  34.080  31.791  1.00  0.00    -0.267 OA
BRANCH  22  25
ATOM     25  C   UNL A   1      37.506  32.424  30.479  1.00  0.00     0.041 A 
ATOM     26  C   UNL A   1      36.222  32.307  31.027  1.00  0.00     0.015 A 
ATOM     27  C   UNL A   1      37.733  32.122  29.132  1.00  0.00     0.015 A 
ATOM     28  C   UNL A   1      35.146  31.953  30.212  1.00  0.00     0.021 A 
ATOM     29  C   UNL A   1      36.650  31.770  28.318  1.00  0.00     0.021 A 
ATOM     30  C   UNL A   1      35.363  31.702  28.859  1.00  0.00     0.041 A 
ATOM     31  Cl  UNL A   1      34.030  31.316  27.842  1.00  0.00    -0.084 Cl
ENDBRANCH  22  25
ENDBRANCH  18  21
ENDBRANCH  12  13
ENDBRANCH   5   7
ENDBRANCH   2   3
ENDBRANCH   1   2
BRANCH   1  32
ATOM     32  C   UNL A   1      44.870  22.588  25.428  1.00  0.00     0.023 C 
BRANCH  32  33
ATOM     33  C   UNL A   1      45.976  23.467  26.001  1.00  0.00     0.116 C 
BRANCH  33  34
ATOM     34  N   UNL A   1      46.556  24.379  25.027  1.00  0.00    -0.352 N 
ATOM     35  C   UNL A   1      46.608  25.753  25.044  1.00  0.00     0.251 C 
ATOM     36  H   UNL A   1      46.971  23.950  24.243  1.00  0.00     0.163 HD
ATOM     37  O   UNL A   1      47.060  26.363  24.079  1.00  0.00    -0.269 OA
BRANCH  35  38
ATOM     38  C   UNL A   1      46.080  26.500  26.206  1.00  0.00     0.039 A 
ATOM     39  C   UNL A   1      46.972  26.912  27.201  1.00  0.00     0.014 A 
ATOM     40  C   UNL A   1      44.722  26.811  26.308  1.00  0.00     0.014 A 
ATOM     41  C   UNL A   1      46.516  27.708  28.255  1.00  0.00     0.010 A 
ATOM     42  C   UNL A   1      44.281  27.656  27.323  1.00  0.00     0.010 A 
ATOM     43  C   UNL A   1      45.175  28.121  28.300  1.00  0.00    -0.014 A 
BRANCH  43  44
ATOM     44  C   UNL A   1      44.690  29.059  29.344  1.00  0.00     0.031 A 
ATOM     45  C   UNL A   1      44.259  28.541  30.688  1.00  0.00     0.074 A 
ATOM     46  C   UNL A   1      44.551  30.368  29.053  1.00  0.00     0.049 A 
ATOM     47  N   UNL A   1      43.714  29.189  31.686  1.00  0.00    -0.248 NA
ATOM     48  C   UNL A   1      44.438  27.100  30.931  1.00  0.00     0.031 C 
ATOM     49  C   UNL A   1      44.889  30.995  27.773  1.00  0.00     0.029 A 
ATOM     50  N   UNL A   1      44.070  31.404  29.813  1.00  0.00    -0.354 N 
ATOM     51  C   UNL A   1      43.456  28.234  32.660  1.00  0.00     0.074 A 
ATOM     52  C   UNL A   1      43.879  26.958  32.125  1.00  0.00     0.031 C 
ATOM     53  C   UNL A   1      44.618  32.309  27.842  1.00  0.00     0.029 A 
ATOM     54  C   UNL A   1      44.056  32.610  29.154  1.00  0.00     0.049 A 
ATOM     55  H   UNL A   1      43.763  31.294  30.742  1.00  0.00     0.167 HD
ATOM     56  C   UNL A   1      42.924  28.405  33.893  1.00  0.00     0.031 A 
ATOM     57  C   UNL A   1      43.627  33.821  29.557  1.00  0.00     0.031 A 
ATOM     58  C   UNL A   1      42.534  29.675  34.444  1.00  0.00     0.049 A 
ATOM     59  C   UNL A   1      43.060  33.985  30.938  1.00  0.00     0.074 A 
ATOM     60  C   UNL A   1      42.068  29.954  35.717  1.00  0.00     0.029 A 
ATOM     61  N   UNL A   1      42.568  30.875  33.756  1.00  0.00    -0.354 N 
ATOM     62  N   UNL A   1      42.892  33.082  31.873  1.00  0.00    -0.248 NA
ATOM     63  C   UNL A   1      42.628  35.337  31.320  1.00  0.00     0.031 C 
ATOM     64  C   UNL A   1      41.784  31.322  35.787  1.00  0.00     0.029 A 
ATOM     65  C   UNL A   1      42.110  31.897  34.570  1.00  0.00     0.049 A 
ATOM     66  H   UNL A   1      42.873  30.986  32.826  1.00  0.00     0.167 HD
ATOM     67  C   UNL A   1      42.361  33.762  32.961  1.00  0.00     0.074 A 
ATOM     68  C   UNL A   1      42.242  35.152  32.574  1.00  0.00     0.031 C 
ATOM     69  C   UNL A   1      42.004  33.275  34.174  1.00  0.00     0.031 A 
BRANCH  56  70
ATOM     70  C   UNL A   1      42.724  27.178  34.735  1.00  0.00    -0.014 A 
ATOM     71  C   UNL A   1      41.497  26.498  34.750  1.00  0.00     0.009 A 
ATOM     72  C   UNL A   1      43.794  26.671  35.489  1.00  0.00     0.009 A 
ATOM     73  C   UNL A   1      41.336  25.350  35.528  1.00  0.00     0.001 A 
ATOM     74  C   UNL A   1      43.637  25.511  36.248  1.00  0.00     0.001 A 
ATOM     75  C   UNL A   1      42.406  24.855  36.273  1.00  0.00     0.000 A 
ENDBRANCH  56  70
BRANCH  57  76
ATOM     76  C   UNL A   1      43.727  34.987  28.644  1.00  0.00    -0.014 A 
ATOM     77  C   UNL A   1      42.659  35.314  27.794  1.00  0.00     0.009 A 
ATOM     78  C   UNL A   1      44.892  35.767  28.605  1.00  0.00     0.009 A 
ATOM     79  C   UNL A   1      42.767  36.385  26.904  1.00  0.00     0.001 A 
ATOM     80  C   UNL A   1      44.987  36.851  27.730  1.00  0.00     0.001 A 
ATOM     81  C   UNL A   1      43.929  37.153  26.874  1.00  0.00     0.000 A 
ENDBRANCH  57  76
BRANCH  69  82
ATOM     82  C   UNL A   1      41.485  34.258  35.180  1.00  0.00    -0.014 A 
ATOM     83  C   UNL A   1      40.120  34.574  35.247  1.00  0.00     0.009 A 
ATOM     84  C   UNL A   1      42.369  34.847  36.098  1.00  0.00     0.009 A 
ATOM     85  C   UNL A   1      39.654  35.481  36.201  1.00  0.00     0.001 A 
ATOM     86  C   UNL A   1      41.897  35.736  37.063  1.00  0.00     0.001 A 
ATOM     87  C   UNL A   1      40.541  36.057  37.109  1.00  0.00     0.000 A 
ENDBRANCH  69  82
ENDBRANCH  43  44
ENDBRANCH  35  38
ENDBRANCH  33  34
ENDBRANCH  32  33
ENDBRANCH   1  32
TORSDOF 14
ENDMDL
MODEL 2
REMARK VINA RESULT:      -8.7      3.618      7.558
REMARK SMILES O=C(NCCCCNC(=O)c1ccc(-c2c3nc(c(-c4ccccc4)c4ccc([nH]4)c(-c4ccccc4)c4nc(c(-c5ccccc5)c5ccc2[nH]5)C=C4)C=C3)cc1)c1ccc(/C=C2\SC(=S)N(NC(=O)c3ccc(Cl)cc3)C2=O)cc1
REMARK SMILES IDX 5 1 4 2 3 3 1 4 2 5 59 7 60 8 82 9 61 10 81 11 62 12 63 13
REMARK SMILES IDX 64 14 65 15 79 16 66 17 68 18 80 19 67 20 69 21 70 22 71 24
REMARK SMILES IDX 72 25 73 26 78 27 74 28 77 29 75 30 76 31 6 32 7 33 8 34
REMARK SMILES IDX 9 35 10 37 11 38 12 39 58 40 13 41 57 42 14 43 15 44 16 45
REMARK SMILES IDX 51 46 17 47 56 48 50 49 52 50 18 51 55 52 49 53 48 54 19 56
REMARK SMILES IDX 41 57 26 58 40 59 27 60 30 61 39 62 53 63 28 64 29 65 38 67
REMARK SMILES IDX 54 68 31 69 20 70 21 71 25 72 22 73 24 74 23 75 42 76 43 77
REMARK SMILES IDX 47 78 44 79 46 80 45 81 32 82 33 83 37 84 34 85 36 86 35 87
REMARK H PARENT 3 6 69 23 8 36 52 55 30 66
REMARK Flexibility Score: inf
ROOT
ATOM      1  C   UNL A   1      40.518  22.175  27.412  1.00  0.00     0.023 C 
ENDROOT
BRANCH   1   2
ATOM      2  C   UNL A   1      39.897  23.529  27.080  1.00  0.00     0.116 C 
BRANCH   2   3
ATOM      3  N   UNL A   1      40.629  24.257  26.052  1.00  0.00    -0.352 N 
ATOM      4  O   UNL A   1      41.442  26.086  24.988  1.00  0.00    -0.269 OA
ATOM      5  C   UNL A   1      40.900  25.604  25.976  1.00  0.00     0.251 C 
ATOM      6  H   UNL A   1      40.976  23.711  25.310  1.00  0.00     0.163 HD
BRANCH   5   7
ATOM      7  C   UNL A   1      40.478  26.474  27.090  1.00  0.00     0.039 A 
ATOM      8  C   UNL A   1      40.062  25.920  28.301  1.00  0.00     0.014 A 
ATOM      9  C   UNL A   1      40.407  27.849  26.881  1.00  0.00     0.014 A 
ATOM     10  C   UNL A   1      39.409  26.726  29.231  1.00  0.00     0.009 A 
ATOM     11  C   UNL A   1      39.784  28.657  27.835  1.00  0.00     0.009 A 
ATOM     12  C   UNL A   1      39.196  28.090  28.975  1.00  0.00    -0.024 A 
BRANCH  12  13
ATOM     13  C   UNL A   1      38.336  28.818  29.923  1.00  0.00     0.029 C 
ATOM     14  C   UNL A   1      37.232  29.546  29.695  1.00  0.00     0.082 C 
ATOM     15  S   UNL A   1      36.502  30.018  28.211  1.00  0.00    -0.052 SA
ATOM     16  C   UNL A   1      36.456  30.115  30.829  1.00  0.00     0.285 C 
ATOM     17  C   UNL A   1      35.503  31.237  28.989  1.00  0.00     0.168 C 
ATOM     18  N   UNL A   1      35.684  31.160  30.358  1.00  0.00    -0.198 N 
ATOM     19  O   UNL A   1      36.499  29.664  31.972  1.00  0.00    -0.266 OA
ATOM     20  S   UNL A   1      34.504  32.277  28.152  1.00  0.00    -0.050 S 
BRANCH  18  21
ATOM     21  N   UNL A   1      34.968  32.009  31.216  1.00  0.00    -0.255 N 
ATOM     22  C   UNL A   1      35.403  33.211  31.736  1.00  0.00     0.270 C 
ATOM     23  H   UNL A   1      34.064  31.716  31.473  1.00  0.00     0.192 HD
ATOM     24  O   UNL A   1      34.631  33.924  32.371  1.00  0.00    -0.267 OA
BRANCH  22  25
ATOM     25  C   UNL A   1      36.815  33.625  31.619  1.00  0.00     0.041 A 
ATOM     26  C   UNL A   1      37.639  33.401  32.731  1.00  0.00     0.015 A 
ATOM     27  C   UNL A   1      37.343  34.168  30.443  1.00  0.00     0.015 A 
ATOM     28  C   UNL A   1      39.008  33.656  32.646  1.00  0.00     0.021 A 
ATOM     29  C   UNL A   1      38.717  34.419  30.362  1.00  0.00     0.021 A 
ATOM     30  C   UNL A   1      39.543  34.149  31.457  1.00  0.00     0.041 A 
ATOM     31  Cl  UNL A   1      41.238  34.414  31.334  1.00  0.00    -0.084 Cl
ENDBRANCH  22  25
ENDBRANCH  18  21
ENDBRANCH  12  13
ENDBRANCH   5   7
ENDBRANCH   2   3
ENDBRANCH   1   2
BRANCH   1  32
ATOM     32  C   UNL A   1      41.191  21.458  26.245  1.00  0.00     0.023 C 
BRANCH  32  33
ATOM     33  C   UNL A   1      42.328  20.513  26.617  1.00  0.00     0.116 C 
BRANCH  33  34
ATOM     34  N   UNL A   1      43.164  20.137  25.488  1.00  0.00    -0.352 N 
ATOM     35  C   UNL A   1      44.136  20.864  24.843  1.00  0.00     0.251 C 
ATOM     36  H   UNL A   1      43.012  19.230  25.136  1.00  0.00     0.163 HD
ATOM     37  O   UNL A   1      44.679  20.412  23.839  1.00  0.00    -0.269 OA
BRANCH  35  38
ATOM     38  C   UNL A   1      44.499  22.213  25.332  1.00  0.00     0.039 A 
ATOM     39  C   UNL A   1      45.340  22.320  26.443  1.00  0.00     0.014 A 
ATOM     40  C   UNL A   1      44.032  23.363  24.691  1.00  0.00     0.014 A 
ATOM     41  C   UNL A   1      45.782  23.578  26.861  1.00  0.00     0.010 A 
ATOM     42  C   UNL A   1      44.523  24.611  25.068  1.00  0.00     0.010 A 
ATOM     43  C   UNL A   1      45.410  24.730  26.150  1.00  0.00    -0.014 A 
BRANCH  43  44
ATOM     44  C   UNL A   1      45.954  26.065  26.501  1.00  0.00     0.031 A 
ATOM     45  C   UNL A   1      47.330  26.466  26.049  1.00  0.00     0.074 A 
ATOM     46  C   UNL A   1      45.246  26.884  27.305  1.00  0.00     0.049 A 
ATOM     47  N   UNL A   1      48.013  27.544  26.341  1.00  0.00    -0.248 NA
ATOM     48  C   UNL A   1      48.043  25.519  25.176  1.00  0.00     0.031 C 
ATOM     49  C   UNL A   1      43.918  26.599  27.852  1.00  0.00     0.029 A 
ATOM     50  N   UNL A   1      45.557  28.119  27.816  1.00  0.00    -0.354 N 
ATOM     51  C   UNL A   1      49.244  27.391  25.718  1.00  0.00     0.074 A 
ATOM     52  C   UNL A   1      49.225  26.106  25.053  1.00  0.00     0.031 C 
ATOM     53  C   UNL A   1      43.523  27.636  28.610  1.00  0.00     0.029 A 
ATOM     54  C   UNL A   1      44.581  28.639  28.631  1.00  0.00     0.049 A 
ATOM     55  H   UNL A   1      46.400  28.588  27.618  1.00  0.00     0.167 HD
ATOM     56  C   UNL A   1      50.293  28.247  25.692  1.00  0.00     0.031 A 
ATOM     57  C   UNL A   1      44.546  29.790  29.329  1.00  0.00     0.031 A 
ATOM     58  C   UNL A   1      50.304  29.540  26.321  1.00  0.00     0.049 A 
ATOM     59  C   UNL A   1      45.715  30.731  29.265  1.00  0.00     0.074 A 
ATOM     60  C   UNL A   1      51.290  30.511  26.274  1.00  0.00     0.029 A 
ATOM     61  N   UNL A   1      49.283  30.042  27.109  1.00  0.00    -0.354 N 
ATOM     62  N   UNL A   1      46.843  30.602  28.609  1.00  0.00    -0.248 NA
ATOM     63  C   UNL A   1      45.604  31.978  30.035  1.00  0.00     0.031 C 
ATOM     64  C   UNL A   1      50.878  31.589  27.064  1.00  0.00     0.029 A 
ATOM     65  C   UNL A   1      49.622  31.302  27.572  1.00  0.00     0.049 A 
ATOM     66  H   UNL A   1      48.440  29.574  27.308  1.00  0.00     0.167 HD
ATOM     67  C   UNL A   1      47.562  31.762  28.866  1.00  0.00     0.074 A 
ATOM     68  C   UNL A   1      46.742  32.585  29.730  1.00  0.00     0.031 C 
ATOM     69  C   UNL A   1      48.794  32.111  28.424  1.00  0.00     0.031 A 
BRANCH  56  70
ATOM     70  C   UNL A   1      51.527  27.806  24.960  1.00  0.00    -0.014 A 
ATOM     71  C   UNL A   1      52.543  27.093  25.612  1.00  0.00     0.009 A 
ATOM     72  C   UNL A   1      51.652  28.070  23.587  1.00  0.00     0.009 A 
ATOM     73  C   UNL A   1      53.677  26.678  24.910  1.00  0.00     0.001 A 
ATOM     74  C   UNL A   1      52.775  27.635  22.883  1.00  0.00     0.001 A 
ATOM     75  C   UNL A   1      53.790  26.946  23.546  1.00  0.00     0.000 A 
ENDBRANCH  56  70
BRANCH  57  76
ATOM     76  C   UNL A   1      43.353  30.131  30.144  1.00  0.00    -0.014 A 
ATOM     77  C   UNL A   1      43.306  29.794  31.505  1.00  0.00     0.009 A 
ATOM     78  C   UNL A   1      42.252  30.779  29.564  1.00  0.00     0.009 A 
ATOM     79  C   UNL A   1      42.168  30.074  32.264  1.00  0.00     0.001 A 
ATOM     80  C   UNL A   1      41.125  31.079  30.332  1.00  0.00     0.001 A 
ATOM     81  C   UNL A   1      41.080  30.719  31.678  1.00  0.00     0.000 A 
ENDBRANCH  57  76
BRANCH  69  82
ATOM     82  C   UNL A   1      49.313  33.456  28.838  1.00  0.00    -0.014 A 
ATOM     83  C   UNL A   1      50.101  33.606  29.989  1.00  0.00     0.009 A 
ATOM     84  C   UNL A   1      49.042  34.581  28.043  1.00  0.00     0.009 A 
ATOM     85  C   UNL A   1      50.587  34.864  30.350  1.00  0.00     0.001 A 
ATOM     86  C   UNL A   1      49.547  35.832  28.395  1.00  0.00     0.001 A 
ATOM     87  C   UNL A   1      50.313  35.974  29.551  1.00  0.00     0.000 A 
ENDBRANCH  69  82
ENDBRANCH  43  44
ENDBRANCH  35  38
ENDBRANCH  33  34
ENDBRANCH  32  33
ENDBRANCH   1  32
TORSDOF 14
ENDMDL
MODEL 3
REMARK VINA RESULT:      -8.7      0.779      5.730
REMARK SMILES O=C(NCCCCNC(=O)c1ccc(-c2c3nc(c(-c4ccccc4)c4ccc([nH]4)c(-c4ccccc4)c4nc(c(-c5ccccc5)c5ccc2[nH]5)C=C4)C=C3)cc1)c1ccc(/C=C2\SC(=S)N(NC(=O)c3ccc(Cl)cc3)C2=O)cc1
REMARK SMILES IDX 5 1 4 2 3 3 1 4 2 5 59 7 60 8 82 9 61 10 81 11 62 12 63 13
REMARK SMILES IDX 64 14 65 15 79 16 66 17 68 18 80 19 67 20 69 21 70 22 71 24
REMARK SMILES IDX 72 25 73 26 78 27 74 28 77 29 75 30 76 31 6 32 7 33 8 34
REMARK SMILES IDX 9 35 10 37 11 38 12 39 58 40 13 41 57 42 14 43 15 44 16 45
REMARK SMILES IDX 51 46 17 47 56 48 50 49 52 50 18 51 55 52 49 53 48 54 19 56
REMARK SMILES IDX 41 57 26 58 40 59 27 60 30 61 39 62 53 63 28 64 29 65 38 67
REMARK SMILES IDX 54 68 31 69 20 70 21 71 25 72 22 73 24 74 23 75 42 76 43 77
REMARK SMILES IDX 47 78 44 79 46 80 45 81 32 82 33 83 37 84 34 85 36 86 35 87
REMARK H PARENT 3 6 69 23 8 36 52 55 30 66
REMARK Flexibility Score: inf
ROOT
ATOM      1  C   UNL A   1      43.033  23.593  25.206  1.00  0.00     0.023 C 
ENDROOT
BRANCH   1   2
ATOM      2  C   UNL A   1      42.328  23.813  26.541  1.00  0.00     0.116 C 
BRANCH   2   3
ATOM      3  N   UNL A   1      40.888  23.602  26.469  1.00  0.00    -0.352 N 
ATOM      4  O   UNL A   1      38.703  24.073  26.842  1.00  0.00    -0.269 OA
ATOM      5  C   UNL A   1      39.872  24.437  26.873  1.00  0.00     0.251 C 
ATOM      6  H   UNL A   1      40.603  22.744  26.078  1.00  0.00     0.163 HD
BRANCH   5   7
ATOM      7  C   UNL A   1      40.221  25.771  27.397  1.00  0.00     0.039 A 
ATOM      8  C   UNL A   1      40.286  25.996  28.772  1.00  0.00     0.014 A 
ATOM      9  C   UNL A   1      40.386  26.824  26.500  1.00  0.00     0.014 A 
ATOM     10  C   UNL A   1      40.339  27.304  29.248  1.00  0.00     0.009 A 
ATOM     11  C   UNL A   1      40.474  28.131  26.986  1.00  0.00     0.009 A 
ATOM     12  C   UNL A   1      40.358  28.391  28.359  1.00  0.00    -0.024 A 
BRANCH  12  13
ATOM     13  C   UNL A   1      40.221  29.734  28.948  1.00  0.00     0.029 C 
ATOM     14  C   UNL A   1      39.980  30.092  30.219  1.00  0.00     0.082 C 
ATOM     15  S   UNL A   1      39.599  29.127  31.590  1.00  0.00    -0.052 SA
ATOM     16  C   UNL A   1      39.983  31.526  30.612  1.00  0.00     0.285 C 
ATOM     17  C   UNL A   1      39.050  30.511  32.523  1.00  0.00     0.168 C 
ATOM     18  N   UNL A   1      39.280  31.663  31.794  1.00  0.00    -0.198 N 
ATOM     19  O   UNL A   1      40.567  32.402  29.975  1.00  0.00    -0.266 OA
ATOM     20  S   UNL A   1      38.382  30.386  34.045  1.00  0.00    -0.050 S 
BRANCH  18  21
ATOM     21  N   UNL A   1      38.960  32.918  32.335  1.00  0.00    -0.255 N 
ATOM     22  C   UNL A   1      37.809  33.644  32.106  1.00  0.00     0.270 C 
ATOM     23  H   UNL A   1      39.626  33.323  32.937  1.00  0.00     0.192 HD
ATOM     24  O   UNL A   1      37.589  34.671  32.743  1.00  0.00    -0.267 OA
BRANCH  22  25
ATOM     25  C   UNL A   1      36.862  33.255  31.042  1.00  0.00     0.041 A 
ATOM     26  C   UNL A   1      37.246  33.521  29.720  1.00  0.00     0.015 A 
ATOM     27  C   UNL A   1      35.656  32.600  31.312  1.00  0.00     0.015 A 
ATOM     28  C   UNL A   1      36.456  33.071  28.662  1.00  0.00     0.021 A 
ATOM     29  C   UNL A   1      34.869  32.147  30.247  1.00  0.00     0.021 A 
ATOM     30  C   UNL A   1      35.280  32.372  28.930  1.00  0.00     0.041 A 
ATOM     31  Cl  UNL A   1      34.333  31.772  27.626  1.00  0.00    -0.084 Cl
ENDBRANCH  22  25
ENDBRANCH  18  21
ENDBRANCH  12  13
ENDBRANCH   5   7
ENDBRANCH   2   3
ENDBRANCH   1   2
BRANCH   1  32
ATOM     32  C   UNL A   1      44.286  22.721  25.262  1.00  0.00     0.023 C 
BRANCH  32  33
ATOM     33  C   UNL A   1      45.506  23.359  25.916  1.00  0.00     0.116 C 
BRANCH  33  34
ATOM     34  N   UNL A   1      46.216  24.283  25.045  1.00  0.00    -0.352 N 
ATOM     35  C   UNL A   1      46.328  25.650  25.132  1.00  0.00     0.251 C 
ATOM     36  H   UNL A   1      46.683  23.868  24.283  1.00  0.00     0.163 HD
ATOM     37  O   UNL A   1      46.897  26.278  24.243  1.00  0.00    -0.269 OA
BRANCH  35  38
ATOM     38  C   UNL A   1      45.727  26.371  26.274  1.00  0.00     0.039 A 
ATOM     39  C   UNL A   1      46.554  26.760  27.333  1.00  0.00     0.014 A 
ATOM     40  C   UNL A   1      44.365  26.681  26.297  1.00  0.00     0.014 A 
ATOM     41  C   UNL A   1      46.031  27.533  28.373  1.00  0.00     0.010 A 
ATOM     42  C   UNL A   1      43.860  27.504  27.301  1.00  0.00     0.010 A 
ATOM     43  C   UNL A   1      44.690  27.946  28.343  1.00  0.00    -0.014 A 
BRANCH  43  44
ATOM     44  C   UNL A   1      44.138  28.860  29.374  1.00  0.00     0.031 A 
ATOM     45  C   UNL A   1      44.071  30.340  29.118  1.00  0.00     0.074 A 
ATOM     46  C   UNL A   1      43.782  28.370  30.578  1.00  0.00     0.049 A 
ATOM     47  N   UNL A   1      43.718  31.302  29.932  1.00  0.00    -0.248 NA
ATOM     48  C   UNL A   1      44.480  30.800  27.781  1.00  0.00     0.031 C 
ATOM     49  C   UNL A   1      43.840  26.961  30.974  1.00  0.00     0.029 A 
ATOM     50  N   UNL A   1      43.315  29.010  31.699  1.00  0.00    -0.354 N 
ATOM     51  C   UNL A   1      43.893  32.481  29.220  1.00  0.00     0.074 A 
ATOM     52  C   UNL A   1      44.407  32.116  27.917  1.00  0.00     0.031 C 
ATOM     53  C   UNL A   1      43.412  26.842  32.242  1.00  0.00     0.029 A 
ATOM     54  C   UNL A   1      43.083  28.166  32.759  1.00  0.00     0.049 A 
ATOM     55  H   UNL A   1      43.162  29.982  31.740  1.00  0.00     0.167 HD
ATOM     56  C   UNL A   1      43.639  33.752  29.610  1.00  0.00     0.031 A 
ATOM     57  C   UNL A   1      42.665  28.430  34.011  1.00  0.00     0.031 A 
ATOM     58  C   UNL A   1      43.094  34.118  30.890  1.00  0.00     0.049 A 
ATOM     59  C   UNL A   1      42.371  29.848  34.410  1.00  0.00     0.074 A 
ATOM     60  C   UNL A   1      42.722  35.373  31.340  1.00  0.00     0.029 A 
ATOM     61  N   UNL A   1      42.843  33.230  31.922  1.00  0.00    -0.354 N 
ATOM     62  N   UNL A   1      42.471  30.944  33.698  1.00  0.00    -0.248 NA
ATOM     63  C   UNL A   1      41.900  30.064  35.786  1.00  0.00     0.031 C 
ATOM     64  C   UNL A   1      42.278  35.249  32.660  1.00  0.00     0.029 A 
ATOM     65  C   UNL A   1      42.340  33.912  33.017  1.00  0.00     0.049 A 
ATOM     66  H   UNL A   1      42.998  32.258  31.882  1.00  0.00     0.167 HD
ATOM     67  C   UNL A   1      42.052  31.973  34.530  1.00  0.00     0.074 A 
ATOM     68  C   UNL A   1      41.688  31.372  35.796  1.00  0.00     0.031 C 
ATOM     69  C   UNL A   1      41.976  33.300  34.266  1.00  0.00     0.031 A 
BRANCH  56  70
ATOM     70  C   UNL A   1      43.956  34.850  28.638  1.00  0.00    -0.014 A 
ATOM     71  C   UNL A   1      43.005  35.293  27.706  1.00  0.00     0.009 A 
ATOM     72  C   UNL A   1      45.209  35.481  28.685  1.00  0.00     0.009 A 
ATOM     73  C   UNL A   1      43.313  36.327  26.820  1.00  0.00     0.001 A 
ATOM     74  C   UNL A   1      45.507  36.529  27.813  1.00  0.00     0.001 A 
ATOM     75  C   UNL A   1      44.562  36.946  26.876  1.00  0.00     0.000 A 
ENDBRANCH  56  70
BRANCH  57  76
ATOM     76  C   UNL A   1      42.484  27.324  34.984  1.00  0.00    -0.014 A 
ATOM     77  C   UNL A   1      43.497  27.021  35.906  1.00  0.00     0.009 A 
ATOM     78  C   UNL A   1      41.309  26.558  34.986  1.00  0.00     0.009 A 
ATOM     79  C   UNL A   1      43.348  25.954  36.795  1.00  0.00     0.001 A 
ATOM     80  C   UNL A   1      41.154  25.506  35.891  1.00  0.00     0.001 A 
ATOM     81  C   UNL A   1      42.176  25.199  36.787  1.00  0.00     0.000 A 
ENDBRANCH  57  76
BRANCH  69  82
ATOM     82  C   UNL A   1      41.446  34.185  35.355  1.00  0.00    -0.014 A 
ATOM     83  C   UNL A   1      40.074  34.452  35.468  1.00  0.00     0.009 A 
ATOM     84  C   UNL A   1      42.329  34.727  36.301  1.00  0.00     0.009 A 
ATOM     85  C   UNL A   1      39.599  35.267  36.498  1.00  0.00     0.001 A 
ATOM     86  C   UNL A   1      41.849  35.522  37.341  1.00  0.00     0.001 A 
ATOM     87  C   UNL A   1      40.485  35.797  37.435  1.00  0.00     0.000 A 
ENDBRANCH  69  82
ENDBRANCH  43  44
ENDBRANCH  35  38
ENDBRANCH  33  34
ENDBRANCH  32  33
ENDBRANCH   1  32
TORSDOF 14
ENDMDL
