MODEL 1
REMARK VINA RESULT:     -11.9      0.000      0.000
REMARK SMILES O=C(C[C@@H](C(=O)N(c1ccccc1)c1ccccc1)[NH+]1CCOCC1)NCCCCNC(=O)c1ccc(-c2c3nc(c(-c4ccccc4)c4ccc([nH]4)c(-c4ccccc4)c4nc(c(-c5ccccc5)c5ccc2[nH]5)C=C4)C=C3)cc1
REMARK SMILES IDX 28 1 27 2 26 3 1 4 2 5 3 7 4 8 5 9 6 10 7 11 8 12 9 13 13 14
REMARK SMILES IDX 10 15 12 16 11 17 14 18 15 19 19 20 16 21 18 22 17 23 20 24
REMARK SMILES IDX 21 25 25 26 22 28 24 29 23 30 29 31 30 32 31 33 32 34 33 36
REMARK SMILES IDX 34 37 35 38 81 39 36 40 80 41 37 42 38 43 39 44 74 45 40 46
REMARK SMILES IDX 79 47 73 48 75 49 41 50 78 51 72 52 71 53 42 55 64 56 49 57
REMARK SMILES IDX 63 58 50 59 53 60 62 61 76 62 51 63 52 64 61 66 77 67 54 68
REMARK SMILES IDX 43 69 44 70 48 71 45 72 47 73 46 74 65 75 66 76 70 77 67 78
REMARK SMILES IDX 69 79 68 80 55 81 56 82 60 83 57 84 59 85 58 86
REMARK H PARENT 26 6 20 27 31 35 75 54 53 65
REMARK Flexibility Score: inf
ROOT
ATOM      1  C   UNL A   1      35.702  21.271  25.574  1.00  0.00     0.023 C 
ENDROOT
BRANCH   1   2
ATOM      2  C   UNL A   1      35.846  22.797  25.598  1.00  0.00     0.116 C 
BRANCH   2   3
ATOM      3  N   UNL A   1      34.873  23.548  24.808  1.00  0.00    -0.356 N 
ATOM      4  O   UNL A   1      35.971  23.289  22.799  1.00  0.00    -0.275 OA
ATOM      5  C   UNL A   1      34.967  23.619  23.424  1.00  0.00     0.226 C 
ATOM      6  H   UNL A   1      34.136  24.014  25.266  1.00  0.00     0.163 HD
BRANCH   5   7
ATOM      7  C   UNL A   1      33.705  24.065  22.685  1.00  0.00     0.175 C 
BRANCH   7   8
ATOM      8  C   UNL A   1      32.514  24.373  23.634  1.00  0.00     0.284 C 
BRANCH   8   9
ATOM      9  C   UNL A   1      31.899  25.666  23.112  1.00  0.00     0.290 C 
ATOM     10  O   UNL A   1      31.838  25.762  21.871  1.00  0.00    -0.267 OA
ATOM     11  N   UNL A   1      31.411  26.683  23.958  1.00  0.00    -0.276 N 
BRANCH  11  12
ATOM     12  C   UNL A   1      32.077  27.251  25.134  1.00  0.00     0.049 A 
ATOM     13  C   UNL A   1      31.376  27.388  26.356  1.00  0.00     0.027 A 
ATOM     14  C   UNL A   1      33.348  27.845  25.121  1.00  0.00     0.027 A 
ATOM     15  C   UNL A   1      31.855  28.176  27.420  1.00  0.00     0.002 A 
ATOM     16  C   UNL A   1      33.834  28.634  26.179  1.00  0.00     0.002 A 
ATOM     17  C   UNL A   1      33.075  28.825  27.318  1.00  0.00     0.000 A 
ENDBRANCH  11  12
BRANCH  11  18
ATOM     18  C   UNL A   1      30.441  27.532  23.323  1.00  0.00     0.049 A 
ATOM     19  C   UNL A   1      29.075  27.265  23.486  1.00  0.00     0.027 A 
ATOM     20  C   UNL A   1      30.834  28.732  22.727  1.00  0.00     0.027 A 
ATOM     21  C   UNL A   1      28.113  28.192  23.113  1.00  0.00     0.002 A 
ATOM     22  C   UNL A   1      29.862  29.658  22.333  1.00  0.00     0.002 A 
ATOM     23  C   UNL A   1      28.506  29.392  22.536  1.00  0.00     0.000 A 
ENDBRANCH  11  18
ENDBRANCH   8   9
BRANCH   8  24
ATOM     24  N   UNL A   1      31.504  23.273  23.771  1.00  0.00    -0.320 N 
ATOM     25  C   UNL A   1      30.994  22.909  25.099  1.00  0.00     0.291 C 
ATOM     26  C   UNL A   1      31.774  22.050  22.983  1.00  0.00     0.291 C 
ATOM     27  H   UNL A   1      30.733  23.789  23.345  1.00  0.00     0.348 HD
ATOM     28  C   UNL A   1      31.768  21.791  25.813  1.00  0.00     0.221 C 
ATOM     29  C   UNL A   1      32.496  20.921  23.752  1.00  0.00     0.221 C 
ATOM     30  O   UNL A   1      31.842  20.620  24.990  1.00  0.00    -0.370 OA
ENDBRANCH   8  24
ENDBRANCH   7   8
ENDBRANCH   5   7
ENDBRANCH   2   3
ENDBRANCH   1   2
BRANCH   1  31
ATOM     31  C   UNL A   1      36.873  20.470  24.987  1.00  0.00     0.023 C 
BRANCH  31  32
ATOM     32  C   UNL A   1      38.291  20.902  25.386  1.00  0.00     0.116 C 
BRANCH  32  33
ATOM     33  N   UNL A   1      39.283  19.840  25.392  1.00  0.00    -0.352 N 
ATOM     34  C   UNL A   1      40.552  19.827  25.929  1.00  0.00     0.251 C 
ATOM     35  H   UNL A   1      39.009  19.007  24.944  1.00  0.00     0.163 HD
ATOM     36  O   UNL A   1      41.241  18.807  25.837  1.00  0.00    -0.269 OA
BRANCH  34  37
ATOM     37  C   UNL A   1      41.142  21.029  26.572  1.00  0.00     0.039 A 
ATOM     38  C   UNL A   1      41.771  21.979  25.761  1.00  0.00     0.014 A 
ATOM     39  C   UNL A   1      41.124  21.226  27.953  1.00  0.00     0.014 A 
ATOM     40  C   UNL A   1      42.284  23.160  26.315  1.00  0.00     0.010 A 
ATOM     41  C   UNL A   1      41.599  22.432  28.499  1.00  0.00     0.010 A 
ATOM     42  C   UNL A   1      42.152  23.434  27.688  1.00  0.00    -0.014 A 
BRANCH  42  43
ATOM     43  C   UNL A   1      42.515  24.780  28.242  1.00  0.00     0.031 A 
ATOM     44  C   UNL A   1      43.930  25.144  28.628  1.00  0.00     0.074 A 
ATOM     45  C   UNL A   1      41.544  25.696  28.462  1.00  0.00     0.049 A 
ATOM     46  N   UNL A   1      44.386  26.277  29.110  1.00  0.00    -0.248 NA
ATOM     47  C   UNL A   1      44.956  24.104  28.481  1.00  0.00     0.031 C 
ATOM     48  C   UNL A   1      40.114  25.490  28.224  1.00  0.00     0.029 A 
ATOM     49  N   UNL A   1      41.615  26.989  28.930  1.00  0.00    -0.354 N 
ATOM     50  C   UNL A   1      45.741  26.076  29.351  1.00  0.00     0.074 A 
ATOM     51  C   UNL A   1      46.025  24.702  28.993  1.00  0.00     0.031 C 
ATOM     52  C   UNL A   1      39.454  26.629  28.486  1.00  0.00     0.029 A 
ATOM     53  C   UNL A   1      40.402  27.637  28.952  1.00  0.00     0.049 A 
ATOM     54  H   UNL A   1      42.456  27.410  29.221  1.00  0.00     0.167 HD
ATOM     55  C   UNL A   1      46.671  26.951  29.810  1.00  0.00     0.031 A 
ATOM     56  C   UNL A   1      40.073  28.898  29.294  1.00  0.00     0.031 A 
ATOM     57  C   UNL A   1      46.427  28.335  30.130  1.00  0.00     0.049 A 
ATOM     58  C   UNL A   1      41.129  29.862  29.754  1.00  0.00     0.074 A 
ATOM     59  C   UNL A   1      47.347  29.305  30.501  1.00  0.00     0.029 A 
ATOM     60  N   UNL A   1      45.188  28.948  30.121  1.00  0.00    -0.354 N 
ATOM     61  N   UNL A   1      42.416  29.674  29.888  1.00  0.00    -0.248 NA
ATOM     62  C   UNL A   1      40.680  31.221  30.101  1.00  0.00     0.031 C 
ATOM     63  C   UNL A   1      46.657  30.494  30.760  1.00  0.00     0.029 A 
ATOM     64  C   UNL A   1      45.315  30.278  30.501  1.00  0.00     0.049 A 
ATOM     65  H   UNL A   1      44.340  28.508  29.880  1.00  0.00     0.167 HD
ATOM     66  C   UNL A   1      42.935  30.892  30.309  1.00  0.00     0.074 A 
ATOM     67  C   UNL A   1      41.827  31.818  30.396  1.00  0.00     0.031 C 
ATOM     68  C   UNL A   1      44.221  31.207  30.594  1.00  0.00     0.031 A 
BRANCH  55  69
ATOM     69  C   UNL A   1      48.075  26.443  29.995  1.00  0.00    -0.014 A 
ATOM     70  C   UNL A   1      48.479  25.844  31.199  1.00  0.00     0.009 A 
ATOM     71  C   UNL A   1      48.981  26.491  28.922  1.00  0.00     0.009 A 
ATOM     72  C   UNL A   1      49.773  25.333  31.334  1.00  0.00     0.001 A 
ATOM     73  C   UNL A   1      50.263  25.955  29.052  1.00  0.00     0.001 A 
ATOM     74  C   UNL A   1      50.660  25.384  30.260  1.00  0.00     0.000 A 
ENDBRANCH  55  69
BRANCH  56  75
ATOM     75  C   UNL A   1      38.662  29.349  29.175  1.00  0.00    -0.014 A 
ATOM     76  C   UNL A   1      37.805  29.284  30.285  1.00  0.00     0.009 A 
ATOM     77  C   UNL A   1      38.165  29.836  27.958  1.00  0.00     0.009 A 
ATOM     78  C   UNL A   1      36.472  29.681  30.173  1.00  0.00     0.001 A 
ATOM     79  C   UNL A   1      36.837  30.257  27.856  1.00  0.00     0.001 A 
ATOM     80  C   UNL A   1      35.990  30.171  28.961  1.00  0.00     0.000 A 
ENDBRANCH  56  75
BRANCH  68  81
ATOM     81  C   UNL A   1      44.519  32.624  31.000  1.00  0.00    -0.014 A 
ATOM     82  C   UNL A   1      44.837  33.605  30.047  1.00  0.00     0.009 A 
ATOM     83  C   UNL A   1      44.440  32.992  32.352  1.00  0.00     0.009 A 
ATOM     84  C   UNL A   1      45.098  34.918  30.445  1.00  0.00     0.001 A 
ATOM     85  C   UNL A   1      44.678  34.311  32.744  1.00  0.00     0.001 A 
ATOM     86  C   UNL A   1      45.014  35.271  31.792  1.00  0.00     0.000 A 
ENDBRANCH  68  81
ENDBRANCH  42  43
ENDBRANCH  34  37
ENDBRANCH  32  33
ENDBRANCH  31  32
ENDBRANCH   1  31
TORSDOF 16
ENDMDL
MODEL 2
REMARK VINA RESULT:     -11.8      2.874      8.470
REMARK SMILES O=C(C[C@@H](C(=O)N(c1ccccc1)c1ccccc1)[NH+]1CCOCC1)NCCCCNC(=O)c1ccc(-c2c3nc(c(-c4ccccc4)c4ccc([nH]4)c(-c4ccccc4)c4nc(c(-c5ccccc5)c5ccc2[nH]5)C=C4)C=C3)cc1
REMARK SMILES IDX 28 1 27 2 26 3 1 4 2 5 3 7 4 8 5 9 6 10 7 11 8 12 9 13 13 14
REMARK SMILES IDX 10 15 12 16 11 17 14 18 15 19 19 20 16 21 18 22 17 23 20 24
REMARK SMILES IDX 21 25 25 26 22 28 24 29 23 30 29 31 30 32 31 33 32 34 33 36
REMARK SMILES IDX 34 37 35 38 81 39 36 40 80 41 37 42 38 43 39 44 74 45 40 46
REMARK SMILES IDX 79 47 73 48 75 49 41 50 78 51 72 52 71 53 42 55 64 56 49 57
REMARK SMILES IDX 63 58 50 59 53 60 62 61 76 62 51 63 52 64 61 66 77 67 54 68
REMARK SMILES IDX 43 69 44 70 48 71 45 72 47 73 46 74 65 75 66 76 70 77 67 78
REMARK SMILES IDX 69 79 68 80 55 81 56 82 60 83 57 84 59 85 58 86
REMARK H PARENT 26 6 20 27 31 35 75 54 53 65
REMARK Flexibility Score: inf
ROOT
ATOM      1  C   UNL A   1      31.986  29.677  25.191  1.00  0.00     0.023 C 
ENDROOT
BRANCH   1   2
ATOM      2  C   UNL A   1      32.979  28.682  25.801  1.00  0.00     0.116 C 
BRANCH   2   3
ATOM      3  N   UNL A   1      32.590  27.274  25.756  1.00  0.00    -0.356 N 
ATOM      4  O   UNL A   1      31.051  27.414  27.464  1.00  0.00    -0.275 OA
ATOM      5  C   UNL A   1      31.544  26.788  26.529  1.00  0.00     0.226 C 
ATOM      6  H   UNL A   1      33.079  26.657  25.165  1.00  0.00     0.163 HD
BRANCH   5   7
ATOM      7  C   UNL A   1      30.966  25.436  26.110  1.00  0.00     0.175 C 
BRANCH   7   8
ATOM      8  C   UNL A   1      31.573  24.893  24.787  1.00  0.00     0.284 C 
BRANCH   8   9
ATOM      9  C   UNL A   1      31.803  23.406  25.023  1.00  0.00     0.290 C 
ATOM     10  O   UNL A   1      30.920  22.831  25.688  1.00  0.00    -0.267 OA
ATOM     11  N   UNL A   1      32.918  22.709  24.515  1.00  0.00    -0.276 N 
BRANCH  11  12
ATOM     12  C   UNL A   1      34.322  23.128  24.567  1.00  0.00     0.049 A 
ATOM     13  C   UNL A   1      35.178  22.899  23.464  1.00  0.00     0.027 A 
ATOM     14  C   UNL A   1      34.968  23.610  25.716  1.00  0.00     0.027 A 
ATOM     15  C   UNL A   1      36.579  23.012  23.555  1.00  0.00     0.002 A 
ATOM     16  C   UNL A   1      36.366  23.724  25.816  1.00  0.00     0.002 A 
ATOM     17  C   UNL A   1      37.176  23.396  24.744  1.00  0.00     0.000 A 
ENDBRANCH  11  12
BRANCH  11  18
ATOM     18  C   UNL A   1      32.696  21.294  24.394  1.00  0.00     0.049 A 
ATOM     19  C   UNL A   1      32.219  20.768  23.187  1.00  0.00     0.027 A 
ATOM     20  C   UNL A   1      33.148  20.421  25.387  1.00  0.00     0.027 A 
ATOM     21  C   UNL A   1      32.235  19.403  22.941  1.00  0.00     0.002 A 
ATOM     22  C   UNL A   1      33.145  19.042  25.146  1.00  0.00     0.002 A 
ATOM     23  C   UNL A   1      32.700  18.537  23.922  1.00  0.00     0.000 A 
ENDBRANCH  11  18
ENDBRANCH   8   9
BRANCH   8  24
ATOM     24  N   UNL A   1      30.762  25.159  23.553  1.00  0.00    -0.320 N 
ATOM     25  C   UNL A   1      31.429  25.588  22.317  1.00  0.00     0.291 C 
ATOM     26  C   UNL A   1      29.523  25.944  23.755  1.00  0.00     0.291 C 
ATOM     27  H   UNL A   1      30.521  24.183  23.378  1.00  0.00     0.348 HD
ATOM     28  C   UNL A   1      31.541  27.108  22.127  1.00  0.00     0.221 C 
ATOM     29  C   UNL A   1      29.657  27.460  23.493  1.00  0.00     0.221 C 
ATOM     30  O   UNL A   1      30.252  27.727  22.217  1.00  0.00    -0.370 OA
ENDBRANCH   8  24
ENDBRANCH   7   8
ENDBRANCH   5   7
ENDBRANCH   2   3
ENDBRANCH   1   2
BRANCH   1  31
ATOM     31  C   UNL A   1      31.498  30.818  26.094  1.00  0.00     0.023 C 
BRANCH  31  32
ATOM     32  C   UNL A   1      32.549  31.530  26.959  1.00  0.00     0.116 C 
BRANCH  32  33
ATOM     33  N   UNL A   1      32.187  32.866  27.399  1.00  0.00    -0.352 N 
ATOM     34  C   UNL A   1      32.925  33.786  28.112  1.00  0.00     0.251 C 
ATOM     35  H   UNL A   1      31.279  33.158  27.153  1.00  0.00     0.163 HD
ATOM     36  O   UNL A   1      32.432  34.886  28.377  1.00  0.00    -0.269 OA
BRANCH  34  37
ATOM     37  C   UNL A   1      34.284  33.473  28.621  1.00  0.00     0.039 A 
ATOM     38  C   UNL A   1      34.399  32.762  29.820  1.00  0.00     0.014 A 
ATOM     39  C   UNL A   1      35.445  33.891  27.970  1.00  0.00     0.014 A 
ATOM     40  C   UNL A   1      35.660  32.386  30.306  1.00  0.00     0.010 A 
ATOM     41  C   UNL A   1      36.704  33.474  28.437  1.00  0.00     0.010 A 
ATOM     42  C   UNL A   1      36.832  32.685  29.589  1.00  0.00    -0.014 A 
BRANCH  42  43
ATOM     43  C   UNL A   1      38.154  32.108  30.002  1.00  0.00     0.031 A 
ATOM     44  C   UNL A   1      39.078  32.809  30.970  1.00  0.00     0.074 A 
ATOM     45  C   UNL A   1      38.575  30.944  29.456  1.00  0.00     0.049 A 
ATOM     46  N   UNL A   1      40.248  32.418  31.422  1.00  0.00    -0.248 NA
ATOM     47  C   UNL A   1      38.655  34.122  31.474  1.00  0.00     0.031 C 
ATOM     48  C   UNL A   1      37.850  30.170  28.447  1.00  0.00     0.029 A 
ATOM     49  N   UNL A   1      39.714  30.204  29.679  1.00  0.00    -0.354 N 
ATOM     50  C   UNL A   1      40.711  33.445  32.236  1.00  0.00     0.074 A 
ATOM     51  C   UNL A   1      39.710  34.492  32.189  1.00  0.00     0.031 C 
ATOM     52  C   UNL A   1      38.527  29.040  28.185  1.00  0.00     0.029 A 
ATOM     53  C   UNL A   1      39.756  29.024  28.973  1.00  0.00     0.049 A 
ATOM     54  H   UNL A   1      40.431  30.493  30.289  1.00  0.00     0.167 HD
ATOM     55  C   UNL A   1      41.849  33.514  32.970  1.00  0.00     0.031 A 
ATOM     56  C   UNL A   1      40.663  28.029  28.957  1.00  0.00     0.031 A 
ATOM     57  C   UNL A   1      42.839  32.471  33.071  1.00  0.00     0.049 A 
ATOM     58  C   UNL A   1      41.893  28.106  29.815  1.00  0.00     0.074 A 
ATOM     59  C   UNL A   1      43.966  32.433  33.879  1.00  0.00     0.029 A 
ATOM     60  N   UNL A   1      42.829  31.290  32.352  1.00  0.00    -0.354 N 
ATOM     61  N   UNL A   1      42.264  29.048  30.644  1.00  0.00    -0.248 NA
ATOM     62  C   UNL A   1      42.828  26.970  29.739  1.00  0.00     0.031 C 
ATOM     63  C   UNL A   1      44.662  31.248  33.615  1.00  0.00     0.029 A 
ATOM     64  C   UNL A   1      43.941  30.526  32.680  1.00  0.00     0.049 A 
ATOM     65  H   UNL A   1      42.136  31.029  31.703  1.00  0.00     0.167 HD
ATOM     66  C   UNL A   1      43.457  28.610  31.206  1.00  0.00     0.074 A 
ATOM     67  C   UNL A   1      43.743  27.312  30.636  1.00  0.00     0.031 C 
ATOM     68  C   UNL A   1      44.239  29.236  32.117  1.00  0.00     0.031 A 
BRANCH  55  69
ATOM     69  C   UNL A   1      42.103  34.776  33.749  1.00  0.00    -0.014 A 
ATOM     70  C   UNL A   1      41.634  34.925  35.064  1.00  0.00     0.009 A 
ATOM     71  C   UNL A   1      42.889  35.796  33.188  1.00  0.00     0.009 A 
ATOM     72  C   UNL A   1      41.922  36.085  35.789  1.00  0.00     0.001 A 
ATOM     73  C   UNL A   1      43.197  36.940  33.925  1.00  0.00     0.001 A 
ATOM     74  C   UNL A   1      42.707  37.087  35.221  1.00  0.00     0.000 A 
ENDBRANCH  55  69
BRANCH  56  75
ATOM     75  C   UNL A   1      40.424  26.828  28.116  1.00  0.00    -0.014 A 
ATOM     76  C   UNL A   1      39.645  25.768  28.606  1.00  0.00     0.009 A 
ATOM     77  C   UNL A   1      40.974  26.732  26.829  1.00  0.00     0.009 A 
ATOM     78  C   UNL A   1      39.438  24.626  27.831  1.00  0.00     0.001 A 
ATOM     79  C   UNL A   1      40.744  25.599  26.047  1.00  0.00     0.001 A 
ATOM     80  C   UNL A   1      39.983  24.543  26.551  1.00  0.00     0.000 A 
ENDBRANCH  56  75
BRANCH  68  81
ATOM     81  C   UNL A   1      45.472  28.518  32.589  1.00  0.00    -0.014 A 
ATOM     82  C   UNL A   1      46.714  28.707  31.961  1.00  0.00     0.009 A 
ATOM     83  C   UNL A   1      45.400  27.668  33.704  1.00  0.00     0.009 A 
ATOM     84  C   UNL A   1      47.850  28.039  32.424  1.00  0.00     0.001 A 
ATOM     85  C   UNL A   1      46.541  27.020  34.180  1.00  0.00     0.001 A 
ATOM     86  C   UNL A   1      47.763  27.200  33.535  1.00  0.00     0.000 A 
ENDBRANCH  68  81
ENDBRANCH  42  43
ENDBRANCH  34  37
ENDBRANCH  32  33
ENDBRANCH  31  32
ENDBRANCH   1  31
TORSDOF 16
ENDMDL
MODEL 3
REMARK VINA RESULT:     -11.7      0.401      5.649
REMARK SMILES O=C(C[C@@H](C(=O)N(c1ccccc1)c1ccccc1)[NH+]1CCOCC1)NCCCCNC(=O)c1ccc(-c2c3nc(c(-c4ccccc4)c4ccc([nH]4)c(-c4ccccc4)c4nc(c(-c5ccccc5)c5ccc2[nH]5)C=C4)C=C3)cc1
REMARK SMILES IDX 28 1 27 2 26 3 1 4 2 5 3 7 4 8 5 9 6 10 7 11 8 12 9 13 13 14
REMARK SMILES IDX 10 15 12 16 11 17 14 18 15 19 19 20 16 21 18 22 17 23 20 24
REMARK SMILES IDX 21 25 25 26 22 28 24 29 23 30 29 31 30 32 31 33 32 34 33 36
REMARK SMILES IDX 34 37 35 38 81 39 36 40 80 41 37 42 38 43 39 44 74 45 40 46
REMARK SMILES IDX 79 47 73 48 75 49 41 50 78 51 72 52 71 53 42 55 64 56 49 57
REMARK SMILES IDX 63 58 50 59 53 60 62 61 76 62 51 63 52 64 61 66 77 67 54 68
REMARK SMILES IDX 43 69 44 70 48 71 45 72 47 73 46 74 65 75 66 76 70 77 67 78
REMARK SMILES IDX 69 79 68 80 55 81 56 82 60 83 57 84 59 85 58 86
REMARK H PARENT 26 6 20 27 31 35 75 54 53 65
REMARK Flexibility Score: inf
ROOT
ATOM      1  C   UNL A   1      35.828  21.099  25.486  1.00  0.00     0.023 C 
ENDROOT
BRANCH   1   2
ATOM      2  C   UNL A   1      35.935  22.624  25.586  1.00  0.00     0.116 C 
BRANCH   2   3
ATOM      3  N   UNL A   1      34.961  23.390  24.812  1.00  0.00    -0.356 N 
ATOM      4  O   UNL A   1      36.062  23.179  22.799  1.00  0.00    -0.275 OA
ATOM      5  C   UNL A   1      35.056  23.492  23.430  1.00  0.00     0.226 C 
ATOM      6  H   UNL A   1      34.222  23.843  25.279  1.00  0.00     0.163 HD
BRANCH   5   7
ATOM      7  C   UNL A   1      33.793  23.952  22.700  1.00  0.00     0.175 C 
BRANCH   7   8
ATOM      8  C   UNL A   1      32.605  24.249  23.656  1.00  0.00     0.284 C 
BRANCH   8   9
ATOM      9  C   UNL A   1      32.001  25.558  23.163  1.00  0.00     0.290 C 
ATOM     10  O   UNL A   1      31.967  25.694  21.925  1.00  0.00    -0.267 OA
ATOM     11  N   UNL A   1      31.495  26.547  24.031  1.00  0.00    -0.276 N 
BRANCH  11  12
ATOM     12  C   UNL A   1      32.135  27.076  25.238  1.00  0.00     0.049 A 
ATOM     13  C   UNL A   1      31.360  27.394  26.379  1.00  0.00     0.027 A 
ATOM     14  C   UNL A   1      33.481  27.466  25.321  1.00  0.00     0.027 A 
ATOM     15  C   UNL A   1      31.861  28.162  27.447  1.00  0.00     0.002 A 
ATOM     16  C   UNL A   1      33.989  28.234  26.385  1.00  0.00     0.002 A 
ATOM     17  C   UNL A   1      33.172  28.608  27.435  1.00  0.00     0.000 A 
ENDBRANCH  11  12
BRANCH  11  18
ATOM     18  C   UNL A   1      30.538  27.416  23.403  1.00  0.00     0.049 A 
ATOM     19  C   UNL A   1      29.170  27.135  23.512  1.00  0.00     0.027 A 
ATOM     20  C   UNL A   1      30.941  28.644  22.871  1.00  0.00     0.027 A 
ATOM     21  C   UNL A   1      28.213  28.071  23.149  1.00  0.00     0.002 A 
ATOM     22  C   UNL A   1      29.975  29.580  22.487  1.00  0.00     0.002 A 
ATOM     23  C   UNL A   1      28.615  29.297  22.636  1.00  0.00     0.000 A 
ENDBRANCH  11  18
ENDBRANCH   8   9
BRANCH   8  24
ATOM     24  N   UNL A   1      31.585  23.154  23.768  1.00  0.00    -0.320 N 
ATOM     25  C   UNL A   1      31.048  22.787  25.085  1.00  0.00     0.291 C 
ATOM     26  C   UNL A   1      31.862  21.933  22.979  1.00  0.00     0.291 C 
ATOM     27  H   UNL A   1      30.826  23.677  23.330  1.00  0.00     0.348 HD
ATOM     28  C   UNL A   1      31.801  21.660  25.807  1.00  0.00     0.221 C 
ATOM     29  C   UNL A   1      32.563  20.796  23.756  1.00  0.00     0.221 C 
ATOM     30  O   UNL A   1      31.883  20.493  24.981  1.00  0.00    -0.370 OA
ENDBRANCH   8  24
ENDBRANCH   7   8
ENDBRANCH   5   7
ENDBRANCH   2   3
ENDBRANCH   1   2
BRANCH   1  31
ATOM     31  C   UNL A   1      37.055  20.347  24.953  1.00  0.00     0.023 C 
BRANCH  31  32
ATOM     32  C   UNL A   1      38.426  20.747  25.517  1.00  0.00     0.116 C 
BRANCH  32  33
ATOM     33  N   UNL A   1      39.440  19.708  25.475  1.00  0.00    -0.352 N 
ATOM     34  C   UNL A   1      40.732  19.721  25.956  1.00  0.00     0.251 C 
ATOM     35  H   UNL A   1      39.166  18.871  25.036  1.00  0.00     0.163 HD
ATOM     36  O   UNL A   1      41.438  18.716  25.831  1.00  0.00    -0.269 OA
BRANCH  34  37
ATOM     37  C   UNL A   1      41.322  20.932  26.579  1.00  0.00     0.039 A 
ATOM     38  C   UNL A   1      41.887  21.903  25.745  1.00  0.00     0.014 A 
ATOM     39  C   UNL A   1      41.367  21.121  27.961  1.00  0.00     0.014 A 
ATOM     40  C   UNL A   1      42.397  23.094  26.283  1.00  0.00     0.010 A 
ATOM     41  C   UNL A   1      41.838  22.335  28.492  1.00  0.00     0.010 A 
ATOM     42  C   UNL A   1      42.326  23.356  27.663  1.00  0.00    -0.014 A 
BRANCH  42  43
ATOM     43  C   UNL A   1      42.682  24.707  28.208  1.00  0.00     0.031 A 
ATOM     44  C   UNL A   1      41.647  25.777  28.464  1.00  0.00     0.074 A 
ATOM     45  C   UNL A   1      43.980  25.015  28.434  1.00  0.00     0.049 A 
ATOM     46  N   UNL A   1      41.815  26.987  28.944  1.00  0.00    -0.248 NA
ATOM     47  C   UNL A   1      40.255  25.464  28.116  1.00  0.00     0.031 C 
ATOM     48  C   UNL A   1      45.119  24.135  28.170  1.00  0.00     0.029 A 
ATOM     49  N   UNL A   1      44.559  26.155  28.945  1.00  0.00    -0.354 N 
ATOM     50  C   UNL A   1      40.561  27.588  28.927  1.00  0.00     0.074 A 
ATOM     51  C   UNL A   1      39.648  26.618  28.357  1.00  0.00     0.031 C 
ATOM     52  C   UNL A   1      46.248  24.739  28.576  1.00  0.00     0.029 A 
ATOM     53  C   UNL A   1      45.924  26.065  29.091  1.00  0.00     0.049 A 
ATOM     54  H   UNL A   1      44.043  26.958  29.186  1.00  0.00     0.167 HD
ATOM     55  C   UNL A   1      40.192  28.820  29.357  1.00  0.00     0.031 A 
ATOM     56  C   UNL A   1      46.824  26.935  29.588  1.00  0.00     0.031 A 
ATOM     57  C   UNL A   1      41.070  29.787  29.968  1.00  0.00     0.049 A 
ATOM     58  C   UNL A   1      46.385  28.276  30.103  1.00  0.00     0.074 A 
ATOM     59  C   UNL A   1      40.741  31.015  30.522  1.00  0.00     0.029 A 
ATOM     60  N   UNL A   1      42.438  29.644  30.108  1.00  0.00    -0.354 N 
ATOM     61  N   UNL A   1      45.180  28.784  30.157  1.00  0.00    -0.248 NA
ATOM     62  C   UNL A   1      47.436  29.160  30.634  1.00  0.00     0.031 C 
ATOM     63  C   UNL A   1      41.916  31.635  30.957  1.00  0.00     0.029 A 
ATOM     64  C   UNL A   1      42.971  30.770  30.720  1.00  0.00     0.049 A 
ATOM     65  H   UNL A   1      42.958  28.859  29.818  1.00  0.00     0.167 HD
ATOM     66  C   UNL A   1      45.323  30.033  30.750  1.00  0.00     0.074 A 
ATOM     67  C   UNL A   1      46.728  30.202  31.051  1.00  0.00     0.031 C 
ATOM     68  C   UNL A   1      44.366  30.952  31.020  1.00  0.00     0.031 A 
BRANCH  55  69
ATOM     69  C   UNL A   1      38.749  29.214  29.192  1.00  0.00    -0.014 A 
ATOM     70  C   UNL A   1      37.836  29.091  30.250  1.00  0.00     0.009 A 
ATOM     71  C   UNL A   1      38.318  29.790  27.985  1.00  0.00     0.009 A 
ATOM     72  C   UNL A   1      36.512  29.509  30.093  1.00  0.00     0.001 A 
ATOM     73  C   UNL A   1      37.002  30.231  27.841  1.00  0.00     0.001 A 
ATOM     74  C   UNL A   1      36.098  30.082  28.891  1.00  0.00     0.000 A 
ENDBRANCH  55  69
BRANCH  56  75
ATOM     75  C   UNL A   1      48.257  26.548  29.666  1.00  0.00    -0.014 A 
ATOM     76  C   UNL A   1      48.741  25.860  30.790  1.00  0.00     0.009 A 
ATOM     77  C   UNL A   1      49.144  26.867  28.628  1.00  0.00     0.009 A 
ATOM     78  C   UNL A   1      50.090  25.517  30.881  1.00  0.00     0.001 A 
ATOM     79  C   UNL A   1      50.488  26.499  28.711  1.00  0.00     0.001 A 
ATOM     80  C   UNL A   1      50.962  25.832  29.842  1.00  0.00     0.000 A 
ENDBRANCH  56  75
BRANCH  68  81
ATOM     81  C   UNL A   1      44.791  32.220  31.706  1.00  0.00    -0.014 A 
ATOM     82  C   UNL A   1      44.841  32.313  33.106  1.00  0.00     0.009 A 
ATOM     83  C   UNL A   1      45.185  33.329  30.939  1.00  0.00     0.009 A 
ATOM     84  C   UNL A   1      45.250  33.498  33.723  1.00  0.00     0.001 A 
ATOM     85  C   UNL A   1      45.618  34.503  31.558  1.00  0.00     0.001 A 
ATOM     86  C   UNL A   1      45.643  34.590  32.948  1.00  0.00     0.000 A 
ENDBRANCH  68  81
ENDBRANCH  42  43
ENDBRANCH  34  37
ENDBRANCH  32  33
ENDBRANCH  31  32
ENDBRANCH   1  31
TORSDOF 16
ENDMDL
