MODEL 1
REMARK VINA RESULT:     -12.2      0.000      0.000
REMARK SMILES CC(C)CSc1cc2c(cc1Cl)C=C(C(=O)NCCCCNC(=O)c1ccc(-c3c4nc(c(-c5ccccc5)c5ccc([nH]5)c(-c5ccccc5)c5nc(c(-c6ccccc6)c6ccc3[nH]6)C=C5)C=C4)cc1)[C@H](C(F)(F)F)O2
REMARK SMILES IDX 19 1 18 2 17 3 15 4 16 5 14 7 6 8 7 9 11 10 8 11 10 12 12 13
REMARK SMILES IDX 9 14 78 15 13 16 73 17 5 18 4 19 2 20 1 21 3 22 74 23 75 24
REMARK SMILES IDX 76 25 77 26 20 27 21 28 22 29 23 30 24 32 25 33 26 34 72 35
REMARK SMILES IDX 27 36 71 37 28 38 29 39 30 40 65 41 31 42 70 43 64 44 66 45
REMARK SMILES IDX 32 46 69 47 63 48 62 49 33 51 55 52 40 53 54 54 41 55 44 56
REMARK SMILES IDX 53 57 67 58 42 59 43 60 52 62 68 63 45 64 34 65 35 66 39 67
REMARK SMILES IDX 36 68 38 69 37 70 56 71 57 72 61 73 58 74 60 75 59 76 46 77
REMARK SMILES IDX 47 78 51 79 48 80 50 81 49 82
REMARK H PARENT 17 6 22 31 66 50 44 61
REMARK Flexibility Score: inf
ROOT
ATOM      1  C   UNL A   1      36.957  21.964  24.555  1.00  0.00     0.023 C 
ENDROOT
BRANCH   1   2
ATOM      2  C   UNL A   1      36.516  22.830  25.734  1.00  0.00     0.116 C 
BRANCH   2   3
ATOM      3  N   UNL A   1      35.529  22.160  26.561  1.00  0.00    -0.352 N 
ATOM      4  C   UNL A   1      34.240  22.358  26.923  1.00  0.00     0.251 C 
ATOM      5  O   UNL A   1      33.760  21.463  27.628  1.00  0.00    -0.270 OA
ATOM      6  H   UNL A   1      35.896  21.342  26.967  1.00  0.00     0.163 HD
BRANCH   4   7
ATOM      7  C   UNL A   1      33.394  23.531  26.549  1.00  0.00     0.067 C 
ATOM      8  C   UNL A   1      31.754  27.897  24.603  1.00  0.00     0.030 A 
ATOM      9  C   UNL A   1      31.239  26.973  25.524  1.00  0.00     0.063 A 
ATOM     10  C   UNL A   1      33.013  27.642  24.031  1.00  0.00     0.055 A 
ATOM     11  C   UNL A   1      31.983  25.859  25.901  1.00  0.00     0.129 A 
ATOM     12  C   UNL A   1      33.766  26.531  24.438  1.00  0.00     0.033 A 
ATOM     13  Cl  UNL A   1      33.695  28.627  22.785  1.00  0.00    -0.083 Cl
ATOM     14  C   UNL A   1      33.255  25.640  25.382  1.00  0.00     0.019 A 
ATOM     15  O   UNL A   1      31.423  25.031  26.831  1.00  0.00    -0.475 OA
ATOM     16  C   UNL A   1      34.025  24.494  25.849  1.00  0.00     0.025 C 
ATOM     17  C   UNL A   1      31.919  23.662  26.822  1.00  0.00     0.314 C 
BRANCH   8  18
ATOM     18  S   UNL A   1      30.704  29.301  24.254  1.00  0.00    -0.124 SA
BRANCH  18  19
ATOM     19  C   UNL A   1      29.816  28.774  22.741  1.00  0.00     0.078 C 
BRANCH  19  20
ATOM     20  C   UNL A   1      28.465  29.460  22.461  1.00  0.00    -0.007 C 
ATOM     21  C   UNL A   1      27.273  28.771  23.126  1.00  0.00     0.008 C 
ATOM     22  C   UNL A   1      28.537  30.907  22.967  1.00  0.00     0.008 C 
ENDBRANCH  19  20
ENDBRANCH  18  19
ENDBRANCH   8  18
BRANCH  17  23
ATOM     23  C   UNL A   1      31.044  22.790  25.903  1.00  0.00     0.429 C 
ATOM     24  F   UNL A   1      29.821  22.543  26.427  1.00  0.00    -0.167 F 
ATOM     25  F   UNL A   1      30.846  23.414  24.715  1.00  0.00    -0.167 F 
ATOM     26  F   UNL A   1      31.599  21.588  25.632  1.00  0.00    -0.167 F 
ENDBRANCH  17  23
ENDBRANCH   4   7
ENDBRANCH   2   3
ENDBRANCH   1   2
BRANCH   1  27
ATOM     27  C   UNL A   1      37.634  20.651  24.939  1.00  0.00     0.023 C 
BRANCH  27  28
ATOM     28  C   UNL A   1      38.874  20.790  25.812  1.00  0.00     0.116 C 
BRANCH  28  29
ATOM     29  N   UNL A   1      39.779  19.652  25.754  1.00  0.00    -0.352 N 
ATOM     30  C   UNL A   1      41.117  19.606  26.091  1.00  0.00     0.251 C 
ATOM     31  H   UNL A   1      39.388  18.807  25.434  1.00  0.00     0.163 HD
ATOM     32  O   UNL A   1      41.768  18.587  25.932  1.00  0.00    -0.269 OA
BRANCH  30  33
ATOM     33  C   UNL A   1      41.761  20.839  26.594  1.00  0.00     0.039 A 
ATOM     34  C   UNL A   1      41.902  21.051  27.964  1.00  0.00     0.014 A 
ATOM     35  C   UNL A   1      42.141  21.827  25.681  1.00  0.00     0.014 A 
ATOM     36  C   UNL A   1      42.235  22.316  28.426  1.00  0.00     0.010 A 
ATOM     37  C   UNL A   1      42.570  23.071  26.149  1.00  0.00     0.010 A 
ATOM     38  C   UNL A   1      42.564  23.343  27.526  1.00  0.00    -0.014 A 
BRANCH  38  39
ATOM     39  C   UNL A   1      42.886  24.689  28.064  1.00  0.00     0.031 A 
ATOM     40  C   UNL A   1      44.311  25.153  28.198  1.00  0.00     0.074 A 
ATOM     41  C   UNL A   1      41.873  25.532  28.344  1.00  0.00     0.049 A 
ATOM     42  N   UNL A   1      44.760  26.328  28.564  1.00  0.00    -0.248 NA
ATOM     43  C   UNL A   1      45.372  24.180  27.883  1.00  0.00     0.031 C 
ATOM     44  C   UNL A   1      40.451  25.201  28.237  1.00  0.00     0.029 A 
ATOM     45  N   UNL A   1      41.881  26.851  28.721  1.00  0.00    -0.354 N 
ATOM     46  C   UNL A   1      46.146  26.230  28.546  1.00  0.00     0.074 A 
ATOM     47  C   UNL A   1      46.469  24.876  28.153  1.00  0.00     0.031 C 
ATOM     48  C   UNL A   1      39.726  26.308  28.456  1.00  0.00     0.029 A 
ATOM     49  C   UNL A   1      40.627  27.406  28.785  1.00  0.00     0.049 A 
ATOM     50  H   UNL A   1      42.705  27.349  28.926  1.00  0.00     0.167 HD
ATOM     51  C   UNL A   1      47.065  27.184  28.824  1.00  0.00     0.031 A 
ATOM     52  C   UNL A   1      40.238  28.661  29.074  1.00  0.00     0.031 A 
ATOM     53  C   UNL A   1      46.744  28.536  29.199  1.00  0.00     0.049 A 
ATOM     54  C   UNL A   1      41.275  29.693  29.400  1.00  0.00     0.074 A 
ATOM     55  C   UNL A   1      47.610  29.577  29.488  1.00  0.00     0.029 A 
ATOM     56  N   UNL A   1      45.459  29.036  29.332  1.00  0.00    -0.354 N 
ATOM     57  N   UNL A   1      42.581  29.579  29.386  1.00  0.00    -0.248 NA
ATOM     58  C   UNL A   1      40.788  31.022  29.793  1.00  0.00     0.031 C 
ATOM     59  C   UNL A   1      46.848  30.694  29.840  1.00  0.00     0.029 A 
ATOM     60  C   UNL A   1      45.508  30.365  29.719  1.00  0.00     0.049 A 
ATOM     61  H   UNL A   1      44.633  28.524  29.174  1.00  0.00     0.167 HD
ATOM     62  C   UNL A   1      43.071  30.818  29.771  1.00  0.00     0.074 A 
ATOM     63  C   UNL A   1      41.925  31.677  29.982  1.00  0.00     0.031 C 
ATOM     64  C   UNL A   1      44.359  31.202  29.945  1.00  0.00     0.031 A 
BRANCH  51  65
ATOM     65  C   UNL A   1      48.517  26.805  28.755  1.00  0.00    -0.014 A 
ATOM     66  C   UNL A   1      49.221  26.958  27.549  1.00  0.00     0.009 A 
ATOM     67  C   UNL A   1      49.169  26.219  29.851  1.00  0.00     0.009 A 
ATOM     68  C   UNL A   1      50.544  26.526  27.438  1.00  0.00     0.001 A 
ATOM     69  C   UNL A   1      50.501  25.810  29.744  1.00  0.00     0.001 A 
ATOM     70  C   UNL A   1      51.184  25.957  28.537  1.00  0.00     0.000 A 
ENDBRANCH  51  65
BRANCH  52  71
ATOM     71  C   UNL A   1      38.791  28.996  29.057  1.00  0.00    -0.014 A 
ATOM     72  C   UNL A   1      38.172  29.422  27.871  1.00  0.00     0.009 A 
ATOM     73  C   UNL A   1      38.037  28.949  30.239  1.00  0.00     0.009 A 
ATOM     74  C   UNL A   1      36.835  29.823  27.873  1.00  0.00     0.001 A 
ATOM     75  C   UNL A   1      36.692  29.325  30.232  1.00  0.00     0.001 A 
ATOM     76  C   UNL A   1      36.096  29.771  29.053  1.00  0.00     0.000 A 
ENDBRANCH  52  71
BRANCH  64  77
ATOM     77  C   UNL A   1      44.603  32.613  30.395  1.00  0.00    -0.014 A 
ATOM     78  C   UNL A   1      44.590  32.926  31.763  1.00  0.00     0.009 A 
ATOM     79  C   UNL A   1      44.776  33.645  29.460  1.00  0.00     0.009 A 
ATOM     80  C   UNL A   1      44.737  34.246  32.187  1.00  0.00     0.001 A 
ATOM     81  C   UNL A   1      44.948  34.962  29.889  1.00  0.00     0.001 A 
ATOM     82  C   UNL A   1      44.922  35.263  31.250  1.00  0.00     0.000 A 
ENDBRANCH  64  77
ENDBRANCH  38  39
ENDBRANCH  30  33
ENDBRANCH  28  29
ENDBRANCH  27  28
ENDBRANCH   1  27
TORSDOF 15
ENDMDL
MODEL 2
REMARK VINA RESULT:     -12.0      4.082      9.078
REMARK SMILES CC(C)CSc1cc2c(cc1Cl)C=C(C(=O)NCCCCNC(=O)c1ccc(-c3c4nc(c(-c5ccccc5)c5ccc([nH]5)c(-c5ccccc5)c5nc(c(-c6ccccc6)c6ccc3[nH]6)C=C5)C=C4)cc1)[C@H](C(F)(F)F)O2
REMARK SMILES IDX 19 1 18 2 17 3 15 4 16 5 14 7 6 8 7 9 11 10 8 11 10 12 12 13
REMARK SMILES IDX 9 14 78 15 13 16 73 17 5 18 4 19 2 20 1 21 3 22 74 23 75 24
REMARK SMILES IDX 76 25 77 26 20 27 21 28 22 29 23 30 24 32 25 33 26 34 72 35
REMARK SMILES IDX 27 36 71 37 28 38 29 39 30 40 65 41 31 42 70 43 64 44 66 45
REMARK SMILES IDX 32 46 69 47 63 48 62 49 33 51 55 52 40 53 54 54 41 55 44 56
REMARK SMILES IDX 53 57 67 58 42 59 43 60 52 62 68 63 45 64 34 65 35 66 39 67
REMARK SMILES IDX 36 68 38 69 37 70 56 71 57 72 61 73 58 74 60 75 59 76 46 77
REMARK SMILES IDX 47 78 51 79 48 80 50 81 49 82
REMARK H PARENT 17 6 22 31 66 50 44 61
REMARK Flexibility Score: inf
ROOT
ATOM      1  C   UNL A   1      32.368  29.489  27.086  1.00  0.00     0.023 C 
ENDROOT
BRANCH   1   2
ATOM      2  C   UNL A   1      33.751  29.058  26.602  1.00  0.00     0.116 C 
BRANCH   2   3
ATOM      3  N   UNL A   1      33.883  29.173  25.161  1.00  0.00    -0.352 N 
ATOM      4  C   UNL A   1      33.656  28.393  24.079  1.00  0.00     0.251 C 
ATOM      5  O   UNL A   1      33.865  28.945  22.993  1.00  0.00    -0.270 OA
ATOM      6  H   UNL A   1      34.229  30.057  24.901  1.00  0.00     0.163 HD
BRANCH   4   7
ATOM      7  C   UNL A   1      33.197  26.971  24.104  1.00  0.00     0.067 C 
ATOM      8  C   UNL A   1      32.831  22.014  25.013  1.00  0.00     0.030 A 
ATOM      9  C   UNL A   1      32.163  22.912  24.168  1.00  0.00     0.063 A 
ATOM     10  C   UNL A   1      33.857  22.506  25.838  1.00  0.00     0.055 A 
ATOM     11  C   UNL A   1      32.547  24.250  24.112  1.00  0.00     0.129 A 
ATOM     12  C   UNL A   1      34.254  23.848  25.755  1.00  0.00     0.033 A 
ATOM     13  Cl  UNL A   1      34.660  21.532  27.020  1.00  0.00    -0.083 Cl
ATOM     14  C   UNL A   1      33.604  24.723  24.884  1.00  0.00     0.019 A 
ATOM     15  O   UNL A   1      31.870  25.048  23.236  1.00  0.00    -0.475 OA
ATOM     16  C   UNL A   1      34.013  26.115  24.749  1.00  0.00     0.025 C 
ATOM     17  C   UNL A   1      31.890  26.470  23.548  1.00  0.00     0.314 C 
BRANCH   8  18
ATOM     18  S   UNL A   1      32.258  20.322  24.941  1.00  0.00    -0.124 SA
BRANCH  18  19
ATOM     19  C   UNL A   1      33.705  19.435  24.252  1.00  0.00     0.078 C 
BRANCH  19  20
ATOM     20  C   UNL A   1      33.829  17.940  24.604  1.00  0.00    -0.007 C 
ATOM     21  C   UNL A   1      32.630  17.386  25.376  1.00  0.00     0.008 C 
ATOM     22  C   UNL A   1      33.983  17.142  23.303  1.00  0.00     0.008 C 
ENDBRANCH  19  20
ENDBRANCH  18  19
ENDBRANCH   8  18
BRANCH  17  23
ATOM     23  C   UNL A   1      30.672  26.837  24.415  1.00  0.00     0.429 C 
ATOM     24  F   UNL A   1      30.371  28.155  24.360  1.00  0.00    -0.167 F 
ATOM     25  F   UNL A   1      29.574  26.162  23.989  1.00  0.00    -0.167 F 
ATOM     26  F   UNL A   1      30.844  26.533  25.721  1.00  0.00    -0.167 F 
ENDBRANCH  17  23
ENDBRANCH   4   7
ENDBRANCH   2   3
ENDBRANCH   1   2
BRANCH   1  27
ATOM     27  C   UNL A   1      32.018  30.950  26.816  1.00  0.00     0.023 C 
BRANCH  27  28
ATOM     28  C   UNL A   1      33.097  31.957  27.193  1.00  0.00     0.116 C 
BRANCH  28  29
ATOM     29  N   UNL A   1      32.587  33.259  27.598  1.00  0.00    -0.352 N 
ATOM     30  C   UNL A   1      33.179  34.186  28.432  1.00  0.00     0.251 C 
ATOM     31  H   UNL A   1      31.708  33.510  27.231  1.00  0.00     0.163 HD
ATOM     32  O   UNL A   1      32.601  35.217  28.731  1.00  0.00    -0.269 OA
BRANCH  30  33
ATOM     33  C   UNL A   1      34.507  33.875  29.003  1.00  0.00     0.039 A 
ATOM     34  C   UNL A   1      35.668  34.198  28.303  1.00  0.00     0.014 A 
ATOM     35  C   UNL A   1      34.579  33.173  30.209  1.00  0.00     0.014 A 
ATOM     36  C   UNL A   1      36.878  33.651  28.702  1.00  0.00     0.010 A 
ATOM     37  C   UNL A   1      35.815  32.705  30.662  1.00  0.00     0.010 A 
ATOM     38  C   UNL A   1      36.965  32.890  29.881  1.00  0.00    -0.014 A 
BRANCH  38  39
ATOM     39  C   UNL A   1      38.275  32.300  30.255  1.00  0.00     0.031 A 
ATOM     40  C   UNL A   1      39.108  32.891  31.361  1.00  0.00     0.074 A 
ATOM     41  C   UNL A   1      38.667  31.162  29.650  1.00  0.00     0.049 A 
ATOM     42  N   UNL A   1      40.230  32.446  31.870  1.00  0.00    -0.248 NA
ATOM     43  C   UNL A   1      38.628  34.140  31.975  1.00  0.00     0.031 C 
ATOM     44  C   UNL A   1      37.935  30.485  28.577  1.00  0.00     0.029 A 
ATOM     45  N   UNL A   1      39.743  30.345  29.886  1.00  0.00    -0.354 N 
ATOM     46  C   UNL A   1      40.599  33.365  32.843  1.00  0.00     0.074 A 
ATOM     47  C   UNL A   1      39.596  34.407  32.843  1.00  0.00     0.031 C 
ATOM     48  C   UNL A   1      38.534  29.317  28.308  1.00  0.00     0.029 A 
ATOM     49  C   UNL A   1      39.727  29.193  29.138  1.00  0.00     0.049 A 
ATOM     50  H   UNL A   1      40.457  30.563  30.528  1.00  0.00     0.167 HD
ATOM     51  C   UNL A   1      41.673  33.340  33.667  1.00  0.00     0.031 A 
ATOM     52  C   UNL A   1      40.573  28.147  29.119  1.00  0.00     0.031 A 
ATOM     53  C   UNL A   1      42.662  32.295  33.679  1.00  0.00     0.049 A 
ATOM     54  C   UNL A   1      41.766  28.155  30.027  1.00  0.00     0.074 A 
ATOM     55  C   UNL A   1      43.779  32.178  34.489  1.00  0.00     0.029 A 
ATOM     56  N   UNL A   1      42.652  31.186  32.849  1.00  0.00    -0.354 N 
ATOM     57  N   UNL A   1      42.103  29.038  30.934  1.00  0.00    -0.248 NA
ATOM     58  C   UNL A   1      42.702  27.030  29.900  1.00  0.00     0.031 C 
ATOM     59  C   UNL A   1      44.470  31.022  34.117  1.00  0.00     0.029 A 
ATOM     60  C   UNL A   1      43.755  30.390  33.112  1.00  0.00     0.049 A 
ATOM     61  H   UNL A   1      41.964  30.992  32.172  1.00  0.00     0.167 HD
ATOM     62  C   UNL A   1      43.290  28.579  31.485  1.00  0.00     0.074 A 
ATOM     63  C   UNL A   1      43.599  27.323  30.831  1.00  0.00     0.031 C 
ATOM     64  C   UNL A   1      44.060  29.154  32.440  1.00  0.00     0.031 A 
BRANCH  51  65
ATOM     65  C   UNL A   1      41.855  34.486  34.622  1.00  0.00    -0.014 A 
ATOM     66  C   UNL A   1      41.255  34.438  35.890  1.00  0.00     0.009 A 
ATOM     67  C   UNL A   1      42.548  35.646  34.242  1.00  0.00     0.009 A 
ATOM     68  C   UNL A   1      41.335  35.531  36.757  1.00  0.00     0.001 A 
ATOM     69  C   UNL A   1      42.647  36.728  35.120  1.00  0.00     0.001 A 
ATOM     70  C   UNL A   1      42.035  36.672  36.372  1.00  0.00     0.000 A 
ENDBRANCH  51  65
BRANCH  52  71
ATOM     71  C   UNL A   1      40.301  27.009  28.205  1.00  0.00    -0.014 A 
ATOM     72  C   UNL A   1      39.557  25.904  28.646  1.00  0.00     0.009 A 
ATOM     73  C   UNL A   1      40.838  26.995  26.909  1.00  0.00     0.009 A 
ATOM     74  C   UNL A   1      39.378  24.794  27.818  1.00  0.00     0.001 A 
ATOM     75  C   UNL A   1      40.634  25.894  26.074  1.00  0.00     0.001 A 
ATOM     76  C   UNL A   1      39.915  24.792  26.532  1.00  0.00     0.000 A 
ENDBRANCH  52  71
BRANCH  64  77
ATOM     77  C   UNL A   1      45.320  28.441  32.833  1.00  0.00    -0.014 A 
ATOM     78  C   UNL A   1      46.517  28.700  32.148  1.00  0.00     0.009 A 
ATOM     79  C   UNL A   1      45.307  27.460  33.836  1.00  0.00     0.009 A 
ATOM     80  C   UNL A   1      47.675  27.985  32.453  1.00  0.00     0.001 A 
ATOM     81  C   UNL A   1      46.473  26.764  34.156  1.00  0.00     0.001 A 
ATOM     82  C   UNL A   1      47.654  27.022  33.462  1.00  0.00     0.000 A 
ENDBRANCH  64  77
ENDBRANCH  38  39
ENDBRANCH  30  33
ENDBRANCH  28  29
ENDBRANCH  27  28
ENDBRANCH   1  27
TORSDOF 15
ENDMDL
MODEL 3
REMARK VINA RESULT:     -11.9      0.602      5.849
REMARK SMILES CC(C)CSc1cc2c(cc1Cl)C=C(C(=O)NCCCCNC(=O)c1ccc(-c3c4nc(c(-c5ccccc5)c5ccc([nH]5)c(-c5ccccc5)c5nc(c(-c6ccccc6)c6ccc3[nH]6)C=C5)C=C4)cc1)[C@H](C(F)(F)F)O2
REMARK SMILES IDX 19 1 18 2 17 3 15 4 16 5 14 7 6 8 7 9 11 10 8 11 10 12 12 13
REMARK SMILES IDX 9 14 78 15 13 16 73 17 5 18 4 19 2 20 1 21 3 22 74 23 75 24
REMARK SMILES IDX 76 25 77 26 20 27 21 28 22 29 23 30 24 32 25 33 26 34 72 35
REMARK SMILES IDX 27 36 71 37 28 38 29 39 30 40 65 41 31 42 70 43 64 44 66 45
REMARK SMILES IDX 32 46 69 47 63 48 62 49 33 51 55 52 40 53 54 54 41 55 44 56
REMARK SMILES IDX 53 57 67 58 42 59 43 60 52 62 68 63 45 64 34 65 35 66 39 67
REMARK SMILES IDX 36 68 38 69 37 70 56 71 57 72 61 73 58 74 60 75 59 76 46 77
REMARK SMILES IDX 47 78 51 79 48 80 50 81 49 82
REMARK H PARENT 17 6 22 31 66 50 44 61
REMARK Flexibility Score: inf
ROOT
ATOM      1  C   UNL A   1      37.092  21.916  24.962  1.00  0.00     0.023 C 
ENDROOT
BRANCH   1   2
ATOM      2  C   UNL A   1      35.604  21.592  24.838  1.00  0.00     0.116 C 
BRANCH   2   3
ATOM      3  N   UNL A   1      34.992  21.344  26.130  1.00  0.00    -0.352 N 
ATOM      4  C   UNL A   1      34.035  21.913  26.899  1.00  0.00     0.251 C 
ATOM      5  O   UNL A   1      33.787  21.305  27.947  1.00  0.00    -0.270 OA
ATOM      6  H   UNL A   1      35.377  20.549  26.563  1.00  0.00     0.163 HD
BRANCH   4   7
ATOM      7  C   UNL A   1      33.291  23.170  26.587  1.00  0.00     0.067 C 
ATOM      8  C   UNL A   1      32.051  27.782  24.936  1.00  0.00     0.030 A 
ATOM      9  C   UNL A   1      31.429  26.829  25.754  1.00  0.00     0.063 A 
ATOM     10  C   UNL A   1      33.316  27.483  24.400  1.00  0.00     0.055 A 
ATOM     11  C   UNL A   1      32.075  25.637  26.071  1.00  0.00     0.129 A 
ATOM     12  C   UNL A   1      33.971  26.292  24.746  1.00  0.00     0.033 A 
ATOM     13  Cl  UNL A   1      34.124  28.510  23.269  1.00  0.00    -0.083 Cl
ATOM     14  C   UNL A   1      33.354  25.368  25.591  1.00  0.00     0.019 A 
ATOM     15  O   UNL A   1      31.415  24.781  26.905  1.00  0.00    -0.475 OA
ATOM     16  C   UNL A   1      34.020  24.137  25.996  1.00  0.00     0.025 C 
ATOM     17  C   UNL A   1      31.816  23.385  26.806  1.00  0.00     0.314 C 
BRANCH   8  18
ATOM     18  S   UNL A   1      31.118  29.282  24.658  1.00  0.00    -0.124 SA
BRANCH  18  19
ATOM     19  C   UNL A   1      30.583  29.106  22.915  1.00  0.00     0.078 C 
BRANCH  19  20
ATOM     20  C   UNL A   1      29.085  29.330  22.629  1.00  0.00    -0.007 C 
ATOM     21  C   UNL A   1      28.181  28.220  23.165  1.00  0.00     0.008 C 
ATOM     22  C   UNL A   1      28.659  30.659  23.267  1.00  0.00     0.008 C 
ENDBRANCH  19  20
ENDBRANCH  18  19
ENDBRANCH   8  18
BRANCH  17  23
ATOM     23  C   UNL A   1      30.930  22.653  25.782  1.00  0.00     0.429 C 
ATOM     24  F   UNL A   1      31.529  21.557  25.262  1.00  0.00    -0.167 F 
ATOM     25  F   UNL A   1      29.781  22.233  26.371  1.00  0.00    -0.167 F 
ATOM     26  F   UNL A   1      30.577  23.434  24.736  1.00  0.00    -0.167 F 
ENDBRANCH  17  23
ENDBRANCH   4   7
ENDBRANCH   2   3
ENDBRANCH   1   2
BRANCH   1  27
ATOM     27  C   UNL A   1      38.018  20.702  24.935  1.00  0.00     0.023 C 
BRANCH  27  28
ATOM     28  C   UNL A   1      39.115  20.697  25.991  1.00  0.00     0.116 C 
BRANCH  28  29
ATOM     29  N   UNL A   1      40.052  19.589  25.877  1.00  0.00    -0.352 N 
ATOM     30  C   UNL A   1      41.411  19.591  26.123  1.00  0.00     0.251 C 
ATOM     31  H   UNL A   1      39.669  18.729  25.589  1.00  0.00     0.163 HD
ATOM     32  O   UNL A   1      42.083  18.593  25.925  1.00  0.00    -0.269 OA
BRANCH  30  33
ATOM     33  C   UNL A   1      42.045  20.848  26.574  1.00  0.00     0.039 A 
ATOM     34  C   UNL A   1      42.091  21.166  27.930  1.00  0.00     0.014 A 
ATOM     35  C   UNL A   1      42.513  21.753  25.617  1.00  0.00     0.014 A 
ATOM     36  C   UNL A   1      42.419  22.457  28.316  1.00  0.00     0.010 A 
ATOM     37  C   UNL A   1      42.937  23.023  26.018  1.00  0.00     0.010 A 
ATOM     38  C   UNL A   1      42.837  23.404  27.364  1.00  0.00    -0.014 A 
BRANCH  38  39
ATOM     39  C   UNL A   1      43.150  24.782  27.818  1.00  0.00     0.031 A 
ATOM     40  C   UNL A   1      42.056  25.775  28.106  1.00  0.00     0.074 A 
ATOM     41  C   UNL A   1      44.435  25.105  28.063  1.00  0.00     0.049 A 
ATOM     42  N   UNL A   1      42.156  26.987  28.594  1.00  0.00    -0.248 NA
ATOM     43  C   UNL A   1      40.674  25.363  27.810  1.00  0.00     0.031 C 
ATOM     44  C   UNL A   1      45.581  24.221  27.840  1.00  0.00     0.029 A 
ATOM     45  N   UNL A   1      44.989  26.238  28.603  1.00  0.00    -0.354 N 
ATOM     46  C   UNL A   1      40.861  27.487  28.641  1.00  0.00     0.074 A 
ATOM     47  C   UNL A   1      39.991  26.459  28.114  1.00  0.00     0.031 C 
ATOM     48  C   UNL A   1      46.687  24.808  28.318  1.00  0.00     0.029 A 
ATOM     49  C   UNL A   1      46.342  26.134  28.817  1.00  0.00     0.049 A 
ATOM     50  H   UNL A   1      44.468  27.046  28.815  1.00  0.00     0.167 HD
ATOM     51  C   UNL A   1      40.435  28.691  29.091  1.00  0.00     0.031 A 
ATOM     52  C   UNL A   1      47.213  27.004  29.358  1.00  0.00     0.031 A 
ATOM     53  C   UNL A   1      41.298  29.708  29.630  1.00  0.00     0.049 A 
ATOM     54  C   UNL A   1      46.718  28.340  29.827  1.00  0.00     0.074 A 
ATOM     55  C   UNL A   1      40.954  30.955  30.123  1.00  0.00     0.029 A 
ATOM     56  N   UNL A   1      42.674  29.594  29.755  1.00  0.00    -0.354 N 
ATOM     57  N   UNL A   1      45.491  28.797  29.856  1.00  0.00    -0.248 NA
ATOM     58  C   UNL A   1      47.728  29.282  30.327  1.00  0.00     0.031 C 
ATOM     59  C   UNL A   1      42.127  31.614  30.502  1.00  0.00     0.029 A 
ATOM     60  C   UNL A   1      43.196  30.756  30.296  1.00  0.00     0.049 A 
ATOM     61  H   UNL A   1      43.202  28.803  29.497  1.00  0.00     0.167 HD
ATOM     62  C   UNL A   1      45.580  30.082  30.373  1.00  0.00     0.074 A 
ATOM     63  C   UNL A   1      46.977  30.318  30.673  1.00  0.00     0.031 C 
ATOM     64  C   UNL A   1      44.591  30.986  30.570  1.00  0.00     0.031 A 
BRANCH  51  65
ATOM     65  C   UNL A   1      38.966  28.995  29.006  1.00  0.00    -0.014 A 
ATOM     66  C   UNL A   1      38.422  29.474  27.803  1.00  0.00     0.009 A 
ATOM     67  C   UNL A   1      38.135  28.890  30.131  1.00  0.00     0.009 A 
ATOM     68  C   UNL A   1      37.080  29.851  27.729  1.00  0.00     0.001 A 
ATOM     69  C   UNL A   1      36.786  29.245  30.049  1.00  0.00     0.001 A 
ATOM     70  C   UNL A   1      36.262  29.731  28.851  1.00  0.00     0.000 A 
ENDBRANCH  51  65
BRANCH  52  71
ATOM     71  C   UNL A   1      48.642  26.620  29.482  1.00  0.00    -0.014 A 
ATOM     72  C   UNL A   1      49.109  25.979  30.640  1.00  0.00     0.009 A 
ATOM     73  C   UNL A   1      49.557  26.948  28.470  1.00  0.00     0.009 A 
ATOM     74  C   UNL A   1      50.468  25.698  30.797  1.00  0.00     0.001 A 
ATOM     75  C   UNL A   1      50.911  26.641  28.618  1.00  0.00     0.001 A 
ATOM     76  C   UNL A   1      51.366  26.028  29.784  1.00  0.00     0.000 A 
ENDBRANCH  52  71
BRANCH  64  77
ATOM     77  C   UNL A   1      44.979  32.324  31.128  1.00  0.00    -0.014 A 
ATOM     78  C   UNL A   1      45.349  33.365  30.262  1.00  0.00     0.009 A 
ATOM     79  C   UNL A   1      45.048  32.532  32.513  1.00  0.00     0.009 A 
ATOM     80  C   UNL A   1      45.788  34.586  30.773  1.00  0.00     0.001 A 
ATOM     81  C   UNL A   1      45.463  33.764  33.021  1.00  0.00     0.001 A 
ATOM     82  C   UNL A   1      45.839  34.787  32.152  1.00  0.00     0.000 A 
ENDBRANCH  64  77
ENDBRANCH  38  39
ENDBRANCH  30  33
ENDBRANCH  28  29
ENDBRANCH  27  28
ENDBRANCH   1  27
TORSDOF 15
ENDMDL
