MODEL 1
REMARK VINA RESULT:     -10.4      0.000      0.000
REMARK SMILES CC[C@@H](C)S(=O)(=O)c1cc(C(=O)NCCCCNC(=O)c2ccc(-c3c4nc(c(-c5ccccc5)c5ccc([nH]5)c(-c5ccccc5)c5nc(c(-c6ccccc6)c6ccc3[nH]6)C=C5)C=C4)cc2)c(C)cc1C
REMARK SMILES IDX 15 1 14 2 13 3 11 4 12 5 10 7 8 8 9 9 72 10 71 11 73 12
REMARK SMILES IDX 69 13 70 14 5 15 6 16 7 17 3 18 4 19 2 20 1 21 16 22 17 23
REMARK SMILES IDX 18 24 19 25 20 27 21 28 22 29 68 30 23 31 67 32 24 33 25 34
REMARK SMILES IDX 26 35 61 36 27 37 66 38 60 39 62 40 28 41 65 42 59 43 58 44
REMARK SMILES IDX 29 46 51 47 36 48 50 49 37 50 40 51 49 52 63 53 38 54 39 55
REMARK SMILES IDX 48 57 64 58 41 59 30 60 31 61 35 62 32 63 34 64 33 65 52 66
REMARK SMILES IDX 53 67 57 68 54 69 56 70 55 71 42 72 43 73 47 74 44 75 46 76
REMARK SMILES IDX 45 77
REMARK H PARENT 13 6 18 26 62 45 40 56
REMARK Flexibility Score: inf
ROOT
ATOM      1  C   UNL A   1      39.423  23.059  26.739  1.00  0.00     0.023 C 
ENDROOT
BRANCH   1   2
ATOM      2  C   UNL A   1      38.221  23.897  26.292  1.00  0.00     0.116 C 
BRANCH   2   3
ATOM      3  N   UNL A   1      37.755  23.414  25.017  1.00  0.00    -0.352 N 
ATOM      4  C   UNL A   1      36.531  23.326  24.418  1.00  0.00     0.251 C 
ATOM      5  O   UNL A   1      36.531  22.718  23.340  1.00  0.00    -0.269 OA
ATOM      6  H   UNL A   1      38.483  23.070  24.450  1.00  0.00     0.163 HD
BRANCH   4   7
ATOM      7  C   UNL A   1      35.239  23.956  24.864  1.00  0.00     0.044 A 
ATOM      8  C   UNL A   1      33.458  25.433  23.969  1.00  0.00     0.071 A 
ATOM      9  C   UNL A   1      34.715  24.830  23.875  1.00  0.00     0.034 A 
ATOM     10  C   UNL A   1      32.689  25.232  25.120  1.00  0.00    -0.032 A 
ATOM     11  C   UNL A   1      33.216  24.415  26.130  1.00  0.00     0.009 A 
ATOM     12  C   UNL A   1      31.318  25.810  25.336  1.00  0.00     0.046 C 
ATOM     13  C   UNL A   1      34.438  23.716  25.994  1.00  0.00    -0.038 A 
ATOM     14  C   UNL A   1      34.673  22.696  27.064  1.00  0.00     0.045 C 
BRANCH   8  15
ATOM     15  S   UNL A   1      32.776  26.334  22.582  1.00  0.00     0.181 S 
ATOM     16  O   UNL A   1      31.368  25.972  22.520  1.00  0.00    -0.223 OA
ATOM     17  O   UNL A   1      33.646  26.028  21.462  1.00  0.00    -0.223 OA
BRANCH  15  18
ATOM     18  C   UNL A   1      32.801  28.103  22.841  1.00  0.00     0.110 C 
ATOM     19  C   UNL A   1      33.655  28.569  24.018  1.00  0.00     0.025 C 
BRANCH  18  20
ATOM     20  C   UNL A   1      31.396  28.720  22.792  1.00  0.00     0.016 C 
ATOM     21  C   UNL A   1      30.912  29.212  24.148  1.00  0.00     0.005 C 
ENDBRANCH  18  20
ENDBRANCH  15  18
ENDBRANCH   8  15
ENDBRANCH   4   7
ENDBRANCH   2   3
ENDBRANCH   1   2
BRANCH   1  22
ATOM     22  C   UNL A   1      39.533  21.678  26.103  1.00  0.00     0.023 C 
BRANCH  22  23
ATOM     23  C   UNL A   1      40.376  20.690  26.888  1.00  0.00     0.116 C 
BRANCH  23  24
ATOM     24  N   UNL A   1      41.438  20.073  26.107  1.00  0.00    -0.352 N 
ATOM     25  C   UNL A   1      42.675  20.592  25.790  1.00  0.00     0.251 C 
ATOM     26  H   UNL A   1      41.249  19.171  25.762  1.00  0.00     0.163 HD
ATOM     27  O   UNL A   1      43.445  19.988  25.069  1.00  0.00    -0.269 OA
BRANCH  25  28
ATOM     28  C   UNL A   1      43.018  21.934  26.306  1.00  0.00     0.039 A 
ATOM     29  C   UNL A   1      43.088  22.998  25.407  1.00  0.00     0.014 A 
ATOM     30  C   UNL A   1      43.167  22.143  27.678  1.00  0.00     0.014 A 
ATOM     31  C   UNL A   1      43.229  24.297  25.897  1.00  0.00     0.010 A 
ATOM     32  C   UNL A   1      43.220  23.442  28.168  1.00  0.00     0.010 A 
ATOM     33  C   UNL A   1      43.250  24.529  27.282  1.00  0.00    -0.014 A 
BRANCH  33  34
ATOM     34  C   UNL A   1      43.309  25.902  27.833  1.00  0.00     0.031 A 
ATOM     35  C   UNL A   1      44.634  26.486  28.235  1.00  0.00     0.074 A 
ATOM     36  C   UNL A   1      42.170  26.588  28.047  1.00  0.00     0.049 A 
ATOM     37  N   UNL A   1      44.889  27.632  28.812  1.00  0.00    -0.248 NA
ATOM     38  C   UNL A   1      45.825  25.657  27.989  1.00  0.00     0.031 C 
ATOM     39  C   UNL A   1      40.818  26.108  27.749  1.00  0.00     0.029 A 
ATOM     40  N   UNL A   1      41.969  27.838  28.574  1.00  0.00    -0.354 N 
ATOM     41  C   UNL A   1      46.262  27.648  29.021  1.00  0.00     0.074 A 
ATOM     42  C   UNL A   1      46.778  26.380  28.556  1.00  0.00     0.031 C 
ATOM     43  C   UNL A   1      39.931  27.065  28.071  1.00  0.00     0.029 A 
ATOM     44  C   UNL A   1      40.647  28.207  28.628  1.00  0.00     0.049 A 
ATOM     45  H   UNL A   1      42.703  28.415  28.886  1.00  0.00     0.167 HD
ATOM     46  C   UNL A   1      47.028  28.639  29.534  1.00  0.00     0.031 A 
ATOM     47  C   UNL A   1      40.077  29.341  29.076  1.00  0.00     0.031 A 
ATOM     48  C   UNL A   1      46.519  29.910  29.966  1.00  0.00     0.049 A 
ATOM     49  C   UNL A   1      40.953  30.436  29.616  1.00  0.00     0.074 A 
ATOM     50  C   UNL A   1      47.220  31.005  30.439  1.00  0.00     0.029 A 
ATOM     51  N   UNL A   1      45.177  30.257  29.971  1.00  0.00    -0.354 N 
ATOM     52  N   UNL A   1      42.257  30.463  29.746  1.00  0.00    -0.248 NA
ATOM     53  C   UNL A   1      40.277  31.664  30.060  1.00  0.00     0.031 C 
ATOM     54  C   UNL A   1      46.298  32.006  30.761  1.00  0.00     0.029 A 
ATOM     55  C   UNL A   1      45.028  31.547  30.450  1.00  0.00     0.049 A 
ATOM     56  H   UNL A   1      44.440  29.674  29.678  1.00  0.00     0.167 HD
ATOM     57  C   UNL A   1      42.561  31.716  30.260  1.00  0.00     0.074 A 
ATOM     58  C   UNL A   1      41.306  32.425  30.407  1.00  0.00     0.031 C 
ATOM     59  C   UNL A   1      43.771  32.235  30.581  1.00  0.00     0.031 A 
BRANCH  46  60
ATOM     60  C   UNL A   1      48.502  28.376  29.648  1.00  0.00    -0.014 A 
ATOM     61  C   UNL A   1      49.051  27.815  30.813  1.00  0.00     0.009 A 
ATOM     62  C   UNL A   1      49.352  28.675  28.572  1.00  0.00     0.009 A 
ATOM     63  C   UNL A   1      50.426  27.597  30.913  1.00  0.00     0.001 A 
ATOM     64  C   UNL A   1      50.722  28.431  28.664  1.00  0.00     0.001 A 
ATOM     65  C   UNL A   1      51.260  27.902  29.837  1.00  0.00     0.000 A 
ENDBRANCH  46  60
BRANCH  47  66
ATOM     66  C   UNL A   1      38.605  29.514  29.005  1.00  0.00    -0.014 A 
ATOM     67  C   UNL A   1      37.808  29.267  30.133  1.00  0.00     0.009 A 
ATOM     68  C   UNL A   1      37.988  29.921  27.812  1.00  0.00     0.009 A 
ATOM     69  C   UNL A   1      36.418  29.397  30.060  1.00  0.00     0.001 A 
ATOM     70  C   UNL A   1      36.600  30.075  27.751  1.00  0.00     0.001 A 
ATOM     71  C   UNL A   1      35.817  29.804  28.871  1.00  0.00     0.000 A 
ENDBRANCH  47  66
BRANCH  59  72
ATOM     72  C   UNL A   1      43.797  33.647  31.087  1.00  0.00    -0.014 A 
ATOM     73  C   UNL A   1      43.892  34.733  30.205  1.00  0.00     0.009 A 
ATOM     74  C   UNL A   1      43.676  33.892  32.464  1.00  0.00     0.009 A 
ATOM     75  C   UNL A   1      43.895  36.039  30.696  1.00  0.00     0.001 A 
ATOM     76  C   UNL A   1      43.654  35.200  32.949  1.00  0.00     0.001 A 
ATOM     77  C   UNL A   1      43.771  36.272  32.066  1.00  0.00     0.000 A 
ENDBRANCH  59  72
ENDBRANCH  33  34
ENDBRANCH  25  28
ENDBRANCH  23  24
ENDBRANCH  22  23
ENDBRANCH   1  22
TORSDOF 14
ENDMDL
MODEL 2
REMARK VINA RESULT:     -10.3      3.313      8.463
REMARK SMILES CC[C@@H](C)S(=O)(=O)c1cc(C(=O)NCCCCNC(=O)c2ccc(-c3c4nc(c(-c5ccccc5)c5ccc([nH]5)c(-c5ccccc5)c5nc(c(-c6ccccc6)c6ccc3[nH]6)C=C5)C=C4)cc2)c(C)cc1C
REMARK SMILES IDX 15 1 14 2 13 3 11 4 12 5 10 7 8 8 9 9 72 10 71 11 73 12
REMARK SMILES IDX 69 13 70 14 5 15 6 16 7 17 3 18 4 19 2 20 1 21 16 22 17 23
REMARK SMILES IDX 18 24 19 25 20 27 21 28 22 29 68 30 23 31 67 32 24 33 25 34
REMARK SMILES IDX 26 35 61 36 27 37 66 38 60 39 62 40 28 41 65 42 59 43 58 44
REMARK SMILES IDX 29 46 51 47 36 48 50 49 37 50 40 51 49 52 63 53 38 54 39 55
REMARK SMILES IDX 48 57 64 58 41 59 30 60 31 61 35 62 32 63 34 64 33 65 52 66
REMARK SMILES IDX 53 67 57 68 54 69 56 70 55 71 42 72 43 73 47 74 44 75 46 76
REMARK SMILES IDX 45 77
REMARK H PARENT 13 6 18 26 62 45 40 56
REMARK Flexibility Score: inf
ROOT
ATOM      1  C   UNL A   1      34.538  30.730  27.865  1.00  0.00     0.023 C 
ENDROOT
BRANCH   1   2
ATOM      2  C   UNL A   1      34.642  29.421  27.076  1.00  0.00     0.116 C 
BRANCH   2   3
ATOM      3  N   UNL A   1      34.094  29.618  25.758  1.00  0.00    -0.352 N 
ATOM      4  C   UNL A   1      33.370  28.842  24.899  1.00  0.00     0.251 C 
ATOM      5  O   UNL A   1      33.195  29.343  23.781  1.00  0.00    -0.269 OA
ATOM      6  H   UNL A   1      34.283  30.515  25.396  1.00  0.00     0.163 HD
BRANCH   4   7
ATOM      7  C   UNL A   1      32.699  27.526  25.187  1.00  0.00     0.044 A 
ATOM      8  C   UNL A   1      32.741  25.178  24.389  1.00  0.00     0.071 A 
ATOM      9  C   UNL A   1      33.100  26.523  24.266  1.00  0.00     0.034 A 
ATOM     10  C   UNL A   1      31.888  24.791  25.428  1.00  0.00    -0.032 A 
ATOM     11  C   UNL A   1      31.439  25.780  26.314  1.00  0.00     0.009 A 
ATOM     12  C   UNL A   1      31.441  23.378  25.679  1.00  0.00     0.046 C 
ATOM     13  C   UNL A   1      31.884  27.122  26.259  1.00  0.00    -0.038 A 
ATOM     14  C   UNL A   1      31.499  27.937  27.453  1.00  0.00     0.045 C 
BRANCH   8  15
ATOM     15  S   UNL A   1      33.473  23.939  23.324  1.00  0.00     0.181 S 
ATOM     16  O   UNL A   1      34.159  24.669  22.270  1.00  0.00    -0.223 OA
ATOM     17  O   UNL A   1      32.387  23.038  22.985  1.00  0.00    -0.223 OA
BRANCH  15  18
ATOM     18  C   UNL A   1      34.744  22.994  24.154  1.00  0.00     0.110 C 
ATOM     19  C   UNL A   1      34.358  21.555  24.490  1.00  0.00     0.025 C 
BRANCH  18  20
ATOM     20  C   UNL A   1      35.383  23.769  25.315  1.00  0.00     0.016 C 
ATOM     21  C   UNL A   1      35.070  23.169  26.678  1.00  0.00     0.005 C 
ENDBRANCH  18  20
ENDBRANCH  15  18
ENDBRANCH   8  15
ENDBRANCH   4   7
ENDBRANCH   2   3
ENDBRANCH   1   2
BRANCH   1  22
ATOM     22  C   UNL A   1      33.241  31.508  27.677  1.00  0.00     0.023 C 
BRANCH  22  23
ATOM     23  C   UNL A   1      33.427  32.928  27.175  1.00  0.00     0.116 C 
BRANCH  23  24
ATOM     24  N   UNL A   1      32.796  33.937  28.015  1.00  0.00    -0.352 N 
ATOM     25  C   UNL A   1      33.262  34.477  29.193  1.00  0.00     0.251 C 
ATOM     26  H   UNL A   1      31.926  34.274  27.700  1.00  0.00     0.163 HD
ATOM     27  O   UNL A   1      32.594  35.270  29.829  1.00  0.00    -0.269 OA
BRANCH  25  28
ATOM     28  C   UNL A   1      34.575  34.023  29.695  1.00  0.00     0.039 A 
ATOM     29  C   UNL A   1      34.610  33.165  30.795  1.00  0.00     0.014 A 
ATOM     30  C   UNL A   1      35.745  34.366  29.017  1.00  0.00     0.014 A 
ATOM     31  C   UNL A   1      35.822  32.582  31.167  1.00  0.00     0.010 A 
ATOM     32  C   UNL A   1      36.932  33.720  29.334  1.00  0.00     0.010 A 
ATOM     33  C   UNL A   1      36.981  32.821  30.411  1.00  0.00    -0.014 A 
BRANCH  33  34
ATOM     34  C   UNL A   1      38.262  32.149  30.728  1.00  0.00     0.031 A 
ATOM     35  C   UNL A   1      39.226  32.797  31.680  1.00  0.00     0.074 A 
ATOM     36  C   UNL A   1      38.590  31.005  30.100  1.00  0.00     0.049 A 
ATOM     37  N   UNL A   1      40.429  32.414  32.023  1.00  0.00    -0.248 NA
ATOM     38  C   UNL A   1      38.796  34.060  32.302  1.00  0.00     0.031 C 
ATOM     39  C   UNL A   1      37.762  30.306  29.113  1.00  0.00     0.029 A 
ATOM     40  N   UNL A   1      39.718  30.229  30.194  1.00  0.00    -0.354 N 
ATOM     41  C   UNL A   1      40.907  33.401  32.875  1.00  0.00     0.074 A 
ATOM     42  C   UNL A   1      39.887  34.422  32.959  1.00  0.00     0.031 C 
ATOM     43  C   UNL A   1      38.398  29.190  28.716  1.00  0.00     0.029 A 
ATOM     44  C   UNL A   1      39.688  29.114  29.393  1.00  0.00     0.049 A 
ATOM     45  H   UNL A   1      40.476  30.452  30.780  1.00  0.00     0.167 HD
ATOM     46  C   UNL A   1      42.081  33.443  33.547  1.00  0.00     0.031 A 
ATOM     47  C   UNL A   1      40.600  28.139  29.223  1.00  0.00     0.031 A 
ATOM     48  C   UNL A   1      43.081  32.413  33.488  1.00  0.00     0.049 A 
ATOM     49  C   UNL A   1      41.885  28.196  30.001  1.00  0.00     0.074 A 
ATOM     50  C   UNL A   1      44.275  32.329  34.181  1.00  0.00     0.029 A 
ATOM     51  N   UNL A   1      42.996  31.282  32.691  1.00  0.00    -0.354 N 
ATOM     52  N   UNL A   1      42.294  29.101  30.855  1.00  0.00    -0.248 NA
ATOM     53  C   UNL A   1      42.828  27.086  29.800  1.00  0.00     0.031 C 
ATOM     54  C   UNL A   1      44.930  31.161  33.779  1.00  0.00     0.029 A 
ATOM     55  C   UNL A   1      44.124  30.499  32.867  1.00  0.00     0.049 A 
ATOM     56  H   UNL A   1      42.247  31.068  32.090  1.00  0.00     0.167 HD
ATOM     57  C   UNL A   1      43.528  28.660  31.313  1.00  0.00     0.074 A 
ATOM     58  C   UNL A   1      43.794  27.399  30.652  1.00  0.00     0.031 C 
ATOM     59  C   UNL A   1      44.365  29.245  32.203  1.00  0.00     0.031 A 
BRANCH  46  60
ATOM     60  C   UNL A   1      42.337  34.648  34.405  1.00  0.00    -0.014 A 
ATOM     61  C   UNL A   1      41.974  34.662  35.762  1.00  0.00     0.009 A 
ATOM     62  C   UNL A   1      42.965  35.777  33.857  1.00  0.00     0.009 A 
ATOM     63  C   UNL A   1      42.199  35.798  36.542  1.00  0.00     0.001 A 
ATOM     64  C   UNL A   1      43.213  36.901  34.646  1.00  0.00     0.001 A 
ATOM     65  C   UNL A   1      42.822  36.914  35.984  1.00  0.00     0.000 A 
ENDBRANCH  46  60
BRANCH  47  66
ATOM     66  C   UNL A   1      40.321  27.007  28.304  1.00  0.00    -0.014 A 
ATOM     67  C   UNL A   1      40.818  27.024  26.991  1.00  0.00     0.009 A 
ATOM     68  C   UNL A   1      39.554  25.911  28.727  1.00  0.00     0.009 A 
ATOM     69  C   UNL A   1      40.529  25.976  26.112  1.00  0.00     0.001 A 
ATOM     70  C   UNL A   1      39.289  24.854  27.853  1.00  0.00     0.001 A 
ATOM     71  C   UNL A   1      39.769  24.892  26.545  1.00  0.00     0.000 A 
ENDBRANCH  47  66
BRANCH  59  72
ATOM     72  C   UNL A   1      45.629  28.510  32.539  1.00  0.00    -0.014 A 
ATOM     73  C   UNL A   1      46.817  28.745  31.830  1.00  0.00     0.009 A 
ATOM     74  C   UNL A   1      45.640  27.605  33.613  1.00  0.00     0.009 A 
ATOM     75  C   UNL A   1      47.986  28.064  32.173  1.00  0.00     0.001 A 
ATOM     76  C   UNL A   1      46.817  26.945  33.967  1.00  0.00     0.001 A 
ATOM     77  C   UNL A   1      47.986  27.169  33.243  1.00  0.00     0.000 A 
ENDBRANCH  59  72
ENDBRANCH  33  34
ENDBRANCH  25  28
ENDBRANCH  23  24
ENDBRANCH  22  23
ENDBRANCH   1  22
TORSDOF 14
ENDMDL
MODEL 3
REMARK VINA RESULT:     -10.3      1.429      2.026
REMARK SMILES CC[C@@H](C)S(=O)(=O)c1cc(C(=O)NCCCCNC(=O)c2ccc(-c3c4nc(c(-c5ccccc5)c5ccc([nH]5)c(-c5ccccc5)c5nc(c(-c6ccccc6)c6ccc3[nH]6)C=C5)C=C4)cc2)c(C)cc1C
REMARK SMILES IDX 15 1 14 2 13 3 11 4 12 5 10 7 8 8 9 9 72 10 71 11 73 12
REMARK SMILES IDX 69 13 70 14 5 15 6 16 7 17 3 18 4 19 2 20 1 21 16 22 17 23
REMARK SMILES IDX 18 24 19 25 20 27 21 28 22 29 68 30 23 31 67 32 24 33 25 34
REMARK SMILES IDX 26 35 61 36 27 37 66 38 60 39 62 40 28 41 65 42 59 43 58 44
REMARK SMILES IDX 29 46 51 47 36 48 50 49 37 50 40 51 49 52 63 53 38 54 39 55
REMARK SMILES IDX 48 57 64 58 41 59 30 60 31 61 35 62 32 63 34 64 33 65 52 66
REMARK SMILES IDX 53 67 57 68 54 69 56 70 55 71 42 72 43 73 47 74 44 75 46 76
REMARK SMILES IDX 45 77
REMARK H PARENT 13 6 18 26 62 45 40 56
REMARK Flexibility Score: inf
ROOT
ATOM      1  C   UNL A   1      38.932  22.918  26.190  1.00  0.00     0.023 C 
ENDROOT
BRANCH   1   2
ATOM      2  C   UNL A   1      37.604  23.683  26.174  1.00  0.00     0.116 C 
BRANCH   2   3
ATOM      3  N   UNL A   1      36.543  22.797  26.582  1.00  0.00    -0.352 N 
ATOM      4  C   UNL A   1      35.230  22.656  26.235  1.00  0.00     0.251 C 
ATOM      5  O   UNL A   1      34.604  21.839  26.922  1.00  0.00    -0.269 OA
ATOM      6  H   UNL A   1      36.829  22.147  27.264  1.00  0.00     0.163 HD
BRANCH   4   7
ATOM      7  C   UNL A   1      34.508  23.295  25.079  1.00  0.00     0.044 A 
ATOM      8  C   UNL A   1      32.574  24.793  24.664  1.00  0.00     0.071 A 
ATOM      9  C   UNL A   1      33.348  23.993  25.509  1.00  0.00     0.034 A 
ATOM     10  C   UNL A   1      32.904  24.870  23.307  1.00  0.00    -0.032 A 
ATOM     11  C   UNL A   1      34.014  24.144  22.856  1.00  0.00     0.009 A 
ATOM     12  C   UNL A   1      32.163  25.706  22.300  1.00  0.00     0.046 C 
ATOM     13  C   UNL A   1      34.863  23.419  23.724  1.00  0.00    -0.038 A 
ATOM     14  C   UNL A   1      36.131  22.952  23.081  1.00  0.00     0.045 C 
BRANCH   8  15
ATOM     15  S   UNL A   1      31.268  25.820  25.329  1.00  0.00     0.181 S 
ATOM     16  O   UNL A   1      31.097  25.409  26.713  1.00  0.00    -0.223 OA
ATOM     17  O   UNL A   1      30.163  25.683  24.397  1.00  0.00    -0.223 OA
BRANCH  15  18
ATOM     18  C   UNL A   1      31.728  27.546  25.398  1.00  0.00     0.110 C 
ATOM     19  C   UNL A   1      31.011  28.443  24.391  1.00  0.00     0.025 C 
BRANCH  18  20
ATOM     20  C   UNL A   1      33.250  27.742  25.453  1.00  0.00     0.016 C 
ATOM     21  C   UNL A   1      33.732  28.302  26.784  1.00  0.00     0.005 C 
ENDBRANCH  18  20
ENDBRANCH  15  18
ENDBRANCH   8  15
ENDBRANCH   4   7
ENDBRANCH   2   3
ENDBRANCH   1   2
BRANCH   1  22
ATOM     22  C   UNL A   1      38.889  21.517  25.594  1.00  0.00     0.023 C 
BRANCH  22  23
ATOM     23  C   UNL A   1      39.381  20.423  26.523  1.00  0.00     0.116 C 
BRANCH  23  24
ATOM     24  N   UNL A   1      40.423  19.585  25.946  1.00  0.00    -0.352 N 
ATOM     25  C   UNL A   1      41.772  19.847  25.851  1.00  0.00     0.251 C 
ATOM     26  H   UNL A   1      40.124  18.722  25.577  1.00  0.00     0.163 HD
ATOM     27  O   UNL A   1      42.523  19.079  25.280  1.00  0.00    -0.269 OA
BRANCH  25  28
ATOM     28  C   UNL A   1      42.275  21.117  26.413  1.00  0.00     0.039 A 
ATOM     29  C   UNL A   1      42.589  22.158  25.538  1.00  0.00     0.014 A 
ATOM     30  C   UNL A   1      42.335  21.300  27.795  1.00  0.00     0.014 A 
ATOM     31  C   UNL A   1      42.888  23.418  26.057  1.00  0.00     0.010 A 
ATOM     32  C   UNL A   1      42.548  22.573  28.306  1.00  0.00     0.010 A 
ATOM     33  C   UNL A   1      42.825  23.643  27.441  1.00  0.00    -0.014 A 
BRANCH  33  34
ATOM     34  C   UNL A   1      43.051  24.990  28.015  1.00  0.00     0.031 A 
ATOM     35  C   UNL A   1      44.430  25.389  28.456  1.00  0.00     0.074 A 
ATOM     36  C   UNL A   1      42.007  25.817  28.213  1.00  0.00     0.049 A 
ATOM     37  N   UNL A   1      44.819  26.484  29.057  1.00  0.00    -0.248 NA
ATOM     38  C   UNL A   1      45.508  24.413  28.225  1.00  0.00     0.031 C 
ATOM     39  C   UNL A   1      40.611  25.522  27.877  1.00  0.00     0.029 A 
ATOM     40  N   UNL A   1      41.959  27.076  28.756  1.00  0.00    -0.354 N 
ATOM     41  C   UNL A   1      46.176  26.316  29.298  1.00  0.00     0.074 A 
ATOM     42  C   UNL A   1      46.533  24.998  28.825  1.00  0.00     0.031 C 
ATOM     43  C   UNL A   1      39.849  26.584  28.194  1.00  0.00     0.029 A 
ATOM     44  C   UNL A   1      40.696  27.615  28.784  1.00  0.00     0.049 A 
ATOM     45  H   UNL A   1      42.754  27.547  29.093  1.00  0.00     0.167 HD
ATOM     46  C   UNL A   1      47.053  27.191  29.843  1.00  0.00     0.031 A 
ATOM     47  C   UNL A   1      40.269  28.808  29.237  1.00  0.00     0.031 A 
ATOM     48  C   UNL A   1      46.705  28.513  30.283  1.00  0.00     0.049 A 
ATOM     49  C   UNL A   1      41.267  29.772  29.814  1.00  0.00     0.074 A 
ATOM     50  C   UNL A   1      47.532  29.500  30.788  1.00  0.00     0.029 A 
ATOM     51  N   UNL A   1      45.421  29.034  30.262  1.00  0.00    -0.354 N 
ATOM     52  N   UNL A   1      42.560  29.625  29.974  1.00  0.00    -0.248 NA
ATOM     53  C   UNL A   1      40.748  31.072  30.261  1.00  0.00     0.031 C 
ATOM     54  C   UNL A   1      46.741  30.610  31.105  1.00  0.00     0.029 A 
ATOM     55  C   UNL A   1      45.430  30.326  30.758  1.00  0.00     0.049 A 
ATOM     56  H   UNL A   1      44.621  28.557  29.944  1.00  0.00     0.167 HD
ATOM     57  C   UNL A   1      43.012  30.821  30.514  1.00  0.00     0.074 A 
ATOM     58  C   UNL A   1      41.859  31.687  30.643  1.00  0.00     0.031 C 
ATOM     59  C   UNL A   1      44.272  31.172  30.871  1.00  0.00     0.031 A 
BRANCH  46  60
ATOM     60  C   UNL A   1      48.477  26.735  29.987  1.00  0.00    -0.014 A 
ATOM     61  C   UNL A   1      48.899  26.024  31.122  1.00  0.00     0.009 A 
ATOM     62  C   UNL A   1      49.404  27.003  28.968  1.00  0.00     0.009 A 
ATOM     63  C   UNL A   1      50.231  25.626  31.252  1.00  0.00     0.001 A 
ATOM     64  C   UNL A   1      50.728  26.580  29.088  1.00  0.00     0.001 A 
ATOM     65  C   UNL A   1      51.143  25.901  30.233  1.00  0.00     0.000 A 
ENDBRANCH  46  60
BRANCH  47  66
ATOM     66  C   UNL A   1      38.834  29.175  29.135  1.00  0.00    -0.014 A 
ATOM     67  C   UNL A   1      38.320  29.693  27.936  1.00  0.00     0.009 A 
ATOM     68  C   UNL A   1      37.973  29.018  30.232  1.00  0.00     0.009 A 
ATOM     69  C   UNL A   1      36.977  30.070  27.846  1.00  0.00     0.001 A 
ATOM     70  C   UNL A   1      36.626  29.372  30.130  1.00  0.00     0.001 A 
ATOM     71  C   UNL A   1      36.132  29.906  28.941  1.00  0.00     0.000 A 
ENDBRANCH  47  66
BRANCH  59  72
ATOM     72  C   UNL A   1      44.471  32.561  31.399  1.00  0.00    -0.014 A 
ATOM     73  C   UNL A   1      44.396  32.834  32.774  1.00  0.00     0.009 A 
ATOM     74  C   UNL A   1      44.785  33.603  30.511  1.00  0.00     0.009 A 
ATOM     75  C   UNL A   1      44.605  34.131  33.245  1.00  0.00     0.001 A 
ATOM     76  C   UNL A   1      45.017  34.892  30.990  1.00  0.00     0.001 A 
ATOM     77  C   UNL A   1      44.919  35.157  32.354  1.00  0.00     0.000 A 
ENDBRANCH  59  72
ENDBRANCH  33  34
ENDBRANCH  25  28
ENDBRANCH  23  24
ENDBRANCH  22  23
ENDBRANCH   1  22
TORSDOF 14
ENDMDL
