MODEL 1
REMARK VINA RESULT:     -12.9      0.000      0.000
REMARK SMILES O=C(NCCCCNC(=O)[C@H]1CC=CC[C@@H]1C(=O)N[C@@H]1CCCN(c2ccccc2F)C1=O)c1ccc(-c2c3nc(c(-c4ccccc4)c4ccc([nH]4)c(-c4ccccc4)c4nc(c(-c5ccccc5)c5ccc2[nH]5)C=C4)C=C3)cc1
REMARK SMILES IDX 6 1 5 2 4 3 3 4 1 5 2 6 34 8 35 9 81 10 36 11 80 12 37 13
REMARK SMILES IDX 38 14 39 15 74 16 40 17 79 18 73 19 75 20 41 21 78 22 72 23
REMARK SMILES IDX 71 24 42 26 64 27 49 28 63 29 50 30 53 31 62 32 76 33 51 34
REMARK SMILES IDX 52 35 61 37 77 38 54 39 43 40 44 41 48 42 45 43 47 44 46 45
REMARK SMILES IDX 65 46 66 47 70 48 67 49 69 50 68 51 55 52 56 53 60 54 57 55
REMARK SMILES IDX 59 56 58 57 7 58 8 59 9 60 10 62 11 63 12 64 16 65 13 66
REMARK SMILES IDX 15 67 14 68 17 69 18 70 19 71 20 73 21 74 32 75 22 76 24 77
REMARK SMILES IDX 33 78 23 79 25 80 26 81 30 82 27 83 29 84 31 85 28 86
REMARK H PARENT 3 7 75 25 53 36 8 61 19 72
REMARK Flexibility Score: inf
ROOT
ATOM      1  C   UNL A   1      31.812  30.700  26.172  1.00  0.00     0.023 C 
ENDROOT
BRANCH   1   2
ATOM      2  C   UNL A   1      32.637  29.991  27.250  1.00  0.00     0.023 C 
BRANCH   2   3
ATOM      3  C   UNL A   1      34.073  30.479  27.451  1.00  0.00     0.116 C 
BRANCH   3   4
ATOM      4  N   UNL A   1      34.295  31.219  28.690  1.00  0.00    -0.352 N 
ATOM      5  O   UNL A   1      35.299  31.895  30.600  1.00  0.00    -0.269 OA
ATOM      6  C   UNL A   1      35.350  31.214  29.577  1.00  0.00     0.251 C 
ATOM      7  H   UNL A   1      33.562  31.829  28.934  1.00  0.00     0.163 HD
BRANCH   6   8
ATOM      8  C   UNL A   1      36.525  30.351  29.339  1.00  0.00     0.039 A 
ATOM      9  C   UNL A   1      37.071  29.588  30.367  1.00  0.00     0.014 A 
ATOM     10  C   UNL A   1      37.121  30.344  28.073  1.00  0.00     0.014 A 
ATOM     11  C   UNL A   1      38.337  29.039  30.210  1.00  0.00     0.010 A 
ATOM     12  C   UNL A   1      38.344  29.693  27.883  1.00  0.00     0.010 A 
ATOM     13  C   UNL A   1      39.001  29.106  28.974  1.00  0.00    -0.014 A 
BRANCH  13  14
ATOM     14  C   UNL A   1      40.389  28.585  28.870  1.00  0.00     0.031 A 
ATOM     15  C   UNL A   1      40.654  27.168  28.432  1.00  0.00     0.074 A 
ATOM     16  C   UNL A   1      41.419  29.427  29.084  1.00  0.00     0.049 A 
ATOM     17  N   UNL A   1      41.801  26.576  28.204  1.00  0.00    -0.248 NA
ATOM     18  C   UNL A   1      39.486  26.295  28.229  1.00  0.00     0.031 C 
ATOM     19  C   UNL A   1      41.290  30.825  29.503  1.00  0.00     0.029 A 
ATOM     20  N   UNL A   1      42.770  29.248  28.936  1.00  0.00    -0.354 N 
ATOM     21  C   UNL A   1      41.495  25.262  27.868  1.00  0.00     0.074 A 
ATOM     22  C   UNL A   1      40.056  25.135  27.936  1.00  0.00     0.031 C 
ATOM     23  C   UNL A   1      42.502  31.398  29.496  1.00  0.00     0.029 A 
ATOM     24  C   UNL A   1      43.498  30.393  29.144  1.00  0.00     0.049 A 
ATOM     25  H   UNL A   1      43.177  28.381  28.704  1.00  0.00     0.167 HD
ATOM     26  C   UNL A   1      42.335  24.254  27.529  1.00  0.00     0.031 A 
ATOM     27  C   UNL A   1      44.823  30.614  29.061  1.00  0.00     0.031 A 
ATOM     28  C   UNL A   1      43.765  24.386  27.439  1.00  0.00     0.049 A 
ATOM     29  C   UNL A   1      45.729  29.479  28.692  1.00  0.00     0.074 A 
ATOM     30  C   UNL A   1      44.700  23.432  27.075  1.00  0.00     0.029 A 
ATOM     31  N   UNL A   1      44.467  25.549  27.716  1.00  0.00    -0.354 N 
ATOM     32  N   UNL A   1      45.418  28.249  28.365  1.00  0.00    -0.248 NA
ATOM     33  C   UNL A   1      47.170  29.763  28.688  1.00  0.00     0.031 C 
ATOM     34  C   UNL A   1      45.972  24.005  27.175  1.00  0.00     0.029 A 
ATOM     35  C   UNL A   1      45.826  25.330  27.553  1.00  0.00     0.049 A 
ATOM     36  H   UNL A   1      44.061  26.403  27.989  1.00  0.00     0.167 HD
ATOM     37  C   UNL A   1      46.624  27.612  28.106  1.00  0.00     0.074 A 
ATOM     38  C   UNL A   1      47.668  28.601  28.290  1.00  0.00     0.031 C 
ATOM     39  C   UNL A   1      46.848  26.323  27.754  1.00  0.00     0.031 A 
BRANCH  26  40
ATOM     40  C   UNL A   1      41.728  22.902  27.265  1.00  0.00    -0.014 A 
ATOM     41  C   UNL A   1      41.912  21.827  28.149  1.00  0.00     0.009 A 
ATOM     42  C   UNL A   1      40.927  22.712  26.127  1.00  0.00     0.009 A 
ATOM     43  C   UNL A   1      41.335  20.582  27.880  1.00  0.00     0.001 A 
ATOM     44  C   UNL A   1      40.331  21.475  25.874  1.00  0.00     0.001 A 
ATOM     45  C   UNL A   1      40.543  20.409  26.746  1.00  0.00     0.000 A 
ENDBRANCH  26  40
BRANCH  27  46
ATOM     46  C   UNL A   1      45.360  31.972  29.334  1.00  0.00    -0.014 A 
ATOM     47  C   UNL A   1      45.575  32.879  28.286  1.00  0.00     0.009 A 
ATOM     48  C   UNL A   1      45.632  32.377  30.651  1.00  0.00     0.009 A 
ATOM     49  C   UNL A   1      46.061  34.160  28.550  1.00  0.00     0.001 A 
ATOM     50  C   UNL A   1      46.091  33.669  30.913  1.00  0.00     0.001 A 
ATOM     51  C   UNL A   1      46.311  34.557  29.863  1.00  0.00     0.000 A 
ENDBRANCH  27  46
BRANCH  39  52
ATOM     52  C   UNL A   1      48.277  25.924  27.529  1.00  0.00    -0.014 A 
ATOM     53  C   UNL A   1      49.077  25.469  28.588  1.00  0.00     0.009 A 
ATOM     54  C   UNL A   1      48.825  25.994  26.239  1.00  0.00     0.009 A 
ATOM     55  C   UNL A   1      50.412  25.128  28.366  1.00  0.00     0.001 A 
ATOM     56  C   UNL A   1      50.152  25.628  26.015  1.00  0.00     0.001 A 
ATOM     57  C   UNL A   1      50.947  25.205  27.081  1.00  0.00     0.000 A 
ENDBRANCH  39  52
ENDBRANCH  13  14
ENDBRANCH   6   8
ENDBRANCH   3   4
ENDBRANCH   2   3
ENDBRANCH   1   2
BRANCH   1  58
ATOM     58  C   UNL A   1      31.389  29.832  24.992  1.00  0.00     0.116 C 
BRANCH  58  59
ATOM     59  N   UNL A   1      32.480  29.362  24.154  1.00  0.00    -0.356 N 
ATOM     60  C   UNL A   1      33.001  28.088  24.088  1.00  0.00     0.224 C 
ATOM     61  H   UNL A   1      32.894  30.032  23.565  1.00  0.00     0.163 HD
ATOM     62  O   UNL A   1      34.032  27.915  23.438  1.00  0.00    -0.275 OA
BRANCH  60  63
ATOM     63  C   UNL A   1      32.257  26.940  24.792  1.00  0.00     0.095 C 
ATOM     64  C   UNL A   1      31.003  26.630  23.999  1.00  0.00     0.041 C 
ATOM     65  C   UNL A   1      33.089  25.651  24.949  1.00  0.00     0.095 C 
ATOM     66  C   UNL A   1      31.214  25.872  22.735  1.00  0.00    -0.030 C 
ATOM     67  C   UNL A   1      33.283  24.831  23.656  1.00  0.00     0.041 C 
ATOM     68  C   UNL A   1      32.257  25.051  22.583  1.00  0.00    -0.030 C 
BRANCH  65  69
ATOM     69  C   UNL A   1      32.782  24.754  26.165  1.00  0.00     0.224 C 
ATOM     70  O   UNL A   1      31.725  24.989  26.779  1.00  0.00    -0.275 OA
ATOM     71  N   UNL A   1      33.504  23.771  26.739  1.00  0.00    -0.344 N 
ATOM     72  H   UNL A   1      33.054  23.507  27.574  1.00  0.00     0.164 HD
BRANCH  71  73
ATOM     73  C   UNL A   1      34.723  22.936  26.587  1.00  0.00     0.172 C 
ATOM     74  C   UNL A   1      35.895  23.570  25.866  1.00  0.00     0.037 C 
ATOM     75  C   UNL A   1      34.399  21.450  26.322  1.00  0.00     0.249 C 
ATOM     76  C   UNL A   1      36.876  22.542  25.324  1.00  0.00     0.025 C 
ATOM     77  N   UNL A   1      35.011  20.824  25.232  1.00  0.00    -0.308 N 
ATOM     78  O   UNL A   1      33.630  20.869  27.093  1.00  0.00    -0.272 OA
ATOM     79  C   UNL A   1      36.239  21.346  24.624  1.00  0.00     0.126 C 
BRANCH  77  80
ATOM     80  C   UNL A   1      34.389  19.659  24.633  1.00  0.00     0.080 A 
ATOM     81  C   UNL A   1      35.025  18.408  24.626  1.00  0.00     0.029 A 
ATOM     82  C   UNL A   1      33.142  19.738  23.977  1.00  0.00     0.146 A 
ATOM     83  C   UNL A   1      34.410  17.285  24.051  1.00  0.00     0.002 A 
ATOM     84  C   UNL A   1      32.527  18.622  23.405  1.00  0.00     0.041 A 
ATOM     85  F   UNL A   1      32.557  20.923  23.743  1.00  0.00    -0.205 F 
ATOM     86  C   UNL A   1      33.158  17.388  23.451  1.00  0.00     0.003 A 
ENDBRANCH  77  80
ENDBRANCH  71  73
ENDBRANCH  65  69
ENDBRANCH  60  63
ENDBRANCH  58  59
ENDBRANCH   1  58
TORSDOF 14
ENDMDL
MODEL 2
REMARK VINA RESULT:     -12.9      3.649      8.062
REMARK SMILES O=C(NCCCCNC(=O)[C@H]1CC=CC[C@@H]1C(=O)N[C@@H]1CCCN(c2ccccc2F)C1=O)c1ccc(-c2c3nc(c(-c4ccccc4)c4ccc([nH]4)c(-c4ccccc4)c4nc(c(-c5ccccc5)c5ccc2[nH]5)C=C4)C=C3)cc1
REMARK SMILES IDX 6 1 5 2 4 3 3 4 1 5 2 6 34 8 35 9 81 10 36 11 80 12 37 13
REMARK SMILES IDX 38 14 39 15 74 16 40 17 79 18 73 19 75 20 41 21 78 22 72 23
REMARK SMILES IDX 71 24 42 26 64 27 49 28 63 29 50 30 53 31 62 32 76 33 51 34
REMARK SMILES IDX 52 35 61 37 77 38 54 39 43 40 44 41 48 42 45 43 47 44 46 45
REMARK SMILES IDX 65 46 66 47 70 48 67 49 69 50 68 51 55 52 56 53 60 54 57 55
REMARK SMILES IDX 59 56 58 57 7 58 8 59 9 60 10 62 11 63 12 64 16 65 13 66
REMARK SMILES IDX 15 67 14 68 17 69 18 70 19 71 20 73 21 74 32 75 22 76 24 77
REMARK SMILES IDX 33 78 23 79 25 80 26 81 30 82 27 83 29 84 31 85 28 86
REMARK H PARENT 3 7 75 25 53 36 8 61 19 72
REMARK Flexibility Score: inf
ROOT
ATOM      1  C   UNL A   1      31.798  28.805  27.464  1.00  0.00     0.023 C 
ENDROOT
BRANCH   1   2
ATOM      2  C   UNL A   1      31.737  30.146  26.727  1.00  0.00     0.023 C 
BRANCH   2   3
ATOM      3  C   UNL A   1      32.856  31.147  27.024  1.00  0.00     0.116 C 
BRANCH   3   4
ATOM      4  N   UNL A   1      32.396  32.497  27.338  1.00  0.00    -0.352 N 
ATOM      5  O   UNL A   1      32.385  34.575  28.227  1.00  0.00    -0.269 OA
ATOM      6  C   UNL A   1      32.991  33.520  28.043  1.00  0.00     0.251 C 
ATOM      7  H   UNL A   1      31.503  32.713  26.982  1.00  0.00     0.163 HD
BRANCH   6   8
ATOM      8  C   UNL A   1      34.334  33.343  28.632  1.00  0.00     0.039 A 
ATOM      9  C   UNL A   1      35.470  33.794  27.967  1.00  0.00     0.014 A 
ATOM     10  C   UNL A   1      34.460  32.667  29.850  1.00  0.00     0.014 A 
ATOM     11  C   UNL A   1      36.720  33.348  28.376  1.00  0.00     0.010 A 
ATOM     12  C   UNL A   1      35.727  32.316  30.324  1.00  0.00     0.010 A 
ATOM     13  C   UNL A   1      36.864  32.582  29.546  1.00  0.00    -0.014 A 
BRANCH  13  14
ATOM     14  C   UNL A   1      38.205  32.051  29.901  1.00  0.00     0.031 A 
ATOM     15  C   UNL A   1      39.057  32.730  30.943  1.00  0.00     0.074 A 
ATOM     16  C   UNL A   1      38.617  30.894  29.345  1.00  0.00     0.049 A 
ATOM     17  N   UNL A   1      40.211  32.354  31.437  1.00  0.00    -0.248 NA
ATOM     18  C   UNL A   1      38.557  33.997  31.501  1.00  0.00     0.031 C 
ATOM     19  C   UNL A   1      37.876  30.137  28.332  1.00  0.00     0.029 A 
ATOM     20  N   UNL A   1      39.729  30.130  29.584  1.00  0.00    -0.354 N 
ATOM     21  C   UNL A   1      40.588  33.350  32.331  1.00  0.00     0.074 A 
ATOM     22  C   UNL A   1      39.550  34.356  32.301  1.00  0.00     0.031 C 
ATOM     23  C   UNL A   1      38.512  28.980  28.099  1.00  0.00     0.029 A 
ATOM     24  C   UNL A   1      39.736  28.945  28.890  1.00  0.00     0.049 A 
ATOM     25  H   UNL A   1      40.452  30.405  30.194  1.00  0.00     0.167 HD
ATOM     26  C   UNL A   1      41.696  33.419  33.108  1.00  0.00     0.031 A 
ATOM     27  C   UNL A   1      40.629  27.938  28.887  1.00  0.00     0.031 A 
ATOM     28  C   UNL A   1      42.718  32.407  33.154  1.00  0.00     0.049 A 
ATOM     29  C   UNL A   1      41.849  28.045  29.750  1.00  0.00     0.074 A 
ATOM     30  C   UNL A   1      43.864  32.370  33.931  1.00  0.00     0.029 A 
ATOM     31  N   UNL A   1      42.716  31.251  32.390  1.00  0.00    -0.354 N 
ATOM     32  N   UNL A   1      42.180  28.988  30.597  1.00  0.00    -0.248 NA
ATOM     33  C   UNL A   1      42.822  26.950  29.650  1.00  0.00     0.031 C 
ATOM     34  C   UNL A   1      44.577  31.212  33.604  1.00  0.00     0.029 A 
ATOM     35  C   UNL A   1      43.852  30.504  32.660  1.00  0.00     0.049 A 
ATOM     36  H   UNL A   1      42.012  30.997  31.750  1.00  0.00     0.167 HD
ATOM     37  C   UNL A   1      43.396  28.597  31.140  1.00  0.00     0.074 A 
ATOM     38  C   UNL A   1      43.730  27.319  30.544  1.00  0.00     0.031 C 
ATOM     39  C   UNL A   1      44.171  29.241  32.047  1.00  0.00     0.031 A 
BRANCH  26  40
ATOM     40  C   UNL A   1      41.880  34.654  33.949  1.00  0.00    -0.014 A 
ATOM     41  C   UNL A   1      41.400  34.727  35.266  1.00  0.00     0.009 A 
ATOM     42  C   UNL A   1      42.580  35.752  33.422  1.00  0.00     0.009 A 
ATOM     43  C   UNL A   1      41.587  35.887  36.024  1.00  0.00     0.001 A 
ATOM     44  C   UNL A   1      42.788  36.899  34.191  1.00  0.00     0.001 A 
ATOM     45  C   UNL A   1      42.283  36.969  35.488  1.00  0.00     0.000 A 
ENDBRANCH  26  40
BRANCH  27  46
ATOM     46  C   UNL A   1      40.390  26.746  28.033  1.00  0.00    -0.014 A 
ATOM     47  C   UNL A   1      40.915  26.682  26.734  1.00  0.00     0.009 A 
ATOM     48  C   UNL A   1      39.659  25.654  28.527  1.00  0.00     0.009 A 
ATOM     49  C   UNL A   1      40.704  25.552  25.943  1.00  0.00     0.001 A 
ATOM     50  C   UNL A   1      39.474  24.514  27.743  1.00  0.00     0.001 A 
ATOM     51  C   UNL A   1      39.991  24.466  26.450  1.00  0.00     0.000 A 
ENDBRANCH  27  46
BRANCH  39  52
ATOM     52  C   UNL A   1      45.442  28.556  32.455  1.00  0.00    -0.014 A 
ATOM     53  C   UNL A   1      46.646  28.802  31.779  1.00  0.00     0.009 A 
ATOM     54  C   UNL A   1      45.434  27.663  33.537  1.00  0.00     0.009 A 
ATOM     55  C   UNL A   1      47.814  28.135  32.156  1.00  0.00     0.001 A 
ATOM     56  C   UNL A   1      46.608  27.017  33.927  1.00  0.00     0.001 A 
ATOM     57  C   UNL A   1      47.794  27.246  33.229  1.00  0.00     0.000 A 
ENDBRANCH  39  52
ENDBRANCH  13  14
ENDBRANCH   6   8
ENDBRANCH   3   4
ENDBRANCH   2   3
ENDBRANCH   1   2
BRANCH   1  58
ATOM     58  C   UNL A   1      31.983  27.578  26.580  1.00  0.00     0.116 C 
BRANCH  58  59
ATOM     59  N   UNL A   1      31.091  26.469  26.874  1.00  0.00    -0.356 N 
ATOM     60  C   UNL A   1      31.056  25.233  26.266  1.00  0.00     0.224 C 
ATOM     61  H   UNL A   1      30.435  26.618  27.592  1.00  0.00     0.163 HD
ATOM     62  O   UNL A   1      30.123  24.478  26.538  1.00  0.00    -0.275 OA
BRANCH  60  63
ATOM     63  C   UNL A   1      32.195  24.840  25.310  1.00  0.00     0.095 C 
ATOM     64  C   UNL A   1      33.426  24.532  26.139  1.00  0.00     0.041 C 
ATOM     65  C   UNL A   1      31.875  23.630  24.410  1.00  0.00     0.095 C 
ATOM     66  C   UNL A   1      33.413  23.222  26.846  1.00  0.00    -0.030 C 
ATOM     67  C   UNL A   1      31.897  22.259  25.118  1.00  0.00     0.041 C 
ATOM     68  C   UNL A   1      32.712  22.186  26.376  1.00  0.00    -0.030 C 
BRANCH  65  69
ATOM     69  C   UNL A   1      32.551  23.578  23.025  1.00  0.00     0.224 C 
ATOM     70  O   UNL A   1      32.733  22.450  22.534  1.00  0.00    -0.275 OA
ATOM     71  N   UNL A   1      33.055  24.563  22.254  1.00  0.00    -0.344 N 
ATOM     72  H   UNL A   1      33.526  24.148  21.495  1.00  0.00     0.164 HD
BRANCH  71  73
ATOM     73  C   UNL A   1      33.167  26.037  22.117  1.00  0.00     0.172 C 
ATOM     74  C   UNL A   1      34.163  26.731  23.024  1.00  0.00     0.037 C 
ATOM     75  C   UNL A   1      31.808  26.717  21.846  1.00  0.00     0.249 C 
ATOM     76  C   UNL A   1      33.878  28.216  23.183  1.00  0.00     0.025 C 
ATOM     77  N   UNL A   1      31.432  27.793  22.655  1.00  0.00    -0.308 N 
ATOM     78  O   UNL A   1      31.115  26.296  20.913  1.00  0.00    -0.272 OA
ATOM     79  C   UNL A   1      32.413  28.571  23.418  1.00  0.00     0.126 C 
BRANCH  77  80
ATOM     80  C   UNL A   1      30.028  28.120  22.805  1.00  0.00     0.080 A 
ATOM     81  C   UNL A   1      29.145  27.274  23.493  1.00  0.00     0.029 A 
ATOM     82  C   UNL A   1      29.467  29.274  22.217  1.00  0.00     0.146 A 
ATOM     83  C   UNL A   1      27.789  27.605  23.641  1.00  0.00     0.002 A 
ATOM     84  C   UNL A   1      28.119  29.607  22.363  1.00  0.00     0.041 A 
ATOM     85  F   UNL A   1      30.176  30.031  21.365  1.00  0.00    -0.205 F 
ATOM     86  C   UNL A   1      27.277  28.774  23.086  1.00  0.00     0.003 A 
ENDBRANCH  77  80
ENDBRANCH  71  73
ENDBRANCH  65  69
ENDBRANCH  60  63
ENDBRANCH  58  59
ENDBRANCH   1  58
TORSDOF 14
ENDMDL
MODEL 3
REMARK VINA RESULT:     -12.8      2.175      4.296
REMARK SMILES O=C(NCCCCNC(=O)[C@H]1CC=CC[C@@H]1C(=O)N[C@@H]1CCCN(c2ccccc2F)C1=O)c1ccc(-c2c3nc(c(-c4ccccc4)c4ccc([nH]4)c(-c4ccccc4)c4nc(c(-c5ccccc5)c5ccc2[nH]5)C=C4)C=C3)cc1
REMARK SMILES IDX 6 1 5 2 4 3 3 4 1 5 2 6 34 8 35 9 81 10 36 11 80 12 37 13
REMARK SMILES IDX 38 14 39 15 74 16 40 17 79 18 73 19 75 20 41 21 78 22 72 23
REMARK SMILES IDX 71 24 42 26 64 27 49 28 63 29 50 30 53 31 62 32 76 33 51 34
REMARK SMILES IDX 52 35 61 37 77 38 54 39 43 40 44 41 48 42 45 43 47 44 46 45
REMARK SMILES IDX 65 46 66 47 70 48 67 49 69 50 68 51 55 52 56 53 60 54 57 55
REMARK SMILES IDX 59 56 58 57 7 58 8 59 9 60 10 62 11 63 12 64 16 65 13 66
REMARK SMILES IDX 15 67 14 68 17 69 18 70 19 71 20 73 21 74 32 75 22 76 24 77
REMARK SMILES IDX 33 78 23 79 25 80 26 81 30 82 27 83 29 84 31 85 28 86
REMARK H PARENT 3 7 75 25 53 36 8 61 19 72
REMARK Flexibility Score: inf
ROOT
ATOM      1  C   UNL A   1      31.677  28.932  27.320  1.00  0.00     0.023 C 
ENDROOT
BRANCH   1   2
ATOM      2  C   UNL A   1      32.427  30.160  26.797  1.00  0.00     0.023 C 
BRANCH   2   3
ATOM      3  C   UNL A   1      33.890  30.306  27.221  1.00  0.00     0.116 C 
BRANCH   3   4
ATOM      4  N   UNL A   1      34.099  31.123  28.412  1.00  0.00    -0.352 N 
ATOM      5  O   UNL A   1      35.088  31.930  30.279  1.00  0.00    -0.269 OA
ATOM      6  C   UNL A   1      35.151  31.188  29.300  1.00  0.00     0.251 C 
ATOM      7  H   UNL A   1      33.356  31.737  28.617  1.00  0.00     0.163 HD
BRANCH   6   8
ATOM      8  C   UNL A   1      36.339  30.329  29.117  1.00  0.00     0.039 A 
ATOM      9  C   UNL A   1      36.850  29.583  30.175  1.00  0.00     0.014 A 
ATOM     10  C   UNL A   1      36.982  30.310  27.875  1.00  0.00     0.014 A 
ATOM     11  C   UNL A   1      38.124  29.039  30.073  1.00  0.00     0.010 A 
ATOM     12  C   UNL A   1      38.214  29.663  27.739  1.00  0.00     0.010 A 
ATOM     13  C   UNL A   1      38.833  29.094  28.861  1.00  0.00    -0.014 A 
BRANCH  13  14
ATOM     14  C   UNL A   1      40.227  28.580  28.817  1.00  0.00     0.031 A 
ATOM     15  C   UNL A   1      40.517  27.164  28.389  1.00  0.00     0.074 A 
ATOM     16  C   UNL A   1      41.243  29.426  29.075  1.00  0.00     0.049 A 
ATOM     17  N   UNL A   1      41.676  26.578  28.210  1.00  0.00    -0.248 NA
ATOM     18  C   UNL A   1      39.363  26.286  28.136  1.00  0.00     0.031 C 
ATOM     19  C   UNL A   1      41.090  30.823  29.489  1.00  0.00     0.029 A 
ATOM     20  N   UNL A   1      42.600  29.253  28.984  1.00  0.00    -0.354 N 
ATOM     21  C   UNL A   1      41.391  25.263  27.860  1.00  0.00     0.074 A 
ATOM     22  C   UNL A   1      39.951  25.129  27.867  1.00  0.00     0.031 C 
ATOM     23  C   UNL A   1      42.298  31.402  29.534  1.00  0.00     0.029 A 
ATOM     24  C   UNL A   1      43.313  30.402  29.224  1.00  0.00     0.049 A 
ATOM     25  H   UNL A   1      43.021  28.389  28.769  1.00  0.00     0.167 HD
ATOM     26  C   UNL A   1      42.249  24.259  27.556  1.00  0.00     0.031 A 
ATOM     27  C   UNL A   1      44.639  30.630  29.197  1.00  0.00     0.031 A 
ATOM     28  C   UNL A   1      43.681  24.398  27.527  1.00  0.00     0.049 A 
ATOM     29  C   UNL A   1      45.566  29.499  28.867  1.00  0.00     0.074 A 
ATOM     30  C   UNL A   1      44.635  23.448  27.203  1.00  0.00     0.029 A 
ATOM     31  N   UNL A   1      44.365  25.563  27.835  1.00  0.00    -0.354 N 
ATOM     32  N   UNL A   1      45.275  28.268  28.526  1.00  0.00    -0.248 NA
ATOM     33  C   UNL A   1      47.004  29.790  28.924  1.00  0.00     0.031 C 
ATOM     34  C   UNL A   1      45.899  24.028  27.357  1.00  0.00     0.029 A 
ATOM     35  C   UNL A   1      45.730  25.351  27.730  1.00  0.00     0.049 A 
ATOM     36  H   UNL A   1      43.943  26.415  28.091  1.00  0.00     0.167 HD
ATOM     37  C   UNL A   1      46.493  27.636  28.318  1.00  0.00     0.074 A 
ATOM     38  C   UNL A   1      47.524  28.630  28.548  1.00  0.00     0.031 C 
ATOM     39  C   UNL A   1      46.739  26.349  27.975  1.00  0.00     0.031 A 
BRANCH  26  40
ATOM     40  C   UNL A   1      41.660  22.904  27.266  1.00  0.00    -0.014 A 
ATOM     41  C   UNL A   1      41.813  21.829  28.156  1.00  0.00     0.009 A 
ATOM     42  C   UNL A   1      40.909  22.712  26.095  1.00  0.00     0.009 A 
ATOM     43  C   UNL A   1      41.253  20.581  27.862  1.00  0.00     0.001 A 
ATOM     44  C   UNL A   1      40.330  21.472  25.817  1.00  0.00     0.001 A 
ATOM     45  C   UNL A   1      40.510  20.406  26.695  1.00  0.00     0.000 A 
ENDBRANCH  26  40
BRANCH  27  46
ATOM     46  C   UNL A   1      45.157  31.989  29.495  1.00  0.00    -0.014 A 
ATOM     47  C   UNL A   1      45.471  32.877  28.454  1.00  0.00     0.009 A 
ATOM     48  C   UNL A   1      45.313  32.416  30.823  1.00  0.00     0.009 A 
ATOM     49  C   UNL A   1      45.940  34.160  28.738  1.00  0.00     0.001 A 
ATOM     50  C   UNL A   1      45.754  33.711  31.103  1.00  0.00     0.001 A 
ATOM     51  C   UNL A   1      46.072  34.579  30.062  1.00  0.00     0.000 A 
ENDBRANCH  27  46
BRANCH  39  52
ATOM     52  C   UNL A   1      48.178  25.957  27.810  1.00  0.00    -0.014 A 
ATOM     53  C   UNL A   1      48.795  25.979  26.551  1.00  0.00     0.009 A 
ATOM     54  C   UNL A   1      48.927  25.571  28.933  1.00  0.00     0.009 A 
ATOM     55  C   UNL A   1      50.127  25.584  26.412  1.00  0.00     0.001 A 
ATOM     56  C   UNL A   1      50.265  25.202  28.795  1.00  0.00     0.001 A 
ATOM     57  C   UNL A   1      50.861  25.199  27.533  1.00  0.00     0.000 A 
ENDBRANCH  39  52
ENDBRANCH  13  14
ENDBRANCH   6   8
ENDBRANCH   3   4
ENDBRANCH   2   3
ENDBRANCH   1   2
BRANCH   1  58
ATOM     58  C   UNL A   1      31.994  27.619  26.612  1.00  0.00     0.116 C 
BRANCH  58  59
ATOM     59  N   UNL A   1      31.059  26.539  26.876  1.00  0.00    -0.356 N 
ATOM     60  C   UNL A   1      31.000  25.308  26.259  1.00  0.00     0.224 C 
ATOM     61  H   UNL A   1      30.389  26.705  27.577  1.00  0.00     0.163 HD
ATOM     62  O   UNL A   1      30.036  24.582  26.502  1.00  0.00    -0.275 OA
BRANCH  60  63
ATOM     63  C   UNL A   1      32.151  24.882  25.332  1.00  0.00     0.095 C 
ATOM     64  C   UNL A   1      33.344  24.516  26.192  1.00  0.00     0.041 C 
ATOM     65  C   UNL A   1      31.811  23.698  24.405  1.00  0.00     0.095 C 
ATOM     66  C   UNL A   1      33.259  23.198  26.879  1.00  0.00    -0.030 C 
ATOM     67  C   UNL A   1      31.759  22.318  25.094  1.00  0.00     0.041 C 
ATOM     68  C   UNL A   1      32.532  22.197  26.374  1.00  0.00    -0.030 C 
BRANCH  65  69
ATOM     69  C   UNL A   1      32.526  23.638  23.040  1.00  0.00     0.224 C 
ATOM     70  O   UNL A   1      32.734  22.506  22.568  1.00  0.00    -0.275 OA
ATOM     71  N   UNL A   1      33.040  24.620  22.271  1.00  0.00    -0.344 N 
ATOM     72  H   UNL A   1      33.535  24.202  21.531  1.00  0.00     0.164 HD
BRANCH  71  73
ATOM     73  C   UNL A   1      33.138  26.094  22.120  1.00  0.00     0.172 C 
ATOM     74  C   UNL A   1      34.140  26.803  23.008  1.00  0.00     0.037 C 
ATOM     75  C   UNL A   1      31.770  26.760  21.860  1.00  0.00     0.249 C 
ATOM     76  C   UNL A   1      33.846  28.287  23.158  1.00  0.00     0.025 C 
ATOM     77  N   UNL A   1      31.396  27.841  22.664  1.00  0.00    -0.308 N 
ATOM     78  O   UNL A   1      31.070  26.326  20.940  1.00  0.00    -0.272 OA
ATOM     79  C   UNL A   1      32.381  28.633  23.408  1.00  0.00     0.126 C 
BRANCH  77  80
ATOM     80  C   UNL A   1      29.992  28.159  22.829  1.00  0.00     0.080 A 
ATOM     81  C   UNL A   1      29.116  27.293  23.502  1.00  0.00     0.029 A 
ATOM     82  C   UNL A   1      29.423  29.324  22.271  1.00  0.00     0.146 A 
ATOM     83  C   UNL A   1      27.760  27.614  23.664  1.00  0.00     0.002 A 
ATOM     84  C   UNL A   1      28.075  29.647  22.431  1.00  0.00     0.041 A 
ATOM     85  F   UNL A   1      30.125  30.103  21.434  1.00  0.00    -0.205 F 
ATOM     86  C   UNL A   1      27.240  28.794  23.140  1.00  0.00     0.003 A 
ENDBRANCH  77  80
ENDBRANCH  71  73
ENDBRANCH  65  69
ENDBRANCH  60  63
ENDBRANCH  58  59
ENDBRANCH   1  58
TORSDOF 14
ENDMDL
