MODEL 1
REMARK VINA RESULT:     -11.4      0.000      0.000
REMARK SMILES Cc1cccc([C@@H](CCC[C@@H]2CCCO2)C(=O)NCCCCNC(=O)c2ccc(-c3c4nc(c(-c5ccccc5)c5ccc([nH]5)c(-c5ccccc5)c5nc(c(-c6ccccc6)c6ccc3[nH]6)C=C5)C=C4)cc2)c1
REMARK SMILES IDX 19 1 18 2 16 3 17 4 7 6 6 7 1 8 2 9 3 10 74 11 4 12 5 13
REMARK SMILES IDX 8 14 9 15 10 16 11 17 12 18 15 19 13 20 14 21 20 22 21 23
REMARK SMILES IDX 22 24 23 25 24 26 25 28 26 29 27 30 73 31 28 32 72 33 29 34
REMARK SMILES IDX 30 35 31 36 66 37 32 38 71 39 65 40 67 41 33 42 70 43 64 44
REMARK SMILES IDX 63 45 34 47 56 48 41 49 55 50 42 51 45 52 54 53 68 54 43 55
REMARK SMILES IDX 44 56 53 58 69 59 46 60 35 61 36 62 40 63 37 64 39 65 38 66
REMARK SMILES IDX 57 67 58 68 62 69 59 70 61 71 60 72 47 73 48 74 52 75 49 76
REMARK SMILES IDX 51 77 50 78
REMARK H PARENT 18 5 23 27 67 46 45 57
REMARK Flexibility Score: inf
ROOT
ATOM      1  C   UNL A   1      31.688  29.711  24.620  1.00  0.00     0.116 C 
ENDROOT
BRANCH   1   2
ATOM      2  N   UNL A   1      32.939  29.430  23.952  1.00  0.00    -0.356 N 
ATOM      3  C   UNL A   1      33.246  28.487  23.016  1.00  0.00     0.227 C 
ATOM      4  O   UNL A   1      34.335  28.621  22.442  1.00  0.00    -0.274 OA
ATOM      5  H   UNL A   1      33.689  30.012  24.214  1.00  0.00     0.163 HD
BRANCH   3   6
ATOM      6  C   UNL A   1      32.352  27.274  22.697  1.00  0.00     0.108 C 
BRANCH   6   7
ATOM      7  C   UNL A   1      33.072  25.933  22.867  1.00  0.00    -0.035 A 
ATOM      8  C   UNL A   1      35.274  24.317  25.558  1.00  0.00     0.044 C 
ATOM      9  C   UNL A   1      34.443  24.498  24.324  1.00  0.00    -0.051 A 
ATOM     10  C   UNL A   1      34.250  23.431  23.447  1.00  0.00     0.003 A 
ATOM     11  C   UNL A   1      33.828  25.726  24.042  1.00  0.00     0.008 A 
ATOM     12  C   UNL A   1      33.528  23.617  22.272  1.00  0.00     0.001 A 
ATOM     13  C   UNL A   1      32.979  24.866  21.968  1.00  0.00     0.004 A 
ENDBRANCH   6   7
BRANCH   6  14
ATOM     14  C   UNL A   1      30.832  27.388  22.984  1.00  0.00     0.018 C 
BRANCH  14  15
ATOM     15  C   UNL A   1      30.026  26.267  23.646  1.00  0.00     0.004 C 
BRANCH  15  16
ATOM     16  C   UNL A   1      30.116  26.127  25.169  1.00  0.00     0.032 C 
BRANCH  16  17
ATOM     17  C   UNL A   1      30.663  24.836  25.767  1.00  0.00     0.118 C 
ATOM     18  C   UNL A   1      30.818  23.644  24.847  1.00  0.00     0.034 C 
ATOM     19  O   UNL A   1      29.854  24.374  26.856  1.00  0.00    -0.378 OA
ATOM     20  C   UNL A   1      31.001  22.544  25.866  1.00  0.00     0.031 C 
ATOM     21  C   UNL A   1      30.000  22.945  26.933  1.00  0.00     0.160 C 
ENDBRANCH  16  17
ENDBRANCH  15  16
ENDBRANCH  14  15
ENDBRANCH   6  14
ENDBRANCH   3   6
ENDBRANCH   1   2
BRANCH   1  22
ATOM     22  C   UNL A   1      31.746  29.643  26.147  1.00  0.00     0.023 C 
BRANCH  22  23
ATOM     23  C   UNL A   1      32.543  30.774  26.800  1.00  0.00     0.023 C 
BRANCH  23  24
ATOM     24  C   UNL A   1      33.654  30.312  27.740  1.00  0.00     0.116 C 
BRANCH  24  25
ATOM     25  N   UNL A   1      34.421  31.359  28.389  1.00  0.00    -0.352 N 
ATOM     26  C   UNL A   1      35.674  31.308  28.992  1.00  0.00     0.251 C 
ATOM     27  H   UNL A   1      33.987  32.242  28.406  1.00  0.00     0.163 HD
ATOM     28  O   UNL A   1      36.072  32.282  29.600  1.00  0.00    -0.269 OA
BRANCH  26  29
ATOM     29  C   UNL A   1      36.595  30.145  28.783  1.00  0.00     0.039 A 
ATOM     30  C   UNL A   1      36.788  29.269  29.863  1.00  0.00     0.014 A 
ATOM     31  C   UNL A   1      37.399  30.004  27.657  1.00  0.00     0.014 A 
ATOM     32  C   UNL A   1      37.930  28.468  29.918  1.00  0.00     0.010 A 
ATOM     33  C   UNL A   1      38.585  29.308  27.752  1.00  0.00     0.010 A 
ATOM     34  C   UNL A   1      38.882  28.597  28.912  1.00  0.00    -0.014 A 
BRANCH  34  35
ATOM     35  C   UNL A   1      40.261  28.151  29.032  1.00  0.00     0.031 A 
ATOM     36  C   UNL A   1      40.701  26.872  28.455  1.00  0.00     0.074 A 
ATOM     37  C   UNL A   1      41.171  28.990  29.571  1.00  0.00     0.049 A 
ATOM     38  N   UNL A   1      41.765  26.244  28.824  1.00  0.00    -0.248 NA
ATOM     39  C   UNL A   1      39.944  26.172  27.425  1.00  0.00     0.031 C 
ATOM     40  C   UNL A   1      42.626  28.895  29.515  1.00  0.00     0.029 A 
ATOM     41  N   UNL A   1      40.940  30.012  30.476  1.00  0.00    -0.354 N 
ATOM     42  C   UNL A   1      42.005  25.265  27.891  1.00  0.00     0.074 A 
ATOM     43  C   UNL A   1      40.796  25.196  27.102  1.00  0.00     0.031 C 
ATOM     44  C   UNL A   1      43.145  29.636  30.508  1.00  0.00     0.029 A 
ATOM     45  C   UNL A   1      42.043  30.107  31.329  1.00  0.00     0.049 A 
ATOM     46  H   UNL A   1      40.133  30.575  30.513  1.00  0.00     0.167 HD
ATOM     47  C   UNL A   1      43.254  24.726  27.796  1.00  0.00     0.031 A 
ATOM     48  C   UNL A   1      41.898  29.832  32.662  1.00  0.00     0.031 A 
ATOM     49  C   UNL A   1      44.158  25.235  28.833  1.00  0.00     0.049 A 
ATOM     50  C   UNL A   1      42.643  28.589  33.123  1.00  0.00     0.074 A 
ATOM     51  C   UNL A   1      45.227  26.118  28.843  1.00  0.00     0.029 A 
ATOM     52  N   UNL A   1      43.821  25.037  30.163  1.00  0.00    -0.354 N 
ATOM     53  N   UNL A   1      43.325  27.801  32.336  1.00  0.00    -0.248 NA
ATOM     54  C   UNL A   1      42.597  28.086  34.497  1.00  0.00     0.031 C 
ATOM     55  C   UNL A   1      45.520  26.449  30.198  1.00  0.00     0.029 A 
ATOM     56  C   UNL A   1      44.641  25.757  31.010  1.00  0.00     0.049 A 
ATOM     57  H   UNL A   1      43.087  24.455  30.468  1.00  0.00     0.167 HD
ATOM     58  C   UNL A   1      43.748  26.705  33.034  1.00  0.00     0.074 A 
ATOM     59  C   UNL A   1      43.274  26.928  34.388  1.00  0.00     0.031 C 
ATOM     60  C   UNL A   1      44.417  25.672  32.444  1.00  0.00     0.031 A 
BRANCH  47  61
ATOM     61  C   UNL A   1      43.718  23.922  26.604  1.00  0.00    -0.014 A 
ATOM     62  C   UNL A   1      43.386  22.558  26.510  1.00  0.00     0.009 A 
ATOM     63  C   UNL A   1      44.518  24.427  25.564  1.00  0.00     0.009 A 
ATOM     64  C   UNL A   1      43.905  21.732  25.503  1.00  0.00     0.001 A 
ATOM     65  C   UNL A   1      45.075  23.602  24.578  1.00  0.00     0.001 A 
ATOM     66  C   UNL A   1      44.777  22.248  24.554  1.00  0.00     0.000 A 
ENDBRANCH  47  61
BRANCH  48  67
ATOM     67  C   UNL A   1      40.581  30.282  33.202  1.00  0.00    -0.014 A 
ATOM     68  C   UNL A   1      40.334  31.669  33.282  1.00  0.00     0.009 A 
ATOM     69  C   UNL A   1      39.490  29.405  33.264  1.00  0.00     0.009 A 
ATOM     70  C   UNL A   1      39.027  32.164  33.294  1.00  0.00     0.001 A 
ATOM     71  C   UNL A   1      38.182  29.907  33.293  1.00  0.00     0.001 A 
ATOM     72  C   UNL A   1      37.951  31.282  33.268  1.00  0.00     0.000 A 
ENDBRANCH  48  67
BRANCH  60  73
ATOM     73  C   UNL A   1      44.899  24.460  33.189  1.00  0.00    -0.014 A 
ATOM     74  C   UNL A   1      44.082  23.347  33.426  1.00  0.00     0.009 A 
ATOM     75  C   UNL A   1      46.175  24.462  33.789  1.00  0.00     0.009 A 
ATOM     76  C   UNL A   1      44.544  22.259  34.179  1.00  0.00     0.001 A 
ATOM     77  C   UNL A   1      46.629  23.390  34.559  1.00  0.00     0.001 A 
ATOM     78  C   UNL A   1      45.816  22.282  34.743  1.00  0.00     0.000 A 
ENDBRANCH  60  73
ENDBRANCH  34  35
ENDBRANCH  26  29
ENDBRANCH  24  25
ENDBRANCH  23  24
ENDBRANCH  22  23
ENDBRANCH   1  22
TORSDOF 16
ENDMDL
MODEL 2
REMARK VINA RESULT:     -11.3      1.246      2.366
REMARK SMILES Cc1cccc([C@@H](CCC[C@@H]2CCCO2)C(=O)NCCCCNC(=O)c2ccc(-c3c4nc(c(-c5ccccc5)c5ccc([nH]5)c(-c5ccccc5)c5nc(c(-c6ccccc6)c6ccc3[nH]6)C=C5)C=C4)cc2)c1
REMARK SMILES IDX 19 1 18 2 16 3 17 4 7 6 6 7 1 8 2 9 3 10 74 11 4 12 5 13
REMARK SMILES IDX 8 14 9 15 10 16 11 17 12 18 15 19 13 20 14 21 20 22 21 23
REMARK SMILES IDX 22 24 23 25 24 26 25 28 26 29 27 30 73 31 28 32 72 33 29 34
REMARK SMILES IDX 30 35 31 36 66 37 32 38 71 39 65 40 67 41 33 42 70 43 64 44
REMARK SMILES IDX 63 45 34 47 56 48 41 49 55 50 42 51 45 52 54 53 68 54 43 55
REMARK SMILES IDX 44 56 53 58 69 59 46 60 35 61 36 62 40 63 37 64 39 65 38 66
REMARK SMILES IDX 57 67 58 68 62 69 59 70 61 71 60 72 47 73 48 74 52 75 49 76
REMARK SMILES IDX 51 77 50 78
REMARK H PARENT 18 5 23 27 67 46 45 57
REMARK Flexibility Score: inf
ROOT
ATOM      1  C   UNL A   1      34.064  27.739  26.552  1.00  0.00     0.116 C 
ENDROOT
BRANCH   1   2
ATOM      2  N   UNL A   1      33.052  26.710  26.454  1.00  0.00    -0.356 N 
ATOM      3  C   UNL A   1      33.065  25.523  25.784  1.00  0.00     0.227 C 
ATOM      4  O   UNL A   1      32.158  24.729  26.062  1.00  0.00    -0.274 OA
ATOM      5  H   UNL A   1      32.222  26.897  26.950  1.00  0.00     0.163 HD
BRANCH   3   6
ATOM      6  C   UNL A   1      34.092  25.166  24.692  1.00  0.00     0.108 C 
BRANCH   6   7
ATOM      7  C   UNL A   1      34.970  23.966  25.060  1.00  0.00    -0.035 A 
ATOM      8  C   UNL A   1      34.645  20.152  24.843  1.00  0.00     0.044 C 
ATOM      9  C   UNL A   1      35.226  21.518  25.053  1.00  0.00    -0.051 A 
ATOM     10  C   UNL A   1      36.556  21.660  25.449  1.00  0.00     0.003 A 
ATOM     11  C   UNL A   1      34.457  22.670  24.833  1.00  0.00     0.008 A 
ATOM     12  C   UNL A   1      37.075  22.926  25.701  1.00  0.00     0.001 A 
ATOM     13  C   UNL A   1      36.278  24.063  25.546  1.00  0.00     0.004 A 
ENDBRANCH   6   7
BRANCH   6  14
ATOM     14  C   UNL A   1      33.711  25.433  23.213  1.00  0.00     0.018 C 
BRANCH  14  15
ATOM     15  C   UNL A   1      32.472  24.822  22.552  1.00  0.00     0.004 C 
BRANCH  15  16
ATOM     16  C   UNL A   1      31.146  25.579  22.684  1.00  0.00     0.032 C 
BRANCH  16  17
ATOM     17  C   UNL A   1      31.169  27.084  22.918  1.00  0.00     0.118 C 
ATOM     18  C   UNL A   1      30.518  27.611  24.179  1.00  0.00     0.034 C 
ATOM     19  O   UNL A   1      30.543  27.795  21.842  1.00  0.00    -0.378 OA
ATOM     20  C   UNL A   1      30.425  29.079  23.837  1.00  0.00     0.031 C 
ATOM     21  C   UNL A   1      30.029  29.028  22.373  1.00  0.00     0.160 C 
ENDBRANCH  16  17
ENDBRANCH  15  16
ENDBRANCH  14  15
ENDBRANCH   6  14
ENDBRANCH   3   6
ENDBRANCH   1   2
BRANCH   1  22
ATOM     22  C   UNL A   1      33.891  28.904  25.576  1.00  0.00     0.023 C 
BRANCH  22  23
ATOM     23  C   UNL A   1      33.217  30.139  26.179  1.00  0.00     0.023 C 
BRANCH  23  24
ATOM     24  C   UNL A   1      33.335  30.252  27.697  1.00  0.00     0.116 C 
BRANCH  24  25
ATOM     25  N   UNL A   1      34.133  31.356  28.197  1.00  0.00    -0.352 N 
ATOM     26  C   UNL A   1      35.411  31.360  28.749  1.00  0.00     0.251 C 
ATOM     27  H   UNL A   1      33.704  32.239  28.137  1.00  0.00     0.163 HD
ATOM     28  O   UNL A   1      35.838  32.389  29.231  1.00  0.00    -0.269 OA
BRANCH  26  29
ATOM     29  C   UNL A   1      36.317  30.172  28.627  1.00  0.00     0.039 A 
ATOM     30  C   UNL A   1      36.556  29.419  29.788  1.00  0.00     0.014 A 
ATOM     31  C   UNL A   1      37.068  29.903  27.489  1.00  0.00     0.014 A 
ATOM     32  C   UNL A   1      37.696  28.619  29.878  1.00  0.00     0.010 A 
ATOM     33  C   UNL A   1      38.255  29.211  27.606  1.00  0.00     0.010 A 
ATOM     34  C   UNL A   1      38.602  28.629  28.823  1.00  0.00    -0.014 A 
BRANCH  34  35
ATOM     35  C   UNL A   1      39.984  28.187  28.929  1.00  0.00     0.031 A 
ATOM     36  C   UNL A   1      40.410  26.885  28.395  1.00  0.00     0.074 A 
ATOM     37  C   UNL A   1      40.906  29.047  29.411  1.00  0.00     0.049 A 
ATOM     38  N   UNL A   1      41.482  26.272  28.766  1.00  0.00    -0.248 NA
ATOM     39  C   UNL A   1      39.630  26.143  27.414  1.00  0.00     0.031 C 
ATOM     40  C   UNL A   1      42.359  28.949  29.325  1.00  0.00     0.029 A 
ATOM     41  N   UNL A   1      40.695  30.105  30.279  1.00  0.00    -0.354 N 
ATOM     42  C   UNL A   1      41.701  25.255  27.869  1.00  0.00     0.074 A 
ATOM     43  C   UNL A   1      40.474  25.154  27.111  1.00  0.00     0.031 C 
ATOM     44  C   UNL A   1      42.901  29.730  30.275  1.00  0.00     0.029 A 
ATOM     45  C   UNL A   1      41.819  30.236  31.101  1.00  0.00     0.049 A 
ATOM     46  H   UNL A   1      39.890  30.670  30.311  1.00  0.00     0.167 HD
ATOM     47  C   UNL A   1      42.948  24.711  27.768  1.00  0.00     0.031 A 
ATOM     48  C   UNL A   1      41.705  30.016  32.447  1.00  0.00     0.031 A 
ATOM     49  C   UNL A   1      43.875  25.262  28.761  1.00  0.00     0.049 A 
ATOM     50  C   UNL A   1      42.461  28.793  32.942  1.00  0.00     0.074 A 
ATOM     51  C   UNL A   1      44.944  26.144  28.709  1.00  0.00     0.029 A 
ATOM     52  N   UNL A   1      43.570  25.120  30.106  1.00  0.00    -0.354 N 
ATOM     53  N   UNL A   1      43.124  27.972  32.173  1.00  0.00    -0.248 NA
ATOM     54  C   UNL A   1      42.447  28.347  34.336  1.00  0.00     0.031 C 
ATOM     55  C   UNL A   1      45.269  26.531  30.042  1.00  0.00     0.029 A 
ATOM     56  C   UNL A   1      44.409  25.873  30.903  1.00  0.00     0.049 A 
ATOM     57  H   UNL A   1      42.843  24.552  30.451  1.00  0.00     0.167 HD
ATOM     58  C   UNL A   1      43.563  26.905  32.905  1.00  0.00     0.074 A 
ATOM     59  C   UNL A   1      43.121  27.185  34.260  1.00  0.00     0.031 C 
ATOM     60  C   UNL A   1      44.218  25.848  32.344  1.00  0.00     0.031 A 
BRANCH  47  61
ATOM     61  C   UNL A   1      43.384  23.858  26.599  1.00  0.00    -0.014 A 
ATOM     62  C   UNL A   1      43.360  22.456  26.712  1.00  0.00     0.009 A 
ATOM     63  C   UNL A   1      43.869  24.363  25.381  1.00  0.00     0.009 A 
ATOM     64  C   UNL A   1      43.883  21.619  25.716  1.00  0.00     0.001 A 
ATOM     65  C   UNL A   1      44.433  23.538  24.398  1.00  0.00     0.001 A 
ATOM     66  C   UNL A   1      44.450  22.162  24.571  1.00  0.00     0.000 A 
ENDBRANCH  47  61
BRANCH  48  67
ATOM     67  C   UNL A   1      40.401  30.490  32.999  1.00  0.00    -0.014 A 
ATOM     68  C   UNL A   1      40.129  31.874  32.970  1.00  0.00     0.009 A 
ATOM     69  C   UNL A   1      39.330  29.603  33.178  1.00  0.00     0.009 A 
ATOM     70  C   UNL A   1      38.814  32.347  32.991  1.00  0.00     0.001 A 
ATOM     71  C   UNL A   1      38.014  30.085  33.216  1.00  0.00     0.001 A 
ATOM     72  C   UNL A   1      37.756  31.448  33.083  1.00  0.00     0.000 A 
ENDBRANCH  48  67
BRANCH  60  73
ATOM     73  C   UNL A   1      44.718  24.669  33.126  1.00  0.00    -0.014 A 
ATOM     74  C   UNL A   1      43.885  23.606  33.501  1.00  0.00     0.009 A 
ATOM     75  C   UNL A   1      46.038  24.657  33.622  1.00  0.00     0.009 A 
ATOM     76  C   UNL A   1      44.369  22.550  34.285  1.00  0.00     0.001 A 
ATOM     77  C   UNL A   1      46.516  23.620  34.423  1.00  0.00     0.001 A 
ATOM     78  C   UNL A   1      45.684  22.558  34.745  1.00  0.00     0.000 A 
ENDBRANCH  60  73
ENDBRANCH  34  35
ENDBRANCH  26  29
ENDBRANCH  24  25
ENDBRANCH  23  24
ENDBRANCH  22  23
ENDBRANCH   1  22
TORSDOF 16
ENDMDL
MODEL 3
REMARK VINA RESULT:     -11.2      1.430      2.665
REMARK SMILES Cc1cccc([C@@H](CCC[C@@H]2CCCO2)C(=O)NCCCCNC(=O)c2ccc(-c3c4nc(c(-c5ccccc5)c5ccc([nH]5)c(-c5ccccc5)c5nc(c(-c6ccccc6)c6ccc3[nH]6)C=C5)C=C4)cc2)c1
REMARK SMILES IDX 19 1 18 2 16 3 17 4 7 6 6 7 1 8 2 9 3 10 74 11 4 12 5 13
REMARK SMILES IDX 8 14 9 15 10 16 11 17 12 18 15 19 13 20 14 21 20 22 21 23
REMARK SMILES IDX 22 24 23 25 24 26 25 28 26 29 27 30 73 31 28 32 72 33 29 34
REMARK SMILES IDX 30 35 31 36 66 37 32 38 71 39 65 40 67 41 33 42 70 43 64 44
REMARK SMILES IDX 63 45 34 47 56 48 41 49 55 50 42 51 45 52 54 53 68 54 43 55
REMARK SMILES IDX 44 56 53 58 69 59 46 60 35 61 36 62 40 63 37 64 39 65 38 66
REMARK SMILES IDX 57 67 58 68 62 69 59 70 61 71 60 72 47 73 48 74 52 75 49 76
REMARK SMILES IDX 51 77 50 78
REMARK H PARENT 18 5 23 27 67 46 45 57
REMARK Flexibility Score: inf
ROOT
ATOM      1  C   UNL A   1      32.591  29.012  25.619  1.00  0.00     0.116 C 
ENDROOT
BRANCH   1   2
ATOM      2  N   UNL A   1      33.412  29.033  24.430  1.00  0.00    -0.356 N 
ATOM      3  C   UNL A   1      33.338  28.283  23.293  1.00  0.00     0.227 C 
ATOM      4  O   UNL A   1      34.022  28.671  22.337  1.00  0.00    -0.274 OA
ATOM      5  H   UNL A   1      34.143  29.694  24.442  1.00  0.00     0.163 HD
BRANCH   3   6
ATOM      6  C   UNL A   1      32.511  26.989  23.173  1.00  0.00     0.108 C 
BRANCH   6   7
ATOM      7  C   UNL A   1      32.968  25.890  24.136  1.00  0.00    -0.035 A 
ATOM      8  C   UNL A   1      36.067  23.659  24.490  1.00  0.00     0.044 C 
ATOM      9  C   UNL A   1      34.757  24.327  24.782  1.00  0.00    -0.051 A 
ATOM     10  C   UNL A   1      34.065  24.027  25.956  1.00  0.00     0.003 A 
ATOM     11  C   UNL A   1      34.218  25.276  23.901  1.00  0.00     0.008 A 
ATOM     12  C   UNL A   1      32.821  24.603  26.197  1.00  0.00     0.001 A 
ATOM     13  C   UNL A   1      32.262  25.494  25.276  1.00  0.00     0.004 A 
ENDBRANCH   6   7
BRANCH   6  14
ATOM     14  C   UNL A   1      31.016  27.109  22.775  1.00  0.00     0.018 C 
BRANCH  14  15
ATOM     15  C   UNL A   1      30.033  28.024  23.511  1.00  0.00     0.004 C 
BRANCH  15  16
ATOM     16  C   UNL A   1      28.890  28.643  22.700  1.00  0.00     0.032 C 
BRANCH  16  17
ATOM     17  C   UNL A   1      28.945  30.125  22.349  1.00  0.00     0.118 C 
ATOM     18  C   UNL A   1      28.016  31.060  23.094  1.00  0.00     0.034 C 
ATOM     19  O   UNL A   1      28.674  30.349  20.959  1.00  0.00    -0.378 OA
ATOM     20  C   UNL A   1      28.110  32.284  22.215  1.00  0.00     0.031 C 
ATOM     21  C   UNL A   1      28.116  31.667  20.829  1.00  0.00     0.160 C 
ENDBRANCH  16  17
ENDBRANCH  15  16
ENDBRANCH  14  15
ENDBRANCH   6  14
ENDBRANCH   3   6
ENDBRANCH   1   2
BRANCH   1  22
ATOM     22  C   UNL A   1      31.874  30.327  25.929  1.00  0.00     0.023 C 
BRANCH  22  23
ATOM     23  C   UNL A   1      32.428  31.077  27.142  1.00  0.00     0.023 C 
BRANCH  23  24
ATOM     24  C   UNL A   1      33.896  30.795  27.451  1.00  0.00     0.116 C 
BRANCH  24  25
ATOM     25  N   UNL A   1      34.515  31.641  28.455  1.00  0.00    -0.352 N 
ATOM     26  C   UNL A   1      35.600  31.394  29.289  1.00  0.00     0.251 C 
ATOM     27  H   UNL A   1      34.101  32.527  28.563  1.00  0.00     0.163 HD
ATOM     28  O   UNL A   1      35.867  32.199  30.159  1.00  0.00    -0.269 OA
BRANCH  26  29
ATOM     29  C   UNL A   1      36.527  30.242  29.044  1.00  0.00     0.039 A 
ATOM     30  C   UNL A   1      36.699  29.316  30.085  1.00  0.00     0.014 A 
ATOM     31  C   UNL A   1      37.355  30.156  27.930  1.00  0.00     0.014 A 
ATOM     32  C   UNL A   1      37.841  28.514  30.125  1.00  0.00     0.010 A 
ATOM     33  C   UNL A   1      38.540  29.457  28.016  1.00  0.00     0.010 A 
ATOM     34  C   UNL A   1      38.814  28.692  29.147  1.00  0.00    -0.014 A 
BRANCH  34  35
ATOM     35  C   UNL A   1      40.191  28.242  29.274  1.00  0.00     0.031 A 
ATOM     36  C   UNL A   1      40.626  26.953  28.714  1.00  0.00     0.074 A 
ATOM     37  C   UNL A   1      41.104  29.084  29.803  1.00  0.00     0.049 A 
ATOM     38  N   UNL A   1      41.687  26.326  29.093  1.00  0.00    -0.248 NA
ATOM     39  C   UNL A   1      39.868  26.243  27.693  1.00  0.00     0.031 C 
ATOM     40  C   UNL A   1      42.559  28.982  29.749  1.00  0.00     0.029 A 
ATOM     41  N   UNL A   1      40.876  30.118  30.694  1.00  0.00    -0.354 N 
ATOM     42  C   UNL A   1      41.924  25.333  28.173  1.00  0.00     0.074 A 
ATOM     43  C   UNL A   1      40.715  25.259  27.384  1.00  0.00     0.031 C 
ATOM     44  C   UNL A   1      43.080  29.734  30.733  1.00  0.00     0.029 A 
ATOM     45  C   UNL A   1      41.980  30.221  31.547  1.00  0.00     0.049 A 
ATOM     46  H   UNL A   1      40.072  30.685  30.723  1.00  0.00     0.167 HD
ATOM     47  C   UNL A   1      43.171  24.788  28.087  1.00  0.00     0.031 A 
ATOM     48  C   UNL A   1      41.832  29.964  32.883  1.00  0.00     0.031 A 
ATOM     49  C   UNL A   1      44.075  25.307  29.118  1.00  0.00     0.049 A 
ATOM     50  C   UNL A   1      42.571  28.724  33.361  1.00  0.00     0.074 A 
ATOM     51  C   UNL A   1      45.148  26.185  29.117  1.00  0.00     0.029 A 
ATOM     52  N   UNL A   1      43.737  25.128  30.451  1.00  0.00    -0.354 N 
ATOM     53  N   UNL A   1      43.251  27.923  32.586  1.00  0.00    -0.248 NA
ATOM     54  C   UNL A   1      42.522  28.239  34.741  1.00  0.00     0.031 C 
ATOM     55  C   UNL A   1      45.442  26.533  30.468  1.00  0.00     0.029 A 
ATOM     56  C   UNL A   1      44.559  25.856  31.289  1.00  0.00     0.049 A 
ATOM     57  H   UNL A   1      43.000  24.553  30.762  1.00  0.00     0.167 HD
ATOM     58  C   UNL A   1      43.668  26.834  33.298  1.00  0.00     0.074 A 
ATOM     59  C   UNL A   1      43.194  27.078  34.649  1.00  0.00     0.031 C 
ATOM     60  C   UNL A   1      44.333  25.791  32.723  1.00  0.00     0.031 A 
BRANCH  47  61
ATOM     61  C   UNL A   1      43.632  23.966  26.906  1.00  0.00    -0.014 A 
ATOM     62  C   UNL A   1      44.108  24.611  25.750  1.00  0.00     0.009 A 
ATOM     63  C   UNL A   1      43.584  22.563  26.844  1.00  0.00     0.009 A 
ATOM     64  C   UNL A   1      44.416  23.908  24.577  1.00  0.00     0.001 A 
ATOM     65  C   UNL A   1      43.849  21.854  25.664  1.00  0.00     0.001 A 
ATOM     66  C   UNL A   1      44.255  22.530  24.523  1.00  0.00     0.000 A 
ENDBRANCH  47  61
BRANCH  48  67
ATOM     67  C   UNL A   1      40.516  30.427  33.416  1.00  0.00    -0.014 A 
ATOM     68  C   UNL A   1      40.303  31.815  33.547  1.00  0.00     0.009 A 
ATOM     69  C   UNL A   1      39.401  29.577  33.421  1.00  0.00     0.009 A 
ATOM     70  C   UNL A   1      39.009  32.344  33.554  1.00  0.00     0.001 A 
ATOM     71  C   UNL A   1      38.107  30.112  33.445  1.00  0.00     0.001 A 
ATOM     72  C   UNL A   1      37.912  31.493  33.472  1.00  0.00     0.000 A 
ENDBRANCH  48  67
BRANCH  60  73
ATOM     73  C   UNL A   1      44.809  24.587  33.484  1.00  0.00    -0.014 A 
ATOM     74  C   UNL A   1      46.151  24.409  33.849  1.00  0.00     0.009 A 
ATOM     75  C   UNL A   1      43.923  23.523  33.750  1.00  0.00     0.009 A 
ATOM     76  C   UNL A   1      46.572  23.244  34.504  1.00  0.00     0.001 A 
ATOM     77  C   UNL A   1      44.344  22.352  34.381  1.00  0.00     0.001 A 
ATOM     78  C   UNL A   1      45.669  22.218  34.769  1.00  0.00     0.000 A 
ENDBRANCH  60  73
ENDBRANCH  34  35
ENDBRANCH  26  29
ENDBRANCH  24  25
ENDBRANCH  23  24
ENDBRANCH  22  23
ENDBRANCH   1  22
TORSDOF 16
ENDMDL
