MODEL 1
REMARK VINA RESULT:     -12.7      0.000      0.000
REMARK SMILES O=C(NCCCCNC(=O)c1nn(Cc2ccc(F)cc2)c2ccccc12)c1ccc(-c2c3nc(c(-c4ccccc4)c4ccc([nH]4)c(-c4ccccc4)c4nc(c(-c5ccccc5)c5ccc2[nH]5)C=C4)C=C3)cc1
REMARK SMILES IDX 5 1 4 2 3 3 1 4 2 5 28 7 29 8 75 9 30 10 74 11 31 12 32 13
REMARK SMILES IDX 33 14 68 15 34 16 73 17 67 18 69 19 35 20 72 21 66 22 65 23
REMARK SMILES IDX 36 25 58 26 43 27 57 28 44 29 47 30 56 31 70 32 45 33 46 34
REMARK SMILES IDX 55 36 71 37 48 38 37 39 38 40 42 41 39 42 41 43 40 44 59 45
REMARK SMILES IDX 60 46 64 47 61 48 63 49 62 50 49 51 50 52 54 53 51 54 53 55
REMARK SMILES IDX 52 56 6 57 7 58 8 59 9 60 10 62 11 63 12 64 27 65 13 66
REMARK SMILES IDX 22 67 26 68 23 69 25 70 24 71 14 72 15 73 16 74 21 75 17 76
REMARK SMILES IDX 20 77 18 78 19 79
REMARK H PARENT 3 6 69 24 47 35 8 61
REMARK Flexibility Score: inf
ROOT
ATOM      1  C   UNL A   1      38.293  19.513  24.898  1.00  0.00     0.023 C 
ENDROOT
BRANCH   1   2
ATOM      2  C   UNL A   1      39.441  19.941  25.795  1.00  0.00     0.116 C 
BRANCH   2   3
ATOM      3  N   UNL A   1      40.586  19.016  25.835  1.00  0.00    -0.352 N 
ATOM      4  O   UNL A   1      42.814  18.549  25.580  1.00  0.00    -0.269 OA
ATOM      5  C   UNL A   1      41.946  19.340  25.889  1.00  0.00     0.251 C 
ATOM      6  H   UNL A   1      40.368  18.055  25.822  1.00  0.00     0.163 HD
BRANCH   5   7
ATOM      7  C   UNL A   1      42.294  20.689  26.381  1.00  0.00     0.039 A 
ATOM      8  C   UNL A   1      42.626  21.784  25.581  1.00  0.00     0.014 A 
ATOM      9  C   UNL A   1      42.141  20.843  27.742  1.00  0.00     0.014 A 
ATOM     10  C   UNL A   1      42.751  23.028  26.207  1.00  0.00     0.010 A 
ATOM     11  C   UNL A   1      41.782  22.069  28.190  1.00  0.00     0.010 A 
ATOM     12  C   UNL A   1      42.326  23.148  27.540  1.00  0.00    -0.014 A 
BRANCH  12  13
ATOM     13  C   UNL A   1      42.391  24.361  28.337  1.00  0.00     0.031 A 
ATOM     14  C   UNL A   1      41.277  25.295  28.107  1.00  0.00     0.074 A 
ATOM     15  C   UNL A   1      43.284  24.541  29.342  1.00  0.00     0.049 A 
ATOM     16  N   UNL A   1      41.341  26.417  27.478  1.00  0.00    -0.248 NA
ATOM     17  C   UNL A   1      39.917  24.874  28.468  1.00  0.00     0.031 C 
ATOM     18  C   UNL A   1      44.275  23.603  29.905  1.00  0.00     0.029 A 
ATOM     19  N   UNL A   1      43.427  25.616  30.158  1.00  0.00    -0.354 N 
ATOM     20  C   UNL A   1      40.064  26.951  27.530  1.00  0.00     0.074 A 
ATOM     21  C   UNL A   1      39.199  25.888  27.981  1.00  0.00     0.031 C 
ATOM     22  C   UNL A   1      44.731  24.063  31.091  1.00  0.00     0.029 A 
ATOM     23  C   UNL A   1      44.227  25.409  31.274  1.00  0.00     0.049 A 
ATOM     24  H   UNL A   1      42.994  26.481  29.972  1.00  0.00     0.167 HD
ATOM     25  C   UNL A   1      39.868  28.293  27.424  1.00  0.00     0.031 A 
ATOM     26  C   UNL A   1      44.478  26.296  32.270  1.00  0.00     0.031 A 
ATOM     27  C   UNL A   1      41.053  28.962  26.943  1.00  0.00     0.049 A 
ATOM     28  C   UNL A   1      44.206  27.641  31.714  1.00  0.00     0.074 A 
ATOM     29  C   UNL A   1      41.796  28.881  25.782  1.00  0.00     0.029 A 
ATOM     30  N   UNL A   1      41.884  29.525  27.885  1.00  0.00    -0.354 N 
ATOM     31  N   UNL A   1      44.913  28.172  30.756  1.00  0.00    -0.248 NA
ATOM     32  C   UNL A   1      42.869  28.183  31.882  1.00  0.00     0.031 C 
ATOM     33  C   UNL A   1      43.155  28.936  26.212  1.00  0.00     0.029 A 
ATOM     34  C   UNL A   1      43.171  29.143  27.594  1.00  0.00     0.049 A 
ATOM     35  H   UNL A   1      41.606  30.101  28.633  1.00  0.00     0.167 HD
ATOM     36  C   UNL A   1      43.980  28.777  29.927  1.00  0.00     0.074 A 
ATOM     37  C   UNL A   1      42.750  28.828  30.718  1.00  0.00     0.031 C 
ATOM     38  C   UNL A   1      44.205  28.916  28.586  1.00  0.00     0.031 A 
BRANCH  25  39
ATOM     39  C   UNL A   1      38.749  29.024  28.110  1.00  0.00    -0.014 A 
ATOM     40  C   UNL A   1      37.668  29.606  27.421  1.00  0.00     0.009 A 
ATOM     41  C   UNL A   1      38.628  28.921  29.506  1.00  0.00     0.009 A 
ATOM     42  C   UNL A   1      36.524  30.058  28.081  1.00  0.00     0.001 A 
ATOM     43  C   UNL A   1      37.465  29.335  30.167  1.00  0.00     0.001 A 
ATOM     44  C   UNL A   1      36.413  29.900  29.453  1.00  0.00     0.000 A 
ENDBRANCH  25  39
BRANCH  26  45
ATOM     45  C   UNL A   1      44.487  26.040  33.729  1.00  0.00    -0.014 A 
ATOM     46  C   UNL A   1      45.697  26.093  34.447  1.00  0.00     0.009 A 
ATOM     47  C   UNL A   1      43.385  25.429  34.351  1.00  0.00     0.009 A 
ATOM     48  C   UNL A   1      45.819  25.501  35.710  1.00  0.00     0.001 A 
ATOM     49  C   UNL A   1      43.508  24.837  35.617  1.00  0.00     0.001 A 
ATOM     50  C   UNL A   1      44.730  24.854  36.285  1.00  0.00     0.000 A 
ENDBRANCH  26  45
BRANCH  38  51
ATOM     51  C   UNL A   1      45.582  28.575  28.048  1.00  0.00    -0.014 A 
ATOM     52  C   UNL A   1      46.450  29.634  27.742  1.00  0.00     0.009 A 
ATOM     53  C   UNL A   1      45.966  27.276  27.663  1.00  0.00     0.009 A 
ATOM     54  C   UNL A   1      47.649  29.412  27.057  1.00  0.00     0.001 A 
ATOM     55  C   UNL A   1      47.180  27.051  26.999  1.00  0.00     0.001 A 
ATOM     56  C   UNL A   1      48.014  28.121  26.686  1.00  0.00     0.000 A 
ENDBRANCH  38  51
ENDBRANCH  12  13
ENDBRANCH   5   7
ENDBRANCH   2   3
ENDBRANCH   1   2
BRANCH   1  57
ATOM     57  C   UNL A   1      37.059  20.420  24.961  1.00  0.00     0.023 C 
BRANCH  57  58
ATOM     58  C   UNL A   1      37.289  21.884  25.343  1.00  0.00     0.116 C 
BRANCH  58  59
ATOM     59  N   UNL A   1      36.460  22.335  26.448  1.00  0.00    -0.351 N 
ATOM     60  C   UNL A   1      35.097  22.566  26.462  1.00  0.00     0.272 C 
ATOM     61  H   UNL A   1      36.931  22.497  27.298  1.00  0.00     0.163 HD
ATOM     62  O   UNL A   1      34.600  23.054  27.477  1.00  0.00    -0.267 OA
BRANCH  60  63
ATOM     63  C   UNL A   1      34.307  22.189  25.284  1.00  0.00     0.158 A 
ATOM     64  N   UNL A   1      33.760  20.965  25.153  1.00  0.00    -0.166 NA
ATOM     65  C   UNL A   1      33.990  23.017  24.166  1.00  0.00     0.033 A 
ATOM     66  N   UNL A   1      33.062  21.029  23.995  1.00  0.00    -0.260 N 
ATOM     67  C   UNL A   1      33.230  22.217  23.318  1.00  0.00     0.069 A 
ATOM     68  C   UNL A   1      34.252  24.354  23.798  1.00  0.00     0.013 A 
ATOM     69  C   UNL A   1      32.767  22.687  22.080  1.00  0.00     0.028 A 
ATOM     70  C   UNL A   1      33.677  24.868  22.633  1.00  0.00     0.001 A 
ATOM     71  C   UNL A   1      32.952  24.041  21.784  1.00  0.00     0.002 A 
BRANCH  66  72
ATOM     72  C   UNL A   1      32.246  19.883  23.591  1.00  0.00     0.180 C 
BRANCH  72  73
ATOM     73  C   UNL A   1      32.782  18.548  24.081  1.00  0.00    -0.026 A 
ATOM     74  C   UNL A   1      32.322  17.961  25.273  1.00  0.00     0.008 A 
ATOM     75  C   UNL A   1      33.728  17.836  23.323  1.00  0.00     0.008 A 
ATOM     76  C   UNL A   1      32.809  16.732  25.718  1.00  0.00     0.039 A 
ATOM     77  C   UNL A   1      34.201  16.591  23.758  1.00  0.00     0.039 A 
ATOM     78  C   UNL A   1      33.745  16.057  24.956  1.00  0.00     0.123 A 
ATOM     79  F   UNL A   1      34.205  14.871  25.377  1.00  0.00    -0.207 F 
ENDBRANCH  72  73
ENDBRANCH  66  72
ENDBRANCH  60  63
ENDBRANCH  58  59
ENDBRANCH  57  58
ENDBRANCH   1  57
TORSDOF 13
ENDMDL
MODEL 2
REMARK VINA RESULT:     -12.5      5.391      9.998
REMARK SMILES O=C(NCCCCNC(=O)c1nn(Cc2ccc(F)cc2)c2ccccc12)c1ccc(-c2c3nc(c(-c4ccccc4)c4ccc([nH]4)c(-c4ccccc4)c4nc(c(-c5ccccc5)c5ccc2[nH]5)C=C4)C=C3)cc1
REMARK SMILES IDX 5 1 4 2 3 3 1 4 2 5 28 7 29 8 75 9 30 10 74 11 31 12 32 13
REMARK SMILES IDX 33 14 68 15 34 16 73 17 67 18 69 19 35 20 72 21 66 22 65 23
REMARK SMILES IDX 36 25 58 26 43 27 57 28 44 29 47 30 56 31 70 32 45 33 46 34
REMARK SMILES IDX 55 36 71 37 48 38 37 39 38 40 42 41 39 42 41 43 40 44 59 45
REMARK SMILES IDX 60 46 64 47 61 48 63 49 62 50 49 51 50 52 54 53 51 54 53 55
REMARK SMILES IDX 52 56 6 57 7 58 8 59 9 60 10 62 11 63 12 64 27 65 13 66
REMARK SMILES IDX 22 67 26 68 23 69 25 70 24 71 14 72 15 73 16 74 21 75 17 76
REMARK SMILES IDX 20 77 18 78 19 79
REMARK H PARENT 3 6 69 24 47 35 8 61
REMARK Flexibility Score: inf
ROOT
ATOM      1  C   UNL A   1      31.361  32.287  26.612  1.00  0.00     0.023 C 
ENDROOT
BRANCH   1   2
ATOM      2  C   UNL A   1      32.539  32.900  27.347  1.00  0.00     0.116 C 
BRANCH   2   3
ATOM      3  N   UNL A   1      32.355  34.296  27.778  1.00  0.00    -0.352 N 
ATOM      4  O   UNL A   1      32.532  35.970  29.332  1.00  0.00    -0.269 OA
ATOM      5  C   UNL A   1      32.980  34.952  28.844  1.00  0.00     0.251 C 
ATOM      6  H   UNL A   1      31.715  34.830  27.253  1.00  0.00     0.163 HD
BRANCH   5   7
ATOM      7  C   UNL A   1      34.248  34.374  29.335  1.00  0.00     0.039 A 
ATOM      8  C   UNL A   1      34.389  33.577  30.472  1.00  0.00     0.014 A 
ATOM      9  C   UNL A   1      35.318  34.573  28.490  1.00  0.00     0.014 A 
ATOM     10  C   UNL A   1      35.630  32.969  30.686  1.00  0.00     0.010 A 
ATOM     11  C   UNL A   1      36.272  33.614  28.458  1.00  0.00     0.010 A 
ATOM     12  C   UNL A   1      36.578  33.009  29.652  1.00  0.00    -0.014 A 
BRANCH  12  13
ATOM     13  C   UNL A   1      37.912  32.436  29.711  1.00  0.00     0.031 A 
ATOM     14  C   UNL A   1      37.979  31.021  29.309  1.00  0.00     0.074 A 
ATOM     15  C   UNL A   1      39.028  33.175  29.928  1.00  0.00     0.049 A 
ATOM     16  N   UNL A   1      38.159  30.015  30.090  1.00  0.00    -0.248 NA
ATOM     17  C   UNL A   1      37.654  30.667  27.921  1.00  0.00     0.031 C 
ATOM     18  C   UNL A   1      39.183  34.637  30.058  1.00  0.00     0.029 A 
ATOM     19  N   UNL A   1      40.317  32.754  29.987  1.00  0.00    -0.354 N 
ATOM     20  C   UNL A   1      38.169  28.898  29.271  1.00  0.00     0.074 A 
ATOM     21  C   UNL A   1      37.674  29.333  27.989  1.00  0.00     0.031 C 
ATOM     22  C   UNL A   1      40.486  34.980  29.943  1.00  0.00     0.029 A 
ATOM     23  C   UNL A   1      41.271  33.763  29.936  1.00  0.00     0.049 A 
ATOM     24  H   UNL A   1      40.559  31.802  30.061  1.00  0.00     0.167 HD
ATOM     25  C   UNL A   1      38.812  27.762  29.655  1.00  0.00     0.031 A 
ATOM     26  C   UNL A   1      42.619  33.606  29.917  1.00  0.00     0.031 A 
ATOM     27  C   UNL A   1      39.141  27.791  31.059  1.00  0.00     0.049 A 
ATOM     28  C   UNL A   1      42.895  32.265  30.482  1.00  0.00     0.074 A 
ATOM     29  C   UNL A   1      38.395  27.877  32.219  1.00  0.00     0.029 A 
ATOM     30  N   UNL A   1      40.414  28.191  31.399  1.00  0.00    -0.354 N 
ATOM     31  N   UNL A   1      42.650  31.952  31.723  1.00  0.00    -0.248 NA
ATOM     32  C   UNL A   1      42.984  31.149  29.557  1.00  0.00     0.031 C 
ATOM     33  C   UNL A   1      39.119  28.777  33.055  1.00  0.00     0.029 A 
ATOM     34  C   UNL A   1      40.310  29.118  32.407  1.00  0.00     0.049 A 
ATOM     35  H   UNL A   1      41.250  27.868  30.993  1.00  0.00     0.167 HD
ATOM     36  C   UNL A   1      42.112  30.674  31.661  1.00  0.00     0.074 A 
ATOM     37  C   UNL A   1      42.427  30.198  30.313  1.00  0.00     0.031 C 
ATOM     38  C   UNL A   1      41.218  30.233  32.595  1.00  0.00     0.031 A 
BRANCH  25  39
ATOM     39  C   UNL A   1      39.467  26.815  28.690  1.00  0.00    -0.014 A 
ATOM     40  C   UNL A   1      39.051  25.481  28.512  1.00  0.00     0.009 A 
ATOM     41  C   UNL A   1      40.369  27.328  27.743  1.00  0.00     0.009 A 
ATOM     42  C   UNL A   1      39.502  24.699  27.447  1.00  0.00     0.001 A 
ATOM     43  C   UNL A   1      40.790  26.560  26.651  1.00  0.00     0.001 A 
ATOM     44  C   UNL A   1      40.354  25.247  26.502  1.00  0.00     0.000 A 
ENDBRANCH  25  39
BRANCH  26  45
ATOM     45  C   UNL A   1      43.600  34.310  29.058  1.00  0.00    -0.014 A 
ATOM     46  C   UNL A   1      44.179  35.518  29.493  1.00  0.00     0.009 A 
ATOM     47  C   UNL A   1      43.718  33.983  27.697  1.00  0.00     0.009 A 
ATOM     48  C   UNL A   1      44.795  36.394  28.591  1.00  0.00     0.001 A 
ATOM     49  C   UNL A   1      44.336  34.861  26.794  1.00  0.00     0.001 A 
ATOM     50  C   UNL A   1      44.855  36.075  27.238  1.00  0.00     0.000 A 
ENDBRANCH  26  45
BRANCH  38  51
ATOM     51  C   UNL A   1      40.971  31.096  33.818  1.00  0.00    -0.014 A 
ATOM     52  C   UNL A   1      40.106  32.193  33.686  1.00  0.00     0.009 A 
ATOM     53  C   UNL A   1      41.701  30.974  35.016  1.00  0.00     0.009 A 
ATOM     54  C   UNL A   1      39.987  33.147  34.701  1.00  0.00     0.001 A 
ATOM     55  C   UNL A   1      41.562  31.916  36.045  1.00  0.00     0.001 A 
ATOM     56  C   UNL A   1      40.714  33.008  35.881  1.00  0.00     0.000 A 
ENDBRANCH  38  51
ENDBRANCH  12  13
ENDBRANCH   5   7
ENDBRANCH   2   3
ENDBRANCH   1   2
BRANCH   1  57
ATOM     57  C   UNL A   1      31.665  30.960  25.908  1.00  0.00     0.023 C 
BRANCH  57  58
ATOM     58  C   UNL A   1      32.868  30.162  26.415  1.00  0.00     0.116 C 
BRANCH  58  59
ATOM     59  N   UNL A   1      32.540  29.225  27.476  1.00  0.00    -0.351 N 
ATOM     60  C   UNL A   1      32.039  27.940  27.366  1.00  0.00     0.272 C 
ATOM     61  H   UNL A   1      32.694  29.547  28.394  1.00  0.00     0.163 HD
ATOM     62  O   UNL A   1      31.722  27.349  28.397  1.00  0.00    -0.267 OA
BRANCH  60  63
ATOM     63  C   UNL A   1      31.942  27.336  26.031  1.00  0.00     0.158 A 
ATOM     64  N   UNL A   1      30.951  27.653  25.176  1.00  0.00    -0.166 NA
ATOM     65  C   UNL A   1      32.841  26.392  25.453  1.00  0.00     0.033 A 
ATOM     66  N   UNL A   1      31.244  26.961  24.049  1.00  0.00    -0.260 N 
ATOM     67  C   UNL A   1      32.329  26.122  24.187  1.00  0.00     0.069 A 
ATOM     68  C   UNL A   1      34.034  25.758  25.860  1.00  0.00     0.013 A 
ATOM     69  C   UNL A   1      32.934  25.192  23.329  1.00  0.00     0.028 A 
ATOM     70  C   UNL A   1      34.716  24.938  24.957  1.00  0.00     0.001 A 
ATOM     71  C   UNL A   1      34.166  24.654  23.713  1.00  0.00     0.002 A 
BRANCH  66  72
ATOM     72  C   UNL A   1      30.414  27.154  22.859  1.00  0.00     0.180 C 
BRANCH  72  73
ATOM     73  C   UNL A   1      29.528  28.386  22.924  1.00  0.00    -0.026 A 
ATOM     74  C   UNL A   1      30.048  29.679  22.738  1.00  0.00     0.008 A 
ATOM     75  C   UNL A   1      28.143  28.260  23.128  1.00  0.00     0.008 A 
ATOM     76  C   UNL A   1      29.233  30.809  22.791  1.00  0.00     0.039 A 
ATOM     77  C   UNL A   1      27.319  29.394  23.159  1.00  0.00     0.039 A 
ATOM     78  C   UNL A   1      27.874  30.657  23.000  1.00  0.00     0.123 A 
ATOM     79  F   UNL A   1      27.088  31.741  23.040  1.00  0.00    -0.207 F 
ENDBRANCH  72  73
ENDBRANCH  66  72
ENDBRANCH  60  63
ENDBRANCH  58  59
ENDBRANCH  57  58
ENDBRANCH   1  57
TORSDOF 13
ENDMDL
MODEL 3
REMARK VINA RESULT:     -12.5      4.552      9.119
REMARK SMILES O=C(NCCCCNC(=O)c1nn(Cc2ccc(F)cc2)c2ccccc12)c1ccc(-c2c3nc(c(-c4ccccc4)c4ccc([nH]4)c(-c4ccccc4)c4nc(c(-c5ccccc5)c5ccc2[nH]5)C=C4)C=C3)cc1
REMARK SMILES IDX 5 1 4 2 3 3 1 4 2 5 28 7 29 8 75 9 30 10 74 11 31 12 32 13
REMARK SMILES IDX 33 14 68 15 34 16 73 17 67 18 69 19 35 20 72 21 66 22 65 23
REMARK SMILES IDX 36 25 58 26 43 27 57 28 44 29 47 30 56 31 70 32 45 33 46 34
REMARK SMILES IDX 55 36 71 37 48 38 37 39 38 40 42 41 39 42 41 43 40 44 59 45
REMARK SMILES IDX 60 46 64 47 61 48 63 49 62 50 49 51 50 52 54 53 51 54 53 55
REMARK SMILES IDX 52 56 6 57 7 58 8 59 9 60 10 62 11 63 12 64 27 65 13 66
REMARK SMILES IDX 22 67 26 68 23 69 25 70 24 71 14 72 15 73 16 74 21 75 17 76
REMARK SMILES IDX 20 77 18 78 19 79
REMARK H PARENT 3 6 69 24 47 35 8 61
REMARK Flexibility Score: inf
ROOT
ATOM      1  C   UNL A   1      31.506  32.005  26.582  1.00  0.00     0.023 C 
ENDROOT
BRANCH   1   2
ATOM      2  C   UNL A   1      32.678  32.656  27.294  1.00  0.00     0.116 C 
BRANCH   2   3
ATOM      3  N   UNL A   1      32.460  34.048  27.721  1.00  0.00    -0.352 N 
ATOM      4  O   UNL A   1      32.591  35.728  29.273  1.00  0.00    -0.269 OA
ATOM      5  C   UNL A   1      33.065  34.720  28.789  1.00  0.00     0.251 C 
ATOM      6  H   UNL A   1      31.812  34.567  27.191  1.00  0.00     0.163 HD
BRANCH   5   7
ATOM      7  C   UNL A   1      34.342  34.171  29.289  1.00  0.00     0.039 A 
ATOM      8  C   UNL A   1      34.497  33.401  30.444  1.00  0.00     0.014 A 
ATOM      9  C   UNL A   1      35.406  34.367  28.437  1.00  0.00     0.014 A 
ATOM     10  C   UNL A   1      35.747  32.815  30.667  1.00  0.00     0.010 A 
ATOM     11  C   UNL A   1      36.374  33.421  28.424  1.00  0.00     0.010 A 
ATOM     12  C   UNL A   1      36.692  32.847  29.630  1.00  0.00    -0.014 A 
BRANCH  12  13
ATOM     13  C   UNL A   1      38.034  32.294  29.697  1.00  0.00     0.031 A 
ATOM     14  C   UNL A   1      38.124  30.878  29.305  1.00  0.00     0.074 A 
ATOM     15  C   UNL A   1      39.139  33.051  29.913  1.00  0.00     0.049 A 
ATOM     16  N   UNL A   1      38.316  29.879  30.093  1.00  0.00    -0.248 NA
ATOM     17  C   UNL A   1      37.809  30.510  27.918  1.00  0.00     0.031 C 
ATOM     18  C   UNL A   1      39.270  34.516  30.034  1.00  0.00     0.029 A 
ATOM     19  N   UNL A   1      40.433  32.650  29.981  1.00  0.00    -0.354 N 
ATOM     20  C   UNL A   1      38.346  28.757  29.281  1.00  0.00     0.074 A 
ATOM     21  C   UNL A   1      37.849  29.177  27.994  1.00  0.00     0.031 C 
ATOM     22  C   UNL A   1      40.568  34.878  29.922  1.00  0.00     0.029 A 
ATOM     23  C   UNL A   1      41.372  33.673  29.927  1.00  0.00     0.049 A 
ATOM     24  H   UNL A   1      40.689  31.702  30.062  1.00  0.00     0.167 HD
ATOM     25  C   UNL A   1      39.004  27.634  29.674  1.00  0.00     0.031 A 
ATOM     26  C   UNL A   1      42.722  33.536  29.913  1.00  0.00     0.031 A 
ATOM     27  C   UNL A   1      39.327  27.677  31.080  1.00  0.00     0.049 A 
ATOM     28  C   UNL A   1      43.016  32.203  30.488  1.00  0.00     0.074 A 
ATOM     29  C   UNL A   1      38.576  27.758  32.236  1.00  0.00     0.029 A 
ATOM     30  N   UNL A   1      40.593  28.098  31.422  1.00  0.00    -0.354 N 
ATOM     31  N   UNL A   1      42.772  31.894  31.730  1.00  0.00    -0.248 NA
ATOM     32  C   UNL A   1      43.125  31.083  29.570  1.00  0.00     0.031 C 
ATOM     33  C   UNL A   1      39.283  28.675  33.069  1.00  0.00     0.029 A 
ATOM     34  C   UNL A   1      40.471  29.030  32.423  1.00  0.00     0.049 A 
ATOM     35  H   UNL A   1      41.436  27.785  31.021  1.00  0.00     0.167 HD
ATOM     36  C   UNL A   1      42.253  30.608  31.674  1.00  0.00     0.074 A 
ATOM     37  C   UNL A   1      42.580  30.129  30.330  1.00  0.00     0.031 C 
ATOM     38  C   UNL A   1      41.362  30.160  32.608  1.00  0.00     0.031 A 
BRANCH  25  39
ATOM     39  C   UNL A   1      39.677  26.691  28.718  1.00  0.00    -0.014 A 
ATOM     40  C   UNL A   1      39.172  25.413  28.408  1.00  0.00     0.009 A 
ATOM     41  C   UNL A   1      40.715  27.176  27.905  1.00  0.00     0.009 A 
ATOM     42  C   UNL A   1      39.667  24.658  27.342  1.00  0.00     0.001 A 
ATOM     43  C   UNL A   1      41.185  26.440  26.811  1.00  0.00     0.001 A 
ATOM     44  C   UNL A   1      40.659  25.183  26.529  1.00  0.00     0.000 A 
ENDBRANCH  25  39
BRANCH  26  45
ATOM     45  C   UNL A   1      43.696  34.250  29.054  1.00  0.00    -0.014 A 
ATOM     46  C   UNL A   1      44.361  35.391  29.539  1.00  0.00     0.009 A 
ATOM     47  C   UNL A   1      43.727  34.015  27.669  1.00  0.00     0.009 A 
ATOM     48  C   UNL A   1      44.978  36.298  28.669  1.00  0.00     0.001 A 
ATOM     49  C   UNL A   1      44.346  34.924  26.797  1.00  0.00     0.001 A 
ATOM     50  C   UNL A   1      44.952  36.074  27.295  1.00  0.00     0.000 A 
ENDBRANCH  26  45
BRANCH  38  51
ATOM     51  C   UNL A   1      41.097  31.027  33.824  1.00  0.00    -0.014 A 
ATOM     52  C   UNL A   1      41.725  30.679  35.030  1.00  0.00     0.009 A 
ATOM     53  C   UNL A   1      40.118  32.038  33.860  1.00  0.00     0.009 A 
ATOM     54  C   UNL A   1      41.376  31.300  36.233  1.00  0.00     0.001 A 
ATOM     55  C   UNL A   1      39.786  32.679  35.062  1.00  0.00     0.001 A 
ATOM     56  C   UNL A   1      40.407  32.300  36.249  1.00  0.00     0.000 A 
ENDBRANCH  38  51
ENDBRANCH  12  13
ENDBRANCH   5   7
ENDBRANCH   2   3
ENDBRANCH   1   2
BRANCH   1  57
ATOM     57  C   UNL A   1      31.652  30.496  26.354  1.00  0.00     0.023 C 
BRANCH  57  58
ATOM     58  C   UNL A   1      33.058  29.906  26.480  1.00  0.00     0.116 C 
BRANCH  58  59
ATOM     59  N   UNL A   1      33.716  29.693  25.202  1.00  0.00    -0.351 N 
ATOM     60  C   UNL A   1      33.669  28.578  24.385  1.00  0.00     0.272 C 
ATOM     61  H   UNL A   1      34.268  30.440  24.875  1.00  0.00     0.163 HD
ATOM     62  O   UNL A   1      34.392  28.555  23.389  1.00  0.00    -0.267 OA
BRANCH  60  63
ATOM     63  C   UNL A   1      32.739  27.495  24.727  1.00  0.00     0.158 A 
ATOM     64  N   UNL A   1      33.087  26.489  25.553  1.00  0.00    -0.166 NA
ATOM     65  C   UNL A   1      31.389  27.356  24.285  1.00  0.00     0.033 A 
ATOM     66  N   UNL A   1      31.960  25.749  25.677  1.00  0.00    -0.260 N 
ATOM     67  C   UNL A   1      30.929  26.181  24.871  1.00  0.00     0.069 A 
ATOM     68  C   UNL A   1      30.514  28.106  23.470  1.00  0.00     0.013 A 
ATOM     69  C   UNL A   1      29.636  25.692  24.627  1.00  0.00     0.028 A 
ATOM     70  C   UNL A   1      29.186  27.697  23.336  1.00  0.00     0.001 A 
ATOM     71  C   UNL A   1      28.758  26.501  23.900  1.00  0.00     0.002 A 
BRANCH  66  72
ATOM     72  C   UNL A   1      31.952  24.614  26.601  1.00  0.00     0.180 C 
BRANCH  72  73
ATOM     73  C   UNL A   1      32.870  23.478  26.181  1.00  0.00    -0.026 A 
ATOM     74  C   UNL A   1      33.695  22.815  27.107  1.00  0.00     0.008 A 
ATOM     75  C   UNL A   1      32.883  23.025  24.850  1.00  0.00     0.008 A 
ATOM     76  C   UNL A   1      34.531  21.768  26.722  1.00  0.00     0.039 A 
ATOM     77  C   UNL A   1      33.707  21.958  24.467  1.00  0.00     0.039 A 
ATOM     78  C   UNL A   1      34.530  21.347  25.404  1.00  0.00     0.123 A 
ATOM     79  F   UNL A   1      35.324  20.334  25.036  1.00  0.00    -0.207 F 
ENDBRANCH  72  73
ENDBRANCH  66  72
ENDBRANCH  60  63
ENDBRANCH  58  59
ENDBRANCH  57  58
ENDBRANCH   1  57
TORSDOF 13
ENDMDL
