MODEL 1
REMARK VINA RESULT:     -12.1      0.000      0.000
REMARK SMILES O=C(CCC(=O)Nc1cccc2c1C(=O)c1ccccc1C2=O)NCCCCNC(=O)c1ccc(-c2c3nc(c(-c4ccccc4)c4ccc([nH]4)c(-c4ccccc4)c4nc(c(-c5ccccc5)c5ccc2[nH]5)C=C4)C=C3)cc1
REMARK SMILES IDX 26 1 25 2 24 3 1 4 2 5 3 7 4 8 5 9 6 10 7 11 8 13 9 14 13 15
REMARK SMILES IDX 10 16 12 17 14 18 11 19 22 20 15 21 16 22 21 23 23 24 17 25
REMARK SMILES IDX 20 26 18 27 19 28 27 29 28 30 29 31 30 32 31 34 32 35 33 36
REMARK SMILES IDX 79 37 34 38 78 39 35 40 36 41 37 42 72 43 38 44 77 45 71 46
REMARK SMILES IDX 73 47 39 48 76 49 70 50 69 51 40 53 62 54 47 55 61 56 48 57
REMARK SMILES IDX 51 58 60 59 74 60 49 61 50 62 59 64 75 65 52 66 41 67 42 68
REMARK SMILES IDX 46 69 43 70 45 71 44 72 63 73 64 74 68 75 65 76 67 77 66 78
REMARK SMILES IDX 53 79 54 80 58 81 55 82 57 83 56 84
REMARK H PARENT 24 6 7 12 29 33 73 52 51 63
REMARK Flexibility Score: inf
ROOT
ATOM      1  C   UNL A   1      31.585  29.585  25.524  1.00  0.00     0.023 C 
ENDROOT
BRANCH   1   2
ATOM      2  C   UNL A   1      32.480  29.176  24.367  1.00  0.00     0.116 C 
BRANCH   2   3
ATOM      3  N   UNL A   1      32.182  27.936  23.682  1.00  0.00    -0.356 N 
ATOM      4  O   UNL A   1      33.877  27.758  22.126  1.00  0.00    -0.275 OA
ATOM      5  C   UNL A   1      33.216  27.281  23.039  1.00  0.00     0.220 C 
ATOM      6  H   UNL A   1      31.268  27.569  23.673  1.00  0.00     0.163 HD
BRANCH   5   7
ATOM      7  C   UNL A   1      33.646  25.999  23.713  1.00  0.00     0.110 C 
BRANCH   7   8
ATOM      8  C   UNL A   1      32.398  25.348  24.336  1.00  0.00     0.110 C 
BRANCH   8   9
ATOM      9  C   UNL A   1      32.654  25.076  25.792  1.00  0.00     0.224 C 
ATOM     10  O   UNL A   1      31.905  25.587  26.639  1.00  0.00    -0.275 OA
ATOM     11  N   UNL A   1      33.618  24.267  26.288  1.00  0.00    -0.325 N 
ATOM     12  H   UNL A   1      33.552  24.236  27.270  1.00  0.00     0.169 HD
BRANCH  11  13
ATOM     13  C   UNL A   1      34.691  23.450  25.858  1.00  0.00     0.053 A 
ATOM     14  C   UNL A   1      35.917  24.146  25.967  1.00  0.00     0.027 A 
ATOM     15  C   UNL A   1      34.751  22.123  25.377  1.00  0.00     0.057 A 
ATOM     16  C   UNL A   1      37.149  23.543  25.726  1.00  0.00     0.003 A 
ATOM     17  C   UNL A   1      36.005  21.481  25.261  1.00  0.00     0.036 A 
ATOM     18  C   UNL A   1      33.773  21.487  24.456  1.00  0.00     0.196 C 
ATOM     19  C   UNL A   1      37.197  22.193  25.422  1.00  0.00     0.013 A 
ATOM     20  C   UNL A   1      36.090  20.040  24.906  1.00  0.00     0.194 C 
ATOM     21  O   UNL A   1      33.312  22.122  23.518  1.00  0.00    -0.288 OA
ATOM     22  C   UNL A   1      33.686  20.022  24.388  1.00  0.00     0.034 A 
ATOM     23  C   UNL A   1      34.847  19.300  24.626  1.00  0.00     0.034 A 
ATOM     24  O   UNL A   1      37.173  19.469  24.864  1.00  0.00    -0.289 OA
ATOM     25  C   UNL A   1      32.536  19.367  23.939  1.00  0.00     0.013 A 
ATOM     26  C   UNL A   1      34.849  17.907  24.493  1.00  0.00     0.013 A 
ATOM     27  C   UNL A   1      32.527  17.976  23.824  1.00  0.00     0.001 A 
ATOM     28  C   UNL A   1      33.679  17.246  24.113  1.00  0.00     0.001 A 
ENDBRANCH  11  13
ENDBRANCH   8   9
ENDBRANCH   7   8
ENDBRANCH   5   7
ENDBRANCH   2   3
ENDBRANCH   1   2
BRANCH   1  29
ATOM     29  C   UNL A   1      32.071  29.073  26.870  1.00  0.00     0.023 C 
BRANCH  29  30
ATOM     30  C   UNL A   1      33.488  29.493  27.239  1.00  0.00     0.116 C 
BRANCH  30  31
ATOM     31  N   UNL A   1      33.599  30.750  27.965  1.00  0.00    -0.352 N 
ATOM     32  C   UNL A   1      34.726  31.189  28.643  1.00  0.00     0.251 C 
ATOM     33  H   UNL A   1      32.809  31.337  27.975  1.00  0.00     0.163 HD
ATOM     34  O   UNL A   1      34.759  32.234  29.262  1.00  0.00    -0.269 OA
BRANCH  32  35
ATOM     35  C   UNL A   1      35.897  30.283  28.615  1.00  0.00     0.039 A 
ATOM     36  C   UNL A   1      36.742  30.315  27.505  1.00  0.00     0.014 A 
ATOM     37  C   UNL A   1      36.271  29.624  29.790  1.00  0.00     0.014 A 
ATOM     38  C   UNL A   1      38.016  29.754  27.605  1.00  0.00     0.010 A 
ATOM     39  C   UNL A   1      37.570  29.143  29.911  1.00  0.00     0.010 A 
ATOM     40  C   UNL A   1      38.460  29.213  28.825  1.00  0.00    -0.014 A 
BRANCH  40  41
ATOM     41  C   UNL A   1      39.853  28.726  28.992  1.00  0.00     0.031 A 
ATOM     42  C   UNL A   1      40.911  29.657  29.519  1.00  0.00     0.074 A 
ATOM     43  C   UNL A   1      40.188  27.478  28.608  1.00  0.00     0.049 A 
ATOM     44  N   UNL A   1      42.192  29.444  29.683  1.00  0.00    -0.248 NA
ATOM     45  C   UNL A   1      40.476  31.018  29.876  1.00  0.00     0.031 C 
ATOM     46  C   UNL A   1      39.276  26.488  28.030  1.00  0.00     0.029 A 
ATOM     47  N   UNL A   1      41.399  26.827  28.646  1.00  0.00    -0.354 N 
ATOM     48  C   UNL A   1      42.715  30.647  30.138  1.00  0.00     0.074 A 
ATOM     49  C   UNL A   1      41.627  31.600  30.171  1.00  0.00     0.031 C 
ATOM     50  C   UNL A   1      39.950  25.348  27.801  1.00  0.00     0.029 A 
ATOM     51  C   UNL A   1      41.346  25.534  28.183  1.00  0.00     0.049 A 
ATOM     52  H   UNL A   1      42.226  27.248  28.974  1.00  0.00     0.167 HD
ATOM     53  C   UNL A   1      43.982  30.932  30.520  1.00  0.00     0.031 A 
ATOM     54  C   UNL A   1      42.314  24.602  28.081  1.00  0.00     0.031 A 
ATOM     55  C   UNL A   1      45.060  29.983  30.520  1.00  0.00     0.049 A 
ATOM     56  C   UNL A   1      43.711  24.937  28.526  1.00  0.00     0.074 A 
ATOM     57  C   UNL A   1      46.362  30.156  30.954  1.00  0.00     0.029 A 
ATOM     58  N   UNL A   1      44.959  28.677  30.064  1.00  0.00    -0.354 N 
ATOM     59  N   UNL A   1      44.172  26.058  29.025  1.00  0.00    -0.248 NA
ATOM     60  C   UNL A   1      44.718  23.873  28.405  1.00  0.00     0.031 C 
ATOM     61  C   UNL A   1      47.061  28.966  30.727  1.00  0.00     0.029 A 
ATOM     62  C   UNL A   1      46.180  28.039  30.192  1.00  0.00     0.049 A 
ATOM     63  H   UNL A   1      44.140  28.266  29.704  1.00  0.00     0.167 HD
ATOM     64  C   UNL A   1      45.513  25.826  29.303  1.00  0.00     0.074 A 
ATOM     65  C   UNL A   1      45.788  24.453  28.930  1.00  0.00     0.031 C 
ATOM     66  C   UNL A   1      46.434  26.673  29.822  1.00  0.00     0.031 A 
BRANCH  53  67
ATOM     67  C   UNL A   1      44.262  32.335  30.976  1.00  0.00    -0.014 A 
ATOM     68  C   UNL A   1      44.133  32.699  32.327  1.00  0.00     0.009 A 
ATOM     69  C   UNL A   1      44.677  33.302  30.048  1.00  0.00     0.009 A 
ATOM     70  C   UNL A   1      44.376  34.013  32.731  1.00  0.00     0.001 A 
ATOM     71  C   UNL A   1      44.947  34.608  30.460  1.00  0.00     0.001 A 
ATOM     72  C   UNL A   1      44.785  34.964  31.798  1.00  0.00     0.000 A 
ENDBRANCH  53  67
BRANCH  54  73
ATOM     73  C   UNL A   1      41.998  23.245  27.560  1.00  0.00    -0.014 A 
ATOM     74  C   UNL A   1      42.182  22.947  26.201  1.00  0.00     0.009 A 
ATOM     75  C   UNL A   1      41.489  22.251  28.410  1.00  0.00     0.009 A 
ATOM     76  C   UNL A   1      41.837  21.689  25.699  1.00  0.00     0.001 A 
ATOM     77  C   UNL A   1      41.170  20.987  27.909  1.00  0.00     0.001 A 
ATOM     78  C   UNL A   1      41.335  20.710  26.553  1.00  0.00     0.000 A 
ENDBRANCH  54  73
BRANCH  66  79
ATOM     79  C   UNL A   1      47.816  26.130  30.053  1.00  0.00    -0.014 A 
ATOM     80  C   UNL A   1      48.764  26.094  29.019  1.00  0.00     0.009 A 
ATOM     81  C   UNL A   1      48.185  25.696  31.335  1.00  0.00     0.009 A 
ATOM     82  C   UNL A   1      50.049  25.605  29.261  1.00  0.00     0.001 A 
ATOM     83  C   UNL A   1      49.478  25.232  31.579  1.00  0.00     0.001 A 
ATOM     84  C   UNL A   1      50.407  25.180  30.541  1.00  0.00     0.000 A 
ENDBRANCH  66  79
ENDBRANCH  40  41
ENDBRANCH  32  35
ENDBRANCH  30  31
ENDBRANCH  29  30
ENDBRANCH   1  29
TORSDOF 14
ENDMDL
MODEL 2
REMARK VINA RESULT:     -12.0      4.304     10.746
REMARK SMILES O=C(CCC(=O)Nc1cccc2c1C(=O)c1ccccc1C2=O)NCCCCNC(=O)c1ccc(-c2c3nc(c(-c4ccccc4)c4ccc([nH]4)c(-c4ccccc4)c4nc(c(-c5ccccc5)c5ccc2[nH]5)C=C4)C=C3)cc1
REMARK SMILES IDX 26 1 25 2 24 3 1 4 2 5 3 7 4 8 5 9 6 10 7 11 8 13 9 14 13 15
REMARK SMILES IDX 10 16 12 17 14 18 11 19 22 20 15 21 16 22 21 23 23 24 17 25
REMARK SMILES IDX 20 26 18 27 19 28 27 29 28 30 29 31 30 32 31 34 32 35 33 36
REMARK SMILES IDX 79 37 34 38 78 39 35 40 36 41 37 42 72 43 38 44 77 45 71 46
REMARK SMILES IDX 73 47 39 48 76 49 70 50 69 51 40 53 62 54 47 55 61 56 48 57
REMARK SMILES IDX 51 58 60 59 74 60 49 61 50 62 59 64 75 65 52 66 41 67 42 68
REMARK SMILES IDX 46 69 43 70 45 71 44 72 63 73 64 74 68 75 65 76 67 77 66 78
REMARK SMILES IDX 53 79 54 80 58 81 55 82 57 83 56 84
REMARK H PARENT 24 6 7 12 29 33 73 52 51 63
REMARK Flexibility Score: inf
ROOT
ATOM      1  C   UNL A   1      42.128  19.153  26.488  1.00  0.00     0.023 C 
ENDROOT
BRANCH   1   2
ATOM      2  C   UNL A   1      43.177  19.243  25.393  1.00  0.00     0.116 C 
BRANCH   2   3
ATOM      3  N   UNL A   1      44.563  19.050  25.762  1.00  0.00    -0.356 N 
ATOM      4  O   UNL A   1      45.656  18.965  23.731  1.00  0.00    -0.275 OA
ATOM      5  C   UNL A   1      45.538  19.428  24.858  1.00  0.00     0.220 C 
ATOM      6  H   UNL A   1      44.806  18.660  26.633  1.00  0.00     0.163 HD
BRANCH   5   7
ATOM      7  C   UNL A   1      46.319  20.654  25.271  1.00  0.00     0.110 C 
BRANCH   7   8
ATOM      8  C   UNL A   1      46.280  21.658  24.105  1.00  0.00     0.110 C 
BRANCH   8   9
ATOM      9  C   UNL A   1      44.983  22.416  24.145  1.00  0.00     0.224 C 
ATOM     10  O   UNL A   1      44.150  22.231  23.245  1.00  0.00    -0.275 OA
ATOM     11  N   UNL A   1      44.598  23.273  25.119  1.00  0.00    -0.325 N 
ATOM     12  H   UNL A   1      43.694  23.613  24.924  1.00  0.00     0.169 HD
BRANCH  11  13
ATOM     13  C   UNL A   1      45.069  23.841  26.328  1.00  0.00     0.053 A 
ATOM     14  C   UNL A   1      44.081  23.747  27.336  1.00  0.00     0.027 A 
ATOM     15  C   UNL A   1      46.295  24.441  26.691  1.00  0.00     0.057 A 
ATOM     16  C   UNL A   1      44.317  24.117  28.658  1.00  0.00     0.003 A 
ATOM     17  C   UNL A   1      46.570  24.692  28.054  1.00  0.00     0.036 A 
ATOM     18  C   UNL A   1      47.102  25.352  25.837  1.00  0.00     0.196 C 
ATOM     19  C   UNL A   1      45.580  24.543  29.028  1.00  0.00     0.013 A 
ATOM     20  C   UNL A   1      47.908  25.178  28.480  1.00  0.00     0.194 C 
ATOM     21  O   UNL A   1      46.549  26.199  25.151  1.00  0.00    -0.288 OA
ATOM     22  C   UNL A   1      48.529  25.545  26.129  1.00  0.00     0.034 A 
ATOM     23  C   UNL A   1      48.931  25.446  27.454  1.00  0.00     0.034 A 
ATOM     24  O   UNL A   1      48.167  25.339  29.667  1.00  0.00    -0.289 OA
ATOM     25  C   UNL A   1      49.433  25.979  25.155  1.00  0.00     0.013 A 
ATOM     26  C   UNL A   1      50.260  25.702  27.806  1.00  0.00     0.013 A 
ATOM     27  C   UNL A   1      50.765  26.216  25.498  1.00  0.00     0.001 A 
ATOM     28  C   UNL A   1      51.181  26.066  26.821  1.00  0.00     0.001 A 
ENDBRANCH  11  13
ENDBRANCH   8   9
ENDBRANCH   7   8
ENDBRANCH   5   7
ENDBRANCH   2   3
ENDBRANCH   1   2
BRANCH   1  29
ATOM     29  C   UNL A   1      41.831  20.490  27.147  1.00  0.00     0.023 C 
BRANCH  29  30
ATOM     30  C   UNL A   1      41.400  21.594  26.188  1.00  0.00     0.116 C 
BRANCH  30  31
ATOM     31  N   UNL A   1      39.963  21.771  26.043  1.00  0.00    -0.352 N 
ATOM     32  C   UNL A   1      39.272  22.950  26.273  1.00  0.00     0.251 C 
ATOM     33  H   UNL A   1      39.437  20.988  25.758  1.00  0.00     0.163 HD
ATOM     34  O   UNL A   1      38.064  23.039  26.168  1.00  0.00    -0.269 OA
BRANCH  32  35
ATOM     35  C   UNL A   1      40.087  24.108  26.706  1.00  0.00     0.039 A 
ATOM     36  C   UNL A   1      40.354  25.121  25.784  1.00  0.00     0.014 A 
ATOM     37  C   UNL A   1      40.337  24.287  28.070  1.00  0.00     0.014 A 
ATOM     38  C   UNL A   1      40.797  26.361  26.247  1.00  0.00     0.010 A 
ATOM     39  C   UNL A   1      40.697  25.548  28.531  1.00  0.00     0.010 A 
ATOM     40  C   UNL A   1      40.919  26.602  27.627  1.00  0.00    -0.014 A 
BRANCH  40  41
ATOM     41  C   UNL A   1      41.265  27.949  28.147  1.00  0.00     0.031 A 
ATOM     42  C   UNL A   1      42.703  28.388  28.182  1.00  0.00     0.074 A 
ATOM     43  C   UNL A   1      40.306  28.751  28.652  1.00  0.00     0.049 A 
ATOM     44  N   UNL A   1      43.218  29.497  28.649  1.00  0.00    -0.248 NA
ATOM     45  C   UNL A   1      43.697  27.440  27.652  1.00  0.00     0.031 C 
ATOM     46  C   UNL A   1      38.879  28.431  28.732  1.00  0.00     0.029 A 
ATOM     47  N   UNL A   1      40.392  30.009  29.200  1.00  0.00    -0.354 N 
ATOM     48  C   UNL A   1      44.591  29.367  28.491  1.00  0.00     0.074 A 
ATOM     49  C   UNL A   1      44.834  28.054  27.937  1.00  0.00     0.031 C 
ATOM     50  C   UNL A   1      38.221  29.476  29.262  1.00  0.00     0.029 A 
ATOM     51  C   UNL A   1      39.179  30.526  29.590  1.00  0.00     0.049 A 
ATOM     52  H   UNL A   1      41.241  30.495  29.303  1.00  0.00     0.167 HD
ATOM     53  C   UNL A   1      45.566  30.269  28.757  1.00  0.00     0.031 A 
ATOM     54  C   UNL A   1      38.874  31.714  30.147  1.00  0.00     0.031 A 
ATOM     55  C   UNL A   1      45.329  31.586  29.278  1.00  0.00     0.049 A 
ATOM     56  C   UNL A   1      39.972  32.705  30.419  1.00  0.00     0.074 A 
ATOM     57  C   UNL A   1      46.244  32.597  29.515  1.00  0.00     0.029 A 
ATOM     58  N   UNL A   1      44.084  32.078  29.638  1.00  0.00    -0.354 N 
ATOM     59  N   UNL A   1      41.258  32.595  30.194  1.00  0.00    -0.248 NA
ATOM     60  C   UNL A   1      39.573  33.990  31.013  1.00  0.00     0.031 C 
ATOM     61  C   UNL A   1      45.558  33.689  30.055  1.00  0.00     0.029 A 
ATOM     62  C   UNL A   1      44.210  33.372  30.112  1.00  0.00     0.049 A 
ATOM     63  H   UNL A   1      43.238  31.581  29.567  1.00  0.00     0.167 HD
ATOM     64  C   UNL A   1      41.818  33.803  30.589  1.00  0.00     0.074 A 
ATOM     65  C   UNL A   1      40.729  34.637  31.057  1.00  0.00     0.031 C 
ATOM     66  C   UNL A   1      43.116  34.189  30.567  1.00  0.00     0.031 A 
BRANCH  53  67
ATOM     67  C   UNL A   1      46.981  29.850  28.481  1.00  0.00    -0.014 A 
ATOM     68  C   UNL A   1      47.554  30.022  27.210  1.00  0.00     0.009 A 
ATOM     69  C   UNL A   1      47.758  29.293  29.508  1.00  0.00     0.009 A 
ATOM     70  C   UNL A   1      48.864  29.607  26.963  1.00  0.00     0.001 A 
ATOM     71  C   UNL A   1      49.078  28.907  29.265  1.00  0.00     0.001 A 
ATOM     72  C   UNL A   1      49.624  29.053  27.992  1.00  0.00     0.000 A 
ENDBRANCH  53  67
BRANCH  54  73
ATOM     73  C   UNL A   1      37.461  32.055  30.463  1.00  0.00    -0.014 A 
ATOM     74  C   UNL A   1      36.923  31.750  31.723  1.00  0.00     0.009 A 
ATOM     75  C   UNL A   1      36.638  32.663  29.502  1.00  0.00     0.009 A 
ATOM     76  C   UNL A   1      35.581  32.022  32.005  1.00  0.00     0.001 A 
ATOM     77  C   UNL A   1      35.305  32.956  29.797  1.00  0.00     0.001 A 
ATOM     78  C   UNL A   1      34.775  32.626  31.044  1.00  0.00     0.000 A 
ENDBRANCH  54  73
BRANCH  66  79
ATOM     79  C   UNL A   1      43.429  35.584  31.026  1.00  0.00    -0.014 A 
ATOM     80  C   UNL A   1      43.612  35.878  32.386  1.00  0.00     0.009 A 
ATOM     81  C   UNL A   1      43.588  36.607  30.079  1.00  0.00     0.009 A 
ATOM     82  C   UNL A   1      43.923  37.178  32.789  1.00  0.00     0.001 A 
ATOM     83  C   UNL A   1      43.924  37.899  30.482  1.00  0.00     0.001 A 
ATOM     84  C   UNL A   1      44.083  38.186  31.838  1.00  0.00     0.000 A 
ENDBRANCH  66  79
ENDBRANCH  40  41
ENDBRANCH  32  35
ENDBRANCH  30  31
ENDBRANCH  29  30
ENDBRANCH   1  29
TORSDOF 14
ENDMDL
MODEL 3
REMARK VINA RESULT:     -11.9      1.871      8.208
REMARK SMILES O=C(CCC(=O)Nc1cccc2c1C(=O)c1ccccc1C2=O)NCCCCNC(=O)c1ccc(-c2c3nc(c(-c4ccccc4)c4ccc([nH]4)c(-c4ccccc4)c4nc(c(-c5ccccc5)c5ccc2[nH]5)C=C4)C=C3)cc1
REMARK SMILES IDX 26 1 25 2 24 3 1 4 2 5 3 7 4 8 5 9 6 10 7 11 8 13 9 14 13 15
REMARK SMILES IDX 10 16 12 17 14 18 11 19 22 20 15 21 16 22 21 23 23 24 17 25
REMARK SMILES IDX 20 26 18 27 19 28 27 29 28 30 29 31 30 32 31 34 32 35 33 36
REMARK SMILES IDX 79 37 34 38 78 39 35 40 36 41 37 42 72 43 38 44 77 45 71 46
REMARK SMILES IDX 73 47 39 48 76 49 70 50 69 51 40 53 62 54 47 55 61 56 48 57
REMARK SMILES IDX 51 58 60 59 74 60 49 61 50 62 59 64 75 65 52 66 41 67 42 68
REMARK SMILES IDX 46 69 43 70 45 71 44 72 63 73 64 74 68 75 65 76 67 77 66 78
REMARK SMILES IDX 53 79 54 80 58 81 55 82 57 83 56 84
REMARK H PARENT 24 6 7 12 29 33 73 52 51 63
REMARK Flexibility Score: inf
ROOT
ATOM      1  C   UNL A   1      36.428  21.952  25.546  1.00  0.00     0.023 C 
ENDROOT
BRANCH   1   2
ATOM      2  C   UNL A   1      35.396  22.360  24.509  1.00  0.00     0.116 C 
BRANCH   2   3
ATOM      3  N   UNL A   1      34.254  21.494  24.309  1.00  0.00    -0.356 N 
ATOM      4  O   UNL A   1      32.616  22.446  25.626  1.00  0.00    -0.275 OA
ATOM      5  C   UNL A   1      32.993  22.009  24.547  1.00  0.00     0.220 C 
ATOM      6  H   UNL A   1      34.371  20.562  24.012  1.00  0.00     0.163 HD
BRANCH   5   7
ATOM      7  C   UNL A   1      32.171  22.228  23.299  1.00  0.00     0.110 C 
BRANCH   7   8
ATOM      8  C   UNL A   1      31.736  23.704  23.269  1.00  0.00     0.110 C 
BRANCH   8   9
ATOM      9  C   UNL A   1      32.794  24.521  22.583  1.00  0.00     0.224 C 
ATOM     10  O   UNL A   1      33.347  24.061  21.572  1.00  0.00    -0.275 OA
ATOM     11  N   UNL A   1      33.186  25.767  22.937  1.00  0.00    -0.325 N 
ATOM     12  H   UNL A   1      33.871  26.091  22.308  1.00  0.00     0.169 HD
BRANCH  11  13
ATOM     13  C   UNL A   1      32.933  26.759  23.916  1.00  0.00     0.053 A 
ATOM     14  C   UNL A   1      33.873  26.665  24.969  1.00  0.00     0.027 A 
ATOM     15  C   UNL A   1      31.965  27.783  24.015  1.00  0.00     0.057 A 
ATOM     16  C   UNL A   1      33.935  27.591  26.007  1.00  0.00     0.003 A 
ATOM     17  C   UNL A   1      32.115  28.790  24.995  1.00  0.00     0.036 A 
ATOM     18  C   UNL A   1      30.535  27.667  23.625  1.00  0.00     0.196 C 
ATOM     19  C   UNL A   1      33.087  28.685  25.993  1.00  0.00     0.013 A 
ATOM     20  C   UNL A   1      31.201  29.961  25.024  1.00  0.00     0.194 C 
ATOM     21  O   UNL A   1      29.912  26.645  23.876  1.00  0.00    -0.288 OA
ATOM     22  C   UNL A   1      29.756  28.883  23.351  1.00  0.00     0.034 A 
ATOM     23  C   UNL A   1      30.101  30.034  24.046  1.00  0.00     0.034 A 
ATOM     24  O   UNL A   1      31.366  30.864  25.836  1.00  0.00    -0.289 OA
ATOM     25  C   UNL A   1      28.607  28.864  22.557  1.00  0.00     0.013 A 
ATOM     26  C   UNL A   1      29.345  31.201  23.892  1.00  0.00     0.013 A 
ATOM     27  C   UNL A   1      27.861  30.031  22.384  1.00  0.00     0.001 A 
ATOM     28  C   UNL A   1      28.237  31.202  23.042  1.00  0.00     0.001 A 
ENDBRANCH  11  13
ENDBRANCH   8   9
ENDBRANCH   7   8
ENDBRANCH   5   7
ENDBRANCH   2   3
ENDBRANCH   1   2
BRANCH   1  29
ATOM     29  C   UNL A   1      37.769  21.569  24.940  1.00  0.00     0.023 C 
BRANCH  29  30
ATOM     30  C   UNL A   1      38.861  21.253  25.954  1.00  0.00     0.116 C 
BRANCH  30  31
ATOM     31  N   UNL A   1      39.588  20.012  25.726  1.00  0.00    -0.352 N 
ATOM     32  C   UNL A   1      40.929  19.804  26.007  1.00  0.00     0.251 C 
ATOM     33  H   UNL A   1      39.085  19.258  25.341  1.00  0.00     0.163 HD
ATOM     34  O   UNL A   1      41.499  18.757  25.768  1.00  0.00    -0.269 OA
BRANCH  32  35
ATOM     35  C   UNL A   1      41.661  20.956  26.580  1.00  0.00     0.039 A 
ATOM     36  C   UNL A   1      42.205  21.904  25.712  1.00  0.00     0.014 A 
ATOM     37  C   UNL A   1      41.561  21.206  27.953  1.00  0.00     0.014 A 
ATOM     38  C   UNL A   1      42.575  23.152  26.214  1.00  0.00     0.010 A 
ATOM     39  C   UNL A   1      41.852  22.479  28.431  1.00  0.00     0.010 A 
ATOM     40  C   UNL A   1      42.350  23.469  27.565  1.00  0.00    -0.014 A 
BRANCH  40  41
ATOM     41  C   UNL A   1      42.617  24.831  28.093  1.00  0.00     0.031 A 
ATOM     42  C   UNL A   1      44.010  25.206  28.519  1.00  0.00     0.074 A 
ATOM     43  C   UNL A   1      41.606  25.709  28.257  1.00  0.00     0.049 A 
ATOM     44  N   UNL A   1      44.438  26.320  29.057  1.00  0.00    -0.248 NA
ATOM     45  C   UNL A   1      45.052  24.180  28.349  1.00  0.00     0.031 C 
ATOM     46  C   UNL A   1      40.198  25.459  27.937  1.00  0.00     0.029 A 
ATOM     47  N   UNL A   1      41.611  26.995  28.740  1.00  0.00    -0.354 N 
ATOM     48  C   UNL A   1      45.788  26.118  29.309  1.00  0.00     0.074 A 
ATOM     49  C   UNL A   1      46.097  24.760  28.919  1.00  0.00     0.031 C 
ATOM     50  C   UNL A   1      39.484  26.566  28.199  1.00  0.00     0.029 A 
ATOM     51  C   UNL A   1      40.372  27.592  28.735  1.00  0.00     0.049 A 
ATOM     52  H   UNL A   1      42.424  27.448  29.058  1.00  0.00     0.167 HD
ATOM     53  C   UNL A   1      46.701  26.991  29.799  1.00  0.00     0.031 A 
ATOM     54  C   UNL A   1      39.995  28.828  29.118  1.00  0.00     0.031 A 
ATOM     55  C   UNL A   1      46.408  28.350  30.159  1.00  0.00     0.049 A 
ATOM     56  C   UNL A   1      41.030  29.784  29.644  1.00  0.00     0.074 A 
ATOM     57  C   UNL A   1      47.279  29.331  30.598  1.00  0.00     0.029 A 
ATOM     58  N   UNL A   1      45.146  28.921  30.118  1.00  0.00    -0.354 N 
ATOM     59  N   UNL A   1      42.318  29.601  29.806  1.00  0.00    -0.248 NA
ATOM     60  C   UNL A   1      40.560  31.123  30.029  1.00  0.00     0.031 C 
ATOM     61  C   UNL A   1      46.537  30.488  30.860  1.00  0.00     0.029 A 
ATOM     62  C   UNL A   1      45.212  30.237  30.540  1.00  0.00     0.049 A 
ATOM     63  H   UNL A   1      44.325  28.458  29.832  1.00  0.00     0.167 HD
ATOM     64  C   UNL A   1      42.815  30.807  30.283  1.00  0.00     0.074 A 
ATOM     65  C   UNL A   1      41.693  31.719  30.372  1.00  0.00     0.031 C 
ATOM     66  C   UNL A   1      44.088  31.131  30.617  1.00  0.00     0.031 A 
BRANCH  53  67
ATOM     67  C   UNL A   1      48.107  26.490  29.965  1.00  0.00    -0.014 A 
ATOM     68  C   UNL A   1      49.051  26.623  28.935  1.00  0.00     0.009 A 
ATOM     69  C   UNL A   1      48.498  25.895  31.175  1.00  0.00     0.009 A 
ATOM     70  C   UNL A   1      50.349  26.133  29.097  1.00  0.00     0.001 A 
ATOM     71  C   UNL A   1      49.804  25.433  31.344  1.00  0.00     0.001 A 
ATOM     72  C   UNL A   1      50.724  25.542  30.302  1.00  0.00     0.000 A 
ENDBRANCH  53  67
BRANCH  54  73
ATOM     73  C   UNL A   1      38.576  29.253  28.993  1.00  0.00    -0.014 A 
ATOM     74  C   UNL A   1      37.711  29.169  30.096  1.00  0.00     0.009 A 
ATOM     75  C   UNL A   1      38.071  29.720  27.770  1.00  0.00     0.009 A 
ATOM     76  C   UNL A   1      36.364  29.519  29.969  1.00  0.00     0.001 A 
ATOM     77  C   UNL A   1      36.730  30.093  27.654  1.00  0.00     0.001 A 
ATOM     78  C   UNL A   1      35.876  29.982  28.750  1.00  0.00     0.000 A 
ENDBRANCH  54  73
BRANCH  66  79
ATOM     79  C   UNL A   1      44.343  32.539  31.074  1.00  0.00    -0.014 A 
ATOM     80  C   UNL A   1      44.616  33.562  30.154  1.00  0.00     0.009 A 
ATOM     81  C   UNL A   1      44.261  32.851  32.439  1.00  0.00     0.009 A 
ATOM     82  C   UNL A   1      44.830  34.869  30.599  1.00  0.00     0.001 A 
ATOM     83  C   UNL A   1      44.449  34.161  32.878  1.00  0.00     0.001 A 
ATOM     84  C   UNL A   1      44.741  35.168  31.958  1.00  0.00     0.000 A 
ENDBRANCH  66  79
ENDBRANCH  40  41
ENDBRANCH  32  35
ENDBRANCH  30  31
ENDBRANCH  29  30
ENDBRANCH   1  29
TORSDOF 14
ENDMDL
