MODEL 1
REMARK VINA RESULT:      -9.2      0.000      0.000
REMARK SMILES CS(=O)(=O)c1ccc(/C=C(/C(=O)NCCCCNC(=O)c2ccc(-c3c4nc(c(-c5ccccc5)c5ccc([nH]5)c(-c5ccccc5)c5nc(c(-c6ccccc6)c6ccc3[nH]6)C=C5)C=C4)cc2)c2ccc(-c3ccc(S(C)(=O)=O)cc3)cc2)cc1
REMARK SMILES IDX 15 1 14 2 13 3 11 4 12 5 10 7 9 8 8 9 5 10 6 11 86 12 7 13
REMARK SMILES IDX 85 14 2 15 1 16 3 17 4 18 69 19 70 20 84 21 71 22 83 23
REMARK SMILES IDX 72 24 73 25 74 26 82 27 75 28 81 29 76 30 77 31 78 32 79 33
REMARK SMILES IDX 80 34 16 35 17 36 18 37 19 38 20 40 21 41 22 42 68 43 23 44
REMARK SMILES IDX 67 45 24 46 25 47 26 48 61 49 27 50 66 51 60 52 62 53 28 54
REMARK SMILES IDX 65 55 59 56 58 57 29 59 51 60 36 61 50 62 37 63 40 64 49 65
REMARK SMILES IDX 63 66 38 67 39 68 48 70 64 71 41 72 30 73 31 74 35 75 32 76
REMARK SMILES IDX 34 77 33 78 52 79 53 80 57 81 54 82 56 83 55 84 42 85 43 86
REMARK SMILES IDX 47 87 44 88 46 89 45 90
REMARK H PARENT 13 6 18 39 62 58 40 69
REMARK Flexibility Score: inf
ROOT
ATOM      1  C   UNL A   1      34.100  34.189  31.563  1.00  0.00     0.023 C 
ENDROOT
BRANCH   1   2
ATOM      2  C   UNL A   1      34.358  32.946  32.417  1.00  0.00     0.116 C 
BRANCH   2   3
ATOM      3  N   UNL A   1      34.761  33.345  33.748  1.00  0.00    -0.352 N 
ATOM      4  C   UNL A   1      35.965  33.477  34.361  1.00  0.00     0.251 C 
ATOM      5  O   UNL A   1      35.925  33.757  35.562  1.00  0.00    -0.269 OA
ATOM      6  H   UNL A   1      34.001  33.571  34.333  1.00  0.00     0.163 HD
BRANCH   4   7
ATOM      7  C   UNL A   1      37.289  33.394  33.630  1.00  0.00     0.047 C 
ATOM      8  C   UNL A   1      37.572  34.159  32.549  1.00  0.00     0.022 C 
BRANCH   8   9
ATOM      9  C   UNL A   1      38.848  34.316  31.814  1.00  0.00    -0.025 A 
ATOM     10  C   UNL A   1      41.143  34.844  30.278  1.00  0.00     0.067 A 
ATOM     11  C   UNL A   1      41.234  34.768  31.669  1.00  0.00     0.021 A 
ATOM     12  C   UNL A   1      39.929  34.602  29.638  1.00  0.00     0.021 A 
ATOM     13  C   UNL A   1      40.096  34.477  32.428  1.00  0.00     0.009 A 
ATOM     14  C   UNL A   1      38.790  34.338  30.409  1.00  0.00     0.009 A 
BRANCH  10  15
ATOM     15  S   UNL A   1      42.596  35.278  29.350  1.00  0.00     0.175 S 
ATOM     16  C   UNL A   1      42.026  36.155  27.920  1.00  0.00     0.163 C 
ATOM     17  O   UNL A   1      43.183  34.038  28.876  1.00  0.00    -0.224 OA
ATOM     18  O   UNL A   1      43.352  36.200  30.175  1.00  0.00    -0.224 OA
ENDBRANCH  10  15
ENDBRANCH   8   9
BRANCH   7  19
ATOM     19  C   UNL A   1      38.202  32.298  34.045  1.00  0.00    -0.013 A 
ATOM     20  C   UNL A   1      38.114  31.073  33.368  1.00  0.00     0.009 A 
ATOM     21  C   UNL A   1      39.198  32.460  35.011  1.00  0.00     0.009 A 
ATOM     22  C   UNL A   1      39.020  30.046  33.623  1.00  0.00     0.009 A 
ATOM     23  C   UNL A   1      40.129  31.436  35.239  1.00  0.00     0.009 A 
ATOM     24  C   UNL A   1      40.065  30.214  34.543  1.00  0.00    -0.018 A 
BRANCH  24  25
ATOM     25  C   UNL A   1      41.051  29.138  34.760  1.00  0.00    -0.018 A 
ATOM     26  C   UNL A   1      41.290  28.164  33.770  1.00  0.00     0.010 A 
ATOM     27  C   UNL A   1      41.769  29.042  35.964  1.00  0.00     0.010 A 
ATOM     28  C   UNL A   1      42.193  27.119  33.982  1.00  0.00     0.021 A 
ATOM     29  C   UNL A   1      42.676  28.002  36.186  1.00  0.00     0.021 A 
ATOM     30  C   UNL A   1      42.868  27.037  35.200  1.00  0.00     0.067 A 
BRANCH  30  31
ATOM     31  S   UNL A   1      43.987  25.687  35.479  1.00  0.00     0.175 S 
ATOM     32  C   UNL A   1      44.006  24.834  33.924  1.00  0.00     0.163 C 
ATOM     33  O   UNL A   1      45.297  26.258  35.706  1.00  0.00    -0.224 OA
ATOM     34  O   UNL A   1      43.376  24.801  36.456  1.00  0.00    -0.224 OA
ENDBRANCH  30  31
ENDBRANCH  24  25
ENDBRANCH   7  19
ENDBRANCH   4   7
ENDBRANCH   2   3
ENDBRANCH   1   2
BRANCH   1  35
ATOM     35  C   UNL A   1      34.723  34.119  30.162  1.00  0.00     0.023 C 
BRANCH  35  36
ATOM     36  C   UNL A   1      35.271  32.750  29.774  1.00  0.00     0.116 C 
BRANCH  36  37
ATOM     37  N   UNL A   1      34.382  32.017  28.884  1.00  0.00    -0.352 N 
ATOM     38  C   UNL A   1      34.636  30.867  28.178  1.00  0.00     0.251 C 
ATOM     39  H   UNL A   1      33.480  32.396  28.773  1.00  0.00     0.163 HD
ATOM     40  O   UNL A   1      33.828  30.440  27.362  1.00  0.00    -0.269 OA
BRANCH  38  41
ATOM     41  C   UNL A   1      35.921  30.176  28.389  1.00  0.00     0.039 A 
ATOM     42  C   UNL A   1      36.903  30.254  27.400  1.00  0.00     0.014 A 
ATOM     43  C   UNL A   1      36.174  29.517  29.596  1.00  0.00     0.014 A 
ATOM     44  C   UNL A   1      38.174  29.739  27.655  1.00  0.00     0.010 A 
ATOM     45  C   UNL A   1      37.459  29.070  29.874  1.00  0.00     0.010 A 
ATOM     46  C   UNL A   1      38.474  29.186  28.912  1.00  0.00    -0.014 A 
BRANCH  46  47
ATOM     47  C   UNL A   1      39.850  28.751  29.255  1.00  0.00     0.031 A 
ATOM     48  C   UNL A   1      40.336  27.392  28.836  1.00  0.00     0.074 A 
ATOM     49  C   UNL A   1      40.632  29.548  30.011  1.00  0.00     0.049 A 
ATOM     50  N   UNL A   1      41.468  26.799  29.119  1.00  0.00    -0.248 NA
ATOM     51  C   UNL A   1      39.422  26.585  28.012  1.00  0.00     0.031 C 
ATOM     52  C   UNL A   1      40.263  30.877  30.505  1.00  0.00     0.029 A 
ATOM     53  N   UNL A   1      41.896  29.351  30.504  1.00  0.00    -0.354 N 
ATOM     54  C   UNL A   1      41.396  25.549  28.519  1.00  0.00     0.074 A 
ATOM     55  C   UNL A   1      40.092  25.448  27.902  1.00  0.00     0.031 C 
ATOM     56  C   UNL A   1      41.289  31.384  31.208  1.00  0.00     0.029 A 
ATOM     57  C   UNL A   1      42.364  30.400  31.260  1.00  0.00     0.049 A 
ATOM     58  H   UNL A   1      42.420  28.534  30.335  1.00  0.00     0.167 HD
ATOM     59  C   UNL A   1      42.340  24.580  28.468  1.00  0.00     0.031 A 
ATOM     60  C   UNL A   1      43.521  30.545  31.933  1.00  0.00     0.031 A 
ATOM     61  C   UNL A   1      43.636  24.681  29.082  1.00  0.00     0.049 A 
ATOM     62  C   UNL A   1      44.528  29.428  31.908  1.00  0.00     0.074 A 
ATOM     63  C   UNL A   1      44.679  23.773  29.047  1.00  0.00     0.029 A 
ATOM     64  N   UNL A   1      44.064  25.754  29.849  1.00  0.00    -0.354 N 
ATOM     65  N   UNL A   1      44.474  28.281  31.276  1.00  0.00    -0.248 NA
ATOM     66  C   UNL A   1      45.759  29.629  32.687  1.00  0.00     0.031 C 
ATOM     67  C   UNL A   1      45.716  24.267  29.845  1.00  0.00     0.029 A 
ATOM     68  C   UNL A   1      45.343  25.514  30.322  1.00  0.00     0.049 A 
ATOM     69  H   UNL A   1      43.537  26.566  30.030  1.00  0.00     0.167 HD
ATOM     70  C   UNL A   1      45.671  27.636  31.559  1.00  0.00     0.074 A 
ATOM     71  C   UNL A   1      46.439  28.527  32.403  1.00  0.00     0.031 C 
ATOM     72  C   UNL A   1      46.095  26.412  31.158  1.00  0.00     0.031 A 
BRANCH  59  73
ATOM     73  C   UNL A   1      41.999  23.317  27.725  1.00  0.00    -0.014 A 
ATOM     74  C   UNL A   1      41.280  22.281  28.343  1.00  0.00     0.009 A 
ATOM     75  C   UNL A   1      42.364  23.179  26.376  1.00  0.00     0.009 A 
ATOM     76  C   UNL A   1      40.964  21.120  27.637  1.00  0.00     0.001 A 
ATOM     77  C   UNL A   1      42.018  22.030  25.663  1.00  0.00     0.001 A 
ATOM     78  C   UNL A   1      41.327  20.998  26.296  1.00  0.00     0.000 A 
ENDBRANCH  59  73
BRANCH  60  79
ATOM     79  C   UNL A   1      43.794  31.791  32.698  1.00  0.00    -0.014 A 
ATOM     80  C   UNL A   1      43.412  31.897  34.045  1.00  0.00     0.009 A 
ATOM     81  C   UNL A   1      44.414  32.890  32.083  1.00  0.00     0.009 A 
ATOM     82  C   UNL A   1      43.616  33.086  34.748  1.00  0.00     0.001 A 
ATOM     83  C   UNL A   1      44.647  34.067  32.798  1.00  0.00     0.001 A 
ATOM     84  C   UNL A   1      44.237  34.168  34.127  1.00  0.00     0.000 A 
ENDBRANCH  60  79
BRANCH  72  85
ATOM     85  C   UNL A   1      47.464  25.975  31.599  1.00  0.00    -0.014 A 
ATOM     86  C   UNL A   1      47.671  25.390  32.857  1.00  0.00     0.009 A 
ATOM     87  C   UNL A   1      48.549  26.094  30.717  1.00  0.00     0.009 A 
ATOM     88  C   UNL A   1      48.943  24.955  33.232  1.00  0.00     0.001 A 
ATOM     89  C   UNL A   1      49.813  25.629  31.080  1.00  0.00     0.001 A 
ATOM     90  C   UNL A   1      50.011  25.067  32.341  1.00  0.00     0.000 A 
ENDBRANCH  72  85
ENDBRANCH  46  47
ENDBRANCH  38  41
ENDBRANCH  36  37
ENDBRANCH  35  36
ENDBRANCH   1  35
TORSDOF 16
ENDMDL
MODEL 2
REMARK VINA RESULT:      -8.4      0.775      5.619
REMARK SMILES CS(=O)(=O)c1ccc(/C=C(/C(=O)NCCCCNC(=O)c2ccc(-c3c4nc(c(-c5ccccc5)c5ccc([nH]5)c(-c5ccccc5)c5nc(c(-c6ccccc6)c6ccc3[nH]6)C=C5)C=C4)cc2)c2ccc(-c3ccc(S(C)(=O)=O)cc3)cc2)cc1
REMARK SMILES IDX 15 1 14 2 13 3 11 4 12 5 10 7 9 8 8 9 5 10 6 11 86 12 7 13
REMARK SMILES IDX 85 14 2 15 1 16 3 17 4 18 69 19 70 20 84 21 71 22 83 23
REMARK SMILES IDX 72 24 73 25 74 26 82 27 75 28 81 29 76 30 77 31 78 32 79 33
REMARK SMILES IDX 80 34 16 35 17 36 18 37 19 38 20 40 21 41 22 42 68 43 23 44
REMARK SMILES IDX 67 45 24 46 25 47 26 48 61 49 27 50 66 51 60 52 62 53 28 54
REMARK SMILES IDX 65 55 59 56 58 57 29 59 51 60 36 61 50 62 37 63 40 64 49 65
REMARK SMILES IDX 63 66 38 67 39 68 48 70 64 71 41 72 30 73 31 74 35 75 32 76
REMARK SMILES IDX 34 77 33 78 52 79 53 80 57 81 54 82 56 83 55 84 42 85 43 86
REMARK SMILES IDX 47 87 44 88 46 89 45 90
REMARK H PARENT 13 6 18 39 62 58 40 69
REMARK Flexibility Score: inf
ROOT
ATOM      1  C   UNL A   1      34.084  33.996  31.253  1.00  0.00     0.023 C 
ENDROOT
BRANCH   1   2
ATOM      2  C   UNL A   1      34.468  32.740  32.039  1.00  0.00     0.116 C 
BRANCH   2   3
ATOM      3  N   UNL A   1      34.813  33.102  33.396  1.00  0.00    -0.352 N 
ATOM      4  C   UNL A   1      35.991  33.226  34.061  1.00  0.00     0.251 C 
ATOM      5  O   UNL A   1      35.900  33.468  35.267  1.00  0.00    -0.269 OA
ATOM      6  H   UNL A   1      34.028  33.301  33.957  1.00  0.00     0.163 HD
BRANCH   4   7
ATOM      7  C   UNL A   1      37.343  33.179  33.380  1.00  0.00     0.047 C 
ATOM      8  C   UNL A   1      37.625  33.904  32.272  1.00  0.00     0.022 C 
BRANCH   8   9
ATOM      9  C   UNL A   1      38.918  34.094  31.574  1.00  0.00    -0.025 A 
ATOM     10  C   UNL A   1      41.234  34.660  30.083  1.00  0.00     0.067 A 
ATOM     11  C   UNL A   1      41.269  34.713  31.478  1.00  0.00     0.021 A 
ATOM     12  C   UNL A   1      40.070  34.269  29.423  1.00  0.00     0.021 A 
ATOM     13  C   UNL A   1      40.122  34.403  32.217  1.00  0.00     0.009 A 
ATOM     14  C   UNL A   1      38.921  33.987  30.172  1.00  0.00     0.009 A 
BRANCH  10  15
ATOM     15  S   UNL A   1      42.691  35.121  29.175  1.00  0.00     0.175 S 
ATOM     16  C   UNL A   1      43.561  36.282  30.192  1.00  0.00     0.163 C 
ATOM     17  O   UNL A   1      42.246  35.845  27.998  1.00  0.00    -0.224 OA
ATOM     18  O   UNL A   1      43.501  33.925  29.060  1.00  0.00    -0.224 OA
ENDBRANCH  10  15
ENDBRANCH   8   9
BRANCH   7  19
ATOM     19  C   UNL A   1      38.296  32.156  33.882  1.00  0.00    -0.013 A 
ATOM     20  C   UNL A   1      38.145  30.836  33.435  1.00  0.00     0.009 A 
ATOM     21  C   UNL A   1      39.384  32.465  34.703  1.00  0.00     0.009 A 
ATOM     22  C   UNL A   1      39.075  29.854  33.768  1.00  0.00     0.009 A 
ATOM     23  C   UNL A   1      40.336  31.481  35.008  1.00  0.00     0.009 A 
ATOM     24  C   UNL A   1      40.206  30.161  34.538  1.00  0.00    -0.018 A 
BRANCH  24  25
ATOM     25  C   UNL A   1      41.213  29.123  34.835  1.00  0.00    -0.018 A 
ATOM     26  C   UNL A   1      41.328  27.973  34.028  1.00  0.00     0.010 A 
ATOM     27  C   UNL A   1      42.075  29.240  35.938  1.00  0.00     0.010 A 
ATOM     28  C   UNL A   1      42.251  26.967  34.325  1.00  0.00     0.021 A 
ATOM     29  C   UNL A   1      43.003  28.241  36.243  1.00  0.00     0.021 A 
ATOM     30  C   UNL A   1      43.071  27.102  35.444  1.00  0.00     0.067 A 
BRANCH  30  31
ATOM     31  S   UNL A   1      44.217  25.805  35.838  1.00  0.00     0.175 S 
ATOM     32  C   UNL A   1      44.902  26.313  37.393  1.00  0.00     0.163 C 
ATOM     33  O   UNL A   1      43.444  24.600  36.050  1.00  0.00    -0.224 OA
ATOM     34  O   UNL A   1      45.288  25.845  34.856  1.00  0.00    -0.224 OA
ENDBRANCH  30  31
ENDBRANCH  24  25
ENDBRANCH   7  19
ENDBRANCH   4   7
ENDBRANCH   2   3
ENDBRANCH   1   2
BRANCH   1  35
ATOM     35  C   UNL A   1      34.021  33.783  29.735  1.00  0.00     0.023 C 
BRANCH  35  36
ATOM     36  C   UNL A   1      35.032  32.783  29.187  1.00  0.00     0.116 C 
BRANCH  36  37
ATOM     37  N   UNL A   1      34.403  31.625  28.567  1.00  0.00    -0.352 N 
ATOM     38  C   UNL A   1      34.959  30.403  28.276  1.00  0.00     0.251 C 
ATOM     39  H   UNL A   1      33.455  31.731  28.324  1.00  0.00     0.163 HD
ATOM     40  O   UNL A   1      34.337  29.569  27.629  1.00  0.00    -0.269 OA
BRANCH  38  41
ATOM     41  C   UNL A   1      36.337  30.127  28.722  1.00  0.00     0.039 A 
ATOM     42  C   UNL A   1      36.536  29.478  29.942  1.00  0.00     0.014 A 
ATOM     43  C   UNL A   1      37.419  30.446  27.897  1.00  0.00     0.014 A 
ATOM     44  C   UNL A   1      37.823  29.074  30.299  1.00  0.00     0.010 A 
ATOM     45  C   UNL A   1      38.687  29.977  28.221  1.00  0.00     0.010 A 
ATOM     46  C   UNL A   1      38.898  29.278  29.419  1.00  0.00    -0.014 A 
BRANCH  46  47
ATOM     47  C   UNL A   1      40.250  28.741  29.714  1.00  0.00     0.031 A 
ATOM     48  C   UNL A   1      41.228  29.561  30.507  1.00  0.00     0.074 A 
ATOM     49  C   UNL A   1      40.621  27.552  29.200  1.00  0.00     0.049 A 
ATOM     50  N   UNL A   1      42.481  29.305  30.789  1.00  0.00    -0.248 NA
ATOM     51  C   UNL A   1      40.744  30.847  31.033  1.00  0.00     0.031 C 
ATOM     52  C   UNL A   1      39.773  26.675  28.389  1.00  0.00     0.029 A 
ATOM     53  N   UNL A   1      41.814  26.879  29.276  1.00  0.00    -0.354 N 
ATOM     54  C   UNL A   1      42.934  30.399  31.512  1.00  0.00     0.074 A 
ATOM     55  C   UNL A   1      41.841  31.345  31.582  1.00  0.00     0.031 C 
ATOM     56  C   UNL A   1      40.465  25.570  28.065  1.00  0.00     0.029 A 
ATOM     57  C   UNL A   1      41.818  25.683  28.598  1.00  0.00     0.049 A 
ATOM     58  H   UNL A   1      42.596  27.221  29.768  1.00  0.00     0.167 HD
ATOM     59  C   UNL A   1      44.145  30.592  32.085  1.00  0.00     0.031 A 
ATOM     60  C   UNL A   1      42.805  24.785  28.414  1.00  0.00     0.031 A 
ATOM     61  C   UNL A   1      45.231  29.651  32.015  1.00  0.00     0.049 A 
ATOM     62  C   UNL A   1      44.158  25.052  29.012  1.00  0.00     0.074 A 
ATOM     63  C   UNL A   1      46.481  29.733  32.601  1.00  0.00     0.029 A 
ATOM     64  N   UNL A   1      45.197  28.459  31.307  1.00  0.00    -0.354 N 
ATOM     65  N   UNL A   1      44.550  26.059  29.754  1.00  0.00    -0.248 NA
ATOM     66  C   UNL A   1      45.206  24.054  28.750  1.00  0.00     0.031 C 
ATOM     67  C   UNL A   1      47.226  28.621  32.199  1.00  0.00     0.029 A 
ATOM     68  C   UNL A   1      46.417  27.814  31.415  1.00  0.00     0.049 A 
ATOM     69  H   UNL A   1      44.421  28.121  30.804  1.00  0.00     0.167 HD
ATOM     70  C   UNL A   1      45.878  25.804  30.069  1.00  0.00     0.074 A 
ATOM     71  C   UNL A   1      46.220  24.538  29.454  1.00  0.00     0.031 C 
ATOM     72  C   UNL A   1      46.740  26.552  30.800  1.00  0.00     0.031 A 
BRANCH  59  73
ATOM     73  C   UNL A   1      44.363  31.876  32.835  1.00  0.00    -0.014 A 
ATOM     74  C   UNL A   1      44.047  31.984  34.199  1.00  0.00     0.009 A 
ATOM     75  C   UNL A   1      44.934  32.980  32.181  1.00  0.00     0.009 A 
ATOM     76  C   UNL A   1      44.264  33.181  34.884  1.00  0.00     0.001 A 
ATOM     77  C   UNL A   1      45.180  34.166  32.876  1.00  0.00     0.001 A 
ATOM     78  C   UNL A   1      44.836  34.269  34.224  1.00  0.00     0.000 A 
ENDBRANCH  59  73
BRANCH  60  79
ATOM     79  C   UNL A   1      42.559  23.552  27.619  1.00  0.00    -0.014 A 
ATOM     80  C   UNL A   1      42.826  23.529  26.241  1.00  0.00     0.009 A 
ATOM     81  C   UNL A   1      42.035  22.400  28.225  1.00  0.00     0.009 A 
ATOM     82  C   UNL A   1      42.543  22.390  25.483  1.00  0.00     0.001 A 
ATOM     83  C   UNL A   1      41.784  21.252  27.472  1.00  0.00     0.001 A 
ATOM     84  C   UNL A   1      42.027  21.252  26.099  1.00  0.00     0.000 A 
ENDBRANCH  60  79
BRANCH  72  85
ATOM     85  C   UNL A   1      48.127  26.011  31.003  1.00  0.00    -0.014 A 
ATOM     86  C   UNL A   1      48.485  25.354  32.190  1.00  0.00     0.009 A 
ATOM     87  C   UNL A   1      49.069  26.104  29.966  1.00  0.00     0.009 A 
ATOM     88  C   UNL A   1      49.768  24.824  32.343  1.00  0.00     0.001 A 
ATOM     89  C   UNL A   1      50.338  25.545  30.109  1.00  0.00     0.001 A 
ATOM     90  C   UNL A   1      50.690  24.912  31.300  1.00  0.00     0.000 A 
ENDBRANCH  72  85
ENDBRANCH  46  47
ENDBRANCH  38  41
ENDBRANCH  36  37
ENDBRANCH  35  36
ENDBRANCH   1  35
TORSDOF 16
ENDMDL
MODEL 3
REMARK VINA RESULT:      -8.4      2.205      6.635
REMARK SMILES CS(=O)(=O)c1ccc(/C=C(/C(=O)NCCCCNC(=O)c2ccc(-c3c4nc(c(-c5ccccc5)c5ccc([nH]5)c(-c5ccccc5)c5nc(c(-c6ccccc6)c6ccc3[nH]6)C=C5)C=C4)cc2)c2ccc(-c3ccc(S(C)(=O)=O)cc3)cc2)cc1
REMARK SMILES IDX 15 1 14 2 13 3 11 4 12 5 10 7 9 8 8 9 5 10 6 11 86 12 7 13
REMARK SMILES IDX 85 14 2 15 1 16 3 17 4 18 69 19 70 20 84 21 71 22 83 23
REMARK SMILES IDX 72 24 73 25 74 26 82 27 75 28 81 29 76 30 77 31 78 32 79 33
REMARK SMILES IDX 80 34 16 35 17 36 18 37 19 38 20 40 21 41 22 42 68 43 23 44
REMARK SMILES IDX 67 45 24 46 25 47 26 48 61 49 27 50 66 51 60 52 62 53 28 54
REMARK SMILES IDX 65 55 59 56 58 57 29 59 51 60 36 61 50 62 37 63 40 64 49 65
REMARK SMILES IDX 63 66 38 67 39 68 48 70 64 71 41 72 30 73 31 74 35 75 32 76
REMARK SMILES IDX 34 77 33 78 52 79 53 80 57 81 54 82 56 83 55 84 42 85 43 86
REMARK SMILES IDX 47 87 44 88 46 89 45 90
REMARK H PARENT 13 6 18 39 62 58 40 69
REMARK Flexibility Score: inf
ROOT
ATOM      1  C   UNL A   1      34.582  34.061  32.166  1.00  0.00     0.023 C 
ENDROOT
BRANCH   1   2
ATOM      2  C   UNL A   1      35.645  34.980  32.770  1.00  0.00     0.116 C 
BRANCH   2   3
ATOM      3  N   UNL A   1      36.881  34.847  32.030  1.00  0.00    -0.352 N 
ATOM      4  C   UNL A   1      38.132  34.438  32.364  1.00  0.00     0.251 C 
ATOM      5  O   UNL A   1      38.982  34.545  31.476  1.00  0.00    -0.269 OA
ATOM      6  H   UNL A   1      36.797  35.106  31.084  1.00  0.00     0.163 HD
BRANCH   4   7
ATOM      7  C   UNL A   1      38.475  33.795  33.691  1.00  0.00     0.047 C 
ATOM      8  C   UNL A   1      38.221  34.397  34.878  1.00  0.00     0.022 C 
BRANCH   8   9
ATOM      9  C   UNL A   1      38.348  33.860  36.252  1.00  0.00    -0.025 A 
ATOM     10  C   UNL A   1      38.545  33.121  38.958  1.00  0.00     0.067 A 
ATOM     11  C   UNL A   1      37.648  32.461  38.115  1.00  0.00     0.021 A 
ATOM     12  C   UNL A   1      39.389  34.108  38.452  1.00  0.00     0.021 A 
ATOM     13  C   UNL A   1      37.573  32.813  36.764  1.00  0.00     0.009 A 
ATOM     14  C   UNL A   1      39.287  34.470  37.103  1.00  0.00     0.009 A 
BRANCH  10  15
ATOM     15  S   UNL A   1      38.569  32.692  40.683  1.00  0.00     0.175 S 
ATOM     16  C   UNL A   1      37.203  31.593  40.938  1.00  0.00     0.163 C 
ATOM     17  O   UNL A   1      38.277  33.904  41.426  1.00  0.00    -0.224 OA
ATOM     18  O   UNL A   1      39.795  31.950  40.906  1.00  0.00    -0.224 OA
ENDBRANCH  10  15
ENDBRANCH   8   9
BRANCH   7  19
ATOM     19  C   UNL A   1      39.273  32.544  33.630  1.00  0.00    -0.013 A 
ATOM     20  C   UNL A   1      40.621  32.601  34.013  1.00  0.00     0.009 A 
ATOM     21  C   UNL A   1      38.723  31.304  33.295  1.00  0.00     0.009 A 
ATOM     22  C   UNL A   1      41.393  31.444  34.096  1.00  0.00     0.009 A 
ATOM     23  C   UNL A   1      39.494  30.139  33.413  1.00  0.00     0.009 A 
ATOM     24  C   UNL A   1      40.839  30.184  33.825  1.00  0.00    -0.018 A 
BRANCH  24  25
ATOM     25  C   UNL A   1      41.654  28.962  33.973  1.00  0.00    -0.018 A 
ATOM     26  C   UNL A   1      42.802  28.756  33.183  1.00  0.00     0.010 A 
ATOM     27  C   UNL A   1      41.302  27.961  34.894  1.00  0.00     0.010 A 
ATOM     28  C   UNL A   1      43.556  27.585  33.287  1.00  0.00     0.021 A 
ATOM     29  C   UNL A   1      42.050  26.786  35.009  1.00  0.00     0.021 A 
ATOM     30  C   UNL A   1      43.163  26.599  34.191  1.00  0.00     0.067 A 
BRANCH  30  31
ATOM     31  S   UNL A   1      44.102  25.096  34.296  1.00  0.00     0.175 S 
ATOM     32  C   UNL A   1      44.844  24.957  32.691  1.00  0.00     0.163 C 
ATOM     33  O   UNL A   1      45.152  25.315  35.268  1.00  0.00    -0.224 OA
ATOM     34  O   UNL A   1      43.164  23.996  34.440  1.00  0.00    -0.224 OA
ENDBRANCH  30  31
ENDBRANCH  24  25
ENDBRANCH   7  19
ENDBRANCH   4   7
ENDBRANCH   2   3
ENDBRANCH   1   2
BRANCH   1  35
ATOM     35  C   UNL A   1      34.755  33.815  30.662  1.00  0.00     0.023 C 
BRANCH  35  36
ATOM     36  C   UNL A   1      35.165  32.395  30.289  1.00  0.00     0.116 C 
BRANCH  36  37
ATOM     37  N   UNL A   1      34.336  31.826  29.235  1.00  0.00    -0.352 N 
ATOM     38  C   UNL A   1      34.657  30.841  28.334  1.00  0.00     0.251 C 
ATOM     39  H   UNL A   1      33.427  32.196  29.158  1.00  0.00     0.163 HD
ATOM     40  O   UNL A   1      33.896  30.559  27.416  1.00  0.00    -0.269 OA
BRANCH  38  41
ATOM     41  C   UNL A   1      35.954  30.154  28.467  1.00  0.00     0.039 A 
ATOM     42  C   UNL A   1      36.846  30.177  27.392  1.00  0.00     0.014 A 
ATOM     43  C   UNL A   1      36.310  29.554  29.678  1.00  0.00     0.014 A 
ATOM     44  C   UNL A   1      38.133  29.667  27.561  1.00  0.00     0.010 A 
ATOM     45  C   UNL A   1      37.615  29.115  29.865  1.00  0.00     0.010 A 
ATOM     46  C   UNL A   1      38.541  29.177  28.813  1.00  0.00    -0.014 A 
BRANCH  46  47
ATOM     47  C   UNL A   1      39.942  28.752  29.056  1.00  0.00     0.031 A 
ATOM     48  C   UNL A   1      40.936  29.725  29.625  1.00  0.00     0.074 A 
ATOM     49  C   UNL A   1      40.337  27.516  28.688  1.00  0.00     0.049 A 
ATOM     50  N   UNL A   1      42.220  29.570  29.822  1.00  0.00    -0.248 NA
ATOM     51  C   UNL A   1      40.424  31.052  30.001  1.00  0.00     0.031 C 
ATOM     52  C   UNL A   1      39.474  26.491  28.097  1.00  0.00     0.029 A 
ATOM     53  N   UNL A   1      41.569  26.917  28.749  1.00  0.00    -0.354 N 
ATOM     54  C   UNL A   1      42.670  30.780  30.332  1.00  0.00     0.074 A 
ATOM     55  C   UNL A   1      41.534  31.676  30.365  1.00  0.00     0.031 C 
ATOM     56  C   UNL A   1      40.198  25.382  27.875  1.00  0.00     0.029 A 
ATOM     57  C   UNL A   1      41.583  25.634  28.256  1.00  0.00     0.049 A 
ATOM     58  H   UNL A   1      42.368  27.363  29.111  1.00  0.00     0.167 HD
ATOM     59  C   UNL A   1      43.913  31.111  30.755  1.00  0.00     0.031 A 
ATOM     60  C   UNL A   1      42.601  24.763  28.113  1.00  0.00     0.031 A 
ATOM     61  C   UNL A   1      45.041  30.219  30.721  1.00  0.00     0.049 A 
ATOM     62  C   UNL A   1      43.983  25.177  28.537  1.00  0.00     0.074 A 
ATOM     63  C   UNL A   1      46.330  30.445  31.170  1.00  0.00     0.029 A 
ATOM     64  N   UNL A   1      45.016  28.934  30.202  1.00  0.00    -0.354 N 
ATOM     65  N   UNL A   1      44.379  26.301  29.083  1.00  0.00    -0.248 NA
ATOM     66  C   UNL A   1      45.061  24.199  28.327  1.00  0.00     0.031 C 
ATOM     67  C   UNL A   1      47.102  29.319  30.866  1.00  0.00     0.029 A 
ATOM     68  C   UNL A   1      46.276  28.368  30.288  1.00  0.00     0.049 A 
ATOM     69  H   UNL A   1      44.221  28.490  29.829  1.00  0.00     0.167 HD
ATOM     70  C   UNL A   1      45.741  26.156  29.306  1.00  0.00     0.074 A 
ATOM     71  C   UNL A   1      46.102  24.828  28.854  1.00  0.00     0.031 C 
ATOM     72  C   UNL A   1      46.618  27.044  29.836  1.00  0.00     0.031 A 
BRANCH  59  73
ATOM     73  C   UNL A   1      44.119  32.502  31.286  1.00  0.00    -0.014 A 
ATOM     74  C   UNL A   1      44.301  33.592  30.419  1.00  0.00     0.009 A 
ATOM     75  C   UNL A   1      44.086  32.735  32.670  1.00  0.00     0.009 A 
ATOM     76  C   UNL A   1      44.481  34.879  30.928  1.00  0.00     0.001 A 
ATOM     77  C   UNL A   1      44.235  34.028  33.176  1.00  0.00     0.001 A 
ATOM     78  C   UNL A   1      44.442  35.097  32.305  1.00  0.00     0.000 A 
ENDBRANCH  59  73
BRANCH  60  79
ATOM     79  C   UNL A   1      42.360  23.415  27.534  1.00  0.00    -0.014 A 
ATOM     80  C   UNL A   1      41.903  22.364  28.345  1.00  0.00     0.009 A 
ATOM     81  C   UNL A   1      42.606  23.162  26.176  1.00  0.00     0.009 A 
ATOM     82  C   UNL A   1      41.730  21.083  27.815  1.00  0.00     0.001 A 
ATOM     83  C   UNL A   1      42.401  21.889  25.641  1.00  0.00     0.001 A 
ATOM     84  C   UNL A   1      41.975  20.847  26.464  1.00  0.00     0.000 A 
ENDBRANCH  60  79
BRANCH  72  85
ATOM     85  C   UNL A   1      48.046  26.602  29.986  1.00  0.00    -0.014 A 
ATOM     86  C   UNL A   1      48.487  25.941  31.142  1.00  0.00     0.009 A 
ATOM     87  C   UNL A   1      48.948  26.793  28.926  1.00  0.00     0.009 A 
ATOM     88  C   UNL A   1      49.809  25.504  31.244  1.00  0.00     0.001 A 
ATOM     89  C   UNL A   1      50.259  26.327  29.017  1.00  0.00     0.001 A 
ATOM     90  C   UNL A   1      50.691  25.689  30.180  1.00  0.00     0.000 A 
ENDBRANCH  72  85
ENDBRANCH  46  47
ENDBRANCH  38  41
ENDBRANCH  36  37
ENDBRANCH  35  36
ENDBRANCH   1  35
TORSDOF 16
ENDMDL
