MODEL 1
REMARK VINA RESULT:     -10.9      0.000      0.000
REMARK SMILES C[C@@H](C(=O)NCCCCNC(=O)c1ccc(-c2c3nc(c(-c4ccccc4)c4ccc([nH]4)c(-c4ccccc4)c4nc(c(-c5ccccc5)c5ccc2[nH]5)C=C4)C=C3)cc1)c1ccc(N[C@H]2CCC[C@@H]2O)cc1F
REMARK SMILES IDX 6 1 5 2 3 3 4 4 2 6 1 7 61 8 62 9 73 10 63 11 72 12 74 13
REMARK SMILES IDX 64 14 65 15 66 17 67 18 70 19 68 20 69 21 71 22 7 24 8 25
REMARK SMILES IDX 9 26 10 27 11 28 12 30 13 31 14 32 60 33 15 34 59 35 16 36
REMARK SMILES IDX 17 37 18 38 53 39 19 40 58 41 52 42 54 43 20 44 57 45 51 46
REMARK SMILES IDX 50 47 21 49 43 50 28 51 42 52 29 53 32 54 41 55 55 56 30 57
REMARK SMILES IDX 31 58 40 60 56 61 33 62 22 63 23 64 27 65 24 66 26 67 25 68
REMARK SMILES IDX 44 69 45 70 49 71 46 72 48 73 47 74 34 75 35 76 39 77 36 78
REMARK SMILES IDX 38 79 37 80
REMARK H PARENT 5 5 65 16 71 23 10 29 54 48 32 59
REMARK Flexibility Score: inf
ROOT
ATOM      1  C   UNL A   1      34.300  29.228  27.238  1.00  0.00     0.116 C 
ENDROOT
BRANCH   1   2
ATOM      2  N   UNL A   1      33.112  28.657  27.835  1.00  0.00    -0.356 N 
ATOM      3  C   UNL A   1      32.081  27.987  27.238  1.00  0.00     0.227 C 
ATOM      4  O   UNL A   1      31.049  27.858  27.900  1.00  0.00    -0.274 OA
ATOM      5  H   UNL A   1      33.036  28.767  28.810  1.00  0.00     0.163 HD
BRANCH   3   6
ATOM      6  C   UNL A   1      32.255  27.416  25.817  1.00  0.00     0.108 C 
ATOM      7  C   UNL A   1      31.067  27.796  24.919  1.00  0.00     0.023 C 
BRANCH   6   8
ATOM      8  C   UNL A   1      32.496  25.909  25.841  1.00  0.00     0.000 A 
ATOM      9  C   UNL A   1      31.638  25.024  26.495  1.00  0.00     0.009 A 
ATOM     10  C   UNL A   1      33.609  25.355  25.200  1.00  0.00     0.129 A 
ATOM     11  C   UNL A   1      31.886  23.653  26.501  1.00  0.00     0.026 A 
ATOM     12  C   UNL A   1      33.866  23.978  25.229  1.00  0.00     0.065 A 
ATOM     13  F   UNL A   1      34.458  26.151  24.533  1.00  0.00    -0.207 F 
ATOM     14  C   UNL A   1      32.996  23.092  25.873  1.00  0.00     0.037 A 
BRANCH  14  15
ATOM     15  N   UNL A   1      33.271  21.740  25.881  1.00  0.00    -0.380 N 
ATOM     16  H   UNL A   1      34.111  21.475  26.320  1.00  0.00     0.160 HD
BRANCH  15  17
ATOM     17  C   UNL A   1      32.473  20.650  25.319  1.00  0.00     0.107 C 
ATOM     18  C   UNL A   1      32.144  20.818  23.827  1.00  0.00     0.027 C 
ATOM     19  C   UNL A   1      33.105  19.249  25.471  1.00  0.00     0.136 C 
ATOM     20  C   UNL A   1      32.495  19.487  23.160  1.00  0.00     0.005 C 
ATOM     21  C   UNL A   1      32.537  18.470  24.289  1.00  0.00     0.034 C 
BRANCH  19  22
ATOM     22  O   UNL A   1      32.770  18.614  26.701  1.00  0.00    -0.391 OA
ATOM     23  H   UNL A   1      33.134  19.127  27.440  1.00  0.00     0.211 HD
ENDBRANCH  19  22
ENDBRANCH  15  17
ENDBRANCH  14  15
ENDBRANCH   6   8
ENDBRANCH   3   6
ENDBRANCH   1   2
BRANCH   1  24
ATOM     24  C   UNL A   1      34.398  30.718  27.582  1.00  0.00     0.023 C 
BRANCH  24  25
ATOM     25  C   UNL A   1      33.053  31.445  27.641  1.00  0.00     0.023 C 
BRANCH  25  26
ATOM     26  C   UNL A   1      33.046  32.827  27.005  1.00  0.00     0.116 C 
BRANCH  26  27
ATOM     27  N   UNL A   1      32.623  33.869  27.926  1.00  0.00    -0.352 N 
ATOM     28  C   UNL A   1      33.243  34.330  29.056  1.00  0.00     0.251 C 
ATOM     29  H   UNL A   1      31.767  34.305  27.706  1.00  0.00     0.163 HD
ATOM     30  O   UNL A   1      32.664  35.131  29.788  1.00  0.00    -0.269 OA
BRANCH  28  31
ATOM     31  C   UNL A   1      34.589  33.839  29.416  1.00  0.00     0.039 A 
ATOM     32  C   UNL A   1      34.712  32.997  30.524  1.00  0.00     0.014 A 
ATOM     33  C   UNL A   1      35.719  34.201  28.678  1.00  0.00     0.014 A 
ATOM     34  C   UNL A   1      35.962  32.479  30.859  1.00  0.00     0.010 A 
ATOM     35  C   UNL A   1      36.952  33.621  28.967  1.00  0.00     0.010 A 
ATOM     36  C   UNL A   1      37.087  32.761  30.065  1.00  0.00    -0.014 A 
BRANCH  36  37
ATOM     37  C   UNL A   1      38.398  32.146  30.383  1.00  0.00     0.031 A 
ATOM     38  C   UNL A   1      39.346  32.812  31.341  1.00  0.00     0.074 A 
ATOM     39  C   UNL A   1      38.740  30.987  29.790  1.00  0.00     0.049 A 
ATOM     40  N   UNL A   1      40.505  32.388  31.779  1.00  0.00    -0.248 NA
ATOM     41  C   UNL A   1      38.954  34.131  31.862  1.00  0.00     0.031 C 
ATOM     42  C   UNL A   1      37.935  30.275  28.793  1.00  0.00     0.029 A 
ATOM     43  N   UNL A   1      39.849  30.196  29.948  1.00  0.00    -0.354 N 
ATOM     44  C   UNL A   1      40.976  33.382  32.625  1.00  0.00     0.074 A 
ATOM     45  C   UNL A   1      40.011  34.460  32.592  1.00  0.00     0.031 C 
ATOM     46  C   UNL A   1      38.558  29.133  28.461  1.00  0.00     0.029 A 
ATOM     47  C   UNL A   1      39.814  29.046  29.196  1.00  0.00     0.049 A 
ATOM     48  H   UNL A   1      40.598  30.429  30.543  1.00  0.00     0.167 HD
ATOM     49  C   UNL A   1      42.098  33.390  33.384  1.00  0.00     0.031 A 
ATOM     50  C   UNL A   1      40.691  28.028  29.118  1.00  0.00     0.031 A 
ATOM     51  C   UNL A   1      43.061  32.323  33.415  1.00  0.00     0.049 A 
ATOM     52  C   UNL A   1      41.923  28.057  29.977  1.00  0.00     0.074 A 
ATOM     53  C   UNL A   1      44.211  32.219  34.178  1.00  0.00     0.029 A 
ATOM     54  N   UNL A   1      42.987  31.172  32.646  1.00  0.00    -0.354 N 
ATOM     55  N   UNL A   1      42.315  28.972  30.831  1.00  0.00    -0.248 NA
ATOM     56  C   UNL A   1      42.822  26.899  29.877  1.00  0.00     0.031 C 
ATOM     57  C   UNL A   1      44.857  31.025  33.838  1.00  0.00     0.029 A 
ATOM     58  C   UNL A   1      44.080  30.359  32.904  1.00  0.00     0.049 A 
ATOM     59  H   UNL A   1      42.265  30.963  32.011  1.00  0.00     0.167 HD
ATOM     60  C   UNL A   1      43.496  28.493  31.382  1.00  0.00     0.074 A 
ATOM     61  C   UNL A   1      43.737  27.192  30.789  1.00  0.00     0.031 C 
ATOM     62  C   UNL A   1      44.311  29.077  32.293  1.00  0.00     0.031 A 
BRANCH  49  63
ATOM     63  C   UNL A   1      42.334  34.595  34.253  1.00  0.00    -0.014 A 
ATOM     64  C   UNL A   1      42.982  35.733  33.748  1.00  0.00     0.009 A 
ATOM     65  C   UNL A   1      41.872  34.609  35.577  1.00  0.00     0.009 A 
ATOM     66  C   UNL A   1      43.193  36.849  34.561  1.00  0.00     0.001 A 
ATOM     67  C   UNL A   1      42.060  35.737  36.381  1.00  0.00     0.001 A 
ATOM     68  C   UNL A   1      42.727  36.851  35.874  1.00  0.00     0.000 A 
ENDBRANCH  49  63
BRANCH  50  69
ATOM     69  C   UNL A   1      40.425  26.885  28.207  1.00  0.00    -0.014 A 
ATOM     70  C   UNL A   1      40.958  26.865  26.909  1.00  0.00     0.009 A 
ATOM     71  C   UNL A   1      39.627  25.811  28.629  1.00  0.00     0.009 A 
ATOM     72  C   UNL A   1      40.669  25.809  26.041  1.00  0.00     0.001 A 
ATOM     73  C   UNL A   1      39.365  24.742  27.771  1.00  0.00     0.001 A 
ATOM     74  C   UNL A   1      39.877  24.746  26.475  1.00  0.00     0.000 A 
ENDBRANCH  50  69
BRANCH  62  75
ATOM     75  C   UNL A   1      45.528  28.300  32.711  1.00  0.00    -0.014 A 
ATOM     76  C   UNL A   1      45.486  27.411  33.798  1.00  0.00     0.009 A 
ATOM     77  C   UNL A   1      46.731  28.455  32.006  1.00  0.00     0.009 A 
ATOM     78  C   UNL A   1      46.638  26.731  34.198  1.00  0.00     0.001 A 
ATOM     79  C   UNL A   1      47.872  27.749  32.388  1.00  0.00     0.001 A 
ATOM     80  C   UNL A   1      47.828  26.898  33.492  1.00  0.00     0.000 A 
ENDBRANCH  62  75
ENDBRANCH  36  37
ENDBRANCH  28  31
ENDBRANCH  26  27
ENDBRANCH  25  26
ENDBRANCH  24  25
ENDBRANCH   1  24
TORSDOF 15
ENDMDL
MODEL 2
REMARK VINA RESULT:     -10.8      3.538      9.134
REMARK SMILES C[C@@H](C(=O)NCCCCNC(=O)c1ccc(-c2c3nc(c(-c4ccccc4)c4ccc([nH]4)c(-c4ccccc4)c4nc(c(-c5ccccc5)c5ccc2[nH]5)C=C4)C=C3)cc1)c1ccc(N[C@H]2CCC[C@@H]2O)cc1F
REMARK SMILES IDX 6 1 5 2 3 3 4 4 2 6 1 7 61 8 62 9 73 10 63 11 72 12 74 13
REMARK SMILES IDX 64 14 65 15 66 17 67 18 70 19 68 20 69 21 71 22 7 24 8 25
REMARK SMILES IDX 9 26 10 27 11 28 12 30 13 31 14 32 60 33 15 34 59 35 16 36
REMARK SMILES IDX 17 37 18 38 53 39 19 40 58 41 52 42 54 43 20 44 57 45 51 46
REMARK SMILES IDX 50 47 21 49 43 50 28 51 42 52 29 53 32 54 41 55 55 56 30 57
REMARK SMILES IDX 31 58 40 60 56 61 33 62 22 63 23 64 27 65 24 66 26 67 25 68
REMARK SMILES IDX 44 69 45 70 49 71 46 72 48 73 47 74 34 75 35 76 39 77 36 78
REMARK SMILES IDX 38 79 37 80
REMARK H PARENT 5 5 65 16 71 23 10 29 54 48 32 59
REMARK Flexibility Score: inf
ROOT
ATOM      1  C   UNL A   1      35.577  21.214  25.454  1.00  0.00     0.116 C 
ENDROOT
BRANCH   1   2
ATOM      2  N   UNL A   1      35.735  22.267  24.475  1.00  0.00    -0.356 N 
ATOM      3  C   UNL A   1      34.785  22.894  23.718  1.00  0.00     0.227 C 
ATOM      4  O   UNL A   1      35.189  23.542  22.751  1.00  0.00    -0.274 OA
ATOM      5  H   UNL A   1      36.659  22.577  24.334  1.00  0.00     0.163 HD
BRANCH   3   6
ATOM      6  C   UNL A   1      33.298  22.787  24.108  1.00  0.00     0.108 C 
ATOM      7  C   UNL A   1      32.595  21.676  23.312  1.00  0.00     0.023 C 
BRANCH   6   8
ATOM      8  C   UNL A   1      32.582  24.129  23.973  1.00  0.00     0.000 A 
ATOM      9  C   UNL A   1      31.922  24.510  22.805  1.00  0.00     0.009 A 
ATOM     10  C   UNL A   1      32.568  25.039  25.035  1.00  0.00     0.129 A 
ATOM     11  C   UNL A   1      31.280  25.744  22.711  1.00  0.00     0.026 A 
ATOM     12  C   UNL A   1      31.940  26.286  24.927  1.00  0.00     0.065 A 
ATOM     13  F   UNL A   1      33.164  24.720  26.194  1.00  0.00    -0.207 F 
ATOM     14  C   UNL A   1      31.267  26.660  23.760  1.00  0.00     0.037 A 
BRANCH  14  15
ATOM     15  N   UNL A   1      30.653  27.894  23.683  1.00  0.00    -0.380 N 
ATOM     16  H   UNL A   1      30.951  28.563  24.341  1.00  0.00     0.160 HD
BRANCH  15  17
ATOM     17  C   UNL A   1      29.615  28.332  22.751  1.00  0.00     0.107 C 
ATOM     18  C   UNL A   1      28.181  28.080  23.244  1.00  0.00     0.027 C 
ATOM     19  C   UNL A   1      29.687  29.827  22.367  1.00  0.00     0.136 C 
ATOM     20  C   UNL A   1      27.425  29.395  23.048  1.00  0.00     0.005 C 
ATOM     21  C   UNL A   1      28.242  30.182  22.036  1.00  0.00     0.034 C 
BRANCH  19  22
ATOM     22  O   UNL A   1      30.537  30.078  21.252  1.00  0.00    -0.391 OA
ATOM     23  H   UNL A   1      30.026  29.997  20.431  1.00  0.00     0.211 HD
ENDBRANCH  19  22
ENDBRANCH  15  17
ENDBRANCH  14  15
ENDBRANCH   6   8
ENDBRANCH   3   6
ENDBRANCH   1   2
BRANCH   1  24
ATOM     24  C   UNL A   1      36.326  19.956  25.001  1.00  0.00     0.023 C 
BRANCH  24  25
ATOM     25  C   UNL A   1      37.781  20.198  24.592  1.00  0.00     0.023 C 
BRANCH  25  26
ATOM     26  C   UNL A   1      38.741  20.414  25.752  1.00  0.00     0.116 C 
BRANCH  26  27
ATOM     27  N   UNL A   1      39.797  19.417  25.802  1.00  0.00    -0.352 N 
ATOM     28  C   UNL A   1      41.119  19.569  26.126  1.00  0.00     0.251 C 
ATOM     29  H   UNL A   1      39.522  18.499  25.570  1.00  0.00     0.163 HD
ATOM     30  O   UNL A   1      41.897  18.627  25.981  1.00  0.00    -0.269 OA
BRANCH  28  31
ATOM     31  C   UNL A   1      41.618  20.872  26.611  1.00  0.00     0.039 A 
ATOM     32  C   UNL A   1      42.134  21.773  25.677  1.00  0.00     0.014 A 
ATOM     33  C   UNL A   1      41.583  21.207  27.967  1.00  0.00     0.014 A 
ATOM     34  C   UNL A   1      42.568  23.029  26.099  1.00  0.00     0.010 A 
ATOM     35  C   UNL A   1      41.944  22.489  28.375  1.00  0.00     0.010 A 
ATOM     36  C   UNL A   1      42.447  23.409  27.446  1.00  0.00    -0.014 A 
BRANCH  36  37
ATOM     37  C   UNL A   1      42.840  24.773  27.874  1.00  0.00     0.031 A 
ATOM     38  C   UNL A   1      41.800  25.837  28.095  1.00  0.00     0.074 A 
ATOM     39  C   UNL A   1      44.144  25.056  28.051  1.00  0.00     0.049 A 
ATOM     40  N   UNL A   1      41.958  27.063  28.526  1.00  0.00    -0.248 NA
ATOM     41  C   UNL A   1      40.408  25.489  27.774  1.00  0.00     0.031 C 
ATOM     42  C   UNL A   1      45.252  24.128  27.807  1.00  0.00     0.029 A 
ATOM     43  N   UNL A   1      44.759  26.201  28.488  1.00  0.00    -0.354 N 
ATOM     44  C   UNL A   1      40.690  27.629  28.531  1.00  0.00     0.074 A 
ATOM     45  C   UNL A   1      39.782  26.635  28.000  1.00  0.00     0.031 C 
ATOM     46  C   UNL A   1      46.407  24.729  28.137  1.00  0.00     0.029 A 
ATOM     47  C   UNL A   1      46.125  26.087  28.588  1.00  0.00     0.049 A 
ATOM     48  H   UNL A   1      44.269  27.026  28.709  1.00  0.00     0.167 HD
ATOM     49  C   UNL A   1      40.308  28.854  28.963  1.00  0.00     0.031 A 
ATOM     50  C   UNL A   1      47.046  26.973  29.007  1.00  0.00     0.031 A 
ATOM     51  C   UNL A   1      41.210  29.845  29.486  1.00  0.00     0.049 A 
ATOM     52  C   UNL A   1      46.595  28.323  29.490  1.00  0.00     0.074 A 
ATOM     53  C   UNL A   1      40.917  31.103  29.983  1.00  0.00     0.029 A 
ATOM     54  N   UNL A   1      42.584  29.689  29.578  1.00  0.00    -0.354 N 
ATOM     55  N   UNL A   1      45.381  28.813  29.559  1.00  0.00    -0.248 NA
ATOM     56  C   UNL A   1      47.643  29.232  29.973  1.00  0.00     0.031 C 
ATOM     57  C   UNL A   1      42.120  31.726  30.335  1.00  0.00     0.029 A 
ATOM     58  C   UNL A   1      43.156  30.835  30.109  1.00  0.00     0.049 A 
ATOM     59  H   UNL A   1      43.081  28.884  29.306  1.00  0.00     0.167 HD
ATOM     60  C   UNL A   1      45.517  30.081  30.110  1.00  0.00     0.074 A 
ATOM     61  C   UNL A   1      46.928  30.269  30.385  1.00  0.00     0.031 C 
ATOM     62  C   UNL A   1      44.562  31.009  30.361  1.00  0.00     0.031 A 
BRANCH  49  63
ATOM     63  C   UNL A   1      38.843  29.184  28.893  1.00  0.00    -0.014 A 
ATOM     64  C   UNL A   1      38.011  29.015  30.012  1.00  0.00     0.009 A 
ATOM     65  C   UNL A   1      38.294  29.703  27.712  1.00  0.00     0.009 A 
ATOM     66  C   UNL A   1      36.652  29.328  29.938  1.00  0.00     0.001 A 
ATOM     67  C   UNL A   1      36.939  30.042  27.649  1.00  0.00     0.001 A 
ATOM     68  C   UNL A   1      36.119  29.846  28.759  1.00  0.00     0.000 A 
ENDBRANCH  49  63
BRANCH  50  69
ATOM     69  C   UNL A   1      48.485  26.606  29.011  1.00  0.00    -0.014 A 
ATOM     70  C   UNL A   1      49.048  25.929  30.104  1.00  0.00     0.009 A 
ATOM     71  C   UNL A   1      49.306  26.940  27.923  1.00  0.00     0.009 A 
ATOM     72  C   UNL A   1      50.412  25.625  30.121  1.00  0.00     0.001 A 
ATOM     73  C   UNL A   1      50.662  26.607  27.929  1.00  0.00     0.001 A 
ATOM     74  C   UNL A   1      51.216  25.960  29.032  1.00  0.00     0.000 A 
ENDBRANCH  50  69
BRANCH  62  75
ATOM     75  C   UNL A   1      45.018  32.301  30.979  1.00  0.00    -0.014 A 
ATOM     76  C   UNL A   1      45.502  33.355  30.188  1.00  0.00     0.009 A 
ATOM     77  C   UNL A   1      44.959  32.467  32.371  1.00  0.00     0.009 A 
ATOM     78  C   UNL A   1      45.961  34.531  30.783  1.00  0.00     0.001 A 
ATOM     79  C   UNL A   1      45.388  33.657  32.962  1.00  0.00     0.001 A 
ATOM     80  C   UNL A   1      45.902  34.682  32.169  1.00  0.00     0.000 A 
ENDBRANCH  62  75
ENDBRANCH  36  37
ENDBRANCH  28  31
ENDBRANCH  26  27
ENDBRANCH  25  26
ENDBRANCH  24  25
ENDBRANCH   1  24
TORSDOF 15
ENDMDL
MODEL 3
REMARK VINA RESULT:     -10.7      3.383      9.041
REMARK SMILES C[C@@H](C(=O)NCCCCNC(=O)c1ccc(-c2c3nc(c(-c4ccccc4)c4ccc([nH]4)c(-c4ccccc4)c4nc(c(-c5ccccc5)c5ccc2[nH]5)C=C4)C=C3)cc1)c1ccc(N[C@H]2CCC[C@@H]2O)cc1F
REMARK SMILES IDX 6 1 5 2 3 3 4 4 2 6 1 7 61 8 62 9 73 10 63 11 72 12 74 13
REMARK SMILES IDX 64 14 65 15 66 17 67 18 70 19 68 20 69 21 71 22 7 24 8 25
REMARK SMILES IDX 9 26 10 27 11 28 12 30 13 31 14 32 60 33 15 34 59 35 16 36
REMARK SMILES IDX 17 37 18 38 53 39 19 40 58 41 52 42 54 43 20 44 57 45 51 46
REMARK SMILES IDX 50 47 21 49 43 50 28 51 42 52 29 53 32 54 41 55 55 56 30 57
REMARK SMILES IDX 31 58 40 60 56 61 33 62 22 63 23 64 27 65 24 66 26 67 25 68
REMARK SMILES IDX 44 69 45 70 49 71 46 72 48 73 47 74 34 75 35 76 39 77 36 78
REMARK SMILES IDX 38 79 37 80
REMARK H PARENT 5 5 65 16 71 23 10 29 54 48 32 59
REMARK Flexibility Score: inf
ROOT
ATOM      1  C   UNL A   1      35.674  20.884  25.352  1.00  0.00     0.116 C 
ENDROOT
BRANCH   1   2
ATOM      2  N   UNL A   1      35.843  21.965  24.405  1.00  0.00    -0.356 N 
ATOM      3  C   UNL A   1      34.893  22.670  23.720  1.00  0.00     0.227 C 
ATOM      4  O   UNL A   1      35.285  23.333  22.758  1.00  0.00    -0.274 OA
ATOM      5  H   UNL A   1      36.775  22.230  24.229  1.00  0.00     0.163 HD
BRANCH   3   6
ATOM      6  C   UNL A   1      33.423  22.628  24.180  1.00  0.00     0.108 C 
ATOM      7  C   UNL A   1      32.656  21.495  23.479  1.00  0.00     0.023 C 
BRANCH   6   8
ATOM      8  C   UNL A   1      32.737  23.980  24.000  1.00  0.00     0.000 A 
ATOM      9  C   UNL A   1      32.151  24.367  22.795  1.00  0.00     0.009 A 
ATOM     10  C   UNL A   1      32.677  24.894  25.056  1.00  0.00     0.129 A 
ATOM     11  C   UNL A   1      31.535  25.610  22.661  1.00  0.00     0.026 A 
ATOM     12  C   UNL A   1      32.075  26.151  24.909  1.00  0.00     0.065 A 
ATOM     13  F   UNL A   1      33.200  24.570  26.249  1.00  0.00    -0.207 F 
ATOM     14  C   UNL A   1      31.476  26.530  23.704  1.00  0.00     0.037 A 
BRANCH  14  15
ATOM     15  N   UNL A   1      30.886  27.773  23.589  1.00  0.00    -0.380 N 
ATOM     16  H   UNL A   1      31.240  28.473  24.183  1.00  0.00     0.160 HD
BRANCH  15  17
ATOM     17  C   UNL A   1      29.801  28.181  22.697  1.00  0.00     0.107 C 
ATOM     18  C   UNL A   1      28.402  27.773  23.184  1.00  0.00     0.027 C 
ATOM     19  C   UNL A   1      29.740  29.699  22.415  1.00  0.00     0.136 C 
ATOM     20  C   UNL A   1      27.532  29.028  23.083  1.00  0.00     0.005 C 
ATOM     21  C   UNL A   1      28.265  29.949  22.120  1.00  0.00     0.034 C 
BRANCH  19  22
ATOM     22  O   UNL A   1      30.549  30.096  21.312  1.00  0.00    -0.391 OA
ATOM     23  H   UNL A   1      30.282  29.603  20.520  1.00  0.00     0.211 HD
ENDBRANCH  19  22
ENDBRANCH  15  17
ENDBRANCH  14  15
ENDBRANCH   6   8
ENDBRANCH   3   6
ENDBRANCH   1   2
BRANCH   1  24
ATOM     24  C   UNL A   1      36.384  19.624  24.846  1.00  0.00     0.023 C 
BRANCH  24  25
ATOM     25  C   UNL A   1      37.876  19.810  24.559  1.00  0.00     0.023 C 
BRANCH  25  26
ATOM     26  C   UNL A   1      38.737  20.054  25.790  1.00  0.00     0.116 C 
BRANCH  26  27
ATOM     27  N   UNL A   1      39.971  19.286  25.774  1.00  0.00    -0.352 N 
ATOM     28  C   UNL A   1      41.246  19.689  26.072  1.00  0.00     0.251 C 
ATOM     29  H   UNL A   1      39.877  18.341  25.512  1.00  0.00     0.163 HD
ATOM     30  O   UNL A   1      42.190  18.927  25.871  1.00  0.00    -0.269 OA
BRANCH  28  31
ATOM     31  C   UNL A   1      41.490  21.048  26.596  1.00  0.00     0.039 A 
ATOM     32  C   UNL A   1      41.356  21.262  27.970  1.00  0.00     0.014 A 
ATOM     33  C   UNL A   1      41.845  22.103  25.751  1.00  0.00     0.014 A 
ATOM     34  C   UNL A   1      41.628  22.522  28.500  1.00  0.00     0.010 A 
ATOM     35  C   UNL A   1      42.191  23.339  26.292  1.00  0.00     0.010 A 
ATOM     36  C   UNL A   1      42.078  23.562  27.670  1.00  0.00    -0.014 A 
BRANCH  36  37
ATOM     37  C   UNL A   1      42.438  24.878  28.252  1.00  0.00     0.031 A 
ATOM     38  C   UNL A   1      43.861  25.190  28.622  1.00  0.00     0.074 A 
ATOM     39  C   UNL A   1      41.470  25.791  28.459  1.00  0.00     0.049 A 
ATOM     40  N   UNL A   1      44.365  26.307  29.084  1.00  0.00    -0.248 NA
ATOM     41  C   UNL A   1      44.845  24.106  28.472  1.00  0.00     0.031 C 
ATOM     42  C   UNL A   1      40.042  25.585  28.202  1.00  0.00     0.029 A 
ATOM     43  N   UNL A   1      41.542  27.079  28.924  1.00  0.00    -0.354 N 
ATOM     44  C   UNL A   1      45.717  26.061  29.277  1.00  0.00     0.074 A 
ATOM     45  C   UNL A   1      45.947  24.672  28.943  1.00  0.00     0.031 C 
ATOM     46  C   UNL A   1      39.379  26.721  28.473  1.00  0.00     0.029 A 
ATOM     47  C   UNL A   1      40.327  27.722  28.948  1.00  0.00     0.049 A 
ATOM     48  H   UNL A   1      42.382  27.502  29.213  1.00  0.00     0.167 HD
ATOM     49  C   UNL A   1      46.689  26.919  29.671  1.00  0.00     0.031 A 
ATOM     50  C   UNL A   1      40.015  28.981  29.302  1.00  0.00     0.031 A 
ATOM     51  C   UNL A   1      46.461  28.298  30.008  1.00  0.00     0.049 A 
ATOM     52  C   UNL A   1      41.112  29.916  29.726  1.00  0.00     0.074 A 
ATOM     53  C   UNL A   1      47.385  29.259  30.383  1.00  0.00     0.029 A 
ATOM     54  N   UNL A   1      45.220  28.914  30.013  1.00  0.00    -0.354 N 
ATOM     55  N   UNL A   1      42.399  29.687  29.829  1.00  0.00    -0.248 NA
ATOM     56  C   UNL A   1      40.713  31.290  30.062  1.00  0.00     0.031 C 
ATOM     57  C   UNL A   1      46.695  30.446  30.658  1.00  0.00     0.029 A 
ATOM     58  C   UNL A   1      45.350  30.239  30.400  1.00  0.00     0.049 A 
ATOM     59  H   UNL A   1      44.371  28.476  29.776  1.00  0.00     0.167 HD
ATOM     60  C   UNL A   1      42.966  30.892  30.223  1.00  0.00     0.074 A 
ATOM     61  C   UNL A   1      41.886  31.855  30.309  1.00  0.00     0.031 C 
ATOM     62  C   UNL A   1      44.263  31.177  30.495  1.00  0.00     0.031 A 
BRANCH  49  63
ATOM     63  C   UNL A   1      48.092  26.384  29.747  1.00  0.00    -0.014 A 
ATOM     64  C   UNL A   1      48.953  26.456  28.640  1.00  0.00     0.009 A 
ATOM     65  C   UNL A   1      48.572  25.836  30.945  1.00  0.00     0.009 A 
ATOM     66  C   UNL A   1      50.256  25.959  28.722  1.00  0.00     0.001 A 
ATOM     67  C   UNL A   1      49.885  25.365  31.033  1.00  0.00     0.001 A 
ATOM     68  C   UNL A   1      50.721  25.420  29.920  1.00  0.00     0.000 A 
ENDBRANCH  49  63
BRANCH  50  69
ATOM     69  C   UNL A   1      38.603  29.440  29.249  1.00  0.00    -0.014 A 
ATOM     70  C   UNL A   1      38.090  30.048  28.093  1.00  0.00     0.009 A 
ATOM     71  C   UNL A   1      37.762  29.282  30.362  1.00  0.00     0.009 A 
ATOM     72  C   UNL A   1      36.774  30.517  28.064  1.00  0.00     0.001 A 
ATOM     73  C   UNL A   1      36.439  29.724  30.320  1.00  0.00     0.001 A 
ATOM     74  C   UNL A   1      35.949  30.351  29.175  1.00  0.00     0.000 A 
ENDBRANCH  50  69
BRANCH  62  75
ATOM     75  C   UNL A   1      44.577  32.592  30.894  1.00  0.00    -0.014 A 
ATOM     76  C   UNL A   1      45.011  33.535  29.947  1.00  0.00     0.009 A 
ATOM     77  C   UNL A   1      44.434  32.987  32.232  1.00  0.00     0.009 A 
ATOM     78  C   UNL A   1      45.339  34.832  30.344  1.00  0.00     0.001 A 
ATOM     79  C   UNL A   1      44.732  34.294  32.620  1.00  0.00     0.001 A 
ATOM     80  C   UNL A   1      45.198  35.211  31.679  1.00  0.00     0.000 A 
ENDBRANCH  62  75
ENDBRANCH  36  37
ENDBRANCH  28  31
ENDBRANCH  26  27
ENDBRANCH  25  26
ENDBRANCH  24  25
ENDBRANCH   1  24
TORSDOF 15
ENDMDL
