MODEL 1
REMARK VINA RESULT:     -10.5      0.000      0.000
REMARK SMILES O=C(NCCCCNC(=O)[C@H]1CC2=c3ccccc3=N[C@H]2[C@@H](c2ccccc2)[NH2+]1)c1ccc(-c2c3nc(c(-c4ccccc4)c4ccc([nH]4)c(-c4ccccc4)c4nc(c(-c5ccccc5)c5ccc2[nH]5)C=C4)C=C3)cc1
REMARK SMILES IDX 5 1 4 2 3 3 1 4 2 5 30 7 31 8 77 9 32 10 76 11 33 12 34 13
REMARK SMILES IDX 35 14 70 15 36 16 75 17 69 18 71 19 37 20 74 21 68 22 67 23
REMARK SMILES IDX 38 25 60 26 45 27 59 28 46 29 49 30 58 31 72 32 47 33 48 34
REMARK SMILES IDX 57 36 73 37 50 38 39 39 40 40 44 41 41 42 43 43 42 44 61 45
REMARK SMILES IDX 62 46 66 47 63 48 65 49 64 50 51 51 52 52 56 53 53 54 55 55
REMARK SMILES IDX 54 56 6 57 7 58 8 59 9 60 10 62 11 63 12 64 29 65 13 66
REMARK SMILES IDX 22 67 14 70 21 71 15 72 19 73 20 74 16 75 18 76 17 77 23 78
REMARK SMILES IDX 24 79 28 80 25 81 27 82 26 83
REMARK H PARENT 3 6 71 24 49 35 8 61 29 68 29 69
REMARK Flexibility Score: inf
ROOT
ATOM      1  C   UNL A   1      34.608  34.369  28.023  1.00  0.00     0.023 C 
ENDROOT
BRANCH   1   2
ATOM      2  C   UNL A   1      35.256  32.989  28.076  1.00  0.00     0.116 C 
BRANCH   2   3
ATOM      3  N   UNL A   1      34.305  31.913  27.836  1.00  0.00    -0.352 N 
ATOM      4  O   UNL A   1      33.629  29.791  27.484  1.00  0.00    -0.269 OA
ATOM      5  C   UNL A   1      34.526  30.565  27.803  1.00  0.00     0.251 C 
ATOM      6  H   UNL A   1      33.375  32.195  27.675  1.00  0.00     0.163 HD
BRANCH   5   7
ATOM      7  C   UNL A   1      35.864  30.059  28.134  1.00  0.00     0.039 A 
ATOM      8  C   UNL A   1      36.101  29.593  29.428  1.00  0.00     0.014 A 
ATOM      9  C   UNL A   1      36.870  30.042  27.164  1.00  0.00     0.014 A 
ATOM     10  C   UNL A   1      37.357  29.089  29.748  1.00  0.00     0.010 A 
ATOM     11  C   UNL A   1      38.097  29.472  27.463  1.00  0.00     0.010 A 
ATOM     12  C   UNL A   1      38.358  29.021  28.766  1.00  0.00    -0.014 A 
BRANCH  12  13
ATOM     13  C   UNL A   1      39.716  28.546  29.100  1.00  0.00     0.031 A 
ATOM     14  C   UNL A   1      40.637  29.443  29.874  1.00  0.00     0.074 A 
ATOM     15  C   UNL A   1      40.123  27.336  28.679  1.00  0.00     0.049 A 
ATOM     16  N   UNL A   1      41.875  29.235  30.236  1.00  0.00    -0.248 NA
ATOM     17  C   UNL A   1      40.107  30.759  30.271  1.00  0.00     0.031 C 
ATOM     18  C   UNL A   1      39.311  26.397  27.903  1.00  0.00     0.029 A 
ATOM     19  N   UNL A   1      41.319  26.690  28.848  1.00  0.00    -0.354 N 
ATOM     20  C   UNL A   1      42.276  30.398  30.880  1.00  0.00     0.074 A 
ATOM     21  C   UNL A   1      41.174  31.329  30.811  1.00  0.00     0.031 C 
ATOM     22  C   UNL A   1      40.021  25.277  27.695  1.00  0.00     0.029 A 
ATOM     23  C   UNL A   1      41.349  25.438  28.284  1.00  0.00     0.049 A 
ATOM     24  H   UNL A   1      42.084  27.084  29.325  1.00  0.00     0.167 HD
ATOM     25  C   UNL A   1      43.451  30.653  31.496  1.00  0.00     0.031 A 
ATOM     26  C   UNL A   1      42.334  24.522  28.248  1.00  0.00     0.031 A 
ATOM     27  C   UNL A   1      44.526  29.704  31.582  1.00  0.00     0.049 A 
ATOM     28  C   UNL A   1      43.641  24.832  28.923  1.00  0.00     0.074 A 
ATOM     29  C   UNL A   1      45.729  29.832  32.252  1.00  0.00     0.029 A 
ATOM     30  N   UNL A   1      44.528  28.456  30.977  1.00  0.00    -0.354 N 
ATOM     31  N   UNL A   1      43.985  25.909  29.588  1.00  0.00    -0.248 NA
ATOM     32  C   UNL A   1      44.690  23.806  28.851  1.00  0.00     0.031 C 
ATOM     33  C   UNL A   1      46.489  28.690  31.992  1.00  0.00     0.029 A 
ATOM     34  C   UNL A   1      45.732  27.819  31.222  1.00  0.00     0.049 A 
ATOM     35  H   UNL A   1      43.785  28.080  30.453  1.00  0.00     0.167 HD
ATOM     36  C   UNL A   1      45.285  25.688  30.024  1.00  0.00     0.074 A 
ATOM     37  C   UNL A   1      45.660  24.366  29.563  1.00  0.00     0.031 C 
ATOM     38  C   UNL A   1      46.092  26.508  30.742  1.00  0.00     0.031 A 
BRANCH  25  39
ATOM     39  C   UNL A   1      43.639  32.007  32.123  1.00  0.00    -0.014 A 
ATOM     40  C   UNL A   1      44.217  33.045  31.376  1.00  0.00     0.009 A 
ATOM     41  C   UNL A   1      43.304  32.246  33.466  1.00  0.00     0.009 A 
ATOM     42  C   UNL A   1      44.462  34.290  31.959  1.00  0.00     0.001 A 
ATOM     43  C   UNL A   1      43.517  33.502  34.037  1.00  0.00     0.001 A 
ATOM     44  C   UNL A   1      44.104  34.520  33.286  1.00  0.00     0.000 A 
ENDBRANCH  25  39
BRANCH  26  45
ATOM     45  C   UNL A   1      42.080  23.219  27.581  1.00  0.00    -0.014 A 
ATOM     46  C   UNL A   1      41.467  22.164  28.279  1.00  0.00     0.009 A 
ATOM     47  C   UNL A   1      42.546  22.988  26.278  1.00  0.00     0.009 A 
ATOM     48  C   UNL A   1      41.362  20.897  27.701  1.00  0.00     0.001 A 
ATOM     49  C   UNL A   1      42.415  21.726  25.693  1.00  0.00     0.001 A 
ATOM     50  C   UNL A   1      41.837  20.679  26.410  1.00  0.00     0.000 A 
ENDBRANCH  26  45
BRANCH  38  51
ATOM     51  C   UNL A   1      47.475  26.023  31.075  1.00  0.00    -0.014 A 
ATOM     52  C   UNL A   1      47.754  25.549  32.368  1.00  0.00     0.009 A 
ATOM     53  C   UNL A   1      48.528  26.171  30.160  1.00  0.00     0.009 A 
ATOM     54  C   UNL A   1      49.066  25.261  32.747  1.00  0.00     0.001 A 
ATOM     55  C   UNL A   1      49.835  25.853  30.535  1.00  0.00     0.001 A 
ATOM     56  C   UNL A   1      50.105  25.413  31.831  1.00  0.00     0.000 A 
ENDBRANCH  38  51
ENDBRANCH  12  13
ENDBRANCH   5   7
ENDBRANCH   2   3
ENDBRANCH   1   2
BRANCH   1  57
ATOM     57  C   UNL A   1      34.087  34.883  29.370  1.00  0.00     0.023 C 
BRANCH  57  58
ATOM     58  C   UNL A   1      34.841  34.330  30.579  1.00  0.00     0.116 C 
BRANCH  58  59
ATOM     59  N   UNL A   1      33.924  34.056  31.652  1.00  0.00    -0.351 N 
ATOM     60  C   UNL A   1      34.075  33.374  32.808  1.00  0.00     0.278 C 
ATOM     61  H   UNL A   1      33.024  34.433  31.521  1.00  0.00     0.163 HD
ATOM     62  O   UNL A   1      33.009  33.041  33.347  1.00  0.00    -0.268 OA
BRANCH  60  63
ATOM     63  C   UNL A   1      35.423  33.076  33.518  1.00  0.00     0.277 C 
ATOM     64  C   UNL A   1      36.363  31.903  33.115  1.00  0.00     0.109 C 
ATOM     65  N   UNL A   1      36.128  34.384  33.681  1.00  0.00    -0.327 N 
ATOM     66  C   UNL A   1      37.529  31.829  34.069  1.00  0.00    -0.024 C 
ATOM     67  C   UNL A   1      37.558  34.304  34.070  1.00  0.00     0.243 C 
ATOM     68  H   UNL A   1      35.639  34.916  34.401  1.00  0.00     0.347 HD
ATOM     69  H   UNL A   1      36.116  34.821  32.760  1.00  0.00     0.347 HD
ATOM     70  C   UNL A   1      38.596  31.042  34.170  1.00  0.00     0.002 A 
ATOM     71  C   UNL A   1      37.686  33.026  34.969  1.00  0.00     0.196 C 
ATOM     72  C   UNL A   1      39.140  29.934  33.452  1.00  0.00     0.010 A 
ATOM     73  C   UNL A   1      39.364  31.688  35.257  1.00  0.00     0.066 A 
ATOM     74  N   UNL A   1      38.959  32.839  35.703  1.00  0.00    -0.270 NA
ATOM     75  C   UNL A   1      40.302  29.403  33.875  1.00  0.00     0.001 A 
ATOM     76  C   UNL A   1      40.560  30.973  35.742  1.00  0.00     0.028 A 
ATOM     77  C   UNL A   1      40.970  29.884  35.075  1.00  0.00     0.002 A 
BRANCH  67  78
ATOM     78  C   UNL A   1      38.528  34.385  32.861  1.00  0.00     0.012 A 
ATOM     79  C   UNL A   1      39.931  34.398  32.981  1.00  0.00     0.010 A 
ATOM     80  C   UNL A   1      38.008  34.431  31.553  1.00  0.00     0.010 A 
ATOM     81  C   UNL A   1      40.763  34.509  31.857  1.00  0.00     0.001 A 
ATOM     82  C   UNL A   1      38.833  34.573  30.433  1.00  0.00     0.001 A 
ATOM     83  C   UNL A   1      40.213  34.615  30.585  1.00  0.00     0.000 A 
ENDBRANCH  67  78
ENDBRANCH  60  63
ENDBRANCH  58  59
ENDBRANCH  57  58
ENDBRANCH   1  57
TORSDOF 12
ENDMDL
MODEL 2
REMARK VINA RESULT:     -10.4      4.551     10.422
REMARK SMILES O=C(NCCCCNC(=O)[C@H]1CC2=c3ccccc3=N[C@H]2[C@@H](c2ccccc2)[NH2+]1)c1ccc(-c2c3nc(c(-c4ccccc4)c4ccc([nH]4)c(-c4ccccc4)c4nc(c(-c5ccccc5)c5ccc2[nH]5)C=C4)C=C3)cc1
REMARK SMILES IDX 5 1 4 2 3 3 1 4 2 5 30 7 31 8 77 9 32 10 76 11 33 12 34 13
REMARK SMILES IDX 35 14 70 15 36 16 75 17 69 18 71 19 37 20 74 21 68 22 67 23
REMARK SMILES IDX 38 25 60 26 45 27 59 28 46 29 49 30 58 31 72 32 47 33 48 34
REMARK SMILES IDX 57 36 73 37 50 38 39 39 40 40 44 41 41 42 43 43 42 44 61 45
REMARK SMILES IDX 62 46 66 47 63 48 65 49 64 50 51 51 52 52 56 53 53 54 55 55
REMARK SMILES IDX 54 56 6 57 7 58 8 59 9 60 10 62 11 63 12 64 29 65 13 66
REMARK SMILES IDX 22 67 14 70 21 71 15 72 19 73 20 74 16 75 18 76 17 77 23 78
REMARK SMILES IDX 24 79 28 80 25 81 27 82 26 83
REMARK H PARENT 3 6 71 24 49 35 8 61 29 68 29 69
REMARK Flexibility Score: inf
ROOT
ATOM      1  C   UNL A   1      38.139  19.838  24.869  1.00  0.00     0.023 C 
ENDROOT
BRANCH   1   2
ATOM      2  C   UNL A   1      39.094  19.899  26.057  1.00  0.00     0.116 C 
BRANCH   2   3
ATOM      3  N   UNL A   1      40.332  19.169  25.821  1.00  0.00    -0.352 N 
ATOM      4  O   UNL A   1      42.560  18.884  25.624  1.00  0.00    -0.269 OA
ATOM      5  C   UNL A   1      41.622  19.597  25.964  1.00  0.00     0.251 C 
ATOM      6  H   UNL A   1      40.224  18.238  25.517  1.00  0.00     0.163 HD
BRANCH   5   7
ATOM      7  C   UNL A   1      41.865  20.938  26.511  1.00  0.00     0.039 A 
ATOM      8  C   UNL A   1      42.167  21.975  25.628  1.00  0.00     0.014 A 
ATOM      9  C   UNL A   1      41.785  21.161  27.889  1.00  0.00     0.014 A 
ATOM     10  C   UNL A   1      42.376  23.255  26.130  1.00  0.00     0.010 A 
ATOM     11  C   UNL A   1      41.921  22.450  28.380  1.00  0.00     0.010 A 
ATOM     12  C   UNL A   1      42.248  23.498  27.507  1.00  0.00    -0.014 A 
BRANCH  12  13
ATOM     13  C   UNL A   1      42.525  24.836  28.068  1.00  0.00     0.031 A 
ATOM     14  C   UNL A   1      43.927  25.185  28.475  1.00  0.00     0.074 A 
ATOM     15  C   UNL A   1      41.518  25.710  28.241  1.00  0.00     0.049 A 
ATOM     16  N   UNL A   1      44.375  26.285  29.021  1.00  0.00    -0.248 NA
ATOM     17  C   UNL A   1      44.957  24.153  28.268  1.00  0.00     0.031 C 
ATOM     18  C   UNL A   1      40.117  25.460  27.896  1.00  0.00     0.029 A 
ATOM     19  N   UNL A   1      41.520  26.984  28.746  1.00  0.00    -0.354 N 
ATOM     20  C   UNL A   1      45.729  26.067  29.241  1.00  0.00     0.074 A 
ATOM     21  C   UNL A   1      46.020  24.715  28.825  1.00  0.00     0.031 C 
ATOM     22  C   UNL A   1      39.400  26.562  28.166  1.00  0.00     0.029 A 
ATOM     23  C   UNL A   1      40.281  27.576  28.740  1.00  0.00     0.049 A 
ATOM     24  H   UNL A   1      42.330  27.431  29.081  1.00  0.00     0.167 HD
ATOM     25  C   UNL A   1      46.650  26.930  29.722  1.00  0.00     0.031 A 
ATOM     26  C   UNL A   1      39.900  28.800  29.150  1.00  0.00     0.031 A 
ATOM     27  C   UNL A   1      46.349  28.283  30.103  1.00  0.00     0.049 A 
ATOM     28  C   UNL A   1      40.935  29.740  29.700  1.00  0.00     0.074 A 
ATOM     29  C   UNL A   1      47.223  29.267  30.528  1.00  0.00     0.029 A 
ATOM     30  N   UNL A   1      45.078  28.838  30.107  1.00  0.00    -0.354 N 
ATOM     31  N   UNL A   1      42.225  29.547  29.841  1.00  0.00    -0.248 NA
ATOM     32  C   UNL A   1      40.471  31.062  30.142  1.00  0.00     0.031 C 
ATOM     33  C   UNL A   1      46.471  30.395  30.859  1.00  0.00     0.029 A 
ATOM     34  C   UNL A   1      45.138  30.141  30.569  1.00  0.00     0.049 A 
ATOM     35  H   UNL A   1      44.257  28.375  29.822  1.00  0.00     0.167 HD
ATOM     36  C   UNL A   1      42.730  30.725  30.375  1.00  0.00     0.074 A 
ATOM     37  C   UNL A   1      41.610  31.632  30.517  1.00  0.00     0.031 C 
ATOM     38  C   UNL A   1      44.008  31.024  30.717  1.00  0.00     0.031 A 
BRANCH  25  39
ATOM     39  C   UNL A   1      48.065  26.443  29.868  1.00  0.00    -0.014 A 
ATOM     40  C   UNL A   1      48.965  26.591  28.801  1.00  0.00     0.009 A 
ATOM     41  C   UNL A   1      48.498  25.787  31.032  1.00  0.00     0.009 A 
ATOM     42  C   UNL A   1      50.263  26.086  28.890  1.00  0.00     0.001 A 
ATOM     43  C   UNL A   1      49.808  25.314  31.133  1.00  0.00     0.001 A 
ATOM     44  C   UNL A   1      50.686  25.456  30.059  1.00  0.00     0.000 A 
ENDBRANCH  25  39
BRANCH  26  45
ATOM     45  C   UNL A   1      38.475  29.195  29.001  1.00  0.00    -0.014 A 
ATOM     46  C   UNL A   1      38.003  29.732  27.791  1.00  0.00     0.009 A 
ATOM     47  C   UNL A   1      37.607  29.139  30.101  1.00  0.00     0.009 A 
ATOM     48  C   UNL A   1      36.704  30.239  27.698  1.00  0.00     0.001 A 
ATOM     49  C   UNL A   1      36.299  29.622  29.997  1.00  0.00     0.001 A 
ATOM     50  C   UNL A   1      35.855  30.185  28.801  1.00  0.00     0.000 A 
ENDBRANCH  26  45
BRANCH  38  51
ATOM     51  C   UNL A   1      44.285  32.385  31.292  1.00  0.00    -0.014 A 
ATOM     52  C   UNL A   1      44.160  32.596  32.675  1.00  0.00     0.009 A 
ATOM     53  C   UNL A   1      44.525  33.484  30.453  1.00  0.00     0.009 A 
ATOM     54  C   UNL A   1      44.239  33.884  33.204  1.00  0.00     0.001 A 
ATOM     55  C   UNL A   1      44.635  34.768  30.990  1.00  0.00     0.001 A 
ATOM     56  C   UNL A   1      44.477  34.969  32.362  1.00  0.00     0.000 A 
ENDBRANCH  38  51
ENDBRANCH  12  13
ENDBRANCH   5   7
ENDBRANCH   2   3
ENDBRANCH   1   2
BRANCH   1  57
ATOM     57  C   UNL A   1      37.360  21.133  24.608  1.00  0.00     0.023 C 
BRANCH  57  58
ATOM     58  C   UNL A   1      36.263  21.413  25.635  1.00  0.00     0.116 C 
BRANCH  58  59
ATOM     59  N   UNL A   1      35.116  20.586  25.374  1.00  0.00    -0.351 N 
ATOM     60  C   UNL A   1      33.801  20.777  25.609  1.00  0.00     0.278 C 
ATOM     61  H   UNL A   1      35.329  19.724  24.948  1.00  0.00     0.163 HD
ATOM     62  O   UNL A   1      33.119  19.741  25.573  1.00  0.00    -0.268 OA
BRANCH  60  63
ATOM     63  C   UNL A   1      33.104  22.149  25.816  1.00  0.00     0.277 C 
ATOM     64  C   UNL A   1      33.869  23.505  25.829  1.00  0.00     0.109 C 
ATOM     65  N   UNL A   1      31.885  22.155  24.951  1.00  0.00    -0.327 N 
ATOM     66  C   UNL A   1      32.917  24.627  26.159  1.00  0.00    -0.024 C 
ATOM     67  C   UNL A   1      31.228  23.472  24.766  1.00  0.00     0.243 C 
ATOM     68  H   UNL A   1      31.203  21.522  25.367  1.00  0.00     0.347 HD
ATOM     69  H   UNL A   1      32.203  21.872  24.024  1.00  0.00     0.347 HD
ATOM     70  C   UNL A   1      33.046  25.944  26.288  1.00  0.00     0.002 A 
ATOM     71  C   UNL A   1      31.459  24.256  26.105  1.00  0.00     0.196 C 
ATOM     72  C   UNL A   1      34.101  26.900  26.174  1.00  0.00     0.010 A 
ATOM     73  C   UNL A   1      31.643  26.385  26.459  1.00  0.00     0.066 A 
ATOM     74  N   UNL A   1      30.695  25.511  26.295  1.00  0.00    -0.270 NA
ATOM     75  C   UNL A   1      33.811  28.201  26.364  1.00  0.00     0.001 A 
ATOM     76  C   UNL A   1      31.427  27.807  26.786  1.00  0.00     0.028 A 
ATOM     77  C   UNL A   1      32.478  28.640  26.748  1.00  0.00     0.002 A 
BRANCH  67  78
ATOM     78  C   UNL A   1      31.667  24.200  23.468  1.00  0.00     0.012 A 
ATOM     79  C   UNL A   1      32.645  23.705  22.583  1.00  0.00     0.010 A 
ATOM     80  C   UNL A   1      31.060  25.421  23.116  1.00  0.00     0.010 A 
ATOM     81  C   UNL A   1      33.031  24.422  21.441  1.00  0.00     0.001 A 
ATOM     82  C   UNL A   1      31.465  26.153  21.995  1.00  0.00     0.001 A 
ATOM     83  C   UNL A   1      32.454  25.655  21.158  1.00  0.00     0.000 A 
ENDBRANCH  67  78
ENDBRANCH  60  63
ENDBRANCH  58  59
ENDBRANCH  57  58
ENDBRANCH   1  57
TORSDOF 12
ENDMDL
MODEL 3
REMARK VINA RESULT:     -10.4      4.576     10.277
REMARK SMILES O=C(NCCCCNC(=O)[C@H]1CC2=c3ccccc3=N[C@H]2[C@@H](c2ccccc2)[NH2+]1)c1ccc(-c2c3nc(c(-c4ccccc4)c4ccc([nH]4)c(-c4ccccc4)c4nc(c(-c5ccccc5)c5ccc2[nH]5)C=C4)C=C3)cc1
REMARK SMILES IDX 5 1 4 2 3 3 1 4 2 5 30 7 31 8 77 9 32 10 76 11 33 12 34 13
REMARK SMILES IDX 35 14 70 15 36 16 75 17 69 18 71 19 37 20 74 21 68 22 67 23
REMARK SMILES IDX 38 25 60 26 45 27 59 28 46 29 49 30 58 31 72 32 47 33 48 34
REMARK SMILES IDX 57 36 73 37 50 38 39 39 40 40 44 41 41 42 43 43 42 44 61 45
REMARK SMILES IDX 62 46 66 47 63 48 65 49 64 50 51 51 52 52 56 53 53 54 55 55
REMARK SMILES IDX 54 56 6 57 7 58 8 59 9 60 10 62 11 63 12 64 29 65 13 66
REMARK SMILES IDX 22 67 14 70 21 71 15 72 19 73 20 74 16 75 18 76 17 77 23 78
REMARK SMILES IDX 24 79 28 80 25 81 27 82 26 83
REMARK H PARENT 3 6 71 24 49 35 8 61 29 68 29 69
REMARK Flexibility Score: inf
ROOT
ATOM      1  C   UNL A   1      38.088  19.959  24.902  1.00  0.00     0.023 C 
ENDROOT
BRANCH   1   2
ATOM      2  C   UNL A   1      39.101  20.096  26.035  1.00  0.00     0.116 C 
BRANCH   2   3
ATOM      3  N   UNL A   1      40.277  19.258  25.841  1.00  0.00    -0.352 N 
ATOM      4  O   UNL A   1      42.476  18.782  25.697  1.00  0.00    -0.269 OA
ATOM      5  C   UNL A   1      41.595  19.580  26.002  1.00  0.00     0.251 C 
ATOM      6  H   UNL A   1      40.096  18.333  25.554  1.00  0.00     0.163 HD
BRANCH   5   7
ATOM      7  C   UNL A   1      41.940  20.908  26.525  1.00  0.00     0.039 A 
ATOM      8  C   UNL A   1      42.267  21.918  25.620  1.00  0.00     0.014 A 
ATOM      9  C   UNL A   1      41.931  21.145  27.903  1.00  0.00     0.014 A 
ATOM     10  C   UNL A   1      42.573  23.187  26.101  1.00  0.00     0.010 A 
ATOM     11  C   UNL A   1      42.164  22.427  28.375  1.00  0.00     0.010 A 
ATOM     12  C   UNL A   1      42.516  23.447  27.480  1.00  0.00    -0.014 A 
BRANCH  12  13
ATOM     13  C   UNL A   1      42.896  24.770  28.016  1.00  0.00     0.031 A 
ATOM     14  C   UNL A   1      41.829  25.798  28.257  1.00  0.00     0.074 A 
ATOM     15  C   UNL A   1      44.190  25.051  28.247  1.00  0.00     0.049 A 
ATOM     16  N   UNL A   1      41.951  27.027  28.685  1.00  0.00    -0.248 NA
ATOM     17  C   UNL A   1      40.443  25.403  27.951  1.00  0.00     0.031 C 
ATOM     18  C   UNL A   1      45.305  24.130  28.027  1.00  0.00     0.029 A 
ATOM     19  N   UNL A   1      44.783  26.192  28.722  1.00  0.00    -0.354 N 
ATOM     20  C   UNL A   1      40.667  27.554  28.677  1.00  0.00     0.074 A 
ATOM     21  C   UNL A   1      39.788  26.537  28.150  1.00  0.00     0.031 C 
ATOM     22  C   UNL A   1      46.446  24.729  28.402  1.00  0.00     0.029 A 
ATOM     23  C   UNL A   1      46.147  26.088  28.847  1.00  0.00     0.049 A 
ATOM     24  H   UNL A   1      44.281  27.007  28.951  1.00  0.00     0.167 HD
ATOM     25  C   UNL A   1      40.258  28.771  29.099  1.00  0.00     0.031 A 
ATOM     26  C   UNL A   1      47.053  26.987  29.273  1.00  0.00     0.031 A 
ATOM     27  C   UNL A   1      41.143  29.760  29.649  1.00  0.00     0.049 A 
ATOM     28  C   UNL A   1      46.581  28.341  29.720  1.00  0.00     0.074 A 
ATOM     29  C   UNL A   1      40.820  30.996  30.180  1.00  0.00     0.029 A 
ATOM     30  N   UNL A   1      42.520  29.628  29.735  1.00  0.00    -0.354 N 
ATOM     31  N   UNL A   1      45.355  28.806  29.773  1.00  0.00    -0.248 NA
ATOM     32  C   UNL A   1      47.606  29.292  30.171  1.00  0.00     0.031 C 
ATOM     33  C   UNL A   1      42.010  31.641  30.521  1.00  0.00     0.029 A 
ATOM     34  C   UNL A   1      43.068  30.779  30.272  1.00  0.00     0.049 A 
ATOM     35  H   UNL A   1      43.031  28.833  29.457  1.00  0.00     0.167 HD
ATOM     36  C   UNL A   1      45.459  30.097  30.273  1.00  0.00     0.074 A 
ATOM     37  C   UNL A   1      46.866  30.336  30.524  1.00  0.00     0.031 C 
ATOM     38  C   UNL A   1      44.474  31.002  30.501  1.00  0.00     0.031 A 
BRANCH  25  39
ATOM     39  C   UNL A   1      38.796  29.103  28.981  1.00  0.00    -0.014 A 
ATOM     40  C   UNL A   1      38.297  29.631  27.779  1.00  0.00     0.009 A 
ATOM     41  C   UNL A   1      37.921  28.954  30.069  1.00  0.00     0.009 A 
ATOM     42  C   UNL A   1      36.958  30.009  27.670  1.00  0.00     0.001 A 
ATOM     43  C   UNL A   1      36.573  29.299  29.947  1.00  0.00     0.001 A 
ATOM     44  C   UNL A   1      36.095  29.834  28.751  1.00  0.00     0.000 A 
ENDBRANCH  25  39
BRANCH  26  45
ATOM     45  C   UNL A   1      48.485  26.591  29.331  1.00  0.00    -0.014 A 
ATOM     46  C   UNL A   1      49.021  26.007  30.492  1.00  0.00     0.009 A 
ATOM     47  C   UNL A   1      49.345  26.895  28.266  1.00  0.00     0.009 A 
ATOM     48  C   UNL A   1      50.393  25.772  30.598  1.00  0.00     0.001 A 
ATOM     49  C   UNL A   1      50.714  26.633  28.366  1.00  0.00     0.001 A 
ATOM     50  C   UNL A   1      51.239  26.086  29.537  1.00  0.00     0.000 A 
ENDBRANCH  26  45
BRANCH  38  51
ATOM     51  C   UNL A   1      44.865  32.349  31.042  1.00  0.00    -0.014 A 
ATOM     52  C   UNL A   1      44.866  32.570  32.429  1.00  0.00     0.009 A 
ATOM     53  C   UNL A   1      45.090  33.432  30.179  1.00  0.00     0.009 A 
ATOM     54  C   UNL A   1      45.052  33.854  32.941  1.00  0.00     0.001 A 
ATOM     55  C   UNL A   1      45.307  34.711  30.696  1.00  0.00     0.001 A 
ATOM     56  C   UNL A   1      45.273  34.923  32.074  1.00  0.00     0.000 A 
ENDBRANCH  38  51
ENDBRANCH  12  13
ENDBRANCH   5   7
ENDBRANCH   2   3
ENDBRANCH   1   2
BRANCH   1  57
ATOM     57  C   UNL A   1      37.241  21.212  24.648  1.00  0.00     0.023 C 
BRANCH  57  58
ATOM     58  C   UNL A   1      36.164  21.458  25.705  1.00  0.00     0.116 C 
BRANCH  58  59
ATOM     59  N   UNL A   1      35.007  20.649  25.432  1.00  0.00    -0.351 N 
ATOM     60  C   UNL A   1      33.692  20.863  25.651  1.00  0.00     0.278 C 
ATOM     61  H   UNL A   1      35.210  19.783  25.010  1.00  0.00     0.163 HD
ATOM     62  O   UNL A   1      32.994  19.839  25.609  1.00  0.00    -0.268 OA
BRANCH  60  63
ATOM     63  C   UNL A   1      33.017  22.247  25.848  1.00  0.00     0.277 C 
ATOM     64  C   UNL A   1      33.802  23.591  25.852  1.00  0.00     0.109 C 
ATOM     65  N   UNL A   1      31.798  22.265  24.982  1.00  0.00    -0.327 N 
ATOM     66  C   UNL A   1      32.867  24.729  26.173  1.00  0.00    -0.024 C 
ATOM     67  C   UNL A   1      31.161  23.590  24.788  1.00  0.00     0.243 C 
ATOM     68  H   UNL A   1      31.106  21.645  25.403  1.00  0.00     0.347 HD
ATOM     69  H   UNL A   1      32.112  21.971  24.057  1.00  0.00     0.347 HD
ATOM     70  C   UNL A   1      33.016  26.046  26.293  1.00  0.00     0.002 A 
ATOM     71  C   UNL A   1      31.403  24.380  26.121  1.00  0.00     0.196 C 
ATOM     72  C   UNL A   1      34.084  26.985  26.174  1.00  0.00     0.010 A 
ATOM     73  C   UNL A   1      31.620  26.509  26.460  1.00  0.00     0.066 A 
ATOM     74  N   UNL A   1      30.659  25.648  26.302  1.00  0.00    -0.270 NA
ATOM     75  C   UNL A   1      33.815  28.291  26.354  1.00  0.00     0.001 A 
ATOM     76  C   UNL A   1      31.425  27.936  26.777  1.00  0.00     0.028 A 
ATOM     77  C   UNL A   1      32.488  28.753  26.734  1.00  0.00     0.002 A 
BRANCH  67  78
ATOM     78  C   UNL A   1      31.612  24.303  23.485  1.00  0.00     0.012 A 
ATOM     79  C   UNL A   1      32.588  23.791  22.608  1.00  0.00     0.010 A 
ATOM     80  C   UNL A   1      31.017  25.526  23.119  1.00  0.00     0.010 A 
ATOM     81  C   UNL A   1      32.986  24.494  21.461  1.00  0.00     0.001 A 
ATOM     82  C   UNL A   1      31.433  26.244  21.993  1.00  0.00     0.001 A 
ATOM     83  C   UNL A   1      32.421  25.729  21.165  1.00  0.00     0.000 A 
ENDBRANCH  67  78
ENDBRANCH  60  63
ENDBRANCH  58  59
ENDBRANCH  57  58
ENDBRANCH   1  57
TORSDOF 12
ENDMDL
