MODEL 1
REMARK VINA RESULT:     -11.6      0.000      0.000
REMARK SMILES Cn1cc([C@@H]2CC(NCCCCNC(=O)c3ccc(-c4c5nc(c(-c6ccccc6)c6ccc([nH]6)c(-c6ccccc6)c6nc(c(-c7ccccc7)c7ccc4[nH]7)C=C6)C=C5)cc3)=[NH+]c3c2sc(C(=O)[O-])c3-c2ccc(Cl)cc2)cn1
REMARK SMILES IDX 11 1 10 2 9 3 8 4 5 5 6 6 66 7 7 8 65 9 67 10 64 11 72 12
REMARK SMILES IDX 68 13 4 16 1 17 2 18 3 19 81 20 80 21 73 22 74 23 79 24
REMARK SMILES IDX 75 25 78 26 76 27 77 28 69 29 70 30 71 31 12 32 13 33 14 34
REMARK SMILES IDX 15 36 16 37 17 38 63 39 18 40 62 41 19 42 20 43 21 44 56 45
REMARK SMILES IDX 22 46 61 47 55 48 57 49 23 50 60 51 54 52 53 53 24 55 46 56
REMARK SMILES IDX 31 57 45 58 32 59 35 60 44 61 58 62 33 63 34 64 43 66 59 67
REMARK SMILES IDX 36 68 25 69 26 70 30 71 27 72 29 73 28 74 47 75 48 76 52 77
REMARK SMILES IDX 49 78 51 79 50 80 37 81 38 82 42 83 39 84 41 85 40 86
REMARK H PARENT 8 14 64 15 13 35 57 54 35 65
REMARK Flexibility Score: inf
ROOT
ATOM      1  C   UNL A   1      35.398  31.502  27.769  1.00  0.00     0.025 C 
ENDROOT
BRANCH   1   2
ATOM      2  C   UNL A   1      36.112  30.151  27.626  1.00  0.00     0.048 C 
BRANCH   2   3
ATOM      3  C   UNL A   1      35.419  29.106  26.747  1.00  0.00     0.233 C 
BRANCH   3   4
ATOM      4  N   UNL A   1      34.073  29.520  26.382  1.00  0.00    -0.278 N 
ATOM      5  C   UNL A   1      30.690  28.392  24.923  1.00  0.00     0.079 C 
ATOM      6  C   UNL A   1      31.743  29.286  25.597  1.00  0.00     0.142 C 
ATOM      7  C   UNL A   1      31.197  26.999  24.780  1.00  0.00     0.061 A 
ATOM      8  C   UNL A   1      33.124  28.667  25.846  1.00  0.00     0.248 C 
ATOM      9  C   UNL A   1      32.454  26.585  25.105  1.00  0.00     0.147 A 
ATOM     10  S   UNL A   1      30.257  25.713  24.187  1.00  0.00    -0.133 S 
ATOM     11  N   UNL A   1      33.439  27.424  25.623  1.00  0.00    -0.243 N 
ATOM     12  C   UNL A   1      32.693  25.196  24.861  1.00  0.00     0.049 A 
ATOM     13  C   UNL A   1      31.562  24.584  24.322  1.00  0.00     0.062 A 
ATOM     14  H   UNL A   1      33.822  30.460  26.524  1.00  0.00     0.304 HD
ATOM     15  H   UNL A   1      34.343  27.087  25.815  1.00  0.00     0.312 HD
BRANCH   5  16
ATOM     16  C   UNL A   1      30.218  28.948  23.609  1.00  0.00    -0.001 A 
ATOM     17  C   UNL A   1      28.081  30.656  21.261  1.00  0.00     0.173 C 
ATOM     18  N   UNL A   1      29.083  29.934  22.005  1.00  0.00    -0.276 N 
ATOM     19  C   UNL A   1      28.977  29.460  23.279  1.00  0.00     0.112 A 
ATOM     20  N   UNL A   1      30.285  29.704  21.448  1.00  0.00    -0.182 NA
ATOM     21  C   UNL A   1      30.981  29.130  22.431  1.00  0.00     0.139 A 
ENDBRANCH   5  16
BRANCH  12  22
ATOM     22  C   UNL A   1      33.937  24.499  25.171  1.00  0.00    -0.012 A 
ATOM     23  C   UNL A   1      34.136  23.872  26.407  1.00  0.00     0.010 A 
ATOM     24  C   UNL A   1      34.943  24.433  24.196  1.00  0.00     0.010 A 
ATOM     25  C   UNL A   1      35.350  23.237  26.684  1.00  0.00     0.021 A 
ATOM     26  C   UNL A   1      36.151  23.786  24.467  1.00  0.00     0.021 A 
ATOM     27  C   UNL A   1      36.354  23.204  25.715  1.00  0.00     0.041 A 
ATOM     28  Cl  UNL A   1      37.855  22.440  26.065  1.00  0.00    -0.084 Cl
ENDBRANCH  12  22
BRANCH  13  29
ATOM     29  C   UNL A   1      31.281  23.229  23.892  1.00  0.00     0.082 C 
ATOM     30  O   UNL A   1      31.417  22.744  22.773  1.00  0.00    -0.544 OA
ATOM     31  O   UNL A   1      30.809  22.439  24.879  1.00  0.00    -0.544 OA
ENDBRANCH  13  29
ENDBRANCH   3   4
ENDBRANCH   2   3
ENDBRANCH   1   2
BRANCH   1  32
ATOM     32  C   UNL A   1      36.174  32.564  28.537  1.00  0.00     0.116 C 
BRANCH  32  33
ATOM     33  N   UNL A   1      35.590  32.890  29.837  1.00  0.00    -0.352 N 
ATOM     34  C   UNL A   1      35.704  32.172  31.015  1.00  0.00     0.251 C 
ATOM     35  H   UNL A   1      35.054  33.714  29.880  1.00  0.00     0.163 HD
ATOM     36  O   UNL A   1      34.884  32.293  31.916  1.00  0.00    -0.269 OA
BRANCH  34  37
ATOM     37  C   UNL A   1      36.845  31.252  31.167  1.00  0.00     0.039 A 
ATOM     38  C   UNL A   1      36.684  29.865  31.116  1.00  0.00     0.014 A 
ATOM     39  C   UNL A   1      38.109  31.816  31.319  1.00  0.00     0.014 A 
ATOM     40  C   UNL A   1      37.819  29.056  31.125  1.00  0.00     0.010 A 
ATOM     41  C   UNL A   1      39.225  31.033  31.172  1.00  0.00     0.010 A 
ATOM     42  C   UNL A   1      39.092  29.649  31.124  1.00  0.00    -0.014 A 
BRANCH  42  43
ATOM     43  C   UNL A   1      40.296  28.842  30.937  1.00  0.00     0.031 A 
ATOM     44  C   UNL A   1      41.090  28.617  32.177  1.00  0.00     0.074 A 
ATOM     45  C   UNL A   1      40.561  28.151  29.805  1.00  0.00     0.049 A 
ATOM     46  N   UNL A   1      42.277  29.049  32.440  1.00  0.00    -0.248 NA
ATOM     47  C   UNL A   1      40.437  27.933  33.307  1.00  0.00     0.031 C 
ATOM     48  C   UNL A   1      39.715  28.015  28.610  1.00  0.00     0.029 A 
ATOM     49  N   UNL A   1      41.598  27.312  29.529  1.00  0.00    -0.354 N 
ATOM     50  C   UNL A   1      42.610  28.517  33.683  1.00  0.00     0.074 A 
ATOM     51  C   UNL A   1      41.388  27.999  34.243  1.00  0.00     0.031 C 
ATOM     52  C   UNL A   1      40.143  26.973  27.865  1.00  0.00     0.029 A 
ATOM     53  C   UNL A   1      41.393  26.494  28.422  1.00  0.00     0.049 A 
ATOM     54  H   UNL A   1      42.422  27.286  30.066  1.00  0.00     0.167 HD
ATOM     55  C   UNL A   1      43.909  28.300  34.031  1.00  0.00     0.031 A 
ATOM     56  C   UNL A   1      42.187  25.486  27.988  1.00  0.00     0.031 A 
ATOM     57  C   UNL A   1      44.816  28.998  33.156  1.00  0.00     0.049 A 
ATOM     58  C   UNL A   1      43.523  25.691  28.582  1.00  0.00     0.074 A 
ATOM     59  C   UNL A   1      45.037  30.317  32.818  1.00  0.00     0.029 A 
ATOM     60  N   UNL A   1      45.410  28.246  32.171  1.00  0.00    -0.354 N 
ATOM     61  N   UNL A   1      44.302  26.684  28.268  1.00  0.00    -0.248 NA
ATOM     62  C   UNL A   1      43.833  25.025  29.835  1.00  0.00     0.031 C 
ATOM     63  C   UNL A   1      45.348  30.294  31.425  1.00  0.00     0.029 A 
ATOM     64  C   UNL A   1      45.372  28.962  31.005  1.00  0.00     0.049 A 
ATOM     65  H   UNL A   1      45.797  27.348  32.284  1.00  0.00     0.167 HD
ATOM     66  C   UNL A   1      44.888  27.059  29.466  1.00  0.00     0.074 A 
ATOM     67  C   UNL A   1      44.670  25.924  30.361  1.00  0.00     0.031 C 
ATOM     68  C   UNL A   1      45.236  28.360  29.696  1.00  0.00     0.031 A 
BRANCH  55  69
ATOM     69  C   UNL A   1      44.361  27.104  34.840  1.00  0.00    -0.014 A 
ATOM     70  C   UNL A   1      44.138  25.814  34.319  1.00  0.00     0.009 A 
ATOM     71  C   UNL A   1      44.710  27.179  36.202  1.00  0.00     0.009 A 
ATOM     72  C   UNL A   1      44.180  24.680  35.139  1.00  0.00     0.001 A 
ATOM     73  C   UNL A   1      44.795  26.044  37.013  1.00  0.00     0.001 A 
ATOM     74  C   UNL A   1      44.499  24.796  36.488  1.00  0.00     0.000 A 
ENDBRANCH  55  69
BRANCH  56  75
ATOM     75  C   UNL A   1      41.832  24.245  27.272  1.00  0.00    -0.014 A 
ATOM     76  C   UNL A   1      42.459  23.907  26.062  1.00  0.00     0.009 A 
ATOM     77  C   UNL A   1      41.082  23.250  27.925  1.00  0.00     0.009 A 
ATOM     78  C   UNL A   1      42.374  22.606  25.547  1.00  0.00     0.001 A 
ATOM     79  C   UNL A   1      40.998  21.951  27.410  1.00  0.00     0.001 A 
ATOM     80  C   UNL A   1      41.657  21.625  26.229  1.00  0.00     0.000 A 
ENDBRANCH  56  75
BRANCH  68  81
ATOM     81  C   UNL A   1      45.246  29.302  28.514  1.00  0.00    -0.014 A 
ATOM     82  C   UNL A   1      44.114  30.009  28.073  1.00  0.00     0.009 A 
ATOM     83  C   UNL A   1      46.480  29.578  27.907  1.00  0.00     0.009 A 
ATOM     84  C   UNL A   1      44.212  30.940  27.030  1.00  0.00     0.001 A 
ATOM     85  C   UNL A   1      46.582  30.522  26.883  1.00  0.00     0.001 A 
ATOM     86  C   UNL A   1      45.447  31.198  26.440  1.00  0.00     0.000 A 
ENDBRANCH  68  81
ENDBRANCH  42  43
ENDBRANCH  34  37
ENDBRANCH  32  33
ENDBRANCH   1  32
TORSDOF 13
ENDMDL
MODEL 2
REMARK VINA RESULT:     -11.1      3.579      8.436
REMARK SMILES Cn1cc([C@@H]2CC(NCCCCNC(=O)c3ccc(-c4c5nc(c(-c6ccccc6)c6ccc([nH]6)c(-c6ccccc6)c6nc(c(-c7ccccc7)c7ccc4[nH]7)C=C6)C=C5)cc3)=[NH+]c3c2sc(C(=O)[O-])c3-c2ccc(Cl)cc2)cn1
REMARK SMILES IDX 11 1 10 2 9 3 8 4 5 5 6 6 66 7 7 8 65 9 67 10 64 11 72 12
REMARK SMILES IDX 68 13 4 16 1 17 2 18 3 19 81 20 80 21 73 22 74 23 79 24
REMARK SMILES IDX 75 25 78 26 76 27 77 28 69 29 70 30 71 31 12 32 13 33 14 34
REMARK SMILES IDX 15 36 16 37 17 38 63 39 18 40 62 41 19 42 20 43 21 44 56 45
REMARK SMILES IDX 22 46 61 47 55 48 57 49 23 50 60 51 54 52 53 53 24 55 46 56
REMARK SMILES IDX 31 57 45 58 32 59 35 60 44 61 58 62 33 63 34 64 43 66 59 67
REMARK SMILES IDX 36 68 25 69 26 70 30 71 27 72 29 73 28 74 47 75 48 76 52 77
REMARK SMILES IDX 49 78 51 79 50 80 37 81 38 82 42 83 39 84 41 85 40 86
REMARK H PARENT 8 14 64 15 13 35 57 54 35 65
REMARK Flexibility Score: inf
ROOT
ATOM      1  C   UNL A   1      39.982  22.747  26.781  1.00  0.00     0.025 C 
ENDROOT
BRANCH   1   2
ATOM      2  C   UNL A   1      39.182  23.993  27.187  1.00  0.00     0.048 C 
BRANCH   2   3
ATOM      3  C   UNL A   1      37.709  24.019  26.770  1.00  0.00     0.233 C 
BRANCH   3   4
ATOM      4  N   UNL A   1      37.312  22.779  26.122  1.00  0.00    -0.278 N 
ATOM      5  C   UNL A   1      34.594  21.011  24.041  1.00  0.00     0.079 C 
ATOM      6  C   UNL A   1      35.934  21.252  24.755  1.00  0.00     0.142 C 
ATOM      7  C   UNL A   1      33.782  22.259  24.010  1.00  0.00     0.061 A 
ATOM      8  C   UNL A   1      36.129  22.619  25.422  1.00  0.00     0.248 C 
ATOM      9  C   UNL A   1      34.124  23.431  24.614  1.00  0.00     0.147 A 
ATOM     10  S   UNL A   1      32.296  22.393  23.197  1.00  0.00    -0.133 S 
ATOM     11  N   UNL A   1      35.296  23.616  25.346  1.00  0.00    -0.243 N 
ATOM     12  C   UNL A   1      33.164  24.478  24.442  1.00  0.00     0.049 A 
ATOM     13  C   UNL A   1      32.074  24.037  23.694  1.00  0.00     0.062 A 
ATOM     14  H   UNL A   1      37.920  22.008  26.185  1.00  0.00     0.304 HD
ATOM     15  H   UNL A   1      35.486  24.472  25.791  1.00  0.00     0.312 HD
BRANCH   5  16
ATOM     16  C   UNL A   1      33.824  19.863  24.634  1.00  0.00    -0.001 A 
ATOM     17  C   UNL A   1      32.783  16.459  25.204  1.00  0.00     0.173 C 
ATOM     18  N   UNL A   1      33.028  17.879  25.145  1.00  0.00    -0.276 N 
ATOM     19  C   UNL A   1      33.775  18.545  24.220  1.00  0.00     0.112 A 
ATOM     20  N   UNL A   1      32.522  18.680  26.099  1.00  0.00    -0.182 NA
ATOM     21  C   UNL A   1      33.028  19.878  25.804  1.00  0.00     0.139 A 
ENDBRANCH   5  16
BRANCH  12  22
ATOM     22  C   UNL A   1      33.319  25.839  24.947  1.00  0.00    -0.012 A 
ATOM     23  C   UNL A   1      32.934  26.185  26.248  1.00  0.00     0.010 A 
ATOM     24  C   UNL A   1      33.891  26.814  24.116  1.00  0.00     0.010 A 
ATOM     25  C   UNL A   1      33.069  27.503  26.692  1.00  0.00     0.021 A 
ATOM     26  C   UNL A   1      34.038  28.128  24.564  1.00  0.00     0.021 A 
ATOM     27  C   UNL A   1      33.613  28.469  25.845  1.00  0.00     0.041 A 
ATOM     28  Cl  UNL A   1      33.758  30.096  26.386  1.00  0.00    -0.084 Cl
ENDBRANCH  12  22
BRANCH  13  29
ATOM     29  C   UNL A   1      30.852  24.677  23.253  1.00  0.00     0.082 C 
ATOM     30  O   UNL A   1      30.666  25.863  23.000  1.00  0.00    -0.544 OA
ATOM     31  O   UNL A   1      29.815  23.824  23.122  1.00  0.00    -0.544 OA
ENDBRANCH  13  29
ENDBRANCH   3   4
ENDBRANCH   2   3
ENDBRANCH   1   2
BRANCH   1  32
ATOM     32  C   UNL A   1      41.331  22.595  27.470  1.00  0.00     0.116 C 
BRANCH  32  33
ATOM     33  N   UNL A   1      42.467  22.927  26.612  1.00  0.00    -0.352 N 
ATOM     34  C   UNL A   1      42.846  24.182  26.165  1.00  0.00     0.251 C 
ATOM     35  H   UNL A   1      43.027  22.173  26.318  1.00  0.00     0.163 HD
ATOM     36  O   UNL A   1      43.537  24.319  25.164  1.00  0.00    -0.269 OA
BRANCH  34  37
ATOM     37  C   UNL A   1      42.400  25.361  26.928  1.00  0.00     0.039 A 
ATOM     38  C   UNL A   1      42.944  25.679  28.176  1.00  0.00     0.014 A 
ATOM     39  C   UNL A   1      41.442  26.182  26.341  1.00  0.00     0.014 A 
ATOM     40  C   UNL A   1      42.583  26.882  28.779  1.00  0.00     0.010 A 
ATOM     41  C   UNL A   1      41.207  27.431  26.858  1.00  0.00     0.010 A 
ATOM     42  C   UNL A   1      41.732  27.770  28.099  1.00  0.00    -0.014 A 
BRANCH  42  43
ATOM     43  C   UNL A   1      41.489  29.117  28.612  1.00  0.00     0.031 A 
ATOM     44  C   UNL A   1      42.547  30.109  28.273  1.00  0.00     0.074 A 
ATOM     45  C   UNL A   1      40.308  29.510  29.141  1.00  0.00     0.049 A 
ATOM     46  N   UNL A   1      43.350  30.710  29.085  1.00  0.00    -0.248 NA
ATOM     47  C   UNL A   1      42.828  30.371  26.851  1.00  0.00     0.031 C 
ATOM     48  C   UNL A   1      39.064  28.736  29.249  1.00  0.00     0.029 A 
ATOM     49  N   UNL A   1      39.929  30.741  29.585  1.00  0.00    -0.354 N 
ATOM     50  C   UNL A   1      44.098  31.587  28.304  1.00  0.00     0.074 A 
ATOM     51  C   UNL A   1      43.866  31.207  26.934  1.00  0.00     0.031 C 
ATOM     52  C   UNL A   1      38.027  29.570  29.486  1.00  0.00     0.029 A 
ATOM     53  C   UNL A   1      38.555  30.896  29.735  1.00  0.00     0.049 A 
ATOM     54  H   UNL A   1      40.572  31.460  29.782  1.00  0.00     0.167 HD
ATOM     55  C   UNL A   1      44.629  32.725  28.833  1.00  0.00     0.031 A 
ATOM     56  C   UNL A   1      37.886  32.036  30.037  1.00  0.00     0.031 A 
ATOM     57  C   UNL A   1      44.629  32.690  30.273  1.00  0.00     0.049 A 
ATOM     58  C   UNL A   1      38.857  32.970  30.640  1.00  0.00     0.074 A 
ATOM     59  C   UNL A   1      45.188  31.877  31.237  1.00  0.00     0.029 A 
ATOM     60  N   UNL A   1      43.624  33.389  30.898  1.00  0.00    -0.354 N 
ATOM     61  N   UNL A   1      39.416  32.774  31.797  1.00  0.00    -0.248 NA
ATOM     62  C   UNL A   1      39.529  33.923  29.774  1.00  0.00     0.031 C 
ATOM     63  C   UNL A   1      44.202  31.792  32.266  1.00  0.00     0.029 A 
ATOM     64  C   UNL A   1      43.128  32.612  31.910  1.00  0.00     0.049 A 
ATOM     65  H   UNL A   1      43.315  34.293  30.659  1.00  0.00     0.167 HD
ATOM     66  C   UNL A   1      40.722  33.206  31.632  1.00  0.00     0.074 A 
ATOM     67  C   UNL A   1      40.694  34.024  30.420  1.00  0.00     0.031 C 
ATOM     68  C   UNL A   1      41.743  32.624  32.328  1.00  0.00     0.031 A 
BRANCH  55  69
ATOM     69  C   UNL A   1      44.702  34.033  28.078  1.00  0.00    -0.014 A 
ATOM     70  C   UNL A   1      45.901  34.772  28.122  1.00  0.00     0.009 A 
ATOM     71  C   UNL A   1      43.567  34.707  27.588  1.00  0.00     0.009 A 
ATOM     72  C   UNL A   1      45.935  36.128  27.776  1.00  0.00     0.001 A 
ATOM     73  C   UNL A   1      43.607  36.050  27.202  1.00  0.00     0.001 A 
ATOM     74  C   UNL A   1      44.786  36.770  27.325  1.00  0.00     0.000 A 
ENDBRANCH  55  69
BRANCH  56  75
ATOM     75  C   UNL A   1      36.524  32.460  29.657  1.00  0.00    -0.014 A 
ATOM     76  C   UNL A   1      35.577  32.803  30.635  1.00  0.00     0.009 A 
ATOM     77  C   UNL A   1      36.245  32.804  28.322  1.00  0.00     0.009 A 
ATOM     78  C   UNL A   1      34.413  33.505  30.294  1.00  0.00     0.001 A 
ATOM     79  C   UNL A   1      35.083  33.505  27.982  1.00  0.00     0.001 A 
ATOM     80  C   UNL A   1      34.174  33.870  28.971  1.00  0.00     0.000 A 
ENDBRANCH  56  75
BRANCH  68  81
ATOM     81  C   UNL A   1      41.379  31.726  33.487  1.00  0.00    -0.014 A 
ATOM     82  C   UNL A   1      41.082  30.358  33.349  1.00  0.00     0.009 A 
ATOM     83  C   UNL A   1      41.464  32.259  34.781  1.00  0.00     0.009 A 
ATOM     84  C   UNL A   1      40.845  29.559  34.474  1.00  0.00     0.001 A 
ATOM     85  C   UNL A   1      41.250  31.457  35.904  1.00  0.00     0.001 A 
ATOM     86  C   UNL A   1      40.934  30.109  35.751  1.00  0.00     0.000 A 
ENDBRANCH  68  81
ENDBRANCH  42  43
ENDBRANCH  34  37
ENDBRANCH  32  33
ENDBRANCH   1  32
TORSDOF 13
ENDMDL
MODEL 3
REMARK VINA RESULT:     -10.8      5.322      9.451
REMARK SMILES Cn1cc([C@@H]2CC(NCCCCNC(=O)c3ccc(-c4c5nc(c(-c6ccccc6)c6ccc([nH]6)c(-c6ccccc6)c6nc(c(-c7ccccc7)c7ccc4[nH]7)C=C6)C=C5)cc3)=[NH+]c3c2sc(C(=O)[O-])c3-c2ccc(Cl)cc2)cn1
REMARK SMILES IDX 11 1 10 2 9 3 8 4 5 5 6 6 66 7 7 8 65 9 67 10 64 11 72 12
REMARK SMILES IDX 68 13 4 16 1 17 2 18 3 19 81 20 80 21 73 22 74 23 79 24
REMARK SMILES IDX 75 25 78 26 76 27 77 28 69 29 70 30 71 31 12 32 13 33 14 34
REMARK SMILES IDX 15 36 16 37 17 38 63 39 18 40 62 41 19 42 20 43 21 44 56 45
REMARK SMILES IDX 22 46 61 47 55 48 57 49 23 50 60 51 54 52 53 53 24 55 46 56
REMARK SMILES IDX 31 57 45 58 32 59 35 60 44 61 58 62 33 63 34 64 43 66 59 67
REMARK SMILES IDX 36 68 25 69 26 70 30 71 27 72 29 73 28 74 47 75 48 76 52 77
REMARK SMILES IDX 49 78 51 79 50 80 37 81 38 82 42 83 39 84 41 85 40 86
REMARK H PARENT 8 14 64 15 13 35 57 54 35 65
REMARK Flexibility Score: inf
ROOT
ATOM      1  C   UNL A   1      35.517  32.206  32.611  1.00  0.00     0.025 C 
ENDROOT
BRANCH   1   2
ATOM      2  C   UNL A   1      36.693  31.221  32.655  1.00  0.00     0.048 C 
BRANCH   2   3
ATOM      3  C   UNL A   1      38.046  31.798  33.079  1.00  0.00     0.233 C 
BRANCH   3   4
ATOM      4  N   UNL A   1      38.958  31.911  31.951  1.00  0.00    -0.278 N 
ATOM      5  C   UNL A   1      42.172  33.566  30.620  1.00  0.00     0.079 C 
ATOM      6  C   UNL A   1      40.955  32.631  30.688  1.00  0.00     0.142 C 
ATOM      7  C   UNL A   1      42.361  34.279  31.913  1.00  0.00     0.061 A 
ATOM      8  C   UNL A   1      40.090  32.708  31.952  1.00  0.00     0.248 C 
ATOM      9  C   UNL A   1      41.521  34.199  32.982  1.00  0.00     0.147 A 
ATOM     10  S   UNL A   1      43.679  35.303  32.238  1.00  0.00    -0.133 S 
ATOM     11  N   UNL A   1      40.362  33.425  33.003  1.00  0.00    -0.243 N 
ATOM     12  C   UNL A   1      41.924  34.992  34.103  1.00  0.00     0.049 A 
ATOM     13  C   UNL A   1      43.099  35.687  33.824  1.00  0.00     0.062 A 
ATOM     14  H   UNL A   1      38.759  31.392  31.140  1.00  0.00     0.304 HD
ATOM     15  H   UNL A   1      39.768  33.423  33.788  1.00  0.00     0.312 HD
BRANCH   5  16
ATOM     16  C   UNL A   1      42.099  34.525  29.464  1.00  0.00    -0.001 A 
ATOM     17  C   UNL A   1      43.053  36.165  26.398  1.00  0.00     0.173 C 
ATOM     18  N   UNL A   1      42.479  35.664  27.622  1.00  0.00    -0.276 N 
ATOM     19  C   UNL A   1      43.064  34.821  28.519  1.00  0.00     0.112 A 
ATOM     20  N   UNL A   1      41.219  36.000  27.950  1.00  0.00    -0.182 NA
ATOM     21  C   UNL A   1      40.980  35.287  29.052  1.00  0.00     0.139 A 
ENDBRANCH   5  16
BRANCH  12  22
ATOM     22  C   UNL A   1      41.224  35.040  35.383  1.00  0.00    -0.012 A 
ATOM     23  C   UNL A   1      40.274  36.031  35.660  1.00  0.00     0.010 A 
ATOM     24  C   UNL A   1      41.489  34.053  36.343  1.00  0.00     0.010 A 
ATOM     25  C   UNL A   1      39.642  36.067  36.906  1.00  0.00     0.021 A 
ATOM     26  C   UNL A   1      40.847  34.080  37.583  1.00  0.00     0.021 A 
ATOM     27  C   UNL A   1      39.937  35.096  37.863  1.00  0.00     0.041 A 
ATOM     28  Cl  UNL A   1      39.173  35.154  39.404  1.00  0.00    -0.084 Cl
ENDBRANCH  12  22
BRANCH  13  29
ATOM     29  C   UNL A   1      43.905  36.616  34.590  1.00  0.00     0.082 C 
ATOM     30  O   UNL A   1      43.542  37.384  35.476  1.00  0.00    -0.544 OA
ATOM     31  O   UNL A   1      45.211  36.600  34.252  1.00  0.00    -0.544 OA
ENDBRANCH  13  29
ENDBRANCH   3   4
ENDBRANCH   2   3
ENDBRANCH   1   2
BRANCH   1  32
ATOM     32  C   UNL A   1      35.416  33.034  31.336  1.00  0.00     0.116 C 
BRANCH  32  33
ATOM     33  N   UNL A   1      34.448  32.510  30.374  1.00  0.00    -0.352 N 
ATOM     34  C   UNL A   1      34.713  31.831  29.198  1.00  0.00     0.251 C 
ATOM     35  H   UNL A   1      33.498  32.656  30.588  1.00  0.00     0.163 HD
ATOM     36  O   UNL A   1      33.893  31.788  28.289  1.00  0.00    -0.269 OA
BRANCH  34  37
ATOM     37  C   UNL A   1      36.013  31.151  29.059  1.00  0.00     0.039 A 
ATOM     38  C   UNL A   1      37.184  31.855  28.767  1.00  0.00     0.014 A 
ATOM     39  C   UNL A   1      36.045  29.777  29.274  1.00  0.00     0.014 A 
ATOM     40  C   UNL A   1      38.400  31.175  28.790  1.00  0.00     0.010 A 
ATOM     41  C   UNL A   1      37.249  29.143  29.448  1.00  0.00     0.010 A 
ATOM     42  C   UNL A   1      38.429  29.820  29.160  1.00  0.00    -0.014 A 
BRANCH  42  43
ATOM     43  C   UNL A   1      39.698  29.129  29.383  1.00  0.00     0.031 A 
ATOM     44  C   UNL A   1      39.989  28.814  30.809  1.00  0.00     0.074 A 
ATOM     45  C   UNL A   1      40.443  28.602  28.385  1.00  0.00     0.049 A 
ATOM     46  N   UNL A   1      40.935  29.294  31.544  1.00  0.00    -0.248 NA
ATOM     47  C   UNL A   1      39.043  27.953  31.540  1.00  0.00     0.031 C 
ATOM     48  C   UNL A   1      40.127  28.551  26.951  1.00  0.00     0.029 A 
ATOM     49  N   UNL A   1      41.596  27.879  28.459  1.00  0.00    -0.354 N 
ATOM     50  C   UNL A   1      40.836  28.642  32.769  1.00  0.00     0.074 A 
ATOM     51  C   UNL A   1      39.560  27.973  32.770  1.00  0.00     0.031 C 
ATOM     52  C   UNL A   1      40.918  27.641  26.342  1.00  0.00     0.029 A 
ATOM     53  C   UNL A   1      41.913  27.189  27.294  1.00  0.00     0.049 A 
ATOM     54  H   UNL A   1      42.156  27.848  29.268  1.00  0.00     0.167 HD
ATOM     55  C   UNL A   1      41.926  28.477  33.570  1.00  0.00     0.031 A 
ATOM     56  C   UNL A   1      42.920  26.300  27.115  1.00  0.00     0.031 A 
ATOM     57  C   UNL A   1      43.010  29.340  33.174  1.00  0.00     0.049 A 
ATOM     58  C   UNL A   1      43.905  26.527  28.192  1.00  0.00     0.074 A 
ATOM     59  C   UNL A   1      43.191  30.703  33.060  1.00  0.00     0.029 A 
ATOM     60  N   UNL A   1      44.010  28.758  32.433  1.00  0.00    -0.354 N 
ATOM     61  N   UNL A   1      44.627  27.605  28.287  1.00  0.00    -0.248 NA
ATOM     62  C   UNL A   1      43.796  25.738  29.406  1.00  0.00     0.031 C 
ATOM     63  C   UNL A   1      44.001  30.871  31.896  1.00  0.00     0.029 A 
ATOM     64  C   UNL A   1      44.331  29.605  31.406  1.00  0.00     0.049 A 
ATOM     65  H   UNL A   1      44.425  27.883  32.610  1.00  0.00     0.167 HD
ATOM     66  C   UNL A   1      44.676  27.873  29.645  1.00  0.00     0.074 A 
ATOM     67  C   UNL A   1      44.268  26.625  30.288  1.00  0.00     0.031 C 
ATOM     68  C   UNL A   1      44.763  29.158  30.100  1.00  0.00     0.031 A 
BRANCH  55  69
ATOM     69  C   UNL A   1      42.173  27.228  34.386  1.00  0.00    -0.014 A 
ATOM     70  C   UNL A   1      41.755  27.207  35.731  1.00  0.00     0.009 A 
ATOM     71  C   UNL A   1      43.056  26.207  33.987  1.00  0.00     0.009 A 
ATOM     72  C   UNL A   1      42.261  26.267  36.638  1.00  0.00     0.001 A 
ATOM     73  C   UNL A   1      43.530  25.242  34.880  1.00  0.00     0.001 A 
ATOM     74  C   UNL A   1      43.156  25.291  36.214  1.00  0.00     0.000 A 
ENDBRANCH  55  69
BRANCH  56  75
ATOM     75  C   UNL A   1      43.002  25.133  26.215  1.00  0.00    -0.014 A 
ATOM     76  C   UNL A   1      44.030  25.025  25.266  1.00  0.00     0.009 A 
ATOM     77  C   UNL A   1      42.232  23.987  26.484  1.00  0.00     0.009 A 
ATOM     78  C   UNL A   1      44.307  23.801  24.641  1.00  0.00     0.001 A 
ATOM     79  C   UNL A   1      42.509  22.766  25.860  1.00  0.00     0.001 A 
ATOM     80  C   UNL A   1      43.557  22.669  24.950  1.00  0.00     0.000 A 
ENDBRANCH  56  75
BRANCH  68  81
ATOM     81  C   UNL A   1      45.109  30.234  29.098  1.00  0.00    -0.014 A 
ATOM     82  C   UNL A   1      46.428  30.600  28.772  1.00  0.00     0.009 A 
ATOM     83  C   UNL A   1      44.061  30.809  28.365  1.00  0.00     0.009 A 
ATOM     84  C   UNL A   1      46.683  31.539  27.765  1.00  0.00     0.001 A 
ATOM     85  C   UNL A   1      44.316  31.729  27.345  1.00  0.00     0.001 A 
ATOM     86  C   UNL A   1      45.626  32.099  27.049  1.00  0.00     0.000 A 
ENDBRANCH  68  81
ENDBRANCH  42  43
ENDBRANCH  34  37
ENDBRANCH  32  33
ENDBRANCH   1  32
TORSDOF 13
ENDMDL
