MODEL 1
REMARK VINA RESULT:     -11.3      0.000      0.000
REMARK SMILES Cc1cc(C(=O)NC[C@@H]2CC[C@H](C(=O)NCCCCNC(=O)c3ccc(-c4c5nc(c(-c6ccccc6)c6ccc([nH]6)c(-c6ccccc6)c6nc(c(-c7ccccc7)c7ccc4[nH]7)C=C6)C=C5)cc3)O2)on1
REMARK SMILES IDX 17 1 16 2 15 3 13 4 14 5 12 7 9 8 10 9 71 10 11 11 8 12 7 13
REMARK SMILES IDX 5 14 6 15 4 17 1 18 2 19 3 20 73 21 72 22 18 23 19 24 20 25
REMARK SMILES IDX 21 26 22 28 23 29 24 30 70 31 25 32 69 33 26 34 27 35 28 36
REMARK SMILES IDX 63 37 29 38 68 39 62 40 64 41 30 42 67 43 61 44 60 45 31 47
REMARK SMILES IDX 53 48 38 49 52 50 39 51 42 52 51 53 65 54 40 55 41 56 50 58
REMARK SMILES IDX 66 59 43 60 32 61 33 62 37 63 34 64 36 65 35 66 54 67 55 68
REMARK SMILES IDX 59 69 56 70 58 71 57 72 44 73 45 74 49 75 46 76 48 77 47 78
REMARK H PARENT 15 6 7 16 20 27 64 46 42 57
REMARK Flexibility Score: inf
ROOT
ATOM      1  C   UNL A   1      32.046  30.659  26.280  1.00  0.00     0.023 C 
ENDROOT
BRANCH   1   2
ATOM      2  C   UNL A   1      32.585  29.702  27.335  1.00  0.00     0.116 C 
BRANCH   2   3
ATOM      3  N   UNL A   1      31.918  28.426  27.347  1.00  0.00    -0.354 N 
ATOM      4  C   UNL A   1      32.181  27.299  26.621  1.00  0.00     0.249 C 
ATOM      5  O   UNL A   1      31.491  26.304  26.864  1.00  0.00    -0.272 OA
ATOM      6  H   UNL A   1      31.159  28.357  27.969  1.00  0.00     0.163 HD
BRANCH   4   7
ATOM      7  C   UNL A   1      33.285  27.248  25.532  1.00  0.00     0.207 C 
ATOM      8  C   UNL A   1      33.122  27.132  23.183  1.00  0.00     0.138 C 
ATOM      9  C   UNL A   1      33.398  25.712  23.670  1.00  0.00     0.037 C 
ATOM     10  O   UNL A   1      32.957  27.964  24.342  1.00  0.00    -0.363 OA
ATOM     11  C   UNL A   1      33.733  25.851  25.139  1.00  0.00     0.045 C 
BRANCH   8  12
ATOM     12  C   UNL A   1      31.840  27.284  22.337  1.00  0.00     0.148 C 
BRANCH  12  13
ATOM     13  N   UNL A   1      30.645  26.938  23.073  1.00  0.00    -0.347 N 
ATOM     14  C   UNL A   1      29.455  27.598  23.259  1.00  0.00     0.289 C 
ATOM     15  O   UNL A   1      28.557  26.929  23.769  1.00  0.00    -0.266 OA
ATOM     16  H   UNL A   1      30.693  26.066  23.526  1.00  0.00     0.164 HD
BRANCH  14  17
ATOM     17  C   UNL A   1      29.281  28.983  22.878  1.00  0.00     0.224 A 
ATOM     18  C   UNL A   1      28.890  32.621  22.605  1.00  0.00     0.070 C 
ATOM     19  C   UNL A   1      29.023  31.153  22.487  1.00  0.00     0.081 A 
ATOM     20  C   UNL A   1      29.167  30.199  23.519  1.00  0.00     0.083 A 
ATOM     21  N   UNL A   1      29.003  30.565  21.290  1.00  0.00    -0.084 NA
ATOM     22  O   UNL A   1      29.159  29.216  21.533  1.00  0.00    -0.351 OA
ENDBRANCH  14  17
ENDBRANCH  12  13
ENDBRANCH   8  12
ENDBRANCH   4   7
ENDBRANCH   2   3
ENDBRANCH   1   2
BRANCH   1  23
ATOM     23  C   UNL A   1      31.599  32.002  26.843  1.00  0.00     0.023 C 
BRANCH  23  24
ATOM     24  C   UNL A   1      32.721  32.858  27.418  1.00  0.00     0.116 C 
BRANCH  24  25
ATOM     25  N   UNL A   1      32.345  34.245  27.657  1.00  0.00    -0.352 N 
ATOM     26  C   UNL A   1      32.921  35.128  28.547  1.00  0.00     0.251 C 
ATOM     27  H   UNL A   1      31.594  34.592  27.123  1.00  0.00     0.163 HD
ATOM     28  O   UNL A   1      32.451  36.242  28.726  1.00  0.00    -0.269 OA
BRANCH  26  29
ATOM     29  C   UNL A   1      34.095  34.667  29.313  1.00  0.00     0.039 A 
ATOM     30  C   UNL A   1      33.903  34.095  30.572  1.00  0.00     0.014 A 
ATOM     31  C   UNL A   1      35.358  34.680  28.717  1.00  0.00     0.014 A 
ATOM     32  C   UNL A   1      34.970  33.447  31.198  1.00  0.00     0.010 A 
ATOM     33  C   UNL A   1      36.392  33.960  29.302  1.00  0.00     0.010 A 
ATOM     34  C   UNL A   1      36.207  33.330  30.543  1.00  0.00    -0.014 A 
BRANCH  34  35
ATOM     35  C   UNL A   1      37.334  32.559  31.127  1.00  0.00     0.031 A 
ATOM     36  C   UNL A   1      37.965  33.029  32.409  1.00  0.00     0.074 A 
ATOM     37  C   UNL A   1      37.844  31.498  30.471  1.00  0.00     0.049 A 
ATOM     38  N   UNL A   1      39.036  32.582  33.014  1.00  0.00    -0.248 NA
ATOM     39  C   UNL A   1      37.325  34.170  33.082  1.00  0.00     0.031 C 
ATOM     40  C   UNL A   1      37.336  30.951  29.210  1.00  0.00     0.029 A 
ATOM     41  N   UNL A   1      38.915  30.693  30.771  1.00  0.00    -0.354 N 
ATOM     42  C   UNL A   1      39.203  33.397  34.127  1.00  0.00     0.074 A 
ATOM     43  C   UNL A   1      38.163  34.400  34.081  1.00  0.00     0.031 C 
ATOM     44  C   UNL A   1      38.079  29.889  28.859  1.00  0.00     0.029 A 
ATOM     45  C   UNL A   1      39.147  29.710  29.838  1.00  0.00     0.049 A 
ATOM     46  H   UNL A   1      39.466  30.810  31.578  1.00  0.00     0.167 HD
ATOM     47  C   UNL A   1      40.125  33.304  35.114  1.00  0.00     0.031 A 
ATOM     48  C   UNL A   1      40.120  28.780  29.772  1.00  0.00     0.031 A 
ATOM     49  C   UNL A   1      41.154  32.304  35.163  1.00  0.00     0.049 A 
ATOM     50  C   UNL A   1      41.167  28.734  30.853  1.00  0.00     0.074 A 
ATOM     51  C   UNL A   1      42.118  32.108  36.137  1.00  0.00     0.029 A 
ATOM     52  N   UNL A   1      41.353  31.329  34.198  1.00  0.00    -0.354 N 
ATOM     53  N   UNL A   1      41.284  29.483  31.923  1.00  0.00    -0.248 NA
ATOM     54  C   UNL A   1      42.215  27.711  30.719  1.00  0.00     0.031 C 
ATOM     55  C   UNL A   1      42.933  31.047  35.735  1.00  0.00     0.029 A 
ATOM     56  C   UNL A   1      42.435  30.540  34.545  1.00  0.00     0.049 A 
ATOM     57  H   UNL A   1      40.807  31.216  33.388  1.00  0.00     0.167 HD
ATOM     58  C   UNL A   1      42.387  28.992  32.611  1.00  0.00     0.074 A 
ATOM     59  C   UNL A   1      42.902  27.881  31.841  1.00  0.00     0.031 C 
ATOM     60  C   UNL A   1      42.920  29.421  33.780  1.00  0.00     0.031 A 
BRANCH  47  61
ATOM     61  C   UNL A   1      40.057  34.317  36.222  1.00  0.00    -0.014 A 
ATOM     62  C   UNL A   1      40.783  35.518  36.153  1.00  0.00     0.009 A 
ATOM     63  C   UNL A   1      39.228  34.089  37.331  1.00  0.00     0.009 A 
ATOM     64  C   UNL A   1      40.707  36.451  37.187  1.00  0.00     0.001 A 
ATOM     65  C   UNL A   1      39.128  35.039  38.348  1.00  0.00     0.001 A 
ATOM     66  C   UNL A   1      39.875  36.215  38.281  1.00  0.00     0.000 A 
ENDBRANCH  47  61
BRANCH  48  67
ATOM     67  C   UNL A   1      40.158  27.805  28.647  1.00  0.00    -0.014 A 
ATOM     68  C   UNL A   1      39.528  26.556  28.768  1.00  0.00     0.009 A 
ATOM     69  C   UNL A   1      40.852  28.099  27.464  1.00  0.00     0.009 A 
ATOM     70  C   UNL A   1      39.623  25.611  27.744  1.00  0.00     0.001 A 
ATOM     71  C   UNL A   1      40.916  27.165  26.427  1.00  0.00     0.001 A 
ATOM     72  C   UNL A   1      40.313  25.917  26.573  1.00  0.00     0.000 A 
ENDBRANCH  48  67
BRANCH  60  73
ATOM     73  C   UNL A   1      44.079  28.649  34.346  1.00  0.00    -0.014 A 
ATOM     74  C   UNL A   1      43.884  27.532  35.172  1.00  0.00     0.009 A 
ATOM     75  C   UNL A   1      45.386  29.003  33.973  1.00  0.00     0.009 A 
ATOM     76  C   UNL A   1      44.980  26.796  35.628  1.00  0.00     0.001 A 
ATOM     77  C   UNL A   1      46.476  28.247  34.405  1.00  0.00     0.001 A 
ATOM     78  C   UNL A   1      46.272  27.149  35.238  1.00  0.00     0.000 A 
ENDBRANCH  60  73
ENDBRANCH  34  35
ENDBRANCH  26  29
ENDBRANCH  24  25
ENDBRANCH  23  24
ENDBRANCH   1  23
TORSDOF 14
ENDMDL
MODEL 2
REMARK VINA RESULT:     -11.3      1.707      2.650
REMARK SMILES Cc1cc(C(=O)NC[C@@H]2CC[C@H](C(=O)NCCCCNC(=O)c3ccc(-c4c5nc(c(-c6ccccc6)c6ccc([nH]6)c(-c6ccccc6)c6nc(c(-c7ccccc7)c7ccc4[nH]7)C=C6)C=C5)cc3)O2)on1
REMARK SMILES IDX 17 1 16 2 15 3 13 4 14 5 12 7 9 8 10 9 71 10 11 11 8 12 7 13
REMARK SMILES IDX 5 14 6 15 4 17 1 18 2 19 3 20 73 21 72 22 18 23 19 24 20 25
REMARK SMILES IDX 21 26 22 28 23 29 24 30 70 31 25 32 69 33 26 34 27 35 28 36
REMARK SMILES IDX 63 37 29 38 68 39 62 40 64 41 30 42 67 43 61 44 60 45 31 47
REMARK SMILES IDX 53 48 38 49 52 50 39 51 42 52 51 53 65 54 40 55 41 56 50 58
REMARK SMILES IDX 66 59 43 60 32 61 33 62 37 63 34 64 36 65 35 66 54 67 55 68
REMARK SMILES IDX 59 69 56 70 58 71 57 72 44 73 45 74 49 75 46 76 48 77 47 78
REMARK H PARENT 15 6 7 16 20 27 64 46 42 57
REMARK Flexibility Score: inf
ROOT
ATOM      1  C   UNL A   1      34.669  33.009  29.122  1.00  0.00     0.023 C 
ENDROOT
BRANCH   1   2
ATOM      2  C   UNL A   1      34.455  31.687  28.397  1.00  0.00     0.116 C 
BRANCH   2   3
ATOM      3  N   UNL A   1      33.343  31.708  27.483  1.00  0.00    -0.354 N 
ATOM      4  C   UNL A   1      32.596  30.672  26.996  1.00  0.00     0.249 C 
ATOM      5  O   UNL A   1      31.646  30.965  26.263  1.00  0.00    -0.272 OA
ATOM      6  H   UNL A   1      33.083  32.601  27.160  1.00  0.00     0.163 HD
BRANCH   4   7
ATOM      7  C   UNL A   1      32.911  29.190  27.327  1.00  0.00     0.207 C 
ATOM      8  C   UNL A   1      33.056  27.299  25.926  1.00  0.00     0.138 C 
ATOM      9  C   UNL A   1      31.675  27.254  26.576  1.00  0.00     0.037 C 
ATOM     10  O   UNL A   1      33.686  28.526  26.330  1.00  0.00    -0.363 OA
ATOM     11  C   UNL A   1      31.698  28.332  27.638  1.00  0.00     0.045 C 
BRANCH   8  12
ATOM     12  C   UNL A   1      33.042  27.290  24.384  1.00  0.00     0.148 C 
BRANCH  12  13
ATOM     13  N   UNL A   1      32.357  26.138  23.842  1.00  0.00    -0.347 N 
ATOM     14  C   UNL A   1      31.206  26.015  23.103  1.00  0.00     0.289 C 
ATOM     15  O   UNL A   1      31.010  24.902  22.616  1.00  0.00    -0.266 OA
ATOM     16  H   UNL A   1      32.799  25.281  24.038  1.00  0.00     0.164 HD
BRANCH  14  17
ATOM     17  C   UNL A   1      30.294  27.123  22.918  1.00  0.00     0.224 A 
ATOM     18  C   UNL A   1      27.615  29.629  22.966  1.00  0.00     0.070 C 
ATOM     19  C   UNL A   1      28.784  28.743  22.775  1.00  0.00     0.081 A 
ATOM     20  C   UNL A   1      29.085  27.532  23.437  1.00  0.00     0.083 A 
ATOM     21  N   UNL A   1      29.720  29.043  21.873  1.00  0.00    -0.084 NA
ATOM     22  O   UNL A   1      30.657  28.033  21.958  1.00  0.00    -0.351 OA
ENDBRANCH  14  17
ENDBRANCH  12  13
ENDBRANCH   8  12
ENDBRANCH   4   7
ENDBRANCH   2   3
ENDBRANCH   1   2
BRANCH   1  23
ATOM     23  C   UNL A   1      33.539  34.011  28.916  1.00  0.00     0.023 C 
BRANCH  23  24
ATOM     24  C   UNL A   1      33.818  35.407  29.460  1.00  0.00     0.116 C 
BRANCH  24  25
ATOM     25  N   UNL A   1      32.801  35.896  30.383  1.00  0.00    -0.352 N 
ATOM     26  C   UNL A   1      32.759  35.725  31.751  1.00  0.00     0.251 C 
ATOM     27  H   UNL A   1      32.059  36.406  29.984  1.00  0.00     0.163 HD
ATOM     28  O   UNL A   1      31.798  36.100  32.406  1.00  0.00    -0.269 OA
BRANCH  26  29
ATOM     29  C   UNL A   1      33.890  35.027  32.394  1.00  0.00     0.039 A 
ATOM     30  C   UNL A   1      33.707  33.725  32.863  1.00  0.00     0.014 A 
ATOM     31  C   UNL A   1      35.155  35.619  32.397  1.00  0.00     0.014 A 
ATOM     32  C   UNL A   1      34.820  32.978  33.255  1.00  0.00     0.010 A 
ATOM     33  C   UNL A   1      36.266  34.844  32.703  1.00  0.00     0.010 A 
ATOM     34  C   UNL A   1      36.112  33.514  33.127  1.00  0.00    -0.014 A 
BRANCH  34  35
ATOM     35  C   UNL A   1      37.326  32.716  33.431  1.00  0.00     0.031 A 
ATOM     36  C   UNL A   1      38.070  32.961  34.715  1.00  0.00     0.074 A 
ATOM     37  C   UNL A   1      37.808  31.840  32.526  1.00  0.00     0.049 A 
ATOM     38  N   UNL A   1      39.217  32.473  35.112  1.00  0.00    -0.248 NA
ATOM     39  C   UNL A   1      37.456  33.904  35.665  1.00  0.00     0.031 C 
ATOM     40  C   UNL A   1      37.193  31.522  31.235  1.00  0.00     0.029 A 
ATOM     41  N   UNL A   1      38.938  31.061  32.553  1.00  0.00    -0.354 N 
ATOM     42  C   UNL A   1      39.466  33.060  36.346  1.00  0.00     0.074 A 
ATOM     43  C   UNL A   1      38.385  33.984  36.604  1.00  0.00     0.031 C 
ATOM     44  C   UNL A   1      37.939  30.600  30.606  1.00  0.00     0.029 A 
ATOM     45  C   UNL A   1      39.112  30.299  31.422  1.00  0.00     0.049 A 
ATOM     46  H   UNL A   1      39.567  31.051  33.310  1.00  0.00     0.167 HD
ATOM     47  C   UNL A   1      40.492  32.832  37.200  1.00  0.00     0.031 A 
ATOM     48  C   UNL A   1      40.111  29.465  31.075  1.00  0.00     0.031 A 
ATOM     49  C   UNL A   1      41.562  31.909  36.946  1.00  0.00     0.049 A 
ATOM     50  C   UNL A   1      41.269  29.272  32.018  1.00  0.00     0.074 A 
ATOM     51  C   UNL A   1      42.632  31.586  37.762  1.00  0.00     0.029 A 
ATOM     52  N   UNL A   1      41.699  31.160  35.788  1.00  0.00    -0.354 N 
ATOM     53  N   UNL A   1      41.467  29.800  33.202  1.00  0.00    -0.248 NA
ATOM     54  C   UNL A   1      42.339  28.364  31.580  1.00  0.00     0.031 C 
ATOM     55  C   UNL A   1      43.444  30.679  37.077  1.00  0.00     0.029 A 
ATOM     56  C   UNL A   1      42.844  30.388  35.862  1.00  0.00     0.049 A 
ATOM     57  H   UNL A   1      41.075  31.175  35.028  1.00  0.00     0.167 HD
ATOM     58  C   UNL A   1      42.656  29.253  33.667  1.00  0.00     0.074 A 
ATOM     59  C   UNL A   1      43.134  28.351  32.641  1.00  0.00     0.031 C 
ATOM     60  C   UNL A   1      43.292  29.475  34.842  1.00  0.00     0.031 A 
BRANCH  47  61
ATOM     61  C   UNL A   1      40.499  33.599  38.492  1.00  0.00    -0.014 A 
ATOM     62  C   UNL A   1      39.873  33.090  39.642  1.00  0.00     0.009 A 
ATOM     63  C   UNL A   1      41.173  34.827  38.575  1.00  0.00     0.009 A 
ATOM     64  C   UNL A   1      39.891  33.811  40.836  1.00  0.00     0.001 A 
ATOM     65  C   UNL A   1      41.219  35.530  39.780  1.00  0.00     0.001 A 
ATOM     66  C   UNL A   1      40.570  35.027  40.906  1.00  0.00     0.000 A 
ENDBRANCH  47  61
BRANCH  48  67
ATOM     67  C   UNL A   1      40.071  28.736  29.777  1.00  0.00    -0.014 A 
ATOM     68  C   UNL A   1      40.570  29.336  28.609  1.00  0.00     0.009 A 
ATOM     69  C   UNL A   1      39.505  27.455  29.689  1.00  0.00     0.009 A 
ATOM     70  C   UNL A   1      40.469  28.684  27.377  1.00  0.00     0.001 A 
ATOM     71  C   UNL A   1      39.436  26.792  28.461  1.00  0.00     0.001 A 
ATOM     72  C   UNL A   1      39.906  27.412  27.305  1.00  0.00     0.000 A 
ENDBRANCH  48  67
BRANCH  60  73
ATOM     73  C   UNL A   1      44.537  28.682  35.125  1.00  0.00    -0.014 A 
ATOM     74  C   UNL A   1      45.811  29.176  34.810  1.00  0.00     0.009 A 
ATOM     75  C   UNL A   1      44.429  27.452  35.796  1.00  0.00     0.009 A 
ATOM     76  C   UNL A   1      46.952  28.444  35.146  1.00  0.00     0.001 A 
ATOM     77  C   UNL A   1      45.571  26.738  36.157  1.00  0.00     0.001 A 
ATOM     78  C   UNL A   1      46.831  27.231  35.825  1.00  0.00     0.000 A 
ENDBRANCH  60  73
ENDBRANCH  34  35
ENDBRANCH  26  29
ENDBRANCH  24  25
ENDBRANCH  23  24
ENDBRANCH   1  23
TORSDOF 14
ENDMDL
MODEL 3
REMARK VINA RESULT:     -11.2      4.693      9.368
REMARK SMILES Cc1cc(C(=O)NC[C@@H]2CC[C@H](C(=O)NCCCCNC(=O)c3ccc(-c4c5nc(c(-c6ccccc6)c6ccc([nH]6)c(-c6ccccc6)c6nc(c(-c7ccccc7)c7ccc4[nH]7)C=C6)C=C5)cc3)O2)on1
REMARK SMILES IDX 17 1 16 2 15 3 13 4 14 5 12 7 9 8 10 9 71 10 11 11 8 12 7 13
REMARK SMILES IDX 5 14 6 15 4 17 1 18 2 19 3 20 73 21 72 22 18 23 19 24 20 25
REMARK SMILES IDX 21 26 22 28 23 29 24 30 70 31 25 32 69 33 26 34 27 35 28 36
REMARK SMILES IDX 63 37 29 38 68 39 62 40 64 41 30 42 67 43 61 44 60 45 31 47
REMARK SMILES IDX 53 48 38 49 52 50 39 51 42 52 51 53 65 54 40 55 41 56 50 58
REMARK SMILES IDX 66 59 43 60 32 61 33 62 37 63 34 64 36 65 35 66 54 67 55 68
REMARK SMILES IDX 59 69 56 70 58 71 57 72 44 73 45 74 49 75 46 76 48 77 47 78
REMARK H PARENT 15 6 7 16 20 27 64 46 42 57
REMARK Flexibility Score: inf
ROOT
ATOM      1  C   UNL A   1      38.730  21.935  25.958  1.00  0.00     0.023 C 
ENDROOT
BRANCH   1   2
ATOM      2  C   UNL A   1      37.403  22.550  25.535  1.00  0.00     0.116 C 
BRANCH   2   3
ATOM      3  N   UNL A   1      36.329  22.286  26.457  1.00  0.00    -0.354 N 
ATOM      4  C   UNL A   1      35.110  21.710  26.233  1.00  0.00     0.249 C 
ATOM      5  O   UNL A   1      34.384  21.540  27.217  1.00  0.00    -0.272 OA
ATOM      6  H   UNL A   1      36.499  22.561  27.387  1.00  0.00     0.163 HD
BRANCH   4   7
ATOM      7  C   UNL A   1      34.635  21.291  24.817  1.00  0.00     0.207 C 
ATOM      8  C   UNL A   1      32.637  21.772  23.662  1.00  0.00     0.138 C 
ATOM      9  C   UNL A   1      32.477  20.369  24.240  1.00  0.00     0.037 C 
ATOM     10  O   UNL A   1      33.888  22.297  24.136  1.00  0.00    -0.363 OA
ATOM     11  C   UNL A   1      33.846  19.994  24.765  1.00  0.00     0.045 C 
BRANCH   8  12
ATOM     12  C   UNL A   1      31.542  22.772  24.087  1.00  0.00     0.148 C 
BRANCH  12  13
ATOM     13  N   UNL A   1      31.133  22.596  25.462  1.00  0.00    -0.347 N 
ATOM     14  C   UNL A   1      31.086  23.462  26.527  1.00  0.00     0.289 C 
ATOM     15  O   UNL A   1      30.482  23.047  27.515  1.00  0.00    -0.266 OA
ATOM     16  H   UNL A   1      30.830  21.684  25.675  1.00  0.00     0.164 HD
BRANCH  14  17
ATOM     17  C   UNL A   1      31.708  24.767  26.478  1.00  0.00     0.224 A 
ATOM     18  C   UNL A   1      33.840  27.729  26.098  1.00  0.00     0.070 C 
ATOM     19  C   UNL A   1      32.823  26.681  26.335  1.00  0.00     0.081 A 
ATOM     20  C   UNL A   1      32.940  25.286  26.143  1.00  0.00     0.083 A 
ATOM     21  N   UNL A   1      31.615  27.002  26.801  1.00  0.00    -0.084 NA
ATOM     22  O   UNL A   1      30.923  25.812  26.894  1.00  0.00    -0.351 OA
ENDBRANCH  14  17
ENDBRANCH  12  13
ENDBRANCH   8  12
ENDBRANCH   4   7
ENDBRANCH   2   3
ENDBRANCH   1   2
BRANCH   1  23
ATOM     23  C   UNL A   1      39.004  20.574  25.331  1.00  0.00     0.023 C 
BRANCH  23  24
ATOM     24  C   UNL A   1      39.695  19.575  26.251  1.00  0.00     0.116 C 
BRANCH  24  25
ATOM     25  N   UNL A   1      41.005  19.145  25.780  1.00  0.00    -0.352 N 
ATOM     26  C   UNL A   1      42.180  19.866  25.799  1.00  0.00     0.251 C 
ATOM     27  H   UNL A   1      41.057  18.236  25.405  1.00  0.00     0.163 HD
ATOM     28  O   UNL A   1      43.199  19.430  25.282  1.00  0.00    -0.269 OA
BRANCH  26  29
ATOM     29  C   UNL A   1      42.158  21.206  26.419  1.00  0.00     0.039 A 
ATOM     30  C   UNL A   1      42.080  21.310  27.809  1.00  0.00     0.014 A 
ATOM     31  C   UNL A   1      42.355  22.338  25.625  1.00  0.00     0.014 A 
ATOM     32  C   UNL A   1      42.294  22.550  28.414  1.00  0.00     0.010 A 
ATOM     33  C   UNL A   1      42.653  23.550  26.234  1.00  0.00     0.010 A 
ATOM     34  C   UNL A   1      42.634  23.667  27.634  1.00  0.00    -0.014 A 
BRANCH  34  35
ATOM     35  C   UNL A   1      42.973  24.977  28.245  1.00  0.00     0.031 A 
ATOM     36  C   UNL A   1      41.889  26.001  28.447  1.00  0.00     0.074 A 
ATOM     37  C   UNL A   1      44.254  25.280  28.537  1.00  0.00     0.049 A 
ATOM     38  N   UNL A   1      41.992  27.245  28.838  1.00  0.00    -0.248 NA
ATOM     39  C   UNL A   1      40.513  25.577  28.141  1.00  0.00     0.031 C 
ATOM     40  C   UNL A   1      45.400  24.384  28.371  1.00  0.00     0.029 A 
ATOM     41  N   UNL A   1      44.808  26.437  29.026  1.00  0.00    -0.354 N 
ATOM     42  C   UNL A   1      40.699  27.753  28.809  1.00  0.00     0.074 A 
ATOM     43  C   UNL A   1      39.840  26.705  28.305  1.00  0.00     0.031 C 
ATOM     44  C   UNL A   1      46.515  25.016  28.774  1.00  0.00     0.029 A 
ATOM     45  C   UNL A   1      46.173  26.377  29.176  1.00  0.00     0.049 A 
ATOM     46  H   UNL A   1      44.277  27.236  29.247  1.00  0.00     0.167 HD
ATOM     47  C   UNL A   1      40.261  28.976  29.190  1.00  0.00     0.031 A 
ATOM     48  C   UNL A   1      47.051  27.317  29.577  1.00  0.00     0.031 A 
ATOM     49  C   UNL A   1      41.113  30.016  29.697  1.00  0.00     0.049 A 
ATOM     50  C   UNL A   1      46.544  28.687  29.942  1.00  0.00     0.074 A 
ATOM     51  C   UNL A   1      40.761  31.279  30.138  1.00  0.00     0.029 A 
ATOM     52  N   UNL A   1      42.488  29.912  29.831  1.00  0.00    -0.354 N 
ATOM     53  N   UNL A   1      45.313  29.137  29.953  1.00  0.00    -0.248 NA
ATOM     54  C   UNL A   1      47.549  29.679  30.355  1.00  0.00     0.031 C 
ATOM     55  C   UNL A   1      41.929  31.958  30.490  1.00  0.00     0.029 A 
ATOM     56  C   UNL A   1      43.001  31.095  30.332  1.00  0.00     0.049 A 
ATOM     57  H   UNL A   1      43.020  29.116  29.603  1.00  0.00     0.167 HD
ATOM     58  C   UNL A   1      45.391  30.445  30.417  1.00  0.00     0.074 A 
ATOM     59  C   UNL A   1      46.788  30.715  30.679  1.00  0.00     0.031 C 
ATOM     60  C   UNL A   1      44.392  31.339  30.612  1.00  0.00     0.031 A 
BRANCH  47  61
ATOM     61  C   UNL A   1      38.789  29.252  29.072  1.00  0.00    -0.014 A 
ATOM     62  C   UNL A   1      37.929  29.085  30.170  1.00  0.00     0.009 A 
ATOM     63  C   UNL A   1      38.258  29.722  27.861  1.00  0.00     0.009 A 
ATOM     64  C   UNL A   1      36.564  29.348  30.047  1.00  0.00     0.001 A 
ATOM     65  C   UNL A   1      36.898  30.018  27.751  1.00  0.00     0.001 A 
ATOM     66  C   UNL A   1      36.051  29.821  28.840  1.00  0.00     0.000 A 
ENDBRANCH  47  61
BRANCH  48  67
ATOM     67  C   UNL A   1      48.504  27.006  29.665  1.00  0.00    -0.014 A 
ATOM     68  C   UNL A   1      49.048  26.482  30.849  1.00  0.00     0.009 A 
ATOM     69  C   UNL A   1      49.361  27.262  28.584  1.00  0.00     0.009 A 
ATOM     70  C   UNL A   1      50.423  26.256  30.960  1.00  0.00     0.001 A 
ATOM     71  C   UNL A   1      50.730  27.003  28.686  1.00  0.00     0.001 A 
ATOM     72  C   UNL A   1      51.261  26.513  29.878  1.00  0.00     0.000 A 
ENDBRANCH  48  67
BRANCH  60  73
ATOM     73  C   UNL A   1      44.753  32.672  31.205  1.00  0.00    -0.014 A 
ATOM     74  C   UNL A   1      45.047  33.780  30.397  1.00  0.00     0.009 A 
ATOM     75  C   UNL A   1      44.714  32.836  32.599  1.00  0.00     0.009 A 
ATOM     76  C   UNL A   1      45.314  35.022  30.977  1.00  0.00     0.001 A 
ATOM     77  C   UNL A   1      44.951  34.085  33.174  1.00  0.00     0.001 A 
ATOM     78  C   UNL A   1      45.258  35.175  32.362  1.00  0.00     0.000 A 
ENDBRANCH  60  73
ENDBRANCH  34  35
ENDBRANCH  26  29
ENDBRANCH  24  25
ENDBRANCH  23  24
ENDBRANCH   1  23
TORSDOF 14
ENDMDL
