MODEL 1
REMARK VINA RESULT:     -10.9      0.000      0.000
REMARK SMILES C[NH2+][C@]1(C(=O)NCCCCNC(=O)c2ccc(-c3c4nc(c(-c5ccccc5)c5ccc([nH]5)c(-c5ccccc5)c5nc(c(-c6ccccc6)c6ccc3[nH]6)C=C5)C=C4)cc2)CCC[C@H]1CCOC1C[C@@H](C)C[C@H](C)C1
REMARK SMILES IDX 7 1 6 2 4 3 5 4 3 6 62 7 65 8 63 9 64 10 2 11 1 12 66 15
REMARK SMILES IDX 67 16 68 17 69 18 70 19 76 20 71 21 74 22 72 23 73 24 75 25
REMARK SMILES IDX 8 26 9 27 10 28 11 29 12 30 13 32 14 33 15 34 61 35 16 36
REMARK SMILES IDX 60 37 17 38 18 39 19 40 54 41 20 42 59 43 53 44 55 45 21 46
REMARK SMILES IDX 58 47 52 48 51 49 22 51 44 52 29 53 43 54 30 55 33 56 42 57
REMARK SMILES IDX 56 58 31 59 32 60 41 62 57 63 34 64 23 65 24 66 28 67 25 68
REMARK SMILES IDX 27 69 26 70 45 71 46 72 50 73 47 74 49 75 48 76 35 77 36 78
REMARK SMILES IDX 40 79 37 80 39 81 38 82
REMARK H PARENT 6 5 2 13 2 14 11 31 55 50 33 61
REMARK Flexibility Score: inf
ROOT
ATOM      1  C   UNL A   1      33.785  29.233  26.970  1.00  0.00     0.116 C 
ENDROOT
BRANCH   1   2
ATOM      2  N   UNL A   1      34.195  29.050  25.590  1.00  0.00    -0.351 N 
ATOM      3  C   UNL A   1      33.577  28.832  24.393  1.00  0.00     0.281 C 
ATOM      4  O   UNL A   1      34.347  29.037  23.440  1.00  0.00    -0.268 OA
ATOM      5  H   UNL A   1      35.173  29.095  25.491  1.00  0.00     0.163 HD
BRANCH   3   6
ATOM      6  C   UNL A   1      32.036  28.360  24.141  1.00  0.00     0.178 C 
ATOM      7  C   UNL A   1      32.010  28.021  22.618  1.00  0.00     0.079 C 
ATOM      8  C   UNL A   1      30.958  27.078  24.920  1.00  0.00     0.063 C 
ATOM      9  C   UNL A   1      30.663  27.494  22.251  1.00  0.00     0.008 C 
ATOM     10  C   UNL A   1      29.985  27.028  23.525  1.00  0.00     0.011 C 
BRANCH   6  11
ATOM     11  N   UNL A   1      31.255  29.683  24.056  1.00  0.00    -0.336 N 
ATOM     12  C   UNL A   1      31.023  30.472  25.249  1.00  0.00     0.331 C 
ATOM     13  H   UNL A   1      31.759  30.280  23.402  1.00  0.00     0.346 HD
ATOM     14  H   UNL A   1      30.316  29.382  23.792  1.00  0.00     0.346 HD
ENDBRANCH   6  11
BRANCH   8  15
ATOM     15  C   UNL A   1      31.090  25.680  26.507  1.00  0.00     0.039 C 
BRANCH  15  16
ATOM     16  C   UNL A   1      30.918  24.004  26.503  1.00  0.00     0.161 C 
BRANCH  16  17
ATOM     17  O   UNL A   1      32.143  23.434  26.814  1.00  0.00    -0.378 OA
BRANCH  17  18
ATOM     18  C   UNL A   1      32.522  23.212  25.480  1.00  0.00     0.118 C 
ATOM     19  C   UNL A   1      34.222  24.167  25.372  1.00  0.00     0.035 C 
ATOM     20  C   UNL A   1      32.488  21.256  25.360  1.00  0.00     0.035 C 
ATOM     21  C   UNL A   1      35.836  23.183  24.933  1.00  0.00    -0.011 C 
ATOM     22  C   UNL A   1      34.110  20.282  25.116  1.00  0.00    -0.011 C 
ATOM     23  C   UNL A   1      37.015  23.700  25.786  1.00  0.00     0.008 C 
ATOM     24  C   UNL A   1      35.782  21.256  24.991  1.00  0.00     0.006 C 
ATOM     25  C   UNL A   1      33.933  18.946  24.359  1.00  0.00     0.008 C 
ENDBRANCH  17  18
ENDBRANCH  16  17
ENDBRANCH  15  16
ENDBRANCH   8  15
ENDBRANCH   3   6
ENDBRANCH   1   2
BRANCH   1  26
ATOM     26  C   UNL A   1      34.538  30.364  27.665  1.00  0.00     0.023 C 
BRANCH  26  27
ATOM     27  C   UNL A   1      34.119  31.762  27.213  1.00  0.00     0.023 C 
BRANCH  27  28
ATOM     28  C   UNL A   1      32.708  32.185  27.622  1.00  0.00     0.116 C 
BRANCH  28  29
ATOM     29  N   UNL A   1      32.528  33.630  27.669  1.00  0.00    -0.352 N 
ATOM     30  C   UNL A   1      33.191  34.564  28.428  1.00  0.00     0.251 C 
ATOM     31  H   UNL A   1      31.831  33.988  27.072  1.00  0.00     0.163 HD
ATOM     32  O   UNL A   1      32.824  35.734  28.440  1.00  0.00    -0.269 OA
BRANCH  30  33
ATOM     33  C   UNL A   1      34.338  34.140  29.254  1.00  0.00     0.039 A 
ATOM     34  C   UNL A   1      34.098  33.435  30.436  1.00  0.00     0.014 A 
ATOM     35  C   UNL A   1      35.645  34.402  28.835  1.00  0.00     0.014 A 
ATOM     36  C   UNL A   1      35.175  32.920  31.158  1.00  0.00     0.010 A 
ATOM     37  C   UNL A   1      36.711  33.826  29.516  1.00  0.00     0.010 A 
ATOM     38  C   UNL A   1      36.488  33.073  30.680  1.00  0.00    -0.014 A 
BRANCH  38  39
ATOM     39  C   UNL A   1      37.637  32.440  31.372  1.00  0.00     0.031 A 
ATOM     40  C   UNL A   1      38.318  31.244  30.769  1.00  0.00     0.074 A 
ATOM     41  C   UNL A   1      38.020  32.896  32.582  1.00  0.00     0.049 A 
ATOM     42  N   UNL A   1      39.297  30.521  31.252  1.00  0.00    -0.248 NA
ATOM     43  C   UNL A   1      37.818  30.783  29.464  1.00  0.00     0.031 C 
ATOM     44  C   UNL A   1      37.410  34.017  33.300  1.00  0.00     0.029 A 
ATOM     45  N   UNL A   1      39.012  32.462  33.426  1.00  0.00    -0.354 N 
ATOM     46  C   UNL A   1      39.514  29.512  30.323  1.00  0.00     0.074 A 
ATOM     47  C   UNL A   1      38.536  29.687  29.271  1.00  0.00     0.031 C 
ATOM     48  C   UNL A   1      38.056  34.197  34.462  1.00  0.00     0.029 A 
ATOM     49  C   UNL A   1      39.099  33.185  34.590  1.00  0.00     0.049 A 
ATOM     50  H   UNL A   1      39.606  31.705  33.217  1.00  0.00     0.167 HD
ATOM     51  C   UNL A   1      40.453  28.537  30.334  1.00  0.00     0.031 A 
ATOM     52  C   UNL A   1      39.922  33.046  35.647  1.00  0.00     0.031 A 
ATOM     53  C   UNL A   1      41.434  28.370  31.372  1.00  0.00     0.049 A 
ATOM     54  C   UNL A   1      40.957  31.957  35.634  1.00  0.00     0.074 A 
ATOM     55  C   UNL A   1      42.469  27.454  31.440  1.00  0.00     0.029 A 
ATOM     56  N   UNL A   1      41.500  29.134  32.526  1.00  0.00    -0.354 N 
ATOM     57  N   UNL A   1      41.200  31.060  34.710  1.00  0.00    -0.248 NA
ATOM     58  C   UNL A   1      41.842  31.872  36.805  1.00  0.00     0.031 C 
ATOM     59  C   UNL A   1      43.131  27.632  32.658  1.00  0.00     0.029 A 
ATOM     60  C   UNL A   1      42.543  28.696  33.324  1.00  0.00     0.049 A 
ATOM     61  H   UNL A   1      40.894  29.879  32.746  1.00  0.00     0.167 HD
ATOM     62  C   UNL A   1      42.279  30.319  35.177  1.00  0.00     0.074 A 
ATOM     63  C   UNL A   1      42.655  30.884  36.456  1.00  0.00     0.031 C 
ATOM     64  C   UNL A   1      42.903  29.267  34.596  1.00  0.00     0.031 A 
BRANCH  51  65
ATOM     65  C   UNL A   1      40.459  27.568  29.185  1.00  0.00    -0.014 A 
ATOM     66  C   UNL A   1      39.649  26.421  29.196  1.00  0.00     0.009 A 
ATOM     67  C   UNL A   1      41.258  27.823  28.060  1.00  0.00     0.009 A 
ATOM     68  C   UNL A   1      39.668  25.530  28.121  1.00  0.00     0.001 A 
ATOM     69  C   UNL A   1      41.254  26.946  26.974  1.00  0.00     0.001 A 
ATOM     70  C   UNL A   1      40.466  25.796  27.010  1.00  0.00     0.000 A 
ENDBRANCH  51  65
BRANCH  52  71
ATOM     71  C   UNL A   1      39.813  33.975  36.802  1.00  0.00    -0.014 A 
ATOM     72  C   UNL A   1      40.517  35.189  36.808  1.00  0.00     0.009 A 
ATOM     73  C   UNL A   1      39.005  33.653  37.904  1.00  0.00     0.009 A 
ATOM     74  C   UNL A   1      40.437  36.048  37.906  1.00  0.00     0.001 A 
ATOM     75  C   UNL A   1      38.906  34.529  38.988  1.00  0.00     0.001 A 
ATOM     76  C   UNL A   1      39.628  35.720  38.993  1.00  0.00     0.000 A 
ENDBRANCH  52  71
BRANCH  64  77
ATOM     77  C   UNL A   1      44.079  28.677  35.322  1.00  0.00    -0.014 A 
ATOM     78  C   UNL A   1      43.917  27.629  36.241  1.00  0.00     0.009 A 
ATOM     79  C   UNL A   1      45.372  29.151  35.048  1.00  0.00     0.009 A 
ATOM     80  C   UNL A   1      45.026  27.088  36.895  1.00  0.00     0.001 A 
ATOM     81  C   UNL A   1      46.481  28.588  35.682  1.00  0.00     0.001 A 
ATOM     82  C   UNL A   1      46.306  27.564  36.612  1.00  0.00     0.000 A 
ENDBRANCH  64  77
ENDBRANCH  38  39
ENDBRANCH  30  33
ENDBRANCH  28  29
ENDBRANCH  27  28
ENDBRANCH  26  27
ENDBRANCH   1  26
TORSDOF 16
ENDMDL
MODEL 2
REMARK VINA RESULT:     -10.8      7.380     10.713
REMARK SMILES C[NH2+][C@]1(C(=O)NCCCCNC(=O)c2ccc(-c3c4nc(c(-c5ccccc5)c5ccc([nH]5)c(-c5ccccc5)c5nc(c(-c6ccccc6)c6ccc3[nH]6)C=C5)C=C4)cc2)CCC[C@H]1CCOC1C[C@@H](C)C[C@H](C)C1
REMARK SMILES IDX 7 1 6 2 4 3 5 4 3 6 62 7 65 8 63 9 64 10 2 11 1 12 66 15
REMARK SMILES IDX 67 16 68 17 69 18 70 19 76 20 71 21 74 22 72 23 73 24 75 25
REMARK SMILES IDX 8 26 9 27 10 28 11 29 12 30 13 32 14 33 15 34 61 35 16 36
REMARK SMILES IDX 60 37 17 38 18 39 19 40 54 41 20 42 59 43 53 44 55 45 21 46
REMARK SMILES IDX 58 47 52 48 51 49 22 51 44 52 29 53 43 54 30 55 33 56 42 57
REMARK SMILES IDX 56 58 31 59 32 60 41 62 57 63 34 64 23 65 24 66 28 67 25 68
REMARK SMILES IDX 27 69 26 70 45 71 46 72 50 73 47 74 49 75 48 76 35 77 36 78
REMARK SMILES IDX 40 79 37 80 39 81 38 82
REMARK H PARENT 6 5 2 13 2 14 11 31 55 50 33 61
REMARK Flexibility Score: inf
ROOT
ATOM      1  C   UNL A   1      36.248  23.546  25.656  1.00  0.00     0.116 C 
ENDROOT
BRANCH   1   2
ATOM      2  N   UNL A   1      35.565  22.824  26.714  1.00  0.00    -0.351 N 
ATOM      3  C   UNL A   1      34.341  22.249  26.891  1.00  0.00     0.281 C 
ATOM      4  O   UNL A   1      34.333  21.490  27.875  1.00  0.00    -0.268 OA
ATOM      5  H   UNL A   1      36.132  22.723  27.512  1.00  0.00     0.163 HD
BRANCH   3   6
ATOM      6  C   UNL A   1      33.000  22.467  25.988  1.00  0.00     0.178 C 
ATOM      7  C   UNL A   1      31.963  23.020  27.014  1.00  0.00     0.079 C 
ATOM      8  C   UNL A   1      32.656  23.400  24.432  1.00  0.00     0.063 C 
ATOM      9  C   UNL A   1      30.690  23.342  26.306  1.00  0.00     0.008 C 
ATOM     10  C   UNL A   1      31.004  23.481  24.829  1.00  0.00     0.011 C 
BRANCH   6  11
ATOM     11  N   UNL A   1      32.408  21.052  25.861  1.00  0.00    -0.336 N 
ATOM     12  C   UNL A   1      33.160  20.002  25.203  1.00  0.00     0.331 C 
ATOM     13  H   UNL A   1      32.219  20.727  26.809  1.00  0.00     0.346 HD
ATOM     14  H   UNL A   1      31.610  21.189  25.241  1.00  0.00     0.346 HD
ENDBRANCH   6  11
BRANCH   8  15
ATOM     15  C   UNL A   1      33.749  24.544  23.022  1.00  0.00     0.039 C 
BRANCH  15  16
ATOM     16  C   UNL A   1      33.229  25.715  21.927  1.00  0.00     0.161 C 
BRANCH  16  17
ATOM     17  O   UNL A   1      33.402  26.965  22.501  1.00  0.00    -0.378 OA
BRANCH  17  18
ATOM     18  C   UNL A   1      32.358  26.826  23.429  1.00  0.00     0.118 C 
ATOM     19  C   UNL A   1      33.237  27.287  25.110  1.00  0.00     0.035 C 
ATOM     20  C   UNL A   1      30.984  28.008  22.685  1.00  0.00     0.035 C 
ATOM     21  C   UNL A   1      32.589  28.802  26.134  1.00  0.00    -0.011 C 
ATOM     22  C   UNL A   1      30.486  29.601  23.611  1.00  0.00    -0.011 C 
ATOM     23  C   UNL A   1      33.783  29.585  26.727  1.00  0.00     0.008 C 
ATOM     24  C   UNL A   1      31.360  30.025  25.289  1.00  0.00     0.006 C 
ATOM     25  C   UNL A   1      29.025  30.040  23.366  1.00  0.00     0.008 C 
ENDBRANCH  17  18
ENDBRANCH  16  17
ENDBRANCH  15  16
ENDBRANCH   8  15
ENDBRANCH   3   6
ENDBRANCH   1   2
BRANCH   1  26
ATOM     26  C   UNL A   1      37.764  23.374  25.707  1.00  0.00     0.023 C 
BRANCH  26  27
ATOM     27  C   UNL A   1      38.445  24.167  26.822  1.00  0.00     0.023 C 
BRANCH  27  28
ATOM     28  C   UNL A   1      39.914  24.511  26.575  1.00  0.00     0.116 C 
BRANCH  28  29
ATOM     29  N   UNL A   1      40.783  23.342  26.540  1.00  0.00    -0.352 N 
ATOM     30  C   UNL A   1      42.149  23.278  26.403  1.00  0.00     0.251 C 
ATOM     31  H   UNL A   1      40.326  22.474  26.626  1.00  0.00     0.163 HD
ATOM     32  O   UNL A   1      42.713  22.198  26.263  1.00  0.00    -0.269 OA
BRANCH  30  33
ATOM     33  C   UNL A   1      42.933  24.529  26.399  1.00  0.00     0.039 A 
ATOM     34  C   UNL A   1      43.413  25.031  27.611  1.00  0.00     0.014 A 
ATOM     35  C   UNL A   1      43.225  25.175  25.196  1.00  0.00     0.014 A 
ATOM     36  C   UNL A   1      44.260  26.140  27.607  1.00  0.00     0.010 A 
ATOM     37  C   UNL A   1      44.126  26.233  25.188  1.00  0.00     0.010 A 
ATOM     38  C   UNL A   1      44.658  26.723  26.391  1.00  0.00    -0.014 A 
BRANCH  38  39
ATOM     39  C   UNL A   1      45.643  27.832  26.357  1.00  0.00     0.031 A 
ATOM     40  C   UNL A   1      47.112  27.536  26.238  1.00  0.00     0.074 A 
ATOM     41  C   UNL A   1      45.222  29.103  26.509  1.00  0.00     0.049 A 
ATOM     42  N   UNL A   1      48.124  28.365  26.252  1.00  0.00    -0.248 NA
ATOM     43  C   UNL A   1      47.496  26.120  26.115  1.00  0.00     0.031 C 
ATOM     44  C   UNL A   1      43.828  29.521  26.683  1.00  0.00     0.029 A 
ATOM     45  N   UNL A   1      45.928  30.279  26.550  1.00  0.00    -0.354 N 
ATOM     46  C   UNL A   1      49.261  27.574  26.160  1.00  0.00     0.074 A 
ATOM     47  C   UNL A   1      48.818  26.197  26.138  1.00  0.00     0.031 C 
ATOM     48  C   UNL A   1      43.781  30.858  26.787  1.00  0.00     0.029 A 
ATOM     49  C   UNL A   1      45.139  31.389  26.725  1.00  0.00     0.049 A 
ATOM     50  H   UNL A   1      46.908  30.323  26.462  1.00  0.00     0.167 HD
ATOM     51  C   UNL A   1      50.558  27.957  26.082  1.00  0.00     0.031 A 
ATOM     52  C   UNL A   1      45.470  32.690  26.830  1.00  0.00     0.031 A 
ATOM     53  C   UNL A   1      50.998  29.326  26.090  1.00  0.00     0.049 A 
ATOM     54  C   UNL A   1      46.916  33.090  26.740  1.00  0.00     0.074 A 
ATOM     55  C   UNL A   1      52.284  29.817  25.949  1.00  0.00     0.029 A 
ATOM     56  N   UNL A   1      50.167  30.422  26.251  1.00  0.00    -0.354 N 
ATOM     57  N   UNL A   1      47.973  32.333  26.574  1.00  0.00    -0.248 NA
ATOM     58  C   UNL A   1      47.212  34.527  26.837  1.00  0.00     0.031 C 
ATOM     59  C   UNL A   1      52.236  31.209  26.074  1.00  0.00     0.029 A 
ATOM     60  C   UNL A   1      50.913  31.587  26.237  1.00  0.00     0.049 A 
ATOM     61  H   UNL A   1      49.188  30.378  26.360  1.00  0.00     0.167 HD
ATOM     62  C   UNL A   1      49.056  33.202  26.522  1.00  0.00     0.074 A 
ATOM     63  C   UNL A   1      48.526  34.543  26.657  1.00  0.00     0.031 C 
ATOM     64  C   UNL A   1      50.371  32.914  26.374  1.00  0.00     0.031 A 
BRANCH  51  65
ATOM     65  C   UNL A   1      51.595  26.874  25.988  1.00  0.00    -0.014 A 
ATOM     66  C   UNL A   1      51.981  26.340  24.747  1.00  0.00     0.009 A 
ATOM     67  C   UNL A   1      52.221  26.403  27.153  1.00  0.00     0.009 A 
ATOM     68  C   UNL A   1      52.945  25.332  24.679  1.00  0.00     0.001 A 
ATOM     69  C   UNL A   1      53.205  25.416  27.079  1.00  0.00     0.001 A 
ATOM     70  C   UNL A   1      53.559  24.875  25.844  1.00  0.00     0.000 A 
ENDBRANCH  51  65
BRANCH  52  71
ATOM     71  C   UNL A   1      44.410  33.715  27.017  1.00  0.00    -0.014 A 
ATOM     72  C   UNL A   1      43.838  34.356  25.908  1.00  0.00     0.009 A 
ATOM     73  C   UNL A   1      43.967  34.058  28.304  1.00  0.00     0.009 A 
ATOM     74  C   UNL A   1      42.862  35.339  26.084  1.00  0.00     0.001 A 
ATOM     75  C   UNL A   1      42.970  35.022  28.475  1.00  0.00     0.001 A 
ATOM     76  C   UNL A   1      42.426  35.669  27.367  1.00  0.00     0.000 A 
ENDBRANCH  52  71
BRANCH  64  77
ATOM     77  C   UNL A   1      51.327  34.072  26.318  1.00  0.00    -0.014 A 
ATOM     78  C   UNL A   1      51.626  34.712  25.105  1.00  0.00     0.009 A 
ATOM     79  C   UNL A   1      51.902  34.556  27.504  1.00  0.00     0.009 A 
ATOM     80  C   UNL A   1      52.508  35.795  25.079  1.00  0.00     0.001 A 
ATOM     81  C   UNL A   1      52.760  35.656  27.478  1.00  0.00     0.001 A 
ATOM     82  C   UNL A   1      53.070  36.268  26.264  1.00  0.00     0.000 A 
ENDBRANCH  64  77
ENDBRANCH  38  39
ENDBRANCH  30  33
ENDBRANCH  28  29
ENDBRANCH  27  28
ENDBRANCH  26  27
ENDBRANCH   1  26
TORSDOF 16
ENDMDL
MODEL 3
REMARK VINA RESULT:     -10.8      7.487     11.690
REMARK SMILES C[NH2+][C@]1(C(=O)NCCCCNC(=O)c2ccc(-c3c4nc(c(-c5ccccc5)c5ccc([nH]5)c(-c5ccccc5)c5nc(c(-c6ccccc6)c6ccc3[nH]6)C=C5)C=C4)cc2)CCC[C@H]1CCOC1C[C@@H](C)C[C@H](C)C1
REMARK SMILES IDX 7 1 6 2 4 3 5 4 3 6 62 7 65 8 63 9 64 10 2 11 1 12 66 15
REMARK SMILES IDX 67 16 68 17 69 18 70 19 76 20 71 21 74 22 72 23 73 24 75 25
REMARK SMILES IDX 8 26 9 27 10 28 11 29 12 30 13 32 14 33 15 34 61 35 16 36
REMARK SMILES IDX 60 37 17 38 18 39 19 40 54 41 20 42 59 43 53 44 55 45 21 46
REMARK SMILES IDX 58 47 52 48 51 49 22 51 44 52 29 53 43 54 30 55 33 56 42 57
REMARK SMILES IDX 56 58 31 59 32 60 41 62 57 63 34 64 23 65 24 66 28 67 25 68
REMARK SMILES IDX 27 69 26 70 45 71 46 72 50 73 47 74 49 75 48 76 35 77 36 78
REMARK SMILES IDX 40 79 37 80 39 81 38 82
REMARK H PARENT 6 5 2 13 2 14 11 31 55 50 33 61
REMARK Flexibility Score: inf
ROOT
ATOM      1  C   UNL A   1      36.410  23.737  25.708  1.00  0.00     0.116 C 
ENDROOT
BRANCH   1   2
ATOM      2  N   UNL A   1      35.464  23.103  26.609  1.00  0.00    -0.351 N 
ATOM      3  C   UNL A   1      34.530  22.112  26.527  1.00  0.00     0.281 C 
ATOM      4  O   UNL A   1      34.175  21.729  27.655  1.00  0.00    -0.268 OA
ATOM      5  H   UNL A   1      35.508  23.487  27.514  1.00  0.00     0.163 HD
BRANCH   3   6
ATOM      6  C   UNL A   1      33.895  21.452  25.177  1.00  0.00     0.178 C 
ATOM      7  C   UNL A   1      33.363  20.071  25.670  1.00  0.00     0.079 C 
ATOM      8  C   UNL A   1      32.633  22.026  23.957  1.00  0.00     0.063 C 
ATOM      9  C   UNL A   1      32.677  19.373  24.543  1.00  0.00     0.008 C 
ATOM     10  C   UNL A   1      32.320  20.417  23.503  1.00  0.00     0.011 C 
BRANCH   6  11
ATOM     11  N   UNL A   1      35.122  20.924  24.414  1.00  0.00    -0.336 N 
ATOM     12  C   UNL A   1      36.088  20.075  25.082  1.00  0.00     0.331 C 
ATOM     13  H   UNL A   1      34.767  20.395  23.618  1.00  0.00     0.346 HD
ATOM     14  H   UNL A   1      35.655  21.772  24.217  1.00  0.00     0.346 HD
ENDBRANCH   6  11
BRANCH   8  15
ATOM     15  C   UNL A   1      31.467  23.762  23.615  1.00  0.00     0.039 C 
BRANCH  15  16
ATOM     16  C   UNL A   1      31.688  25.028  22.525  1.00  0.00     0.161 C 
BRANCH  16  17
ATOM     17  O   UNL A   1      32.369  26.051  23.168  1.00  0.00    -0.378 OA
BRANCH  17  18
ATOM     18  C   UNL A   1      31.325  26.364  24.053  1.00  0.00     0.118 C 
ATOM     19  C   UNL A   1      32.275  26.597  25.743  1.00  0.00     0.035 C 
ATOM     20  C   UNL A   1      30.489  27.905  23.178  1.00  0.00     0.035 C 
ATOM     21  C   UNL A   1      32.198  28.313  26.645  1.00  0.00    -0.011 C 
ATOM     22  C   UNL A   1      30.583  29.632  23.984  1.00  0.00    -0.011 C 
ATOM     23  C   UNL A   1      33.580  28.654  27.245  1.00  0.00     0.008 C 
ATOM     24  C   UNL A   1      31.514  29.832  25.673  1.00  0.00     0.006 C 
ATOM     25  C   UNL A   1      29.385  30.549  23.646  1.00  0.00     0.008 C 
ENDBRANCH  17  18
ENDBRANCH  16  17
ENDBRANCH  15  16
ENDBRANCH   8  15
ENDBRANCH   3   6
ENDBRANCH   1   2
BRANCH   1  26
ATOM     26  C   UNL A   1      37.863  23.449  26.079  1.00  0.00     0.023 C 
BRANCH  26  27
ATOM     27  C   UNL A   1      38.536  24.567  26.875  1.00  0.00     0.023 C 
BRANCH  27  28
ATOM     28  C   UNL A   1      39.992  24.847  26.504  1.00  0.00     0.116 C 
BRANCH  28  29
ATOM     29  N   UNL A   1      40.791  23.638  26.348  1.00  0.00    -0.352 N 
ATOM     30  C   UNL A   1      42.148  23.509  26.181  1.00  0.00     0.251 C 
ATOM     31  H   UNL A   1      40.285  22.793  26.364  1.00  0.00     0.163 HD
ATOM     32  O   UNL A   1      42.646  22.416  25.934  1.00  0.00    -0.269 OA
BRANCH  30  33
ATOM     33  C   UNL A   1      43.004  24.708  26.275  1.00  0.00     0.039 A 
ATOM     34  C   UNL A   1      43.523  25.074  27.519  1.00  0.00     0.014 A 
ATOM     35  C   UNL A   1      43.324  25.438  25.128  1.00  0.00     0.014 A 
ATOM     36  C   UNL A   1      44.433  26.129  27.599  1.00  0.00     0.010 A 
ATOM     37  C   UNL A   1      44.285  26.440  25.199  1.00  0.00     0.010 A 
ATOM     38  C   UNL A   1      44.854  26.791  26.433  1.00  0.00    -0.014 A 
BRANCH  38  39
ATOM     39  C   UNL A   1      45.902  27.841  26.482  1.00  0.00     0.031 A 
ATOM     40  C   UNL A   1      45.520  29.285  26.647  1.00  0.00     0.074 A 
ATOM     41  C   UNL A   1      47.194  27.502  26.301  1.00  0.00     0.049 A 
ATOM     42  N   UNL A   1      46.287  30.346  26.652  1.00  0.00    -0.248 NA
ATOM     43  C   UNL A   1      44.086  29.578  26.801  1.00  0.00     0.031 C 
ATOM     44  C   UNL A   1      47.693  26.142  26.080  1.00  0.00     0.029 A 
ATOM     45  N   UNL A   1      48.325  28.279  26.265  1.00  0.00    -0.354 N 
ATOM     46  C   UNL A   1      45.430  31.429  26.788  1.00  0.00     0.074 A 
ATOM     47  C   UNL A   1      44.082  30.903  26.815  1.00  0.00     0.031 C 
ATOM     48  C   UNL A   1      49.029  26.179  25.957  1.00  0.00     0.029 A 
ATOM     49  C   UNL A   1      49.478  27.564  26.052  1.00  0.00     0.049 A 
ATOM     50  H   UNL A   1      48.311  29.257  26.381  1.00  0.00     0.167 HD
ATOM     51  C   UNL A   1      45.735  32.744  26.899  1.00  0.00     0.031 A 
ATOM     52  C   UNL A   1      50.755  27.977  25.939  1.00  0.00     0.031 A 
ATOM     53  C   UNL A   1      47.075  33.267  26.885  1.00  0.00     0.049 A 
ATOM     54  C   UNL A   1      51.068  29.441  26.067  1.00  0.00     0.074 A 
ATOM     55  C   UNL A   1      47.490  34.576  27.057  1.00  0.00     0.029 A 
ATOM     56  N   UNL A   1      48.216  32.508  26.686  1.00  0.00    -0.354 N 
ATOM     57  N   UNL A   1      50.252  30.445  26.274  1.00  0.00    -0.248 NA
ATOM     58  C   UNL A   1      52.483  29.826  25.959  1.00  0.00     0.031 C 
ATOM     59  C   UNL A   1      48.880  34.616  26.912  1.00  0.00     0.029 A 
ATOM     60  C   UNL A   1      49.335  33.323  26.705  1.00  0.00     0.049 A 
ATOM     61  H   UNL A   1      48.230  31.533  26.549  1.00  0.00     0.167 HD
ATOM     62  C   UNL A   1      51.054  31.576  26.345  1.00  0.00     0.074 A 
ATOM     63  C   UNL A   1      52.423  31.133  26.177  1.00  0.00     0.031 C 
ATOM     64  C   UNL A   1      50.690  32.867  26.535  1.00  0.00     0.031 A 
BRANCH  51  65
ATOM     65  C   UNL A   1      44.593  33.711  27.037  1.00  0.00    -0.014 A 
ATOM     66  C   UNL A   1      44.072  34.046  28.297  1.00  0.00     0.009 A 
ATOM     67  C   UNL A   1      44.052  34.321  25.895  1.00  0.00     0.009 A 
ATOM     68  C   UNL A   1      43.008  34.945  28.407  1.00  0.00     0.001 A 
ATOM     69  C   UNL A   1      43.009  35.241  26.010  1.00  0.00     0.001 A 
ATOM     70  C   UNL A   1      42.481  35.544  27.265  1.00  0.00     0.000 A 
ENDBRANCH  51  65
BRANCH  52  71
ATOM     71  C   UNL A   1      51.839  26.986  25.708  1.00  0.00    -0.014 A 
ATOM     72  C   UNL A   1      52.224  26.647  24.402  1.00  0.00     0.009 A 
ATOM     73  C   UNL A   1      52.492  26.375  26.789  1.00  0.00     0.009 A 
ATOM     74  C   UNL A   1      53.223  25.695  24.184  1.00  0.00     0.001 A 
ATOM     75  C   UNL A   1      53.509  25.445  26.567  1.00  0.00     0.001 A 
ATOM     76  C   UNL A   1      53.868  25.098  25.267  1.00  0.00     0.000 A 
ENDBRANCH  52  71
BRANCH  64  77
ATOM     77  C   UNL A   1      51.789  33.889  26.604  1.00  0.00    -0.014 A 
ATOM     78  C   UNL A   1      52.418  34.204  27.819  1.00  0.00     0.009 A 
ATOM     79  C   UNL A   1      52.229  34.515  25.427  1.00  0.00     0.009 A 
ATOM     80  C   UNL A   1      53.445  35.148  27.857  1.00  0.00     0.001 A 
ATOM     81  C   UNL A   1      53.276  35.438  25.464  1.00  0.00     0.001 A 
ATOM     82  C   UNL A   1      53.877  35.760  26.680  1.00  0.00     0.000 A 
ENDBRANCH  64  77
ENDBRANCH  38  39
ENDBRANCH  30  33
ENDBRANCH  28  29
ENDBRANCH  27  28
ENDBRANCH  26  27
ENDBRANCH   1  26
TORSDOF 16
ENDMDL
