MODEL 1
REMARK VINA RESULT:     -11.1      0.000      0.000
REMARK SMILES O=C(NCCCCNC(=O)c1sccc1S(=O)(=O)Nc1ccccc1N1CCCCC1)c1ccc(-c2c3nc(c(-c4ccccc4)c4ccc([nH]4)c(-c4ccccc4)c4nc(c(-c5ccccc5)c5ccc2[nH]5)C=C4)C=C3)cc1
REMARK SMILES IDX 6 1 5 2 4 3 3 4 1 5 2 6 32 8 33 9 79 10 34 11 78 12 35 13
REMARK SMILES IDX 36 14 37 15 72 16 38 17 77 18 71 19 73 20 39 21 76 22 70 23
REMARK SMILES IDX 69 24 40 26 62 27 47 28 61 29 48 30 51 31 60 32 74 33 49 34
REMARK SMILES IDX 50 35 59 37 75 38 52 39 41 40 42 41 46 42 43 43 45 44 44 45
REMARK SMILES IDX 63 46 64 47 68 48 65 49 67 50 66 51 53 52 54 53 58 54 55 55
REMARK SMILES IDX 57 56 56 57 7 58 8 59 9 60 10 62 11 63 12 64 15 65 13 66
REMARK SMILES IDX 14 67 16 68 17 69 18 70 19 71 20 73 21 74 25 75 22 76 24 77
REMARK SMILES IDX 23 78 26 79 27 80 31 81 28 82 30 83 29 84
REMARK H PARENT 3 7 73 25 51 36 8 61 19 72
REMARK Flexibility Score: inf
ROOT
ATOM      1  C   UNL A   1      32.015  29.770  27.169  1.00  0.00     0.023 C 
ENDROOT
BRANCH   1   2
ATOM      2  C   UNL A   1      31.528  31.175  26.789  1.00  0.00     0.023 C 
BRANCH   2   3
ATOM      3  C   UNL A   1      32.627  32.220  26.610  1.00  0.00     0.116 C 
BRANCH   3   4
ATOM      4  N   UNL A   1      32.347  33.469  27.290  1.00  0.00    -0.352 N 
ATOM      5  O   UNL A   1      32.546  35.086  28.846  1.00  0.00    -0.269 OA
ATOM      6  C   UNL A   1      33.034  34.106  28.290  1.00  0.00     0.251 C 
ATOM      7  H   UNL A   1      31.534  33.934  26.985  1.00  0.00     0.163 HD
BRANCH   6   8
ATOM      8  C   UNL A   1      34.353  33.607  28.729  1.00  0.00     0.039 A 
ATOM      9  C   UNL A   1      35.538  34.040  28.125  1.00  0.00     0.014 A 
ATOM     10  C   UNL A   1      34.399  32.728  29.815  1.00  0.00     0.014 A 
ATOM     11  C   UNL A   1      36.762  33.512  28.537  1.00  0.00     0.010 A 
ATOM     12  C   UNL A   1      35.628  32.245  30.263  1.00  0.00     0.010 A 
ATOM     13  C   UNL A   1      36.816  32.614  29.612  1.00  0.00    -0.014 A 
BRANCH  13  14
ATOM     14  C   UNL A   1      38.114  32.085  30.099  1.00  0.00     0.031 A 
ATOM     15  C   UNL A   1      38.661  30.795  29.558  1.00  0.00     0.074 A 
ATOM     16  C   UNL A   1      38.765  32.734  31.080  1.00  0.00     0.049 A 
ATOM     17  N   UNL A   1      39.708  30.115  29.949  1.00  0.00    -0.248 NA
ATOM     18  C   UNL A   1      37.931  30.186  28.435  1.00  0.00     0.031 C 
ATOM     19  C   UNL A   1      38.335  33.992  31.693  1.00  0.00     0.029 A 
ATOM     20  N   UNL A   1      39.918  32.411  31.751  1.00  0.00    -0.354 N 
ATOM     21  C   UNL A   1      39.745  28.983  29.146  1.00  0.00     0.074 A 
ATOM     22  C   UNL A   1      38.609  29.063  28.252  1.00  0.00     0.031 C 
ATOM     23  C   UNL A   1      39.208  34.332  32.652  1.00  0.00     0.029 A 
ATOM     24  C   UNL A   1      40.226  33.293  32.758  1.00  0.00     0.049 A 
ATOM     25  H   UNL A   1      40.469  31.625  31.533  1.00  0.00     0.167 HD
ATOM     26  C   UNL A   1      40.642  27.968  29.156  1.00  0.00     0.031 A 
ATOM     27  C   UNL A   1      41.197  33.252  33.688  1.00  0.00     0.031 A 
ATOM     28  C   UNL A   1      41.770  27.889  30.046  1.00  0.00     0.049 A 
ATOM     29  C   UNL A   1      42.159  32.102  33.704  1.00  0.00     0.074 A 
ATOM     30  C   UNL A   1      42.762  26.925  30.098  1.00  0.00     0.029 A 
ATOM     31  N   UNL A   1      42.051  28.807  31.047  1.00  0.00    -0.354 N 
ATOM     32  N   UNL A   1      42.205  31.059  32.914  1.00  0.00    -0.248 NA
ATOM     33  C   UNL A   1      43.203  32.124  34.740  1.00  0.00     0.031 C 
ATOM     34  C   UNL A   1      43.617  27.235  31.161  1.00  0.00     0.029 A 
ATOM     35  C   UNL A   1      43.185  28.418  31.740  1.00  0.00     0.049 A 
ATOM     36  H   UNL A   1      41.522  29.615  31.236  1.00  0.00     0.167 HD
ATOM     37  C   UNL A   1      43.291  30.308  33.341  1.00  0.00     0.074 A 
ATOM     38  C   UNL A   1      43.881  31.020  34.457  1.00  0.00     0.031 C 
ATOM     39  C   UNL A   1      43.758  29.136  32.849  1.00  0.00     0.031 A 
BRANCH  26  40
ATOM     40  C   UNL A   1      40.412  26.837  28.194  1.00  0.00    -0.014 A 
ATOM     41  C   UNL A   1      40.993  26.835  26.916  1.00  0.00     0.009 A 
ATOM     42  C   UNL A   1      39.620  25.746  28.583  1.00  0.00     0.009 A 
ATOM     43  C   UNL A   1      40.752  25.780  26.033  1.00  0.00     0.001 A 
ATOM     44  C   UNL A   1      39.402  24.681  27.707  1.00  0.00     0.001 A 
ATOM     45  C   UNL A   1      39.960  24.704  26.430  1.00  0.00     0.000 A 
ENDBRANCH  26  40
BRANCH  27  46
ATOM     46  C   UNL A   1      41.276  34.338  34.697  1.00  0.00    -0.014 A 
ATOM     47  C   UNL A   1      42.001  35.507  34.429  1.00  0.00     0.009 A 
ATOM     48  C   UNL A   1      40.575  34.230  35.909  1.00  0.00     0.009 A 
ATOM     49  C   UNL A   1      42.025  36.549  35.360  1.00  0.00     0.001 A 
ATOM     50  C   UNL A   1      40.583  35.282  36.827  1.00  0.00     0.001 A 
ATOM     51  C   UNL A   1      41.311  36.439  36.553  1.00  0.00     0.000 A 
ENDBRANCH  27  46
BRANCH  39  52
ATOM     52  C   UNL A   1      44.987  28.561  33.491  1.00  0.00    -0.014 A 
ATOM     53  C   UNL A   1      46.269  28.933  33.065  1.00  0.00     0.009 A 
ATOM     54  C   UNL A   1      44.854  27.681  34.577  1.00  0.00     0.009 A 
ATOM     55  C   UNL A   1      47.400  28.420  33.704  1.00  0.00     0.001 A 
ATOM     56  C   UNL A   1      45.985  27.186  35.226  1.00  0.00     0.001 A 
ATOM     57  C   UNL A   1      47.257  27.551  34.787  1.00  0.00     0.000 A 
ENDBRANCH  39  52
ENDBRANCH  13  14
ENDBRANCH   6   8
ENDBRANCH   3   4
ENDBRANCH   2   3
ENDBRANCH   1   2
BRANCH   1  58
ATOM     58  C   UNL A   1      31.865  28.727  26.066  1.00  0.00     0.116 C 
BRANCH  58  59
ATOM     59  N   UNL A   1      32.133  29.261  24.750  1.00  0.00    -0.351 N 
ATOM     60  C   UNL A   1      32.016  28.638  23.538  1.00  0.00     0.262 C 
ATOM     61  H   UNL A   1      32.441  30.196  24.723  1.00  0.00     0.163 HD
ATOM     62  O   UNL A   1      32.548  29.197  22.576  1.00  0.00    -0.268 OA
BRANCH  60  63
ATOM     63  C   UNL A   1      31.399  27.336  23.444  1.00  0.00     0.112 A 
ATOM     64  S   UNL A   1      29.678  27.349  23.644  1.00  0.00    -0.137 S 
ATOM     65  C   UNL A   1      31.873  26.044  23.287  1.00  0.00     0.111 A 
ATOM     66  C   UNL A   1      29.552  25.670  23.429  1.00  0.00     0.067 A 
ATOM     67  C   UNL A   1      30.783  25.095  23.232  1.00  0.00     0.035 A 
BRANCH  65  68
ATOM     68  S   UNL A   1      33.496  25.460  23.086  1.00  0.00     0.263 S 
ATOM     69  O   UNL A   1      33.859  25.940  21.762  1.00  0.00    -0.201 OA
ATOM     70  O   UNL A   1      34.184  26.038  24.220  1.00  0.00    -0.201 OA
BRANCH  68  71
ATOM     71  N   UNL A   1      33.880  23.837  23.119  1.00  0.00    -0.277 N 
ATOM     72  H   UNL A   1      33.399  23.242  22.498  1.00  0.00     0.180 HD
BRANCH  71  73
ATOM     73  C   UNL A   1      34.851  23.245  23.976  1.00  0.00     0.072 A 
ATOM     74  C   UNL A   1      36.107  22.981  23.409  1.00  0.00     0.029 A 
ATOM     75  C   UNL A   1      34.579  22.880  25.310  1.00  0.00     0.061 A 
ATOM     76  C   UNL A   1      37.142  22.450  24.174  1.00  0.00     0.002 A 
ATOM     77  C   UNL A   1      35.649  22.371  26.068  1.00  0.00     0.028 A 
ATOM     78  C   UNL A   1      36.917  22.165  25.514  1.00  0.00     0.002 A 
BRANCH  75  79
ATOM     79  N   UNL A   1      33.314  22.890  25.873  1.00  0.00    -0.370 N 
ATOM     80  C   UNL A   1      32.436  21.734  25.728  1.00  0.00     0.116 C 
ATOM     81  C   UNL A   1      32.954  23.961  26.801  1.00  0.00     0.116 C 
ATOM     82  C   UNL A   1      30.987  22.170  25.545  1.00  0.00     0.021 C 
ATOM     83  C   UNL A   1      31.500  24.376  26.597  1.00  0.00     0.021 C 
ATOM     84  C   UNL A   1      30.574  23.164  26.625  1.00  0.00     0.004 C 
ENDBRANCH  75  79
ENDBRANCH  71  73
ENDBRANCH  68  71
ENDBRANCH  65  68
ENDBRANCH  60  63
ENDBRANCH  58  59
ENDBRANCH   1  58
TORSDOF 15
ENDMDL
MODEL 2
REMARK VINA RESULT:     -11.1      3.445      8.726
REMARK SMILES O=C(NCCCCNC(=O)c1sccc1S(=O)(=O)Nc1ccccc1N1CCCCC1)c1ccc(-c2c3nc(c(-c4ccccc4)c4ccc([nH]4)c(-c4ccccc4)c4nc(c(-c5ccccc5)c5ccc2[nH]5)C=C4)C=C3)cc1
REMARK SMILES IDX 6 1 5 2 4 3 3 4 1 5 2 6 32 8 33 9 79 10 34 11 78 12 35 13
REMARK SMILES IDX 36 14 37 15 72 16 38 17 77 18 71 19 73 20 39 21 76 22 70 23
REMARK SMILES IDX 69 24 40 26 62 27 47 28 61 29 48 30 51 31 60 32 74 33 49 34
REMARK SMILES IDX 50 35 59 37 75 38 52 39 41 40 42 41 46 42 43 43 45 44 44 45
REMARK SMILES IDX 63 46 64 47 68 48 65 49 67 50 66 51 53 52 54 53 58 54 55 55
REMARK SMILES IDX 57 56 56 57 7 58 8 59 9 60 10 62 11 63 12 64 15 65 13 66
REMARK SMILES IDX 14 67 16 68 17 69 18 70 19 71 20 73 21 74 25 75 22 76 24 77
REMARK SMILES IDX 23 78 26 79 27 80 31 81 28 82 30 83 29 84
REMARK H PARENT 3 7 73 25 51 36 8 61 19 72
REMARK Flexibility Score: inf
ROOT
ATOM      1  C   UNL A   1      37.152  21.403  24.678  1.00  0.00     0.023 C 
ENDROOT
BRANCH   1   2
ATOM      2  C   UNL A   1      38.582  21.282  25.219  1.00  0.00     0.023 C 
BRANCH   2   3
ATOM      3  C   UNL A   1      38.849  20.057  26.091  1.00  0.00     0.116 C 
BRANCH   3   4
ATOM      4  N   UNL A   1      40.083  19.374  25.758  1.00  0.00    -0.352 N 
ATOM      5  O   UNL A   1      42.288  19.121  25.372  1.00  0.00    -0.269 OA
ATOM      6  C   UNL A   1      41.383  19.796  25.856  1.00  0.00     0.251 C 
ATOM      7  H   UNL A   1      39.969  18.460  25.408  1.00  0.00     0.163 HD
BRANCH   6   8
ATOM      8  C   UNL A   1      41.708  21.077  26.515  1.00  0.00     0.039 A 
ATOM      9  C   UNL A   1      41.641  21.223  27.904  1.00  0.00     0.014 A 
ATOM     10  C   UNL A   1      42.149  22.138  25.718  1.00  0.00     0.014 A 
ATOM     11  C   UNL A   1      41.911  22.462  28.487  1.00  0.00     0.010 A 
ATOM     12  C   UNL A   1      42.474  23.359  26.308  1.00  0.00     0.010 A 
ATOM     13  C   UNL A   1      42.335  23.537  27.693  1.00  0.00    -0.014 A 
BRANCH  13  14
ATOM     14  C   UNL A   1      42.679  24.845  28.302  1.00  0.00     0.031 A 
ATOM     15  C   UNL A   1      41.625  25.897  28.493  1.00  0.00     0.074 A 
ATOM     16  C   UNL A   1      43.959  25.108  28.621  1.00  0.00     0.049 A 
ATOM     17  N   UNL A   1      41.760  27.138  28.888  1.00  0.00    -0.248 NA
ATOM     18  C   UNL A   1      40.239  25.507  28.192  1.00  0.00     0.031 C 
ATOM     19  C   UNL A   1      45.075  24.172  28.479  1.00  0.00     0.029 A 
ATOM     20  N   UNL A   1      44.540  26.252  29.109  1.00  0.00    -0.354 N 
ATOM     21  C   UNL A   1      40.485  27.687  28.851  1.00  0.00     0.074 A 
ATOM     22  C   UNL A   1      39.591  26.647  28.386  1.00  0.00     0.031 C 
ATOM     23  C   UNL A   1      46.207  24.779  28.866  1.00  0.00     0.029 A 
ATOM     24  C   UNL A   1      45.905  26.159  29.231  1.00  0.00     0.049 A 
ATOM     25  H   UNL A   1      44.029  27.059  29.347  1.00  0.00     0.167 HD
ATOM     26  C   UNL A   1      40.096  28.944  29.172  1.00  0.00     0.031 A 
ATOM     27  C   UNL A   1      46.818  27.090  29.562  1.00  0.00     0.031 A 
ATOM     28  C   UNL A   1      40.985  29.976  29.634  1.00  0.00     0.049 A 
ATOM     29  C   UNL A   1      46.370  28.485  29.881  1.00  0.00     0.074 A 
ATOM     30  C   UNL A   1      40.677  31.266  30.032  1.00  0.00     0.029 A 
ATOM     31  N   UNL A   1      42.360  29.839  29.751  1.00  0.00    -0.354 N 
ATOM     32  N   UNL A   1      45.157  28.979  29.881  1.00  0.00    -0.248 NA
ATOM     33  C   UNL A   1      47.417  29.450  30.247  1.00  0.00     0.031 C 
ATOM     34  C   UNL A   1      41.871  31.924  30.345  1.00  0.00     0.029 A 
ATOM     35  C   UNL A   1      42.918  31.029  30.188  1.00  0.00     0.049 A 
ATOM     36  H   UNL A   1      42.864  29.018  29.552  1.00  0.00     0.167 HD
ATOM     37  C   UNL A   1      45.288  30.306  30.263  1.00  0.00     0.074 A 
ATOM     38  C   UNL A   1      46.700  30.539  30.494  1.00  0.00     0.031 C 
ATOM     39  C   UNL A   1      44.324  31.245  30.411  1.00  0.00     0.031 A 
BRANCH  26  40
ATOM     40  C   UNL A   1      38.643  29.280  28.997  1.00  0.00    -0.014 A 
ATOM     41  C   UNL A   1      38.140  29.736  27.769  1.00  0.00     0.009 A 
ATOM     42  C   UNL A   1      37.758  29.116  30.075  1.00  0.00     0.009 A 
ATOM     43  C   UNL A   1      36.787  30.057  27.635  1.00  0.00     0.001 A 
ATOM     44  C   UNL A   1      36.402  29.414  29.931  1.00  0.00     0.001 A 
ATOM     45  C   UNL A   1      35.920  29.893  28.714  1.00  0.00     0.000 A 
ENDBRANCH  26  40
BRANCH  27  46
ATOM     46  C   UNL A   1      48.254  26.718  29.578  1.00  0.00    -0.014 A 
ATOM     47  C   UNL A   1      48.827  26.137  30.718  1.00  0.00     0.009 A 
ATOM     48  C   UNL A   1      49.043  26.889  28.429  1.00  0.00     0.009 A 
ATOM     49  C   UNL A   1      50.166  25.738  30.709  1.00  0.00     0.001 A 
ATOM     50  C   UNL A   1      50.374  26.469  28.415  1.00  0.00     0.001 A 
ATOM     51  C   UNL A   1      50.935  25.897  29.556  1.00  0.00     0.000 A 
ENDBRANCH  27  46
BRANCH  39  52
ATOM     52  C   UNL A   1      44.755  32.606  30.876  1.00  0.00    -0.014 A 
ATOM     53  C   UNL A   1      45.114  33.605  29.960  1.00  0.00     0.009 A 
ATOM     54  C   UNL A   1      44.740  32.907  32.247  1.00  0.00     0.009 A 
ATOM     55  C   UNL A   1      45.471  34.878  30.410  1.00  0.00     0.001 A 
ATOM     56  C   UNL A   1      45.077  34.185  32.693  1.00  0.00     0.001 A 
ATOM     57  C   UNL A   1      45.447  35.168  31.776  1.00  0.00     0.000 A 
ENDBRANCH  39  52
ENDBRANCH  13  14
ENDBRANCH   6   8
ENDBRANCH   3   4
ENDBRANCH   2   3
ENDBRANCH   1   2
BRANCH   1  58
ATOM     58  C   UNL A   1      36.237  22.306  25.499  1.00  0.00     0.116 C 
BRANCH  58  59
ATOM     59  N   UNL A   1      35.454  21.574  26.468  1.00  0.00    -0.351 N 
ATOM     60  C   UNL A   1      34.093  21.449  26.544  1.00  0.00     0.262 C 
ATOM     61  H   UNL A   1      35.966  21.105  27.166  1.00  0.00     0.163 HD
ATOM     62  O   UNL A   1      33.638  21.001  27.600  1.00  0.00    -0.268 OA
BRANCH  60  63
ATOM     63  C   UNL A   1      33.256  21.936  25.474  1.00  0.00     0.112 A 
ATOM     64  S   UNL A   1      33.166  20.879  24.104  1.00  0.00    -0.137 S 
ATOM     65  C   UNL A   1      32.537  23.100  25.253  1.00  0.00     0.111 A 
ATOM     66  C   UNL A   1      32.109  21.910  23.266  1.00  0.00     0.067 A 
ATOM     67  C   UNL A   1      31.840  23.046  23.987  1.00  0.00     0.035 A 
BRANCH  65  68
ATOM     68  S   UNL A   1      32.319  24.493  26.266  1.00  0.00     0.263 S 
ATOM     69  O   UNL A   1      31.721  23.938  27.469  1.00  0.00    -0.201 OA
ATOM     70  O   UNL A   1      33.661  25.025  26.368  1.00  0.00    -0.201 OA
BRANCH  68  71
ATOM     71  N   UNL A   1      31.366  25.789  25.821  1.00  0.00    -0.277 N 
ATOM     72  H   UNL A   1      30.461  25.594  25.485  1.00  0.00     0.180 HD
BRANCH  71  73
ATOM     73  C   UNL A   1      31.762  27.155  25.893  1.00  0.00     0.072 A 
ATOM     74  C   UNL A   1      31.447  27.836  27.080  1.00  0.00     0.029 A 
ATOM     75  C   UNL A   1      32.384  27.833  24.826  1.00  0.00     0.061 A 
ATOM     76  C   UNL A   1      31.833  29.159  27.271  1.00  0.00     0.002 A 
ATOM     77  C   UNL A   1      32.788  29.161  25.055  1.00  0.00     0.028 A 
ATOM     78  C   UNL A   1      32.526  29.816  26.263  1.00  0.00     0.002 A 
BRANCH  75  79
ATOM     79  N   UNL A   1      32.520  27.310  23.550  1.00  0.00    -0.370 N 
ATOM     80  C   UNL A   1      31.457  27.488  22.567  1.00  0.00     0.116 C 
ATOM     81  C   UNL A   1      33.817  26.785  23.127  1.00  0.00     0.116 C 
ATOM     82  C   UNL A   1      31.302  26.245  21.701  1.00  0.00     0.021 C 
ATOM     83  C   UNL A   1      33.633  25.543  22.262  1.00  0.00     0.021 C 
ATOM     84  C   UNL A   1      32.646  25.805  21.128  1.00  0.00     0.004 C 
ENDBRANCH  75  79
ENDBRANCH  71  73
ENDBRANCH  68  71
ENDBRANCH  65  68
ENDBRANCH  60  63
ENDBRANCH  58  59
ENDBRANCH   1  58
TORSDOF 15
ENDMDL
MODEL 3
REMARK VINA RESULT:     -11.0      4.214      9.276
REMARK SMILES O=C(NCCCCNC(=O)c1sccc1S(=O)(=O)Nc1ccccc1N1CCCCC1)c1ccc(-c2c3nc(c(-c4ccccc4)c4ccc([nH]4)c(-c4ccccc4)c4nc(c(-c5ccccc5)c5ccc2[nH]5)C=C4)C=C3)cc1
REMARK SMILES IDX 6 1 5 2 4 3 3 4 1 5 2 6 32 8 33 9 79 10 34 11 78 12 35 13
REMARK SMILES IDX 36 14 37 15 72 16 38 17 77 18 71 19 73 20 39 21 76 22 70 23
REMARK SMILES IDX 69 24 40 26 62 27 47 28 61 29 48 30 51 31 60 32 74 33 49 34
REMARK SMILES IDX 50 35 59 37 75 38 52 39 41 40 42 41 46 42 43 43 45 44 44 45
REMARK SMILES IDX 63 46 64 47 68 48 65 49 67 50 66 51 53 52 54 53 58 54 55 55
REMARK SMILES IDX 57 56 56 57 7 58 8 59 9 60 10 62 11 63 12 64 15 65 13 66
REMARK SMILES IDX 14 67 16 68 17 69 18 70 19 71 20 73 21 74 25 75 22 76 24 77
REMARK SMILES IDX 23 78 26 79 27 80 31 81 28 82 30 83 29 84
REMARK H PARENT 3 7 73 25 51 36 8 61 19 72
REMARK Flexibility Score: inf
ROOT
ATOM      1  C   UNL A   1      36.417  20.072  25.035  1.00  0.00     0.023 C 
ENDROOT
BRANCH   1   2
ATOM      2  C   UNL A   1      37.902  19.952  24.671  1.00  0.00     0.023 C 
BRANCH   2   3
ATOM      3  C   UNL A   1      38.876  20.142  25.832  1.00  0.00     0.116 C 
BRANCH   3   4
ATOM      4  N   UNL A   1      39.977  19.199  25.817  1.00  0.00    -0.352 N 
ATOM      5  O   UNL A   1      42.115  18.490  25.835  1.00  0.00    -0.269 OA
ATOM      6  C   UNL A   1      41.313  19.395  26.050  1.00  0.00     0.251 C 
ATOM      7  H   UNL A   1      39.724  18.271  25.608  1.00  0.00     0.163 HD
BRANCH   6   8
ATOM      8  C   UNL A   1      41.807  20.700  26.533  1.00  0.00     0.039 A 
ATOM      9  C   UNL A   1      41.984  20.956  27.897  1.00  0.00     0.014 A 
ATOM     10  C   UNL A   1      42.157  21.666  25.586  1.00  0.00     0.014 A 
ATOM     11  C   UNL A   1      42.409  22.217  28.318  1.00  0.00     0.010 A 
ATOM     12  C   UNL A   1      42.636  22.907  26.006  1.00  0.00     0.010 A 
ATOM     13  C   UNL A   1      42.743  23.200  27.375  1.00  0.00    -0.014 A 
BRANCH  13  14
ATOM     14  C   UNL A   1      43.249  24.526  27.804  1.00  0.00     0.031 A 
ATOM     15  C   UNL A   1      42.293  25.612  28.208  1.00  0.00     0.074 A 
ATOM     16  C   UNL A   1      44.571  24.774  27.763  1.00  0.00     0.049 A 
ATOM     17  N   UNL A   1      42.540  26.866  28.487  1.00  0.00    -0.248 NA
ATOM     18  C   UNL A   1      40.873  25.241  28.299  1.00  0.00     0.031 C 
ATOM     19  C   UNL A   1      45.601  23.805  27.383  1.00  0.00     0.029 A 
ATOM     20  N   UNL A   1      45.271  25.925  28.021  1.00  0.00    -0.354 N 
ATOM     21  C   UNL A   1      41.306  27.443  28.757  1.00  0.00     0.074 A 
ATOM     22  C   UNL A   1      40.311  26.404  28.596  1.00  0.00     0.031 C 
ATOM     23  C   UNL A   1      46.801  24.403  27.429  1.00  0.00     0.029 A 
ATOM     24  C   UNL A   1      46.619  25.806  27.787  1.00  0.00     0.049 A 
ATOM     25  H   UNL A   1      44.849  26.755  28.342  1.00  0.00     0.167 HD
ATOM     26  C   UNL A   1      41.028  28.723  29.102  1.00  0.00     0.031 A 
ATOM     27  C   UNL A   1      47.597  26.729  27.819  1.00  0.00     0.031 A 
ATOM     28  C   UNL A   1      42.018  29.755  29.260  1.00  0.00     0.049 A 
ATOM     29  C   UNL A   1      47.264  28.148  28.170  1.00  0.00     0.074 A 
ATOM     30  C   UNL A   1      41.838  31.069  29.657  1.00  0.00     0.029 A 
ATOM     31  N   UNL A   1      43.374  29.591  29.021  1.00  0.00    -0.354 N 
ATOM     32  N   UNL A   1      46.098  28.670  28.461  1.00  0.00    -0.248 NA
ATOM     33  C   UNL A   1      48.380  29.105  28.199  1.00  0.00     0.031 C 
ATOM     34  C   UNL A   1      43.080  31.712  29.612  1.00  0.00     0.029 A 
ATOM     35  C   UNL A   1      44.040  30.786  29.234  1.00  0.00     0.049 A 
ATOM     36  H   UNL A   1      43.800  28.748  28.740  1.00  0.00     0.167 HD
ATOM     37  C   UNL A   1      46.339  30.011  28.725  1.00  0.00     0.074 A 
ATOM     38  C   UNL A   1      47.764  30.221  28.567  1.00  0.00     0.031 C 
ATOM     39  C   UNL A   1      45.457  30.979  29.071  1.00  0.00     0.031 A 
BRANCH  26  40
ATOM     40  C   UNL A   1      39.583  29.085  29.295  1.00  0.00    -0.014 A 
ATOM     41  C   UNL A   1      38.950  28.931  30.538  1.00  0.00     0.009 A 
ATOM     42  C   UNL A   1      38.850  29.612  28.219  1.00  0.00     0.009 A 
ATOM     43  C   UNL A   1      37.601  29.260  30.689  1.00  0.00     0.001 A 
ATOM     44  C   UNL A   1      37.509  29.963  28.380  1.00  0.00     0.001 A 
ATOM     45  C   UNL A   1      36.883  29.778  29.612  1.00  0.00     0.000 A 
ENDBRANCH  26  40
BRANCH  27  46
ATOM     46  C   UNL A   1      48.983  26.324  27.479  1.00  0.00    -0.014 A 
ATOM     47  C   UNL A   1      49.411  26.301  26.144  1.00  0.00     0.009 A 
ATOM     48  C   UNL A   1      49.901  26.015  28.496  1.00  0.00     0.009 A 
ATOM     49  C   UNL A   1      50.733  25.972  25.834  1.00  0.00     0.001 A 
ATOM     50  C   UNL A   1      51.227  25.709  28.184  1.00  0.00     0.001 A 
ATOM     51  C   UNL A   1      51.641  25.685  26.854  1.00  0.00     0.000 A 
ENDBRANCH  27  46
BRANCH  39  52
ATOM     52  C   UNL A   1      46.009  32.350  29.335  1.00  0.00    -0.014 A 
ATOM     53  C   UNL A   1      46.079  33.312  28.317  1.00  0.00     0.009 A 
ATOM     54  C   UNL A   1      46.406  32.698  30.635  1.00  0.00     0.009 A 
ATOM     55  C   UNL A   1      46.556  34.595  28.593  1.00  0.00     0.001 A 
ATOM     56  C   UNL A   1      46.863  33.987  30.912  1.00  0.00     0.001 A 
ATOM     57  C   UNL A   1      46.942  34.933  29.891  1.00  0.00     0.000 A 
ENDBRANCH  39  52
ENDBRANCH  13  14
ENDBRANCH   6   8
ENDBRANCH   3   4
ENDBRANCH   2   3
ENDBRANCH   1   2
BRANCH   1  58
ATOM     58  C   UNL A   1      35.991  21.455  25.517  1.00  0.00     0.116 C 
BRANCH  58  59
ATOM     59  N   UNL A   1      35.156  21.405  26.694  1.00  0.00    -0.351 N 
ATOM     60  C   UNL A   1      33.839  21.755  26.820  1.00  0.00     0.262 C 
ATOM     61  H   UNL A   1      35.591  21.076  27.514  1.00  0.00     0.163 HD
ATOM     62  O   UNL A   1      33.408  21.879  27.970  1.00  0.00    -0.268 OA
BRANCH  60  63
ATOM     63  C   UNL A   1      33.054  22.069  25.651  1.00  0.00     0.112 A 
ATOM     64  S   UNL A   1      32.863  20.749  24.545  1.00  0.00    -0.137 S 
ATOM     65  C   UNL A   1      32.452  23.219  25.164  1.00  0.00     0.111 A 
ATOM     66  C   UNL A   1      31.911  21.665  23.478  1.00  0.00     0.067 A 
ATOM     67  C   UNL A   1      31.753  22.952  23.926  1.00  0.00     0.035 A 
BRANCH  65  68
ATOM     68  S   UNL A   1      32.369  24.816  25.840  1.00  0.00     0.263 S 
ATOM     69  O   UNL A   1      31.472  24.650  26.972  1.00  0.00    -0.201 OA
ATOM     70  O   UNL A   1      33.757  25.112  26.123  1.00  0.00    -0.201 OA
BRANCH  68  71
ATOM     71  N   UNL A   1      31.806  26.130  24.980  1.00  0.00    -0.277 N 
ATOM     72  H   UNL A   1      30.892  26.443  25.173  1.00  0.00     0.180 HD
BRANCH  71  73
ATOM     73  C   UNL A   1      32.545  26.834  23.988  1.00  0.00     0.072 A 
ATOM     74  C   UNL A   1      32.894  26.110  22.836  1.00  0.00     0.029 A 
ATOM     75  C   UNL A   1      32.970  28.168  24.147  1.00  0.00     0.061 A 
ATOM     76  C   UNL A   1      33.573  26.719  21.785  1.00  0.00     0.002 A 
ATOM     77  C   UNL A   1      33.631  28.767  23.059  1.00  0.00     0.028 A 
ATOM     78  C   UNL A   1      33.923  28.058  21.889  1.00  0.00     0.002 A 
BRANCH  75  79
ATOM     79  N   UNL A   1      32.873  28.875  25.334  1.00  0.00    -0.370 N 
ATOM     80  C   UNL A   1      31.639  29.573  25.675  1.00  0.00     0.116 C 
ATOM     81  C   UNL A   1      33.924  28.729  26.340  1.00  0.00     0.116 C 
ATOM     82  C   UNL A   1      31.935  30.895  26.372  1.00  0.00     0.021 C 
ATOM     83  C   UNL A   1      34.199  30.065  27.022  1.00  0.00     0.021 C 
ATOM     84  C   UNL A   1      32.907  30.697  27.530  1.00  0.00     0.004 C 
ENDBRANCH  75  79
ENDBRANCH  71  73
ENDBRANCH  68  71
ENDBRANCH  65  68
ENDBRANCH  60  63
ENDBRANCH  58  59
ENDBRANCH   1  58
TORSDOF 15
ENDMDL
