MODEL 1
REMARK VINA RESULT:     -10.4      0.000      0.000
REMARK SMILES CCC(CC)(NC(=O)NCCc1nccs1)C(=O)NCCCCNC(=O)c1ccc(-c2c3nc(c(-c4ccccc4)c4ccc([nH]4)c(-c4ccccc4)c4nc(c(-c5ccccc5)c5ccc2[nH]5)C=C4)C=C3)cc1
REMARK SMILES IDX 20 1 19 2 17 3 18 4 3 6 2 7 1 8 4 9 5 10 6 11 7 12 8 14 9 15
REMARK SMILES IDX 10 17 11 18 12 19 13 20 16 21 14 22 15 23 21 24 22 25 23 26
REMARK SMILES IDX 24 27 25 28 26 30 27 31 28 32 74 33 29 34 73 35 30 36 31 37
REMARK SMILES IDX 32 38 67 39 33 40 72 41 66 42 68 43 34 44 71 45 65 46 64 47
REMARK SMILES IDX 35 49 57 50 42 51 56 52 43 53 46 54 55 55 69 56 44 57 45 58
REMARK SMILES IDX 54 60 70 61 47 62 36 63 37 64 41 65 38 66 40 67 39 68 58 69
REMARK SMILES IDX 59 70 63 71 60 72 62 73 61 74 48 75 49 76 53 77 50 78 52 79
REMARK SMILES IDX 51 80
REMARK H PARENT 19 5 6 13 9 16 24 29 68 48 46 59
REMARK Flexibility Score: inf
ROOT
ATOM      1  C   UNL A   1      32.746  29.834  26.251  1.00  0.00     0.116 C 
ENDROOT
BRANCH   1   2
ATOM      2  N   UNL A   1      33.584  29.445  25.118  1.00  0.00    -0.354 N 
ATOM      3  C   UNL A   1      33.645  28.323  24.324  1.00  0.00     0.245 C 
ATOM      4  O   UNL A   1      34.303  28.426  23.282  1.00  0.00    -0.272 OA
ATOM      5  H   UNL A   1      34.245  30.131  24.871  1.00  0.00     0.163 HD
BRANCH   3   6
ATOM      6  C   UNL A   1      32.836  27.035  24.647  1.00  0.00     0.120 C 
BRANCH   6   7
ATOM      7  C   UNL A   1      31.441  27.201  25.320  1.00  0.00     0.035 C 
ATOM      8  C   UNL A   1      31.054  26.220  26.419  1.00  0.00     0.007 C 
ENDBRANCH   6   7
BRANCH   6   9
ATOM      9  C   UNL A   1      33.769  26.232  25.623  1.00  0.00     0.035 C 
ATOM     10  C   UNL A   1      34.532  25.048  25.046  1.00  0.00     0.007 C 
ENDBRANCH   6   9
BRANCH   6  11
ATOM     11  N   UNL A   1      32.622  26.345  23.358  1.00  0.00    -0.324 N 
ATOM     12  C   UNL A   1      31.906  26.582  22.252  1.00  0.00     0.315 C 
ATOM     13  H   UNL A   1      33.133  25.506  23.298  1.00  0.00     0.166 HD
ATOM     14  O   UNL A   1      31.871  25.668  21.421  1.00  0.00    -0.249 OA
ATOM     15  N   UNL A   1      31.290  27.720  21.914  1.00  0.00    -0.338 N 
ATOM     16  H   UNL A   1      31.108  27.743  20.947  1.00  0.00     0.165 HD
BRANCH  15  17
ATOM     17  C   UNL A   1      30.808  28.941  22.560  1.00  0.00     0.125 C 
BRANCH  17  18
ATOM     18  C   UNL A   1      29.291  29.110  22.698  1.00  0.00     0.089 C 
BRANCH  18  19
ATOM     19  C   UNL A   1      28.689  30.371  22.152  1.00  0.00     0.094 A 
ATOM     20  N   UNL A   1      28.396  30.538  20.877  1.00  0.00    -0.250 NA
ATOM     21  S   UNL A   1      28.529  31.781  23.125  1.00  0.00    -0.127 S 
ATOM     22  C   UNL A   1      28.034  31.847  20.638  1.00  0.00     0.123 A 
ATOM     23  C   UNL A   1      28.054  32.673  21.739  1.00  0.00     0.087 A 
ENDBRANCH  18  19
ENDBRANCH  17  18
ENDBRANCH  15  17
ENDBRANCH   6  11
ENDBRANCH   3   6
ENDBRANCH   1   2
BRANCH   1  24
ATOM     24  C   UNL A   1      31.478  30.644  25.975  1.00  0.00     0.023 C 
BRANCH  24  25
ATOM     25  C   UNL A   1      31.372  32.036  26.581  1.00  0.00     0.023 C 
BRANCH  25  26
ATOM     26  C   UNL A   1      32.664  32.631  27.116  1.00  0.00     0.116 C 
BRANCH  26  27
ATOM     27  N   UNL A   1      32.471  33.953  27.686  1.00  0.00    -0.352 N 
ATOM     28  C   UNL A   1      33.179  34.585  28.677  1.00  0.00     0.251 C 
ATOM     29  H   UNL A   1      31.726  34.471  27.306  1.00  0.00     0.163 HD
ATOM     30  O   UNL A   1      32.766  35.647  29.135  1.00  0.00    -0.269 OA
BRANCH  28  31
ATOM     31  C   UNL A   1      34.428  33.995  29.214  1.00  0.00     0.039 A 
ATOM     32  C   UNL A   1      35.626  34.253  28.542  1.00  0.00     0.014 A 
ATOM     33  C   UNL A   1      34.424  33.153  30.330  1.00  0.00     0.014 A 
ATOM     34  C   UNL A   1      36.822  33.696  29.005  1.00  0.00     0.010 A 
ATOM     35  C   UNL A   1      35.625  32.642  30.825  1.00  0.00     0.010 A 
ATOM     36  C   UNL A   1      36.833  32.898  30.160  1.00  0.00    -0.014 A 
BRANCH  36  37
ATOM     37  C   UNL A   1      38.098  32.311  30.666  1.00  0.00     0.031 A 
ATOM     38  C   UNL A   1      38.634  31.033  30.078  1.00  0.00     0.074 A 
ATOM     39  C   UNL A   1      38.751  32.905  31.683  1.00  0.00     0.049 A 
ATOM     40  N   UNL A   1      39.710  30.362  30.406  1.00  0.00    -0.248 NA
ATOM     41  C   UNL A   1      37.851  30.425  28.992  1.00  0.00     0.031 C 
ATOM     42  C   UNL A   1      38.328  34.133  32.359  1.00  0.00     0.029 A 
ATOM     43  N   UNL A   1      39.911  32.552  32.326  1.00  0.00    -0.354 N 
ATOM     44  C   UNL A   1      39.726  29.249  29.576  1.00  0.00     0.074 A 
ATOM     45  C   UNL A   1      38.532  29.311  28.760  1.00  0.00     0.031 C 
ATOM     46  C   UNL A   1      39.228  34.441  33.308  1.00  0.00     0.029 A 
ATOM     47  C   UNL A   1      40.271  33.419  33.329  1.00  0.00     0.049 A 
ATOM     48  H   UNL A   1      40.435  31.753  32.092  1.00  0.00     0.167 HD
ATOM     49  C   UNL A   1      40.657  28.268  29.486  1.00  0.00     0.031 A 
ATOM     50  C   UNL A   1      41.321  33.394  34.171  1.00  0.00     0.031 A 
ATOM     51  C   UNL A   1      41.849  28.203  30.289  1.00  0.00     0.049 A 
ATOM     52  C   UNL A   1      42.330  32.286  34.066  1.00  0.00     0.074 A 
ATOM     53  C   UNL A   1      42.876  27.275  30.235  1.00  0.00     0.029 A 
ATOM     54  N   UNL A   1      42.173  29.098  31.296  1.00  0.00    -0.354 N 
ATOM     55  N   UNL A   1      42.362  31.274  33.234  1.00  0.00    -0.248 NA
ATOM     56  C   UNL A   1      43.455  32.325  35.012  1.00  0.00     0.031 C 
ATOM     57  C   UNL A   1      43.798  27.583  31.242  1.00  0.00     0.029 A 
ATOM     58  C   UNL A   1      43.370  28.731  31.888  1.00  0.00     0.049 A 
ATOM     59  H   UNL A   1      41.631  29.878  31.554  1.00  0.00     0.167 HD
ATOM     60  C   UNL A   1      43.520  30.571  33.538  1.00  0.00     0.074 A 
ATOM     61  C   UNL A   1      44.170  31.279  34.621  1.00  0.00     0.031 C 
ATOM     62  C   UNL A   1      44.003  29.440  32.968  1.00  0.00     0.031 A 
BRANCH  49  63
ATOM     63  C   UNL A   1      40.414  27.174  28.484  1.00  0.00    -0.014 A 
ATOM     64  C   UNL A   1      39.653  26.043  28.813  1.00  0.00     0.009 A 
ATOM     65  C   UNL A   1      40.924  27.296  27.182  1.00  0.00     0.009 A 
ATOM     66  C   UNL A   1      39.438  25.036  27.870  1.00  0.00     0.001 A 
ATOM     67  C   UNL A   1      40.684  26.300  26.232  1.00  0.00     0.001 A 
ATOM     68  C   UNL A   1      39.950  25.167  26.581  1.00  0.00     0.000 A 
ENDBRANCH  49  63
BRANCH  50  69
ATOM     69  C   UNL A   1      41.480  34.468  35.184  1.00  0.00    -0.014 A 
ATOM     70  C   UNL A   1      40.924  34.324  36.465  1.00  0.00     0.009 A 
ATOM     71  C   UNL A   1      42.186  35.640  34.877  1.00  0.00     0.009 A 
ATOM     72  C   UNL A   1      41.054  35.343  37.410  1.00  0.00     0.001 A 
ATOM     73  C   UNL A   1      42.336  36.647  35.832  1.00  0.00     0.001 A 
ATOM     74  C   UNL A   1      41.763  36.502  37.095  1.00  0.00     0.000 A 
ENDBRANCH  50  69
BRANCH  62  75
ATOM     75  C   UNL A   1      45.312  28.913  33.487  1.00  0.00    -0.014 A 
ATOM     76  C   UNL A   1      45.356  27.971  34.526  1.00  0.00     0.009 A 
ATOM     77  C   UNL A   1      46.514  29.339  32.901  1.00  0.00     0.009 A 
ATOM     78  C   UNL A   1      46.582  27.489  34.988  1.00  0.00     0.001 A 
ATOM     79  C   UNL A   1      47.736  28.836  33.348  1.00  0.00     0.001 A 
ATOM     80  C   UNL A   1      47.770  27.918  34.397  1.00  0.00     0.000 A 
ENDBRANCH  62  75
ENDBRANCH  36  37
ENDBRANCH  28  31
ENDBRANCH  26  27
ENDBRANCH  25  26
ENDBRANCH  24  25
ENDBRANCH   1  24
TORSDOF 17
ENDMDL
MODEL 2
REMARK VINA RESULT:     -10.4      0.553      5.975
REMARK SMILES CCC(CC)(NC(=O)NCCc1nccs1)C(=O)NCCCCNC(=O)c1ccc(-c2c3nc(c(-c4ccccc4)c4ccc([nH]4)c(-c4ccccc4)c4nc(c(-c5ccccc5)c5ccc2[nH]5)C=C4)C=C3)cc1
REMARK SMILES IDX 20 1 19 2 17 3 18 4 3 6 2 7 1 8 4 9 5 10 6 11 7 12 8 14 9 15
REMARK SMILES IDX 10 17 11 18 12 19 13 20 16 21 14 22 15 23 21 24 22 25 23 26
REMARK SMILES IDX 24 27 25 28 26 30 27 31 28 32 74 33 29 34 73 35 30 36 31 37
REMARK SMILES IDX 32 38 67 39 33 40 72 41 66 42 68 43 34 44 71 45 65 46 64 47
REMARK SMILES IDX 35 49 57 50 42 51 56 52 43 53 46 54 55 55 69 56 44 57 45 58
REMARK SMILES IDX 54 60 70 61 47 62 36 63 37 64 41 65 38 66 40 67 39 68 58 69
REMARK SMILES IDX 59 70 63 71 60 72 62 73 61 74 48 75 49 76 53 77 50 78 52 79
REMARK SMILES IDX 51 80
REMARK H PARENT 19 5 6 13 9 16 24 29 68 48 46 59
REMARK Flexibility Score: inf
ROOT
ATOM      1  C   UNL A   1      32.683  30.091  26.133  1.00  0.00     0.116 C 
ENDROOT
BRANCH   1   2
ATOM      2  N   UNL A   1      33.410  29.743  24.914  1.00  0.00    -0.354 N 
ATOM      3  C   UNL A   1      33.474  28.609  24.137  1.00  0.00     0.245 C 
ATOM      4  O   UNL A   1      33.992  28.739  23.022  1.00  0.00    -0.272 OA
ATOM      5  H   UNL A   1      33.974  30.476  24.576  1.00  0.00     0.163 HD
BRANCH   3   6
ATOM      6  C   UNL A   1      32.826  27.266  24.580  1.00  0.00     0.120 C 
BRANCH   6   7
ATOM      7  C   UNL A   1      31.466  27.328  25.335  1.00  0.00     0.035 C 
ATOM      8  C   UNL A   1      31.440  26.911  26.800  1.00  0.00     0.007 C 
ENDBRANCH   6   7
BRANCH   6   9
ATOM      9  C   UNL A   1      33.897  26.619  25.530  1.00  0.00     0.035 C 
ATOM     10  C   UNL A   1      34.353  25.203  25.210  1.00  0.00     0.007 C 
ENDBRANCH   6   9
BRANCH   6  11
ATOM     11  N   UNL A   1      32.608  26.485  23.345  1.00  0.00    -0.324 N 
ATOM     12  C   UNL A   1      31.805  26.585  22.278  1.00  0.00     0.315 C 
ATOM     13  H   UNL A   1      33.198  25.699  23.293  1.00  0.00     0.166 HD
ATOM     14  O   UNL A   1      31.815  25.625  21.499  1.00  0.00    -0.249 OA
ATOM     15  N   UNL A   1      31.055  27.634  21.924  1.00  0.00    -0.338 N 
ATOM     16  H   UNL A   1      30.813  27.583  20.971  1.00  0.00     0.165 HD
BRANCH  15  17
ATOM     17  C   UNL A   1      30.488  28.835  22.537  1.00  0.00     0.125 C 
BRANCH  17  18
ATOM     18  C   UNL A   1      28.972  29.029  22.431  1.00  0.00     0.089 C 
BRANCH  18  19
ATOM     19  C   UNL A   1      28.482  30.365  21.957  1.00  0.00     0.094 A 
ATOM     20  N   UNL A   1      28.103  30.595  20.714  1.00  0.00    -0.250 NA
ATOM     21  S   UNL A   1      28.579  31.762  22.957  1.00  0.00    -0.127 S 
ATOM     22  C   UNL A   1      27.883  31.943  20.525  1.00  0.00     0.123 A 
ATOM     23  C   UNL A   1      28.098  32.736  21.629  1.00  0.00     0.087 A 
ENDBRANCH  18  19
ENDBRANCH  17  18
ENDBRANCH  15  17
ENDBRANCH   6  11
ENDBRANCH   3   6
ENDBRANCH   1   2
BRANCH   1  24
ATOM     24  C   UNL A   1      31.396  30.909  26.006  1.00  0.00     0.023 C 
BRANCH  24  25
ATOM     25  C   UNL A   1      31.304  32.220  26.773  1.00  0.00     0.023 C 
BRANCH  25  26
ATOM     26  C   UNL A   1      32.621  32.930  27.043  1.00  0.00     0.116 C 
BRANCH  26  27
ATOM     27  N   UNL A   1      32.447  34.141  27.825  1.00  0.00    -0.352 N 
ATOM     28  C   UNL A   1      33.203  34.621  28.866  1.00  0.00     0.251 C 
ATOM     29  H   UNL A   1      31.677  34.699  27.573  1.00  0.00     0.163 HD
ATOM     30  O   UNL A   1      32.806  35.589  29.509  1.00  0.00    -0.269 OA
BRANCH  28  31
ATOM     31  C   UNL A   1      34.485  33.975  29.235  1.00  0.00     0.039 A 
ATOM     32  C   UNL A   1      34.512  33.156  30.368  1.00  0.00     0.014 A 
ATOM     33  C   UNL A   1      35.662  34.211  28.519  1.00  0.00     0.014 A 
ATOM     34  C   UNL A   1      35.707  32.547  30.763  1.00  0.00     0.010 A 
ATOM     35  C   UNL A   1      36.842  33.559  28.879  1.00  0.00     0.010 A 
ATOM     36  C   UNL A   1      36.879  32.732  30.012  1.00  0.00    -0.014 A 
BRANCH  36  37
ATOM     37  C   UNL A   1      38.150  32.081  30.415  1.00  0.00     0.031 A 
ATOM     38  C   UNL A   1      39.053  32.735  31.426  1.00  0.00     0.074 A 
ATOM     39  C   UNL A   1      38.516  30.918  29.845  1.00  0.00     0.049 A 
ATOM     40  N   UNL A   1      40.210  32.327  31.885  1.00  0.00    -0.248 NA
ATOM     41  C   UNL A   1      38.603  34.020  31.983  1.00  0.00     0.031 C 
ATOM     42  C   UNL A   1      37.746  30.190  28.835  1.00  0.00     0.029 A 
ATOM     43  N   UNL A   1      39.633  30.143  30.037  1.00  0.00    -0.354 N 
ATOM     44  C   UNL A   1      40.631  33.310  32.772  1.00  0.00     0.074 A 
ATOM     45  C   UNL A   1      39.627  34.353  32.756  1.00  0.00     0.031 C 
ATOM     46  C   UNL A   1      38.405  29.064  28.511  1.00  0.00     0.029 A 
ATOM     47  C   UNL A   1      39.654  29.007  29.264  1.00  0.00     0.049 A 
ATOM     48  H   UNL A   1      40.351  30.379  30.666  1.00  0.00     0.167 HD
ATOM     49  C   UNL A   1      41.744  33.338  33.545  1.00  0.00     0.031 A 
ATOM     50  C   UNL A   1      40.575  28.030  29.172  1.00  0.00     0.031 A 
ATOM     51  C   UNL A   1      42.742  32.302  33.571  1.00  0.00     0.049 A 
ATOM     52  C   UNL A   1      41.812  28.093  30.024  1.00  0.00     0.074 A 
ATOM     53  C   UNL A   1      43.878  32.219  34.359  1.00  0.00     0.029 A 
ATOM     54  N   UNL A   1      42.728  31.172  32.770  1.00  0.00    -0.354 N 
ATOM     55  N   UNL A   1      42.164  28.999  30.903  1.00  0.00    -0.248 NA
ATOM     56  C   UNL A   1      42.771  26.989  29.877  1.00  0.00     0.031 C 
ATOM     57  C   UNL A   1      44.575  31.060  34.000  1.00  0.00     0.029 A 
ATOM     58  C   UNL A   1      43.847  30.397  33.025  1.00  0.00     0.049 A 
ATOM     59  H   UNL A   1      42.026  30.952  32.115  1.00  0.00     0.167 HD
ATOM     60  C   UNL A   1      43.371  28.562  31.432  1.00  0.00     0.074 A 
ATOM     61  C   UNL A   1      43.684  27.305  30.786  1.00  0.00     0.031 C 
ATOM     62  C   UNL A   1      44.150  29.151  32.372  1.00  0.00     0.031 A 
BRANCH  49  63
ATOM     63  C   UNL A   1      41.944  34.541  34.424  1.00  0.00    -0.014 A 
ATOM     64  C   UNL A   1      41.452  34.570  35.738  1.00  0.00     0.009 A 
ATOM     65  C   UNL A   1      42.665  35.644  33.943  1.00  0.00     0.009 A 
ATOM     66  C   UNL A   1      41.646  35.696  36.541  1.00  0.00     0.001 A 
ATOM     67  C   UNL A   1      42.882  36.758  34.757  1.00  0.00     0.001 A 
ATOM     68  C   UNL A   1      42.364  36.786  36.051  1.00  0.00     0.000 A 
ENDBRANCH  49  63
BRANCH  50  69
ATOM     69  C   UNL A   1      40.356  26.894  28.241  1.00  0.00    -0.014 A 
ATOM     70  C   UNL A   1      40.832  26.954  26.921  1.00  0.00     0.009 A 
ATOM     71  C   UNL A   1      39.670  25.746  28.665  1.00  0.00     0.009 A 
ATOM     72  C   UNL A   1      40.605  25.896  26.040  1.00  0.00     0.001 A 
ATOM     73  C   UNL A   1      39.467  24.679  27.789  1.00  0.00     0.001 A 
ATOM     74  C   UNL A   1      39.927  24.758  26.475  1.00  0.00     0.000 A 
ENDBRANCH  50  69
BRANCH  62  75
ATOM     75  C   UNL A   1      45.404  28.428  32.778  1.00  0.00    -0.014 A 
ATOM     76  C   UNL A   1      45.392  27.475  33.808  1.00  0.00     0.009 A 
ATOM     77  C   UNL A   1      46.603  28.677  32.094  1.00  0.00     0.009 A 
ATOM     78  C   UNL A   1      46.566  26.809  34.165  1.00  0.00     0.001 A 
ATOM     79  C   UNL A   1      47.769  27.991  32.436  1.00  0.00     0.001 A 
ATOM     80  C   UNL A   1      47.751  27.064  33.477  1.00  0.00     0.000 A 
ENDBRANCH  62  75
ENDBRANCH  36  37
ENDBRANCH  28  31
ENDBRANCH  26  27
ENDBRANCH  25  26
ENDBRANCH  24  25
ENDBRANCH   1  24
TORSDOF 17
ENDMDL
MODEL 3
REMARK VINA RESULT:     -10.2      1.930      3.485
REMARK SMILES CCC(CC)(NC(=O)NCCc1nccs1)C(=O)NCCCCNC(=O)c1ccc(-c2c3nc(c(-c4ccccc4)c4ccc([nH]4)c(-c4ccccc4)c4nc(c(-c5ccccc5)c5ccc2[nH]5)C=C4)C=C3)cc1
REMARK SMILES IDX 20 1 19 2 17 3 18 4 3 6 2 7 1 8 4 9 5 10 6 11 7 12 8 14 9 15
REMARK SMILES IDX 10 17 11 18 12 19 13 20 16 21 14 22 15 23 21 24 22 25 23 26
REMARK SMILES IDX 24 27 25 28 26 30 27 31 28 32 74 33 29 34 73 35 30 36 31 37
REMARK SMILES IDX 32 38 67 39 33 40 72 41 66 42 68 43 34 44 71 45 65 46 64 47
REMARK SMILES IDX 35 49 57 50 42 51 56 52 43 53 46 54 55 55 69 56 44 57 45 58
REMARK SMILES IDX 54 60 70 61 47 62 36 63 37 64 41 65 38 66 40 67 39 68 58 69
REMARK SMILES IDX 59 70 63 71 60 72 62 73 61 74 48 75 49 76 53 77 50 78 52 79
REMARK SMILES IDX 51 80
REMARK H PARENT 19 5 6 13 9 16 24 29 68 48 46 59
REMARK Flexibility Score: inf
ROOT
ATOM      1  C   UNL A   1      32.499  29.770  25.753  1.00  0.00     0.116 C 
ENDROOT
BRANCH   1   2
ATOM      2  N   UNL A   1      33.415  29.581  24.629  1.00  0.00    -0.354 N 
ATOM      3  C   UNL A   1      33.439  28.714  23.560  1.00  0.00     0.245 C 
ATOM      4  O   UNL A   1      34.225  28.996  22.647  1.00  0.00    -0.272 OA
ATOM      5  H   UNL A   1      34.176  30.205  24.640  1.00  0.00     0.163 HD
BRANCH   3   6
ATOM      6  C   UNL A   1      32.455  27.517  23.442  1.00  0.00     0.120 C 
BRANCH   6   7
ATOM      7  C   UNL A   1      30.932  27.833  23.358  1.00  0.00     0.035 C 
ATOM      8  C   UNL A   1      30.487  28.990  22.473  1.00  0.00     0.007 C 
ENDBRANCH   6   7
BRANCH   6   9
ATOM      9  C   UNL A   1      32.719  26.675  24.742  1.00  0.00     0.035 C 
ATOM     10  C   UNL A   1      34.086  26.022  24.887  1.00  0.00     0.007 C 
ENDBRANCH   6   9
BRANCH   6  11
ATOM     11  N   UNL A   1      32.823  26.797  22.206  1.00  0.00    -0.324 N 
ATOM     12  C   UNL A   1      32.540  25.601  21.674  1.00  0.00     0.315 C 
ATOM     13  H   UNL A   1      33.423  27.327  21.632  1.00  0.00     0.166 HD
ATOM     14  O   UNL A   1      33.177  25.294  20.660  1.00  0.00    -0.249 OA
ATOM     15  N   UNL A   1      31.596  24.741  22.070  1.00  0.00    -0.338 N 
ATOM     16  H   UNL A   1      31.382  24.104  21.351  1.00  0.00     0.165 HD
BRANCH  15  17
ATOM     17  C   UNL A   1      30.787  24.470  23.258  1.00  0.00     0.125 C 
BRANCH  17  18
ATOM     18  C   UNL A   1      31.001  23.126  23.962  1.00  0.00     0.089 C 
BRANCH  18  19
ATOM     19  C   UNL A   1      32.392  22.805  24.422  1.00  0.00     0.094 A 
ATOM     20  N   UNL A   1      33.373  22.498  23.594  1.00  0.00    -0.250 NA
ATOM     21  S   UNL A   1      32.762  22.607  26.091  1.00  0.00    -0.127 S 
ATOM     22  C   UNL A   1      34.478  22.073  24.302  1.00  0.00     0.123 A 
ATOM     23  C   UNL A   1      34.331  22.057  25.671  1.00  0.00     0.087 A 
ENDBRANCH  18  19
ENDBRANCH  17  18
ENDBRANCH  15  17
ENDBRANCH   6  11
ENDBRANCH   3   6
ENDBRANCH   1   2
BRANCH   1  24
ATOM     24  C   UNL A   1      31.313  30.719  25.574  1.00  0.00     0.023 C 
BRANCH  24  25
ATOM     25  C   UNL A   1      31.220  31.929  26.491  1.00  0.00     0.023 C 
BRANCH  25  26
ATOM     26  C   UNL A   1      32.535  32.436  27.062  1.00  0.00     0.116 C 
BRANCH  26  27
ATOM     27  N   UNL A   1      32.447  33.813  27.516  1.00  0.00    -0.352 N 
ATOM     28  C   UNL A   1      33.204  34.470  28.454  1.00  0.00     0.251 C 
ATOM     29  H   UNL A   1      31.744  34.354  27.089  1.00  0.00     0.163 HD
ATOM     30  O   UNL A   1      32.876  35.596  28.818  1.00  0.00    -0.269 OA
BRANCH  28  31
ATOM     31  C   UNL A   1      34.403  33.832  29.046  1.00  0.00     0.039 A 
ATOM     32  C   UNL A   1      34.216  32.786  29.956  1.00  0.00     0.014 A 
ATOM     33  C   UNL A   1      35.695  34.283  28.762  1.00  0.00     0.014 A 
ATOM     34  C   UNL A   1      35.321  32.173  30.554  1.00  0.00     0.010 A 
ATOM     35  C   UNL A   1      36.800  33.634  29.315  1.00  0.00     0.010 A 
ATOM     36  C   UNL A   1      36.623  32.583  30.227  1.00  0.00    -0.014 A 
BRANCH  36  37
ATOM     37  C   UNL A   1      37.804  31.931  30.846  1.00  0.00     0.031 A 
ATOM     38  C   UNL A   1      38.534  30.833  30.122  1.00  0.00     0.074 A 
ATOM     39  C   UNL A   1      38.201  32.300  32.079  1.00  0.00     0.049 A 
ATOM     40  N   UNL A   1      39.571  30.135  30.514  1.00  0.00    -0.248 NA
ATOM     41  C   UNL A   1      38.025  30.462  28.794  1.00  0.00     0.031 C 
ATOM     42  C   UNL A   1      37.568  33.334  32.899  1.00  0.00     0.029 A 
ATOM     43  N   UNL A   1      39.236  31.843  32.856  1.00  0.00    -0.354 N 
ATOM     44  C   UNL A   1      39.829  29.236  29.487  1.00  0.00     0.074 A 
ATOM     45  C   UNL A   1      38.816  29.447  28.475  1.00  0.00     0.031 C 
ATOM     46  C   UNL A   1      38.240  33.446  34.057  1.00  0.00     0.029 A 
ATOM     47  C   UNL A   1      39.329  32.474  34.073  1.00  0.00     0.049 A 
ATOM     48  H   UNL A   1      39.851  31.131  32.570  1.00  0.00     0.167 HD
ATOM     49  C   UNL A   1      40.828  28.325  29.384  1.00  0.00     0.031 A 
ATOM     50  C   UNL A   1      40.194  32.290  35.089  1.00  0.00     0.031 A 
ATOM     51  C   UNL A   1      41.842  28.114  30.383  1.00  0.00     0.049 A 
ATOM     52  C   UNL A   1      41.281  31.260  34.960  1.00  0.00     0.074 A 
ATOM     53  C   UNL A   1      42.923  27.250  30.345  1.00  0.00     0.029 A 
ATOM     54  N   UNL A   1      41.897  28.770  31.602  1.00  0.00    -0.354 N 
ATOM     55  N   UNL A   1      41.547  30.461  33.957  1.00  0.00    -0.248 NA
ATOM     56  C   UNL A   1      42.194  31.118  36.104  1.00  0.00     0.031 C 
ATOM     57  C   UNL A   1      43.606  27.350  31.562  1.00  0.00     0.029 A 
ATOM     58  C   UNL A   1      42.979  28.312  32.336  1.00  0.00     0.049 A 
ATOM     59  H   UNL A   1      41.261  29.458  31.903  1.00  0.00     0.167 HD
ATOM     60  C   UNL A   1      42.672  29.740  34.336  1.00  0.00     0.074 A 
ATOM     61  C   UNL A   1      43.045  30.205  35.655  1.00  0.00     0.031 C 
ATOM     62  C   UNL A   1      43.337  28.778  33.650  1.00  0.00     0.031 A 
BRANCH  49  63
ATOM     63  C   UNL A   1      40.865  27.478  28.143  1.00  0.00    -0.014 A 
ATOM     64  C   UNL A   1      41.582  27.883  27.007  1.00  0.00     0.009 A 
ATOM     65  C   UNL A   1      40.203  26.240  28.123  1.00  0.00     0.009 A 
ATOM     66  C   UNL A   1      41.604  27.084  25.862  1.00  0.00     0.001 A 
ATOM     67  C   UNL A   1      40.249  25.431  26.987  1.00  0.00     0.001 A 
ATOM     68  C   UNL A   1      40.942  25.858  25.855  1.00  0.00     0.000 A 
ENDBRANCH  49  63
BRANCH  50  69
ATOM     69  C   UNL A   1      40.074  33.113  36.319  1.00  0.00    -0.014 A 
ATOM     70  C   UNL A   1      40.774  34.325  36.434  1.00  0.00     0.009 A 
ATOM     71  C   UNL A   1      39.262  32.693  37.382  1.00  0.00     0.009 A 
ATOM     72  C   UNL A   1      40.679  35.086  37.600  1.00  0.00     0.001 A 
ATOM     73  C   UNL A   1      39.149  33.470  38.537  1.00  0.00     0.001 A 
ATOM     74  C   UNL A   1      39.864  34.661  38.648  1.00  0.00     0.000 A 
ENDBRANCH  50  69
BRANCH  62  75
ATOM     75  C   UNL A   1      44.553  28.184  34.303  1.00  0.00    -0.014 A 
ATOM     76  C   UNL A   1      45.822  28.760  34.137  1.00  0.00     0.009 A 
ATOM     77  C   UNL A   1      44.419  27.054  35.125  1.00  0.00     0.009 A 
ATOM     78  C   UNL A   1      46.938  28.197  34.759  1.00  0.00     0.001 A 
ATOM     79  C   UNL A   1      45.532  26.509  35.765  1.00  0.00     0.001 A 
ATOM     80  C   UNL A   1      46.792  27.076  35.574  1.00  0.00     0.000 A 
ENDBRANCH  62  75
ENDBRANCH  36  37
ENDBRANCH  28  31
ENDBRANCH  26  27
ENDBRANCH  25  26
ENDBRANCH  24  25
ENDBRANCH   1  24
TORSDOF 17
ENDMDL
