MODEL 1
REMARK VINA RESULT:     -11.2      0.000      0.000
REMARK SMILES Cc1cc(C(=O)N[C@@H](C)C(=O)NCCCCNC(=O)c2ccc(-c3c4nc(c(-c5ccccc5)c5ccc([nH]5)c(-c5ccccc5)c5nc(c(-c6ccccc6)c6ccc3[nH]6)C=C5)C=C4)cc2)cc(C)c1OC(F)F
REMARK SMILES IDX 13 1 12 2 10 3 11 4 8 6 9 7 7 8 5 9 6 10 4 12 1 13 2 14 3 15
REMARK SMILES IDX 71 16 69 17 68 18 70 19 72 20 73 21 74 22 75 23 14 24 15 25
REMARK SMILES IDX 16 26 17 27 18 28 19 30 20 31 21 32 67 33 22 34 66 35 23 36
REMARK SMILES IDX 24 37 25 38 60 39 26 40 65 41 59 42 61 43 27 44 64 45 58 46
REMARK SMILES IDX 57 47 28 49 50 50 35 51 49 52 36 53 39 54 48 55 62 56 37 57
REMARK SMILES IDX 38 58 47 60 63 61 40 62 29 63 30 64 34 65 31 66 33 67 32 68
REMARK SMILES IDX 51 69 52 70 56 71 53 72 55 73 54 74 41 75 42 76 46 77 43 78
REMARK SMILES IDX 45 79 44 80
REMARK H PARENT 12 5 7 11 17 29 61 48 39 59
REMARK Flexibility Score: inf
ROOT
ATOM      1  C   UNL A   1      31.580  26.306  25.605  1.00  0.00     0.116 C 
ENDROOT
BRANCH   1   2
ATOM      2  N   UNL A   1      30.830  26.982  24.564  1.00  0.00    -0.354 N 
ATOM      3  C   UNL A   1      31.243  27.516  23.375  1.00  0.00     0.242 C 
ATOM      4  O   UNL A   1      30.373  27.920  22.597  1.00  0.00    -0.273 OA
ATOM      5  H   UNL A   1      29.866  27.070  24.743  1.00  0.00     0.163 HD
BRANCH   3   6
ATOM      6  C   UNL A   1      32.736  27.612  23.001  1.00  0.00     0.168 C 
ATOM      7  C   UNL A   1      33.303  29.020  23.141  1.00  0.00     0.041 C 
BRANCH   6   8
ATOM      8  N   UNL A   1      32.915  27.025  21.673  1.00  0.00    -0.341 N 
ATOM      9  C   UNL A   1      33.002  25.726  21.237  1.00  0.00     0.251 C 
ATOM     10  O   UNL A   1      32.934  25.539  20.020  1.00  0.00    -0.269 OA
ATOM     11  H   UNL A   1      32.986  27.691  20.952  1.00  0.00     0.164 HD
BRANCH   9  12
ATOM     12  C   UNL A   1      33.296  24.572  22.130  1.00  0.00     0.040 A 
ATOM     13  C   UNL A   1      35.219  24.343  25.377  1.00  0.00     0.048 C 
ATOM     14  C   UNL A   1      34.343  23.860  24.254  1.00  0.00    -0.008 A 
ATOM     15  C   UNL A   1      34.105  24.824  23.244  1.00  0.00     0.021 A 
ATOM     16  C   UNL A   1      33.669  22.630  24.164  1.00  0.00     0.131 A 
ATOM     17  C   UNL A   1      32.932  22.336  22.989  1.00  0.00    -0.008 A 
ATOM     18  C   UNL A   1      32.807  23.287  21.960  1.00  0.00     0.021 A 
ATOM     19  C   UNL A   1      32.162  21.047  22.824  1.00  0.00     0.048 C 
BRANCH  16  20
ATOM     20  O   UNL A   1      33.519  21.679  25.129  1.00  0.00    -0.434 OA
BRANCH  20  21
ATOM     21  C   UNL A   1      34.517  20.719  25.415  1.00  0.00     0.542 C 
ATOM     22  F   UNL A   1      34.050  19.463  25.244  1.00  0.00    -0.167 F 
ATOM     23  F   UNL A   1      35.581  20.920  24.602  1.00  0.00    -0.167 F 
ENDBRANCH  20  21
ENDBRANCH  16  20
ENDBRANCH   9  12
ENDBRANCH   6   8
ENDBRANCH   3   6
ENDBRANCH   1   2
BRANCH   1  24
ATOM     24  C   UNL A   1      31.709  27.126  26.884  1.00  0.00     0.023 C 
BRANCH  24  25
ATOM     25  C   UNL A   1      32.150  28.576  26.693  1.00  0.00     0.023 C 
BRANCH  25  26
ATOM     26  C   UNL A   1      33.502  28.939  27.295  1.00  0.00     0.116 C 
BRANCH  26  27
ATOM     27  N   UNL A   1      33.592  30.323  27.738  1.00  0.00    -0.352 N 
ATOM     28  C   UNL A   1      34.656  30.977  28.316  1.00  0.00     0.251 C 
ATOM     29  H   UNL A   1      32.781  30.865  27.605  1.00  0.00     0.163 HD
ATOM     30  O   UNL A   1      34.545  32.132  28.704  1.00  0.00    -0.269 OA
BRANCH  28  31
ATOM     31  C   UNL A   1      35.929  30.251  28.499  1.00  0.00     0.039 A 
ATOM     32  C   UNL A   1      36.855  30.236  27.451  1.00  0.00     0.014 A 
ATOM     33  C   UNL A   1      36.227  29.642  29.720  1.00  0.00     0.014 A 
ATOM     34  C   UNL A   1      38.120  29.683  27.659  1.00  0.00     0.010 A 
ATOM     35  C   UNL A   1      37.508  29.153  29.945  1.00  0.00     0.010 A 
ATOM     36  C   UNL A   1      38.469  29.178  28.921  1.00  0.00    -0.014 A 
BRANCH  36  37
ATOM     37  C   UNL A   1      39.836  28.681  29.214  1.00  0.00     0.031 A 
ATOM     38  C   UNL A   1      40.857  29.613  29.801  1.00  0.00     0.074 A 
ATOM     39  C   UNL A   1      40.191  27.437  28.842  1.00  0.00     0.049 A 
ATOM     40  N   UNL A   1      42.140  29.425  29.979  1.00  0.00    -0.248 NA
ATOM     41  C   UNL A   1      40.377  30.943  30.207  1.00  0.00     0.031 C 
ATOM     42  C   UNL A   1      39.305  26.450  28.220  1.00  0.00     0.029 A 
ATOM     43  N   UNL A   1      41.405  26.801  28.905  1.00  0.00    -0.354 N 
ATOM     44  C   UNL A   1      42.627  30.627  30.478  1.00  0.00     0.074 A 
ATOM     45  C   UNL A   1      41.508  31.543  30.546  1.00  0.00     0.031 C 
ATOM     46  C   UNL A   1      40.005  25.334  27.962  1.00  0.00     0.029 A 
ATOM     47  C   UNL A   1      41.394  25.540  28.361  1.00  0.00     0.049 A 
ATOM     48  H   UNL A   1      42.208  27.209  29.304  1.00  0.00     0.167 HD
ATOM     49  C   UNL A   1      43.890  30.937  30.851  1.00  0.00     0.031 A 
ATOM     50  C   UNL A   1      42.394  24.655  28.183  1.00  0.00     0.031 A 
ATOM     51  C   UNL A   1      44.994  30.017  30.811  1.00  0.00     0.049 A 
ATOM     52  C   UNL A   1      43.783  25.010  28.627  1.00  0.00     0.074 A 
ATOM     53  C   UNL A   1      46.290  30.209  31.252  1.00  0.00     0.029 A 
ATOM     54  N   UNL A   1      44.928  28.731  30.300  1.00  0.00    -0.354 N 
ATOM     55  N   UNL A   1      44.215  26.125  29.164  1.00  0.00    -0.248 NA
ATOM     56  C   UNL A   1      44.821  23.985  28.447  1.00  0.00     0.031 C 
ATOM     57  C   UNL A   1      47.022  29.051  30.969  1.00  0.00     0.029 A 
ATOM     58  C   UNL A   1      46.168  28.124  30.393  1.00  0.00     0.049 A 
ATOM     59  H   UNL A   1      44.119  28.310  29.928  1.00  0.00     0.167 HD
ATOM     60  C   UNL A   1      45.567  25.929  29.409  1.00  0.00     0.074 A 
ATOM     61  C   UNL A   1      45.884  24.585  28.968  1.00  0.00     0.031 C 
ATOM     62  C   UNL A   1      46.465  26.784  29.954  1.00  0.00     0.031 A 
BRANCH  49  63
ATOM     63  C   UNL A   1      44.144  32.342  31.319  1.00  0.00    -0.014 A 
ATOM     64  C   UNL A   1      44.025  32.694  32.673  1.00  0.00     0.009 A 
ATOM     65  C   UNL A   1      44.520  33.324  30.390  1.00  0.00     0.009 A 
ATOM     66  C   UNL A   1      44.235  34.013  33.080  1.00  0.00     0.001 A 
ATOM     67  C   UNL A   1      44.757  34.636  30.804  1.00  0.00     0.001 A 
ATOM     68  C   UNL A   1      44.602  34.982  32.146  1.00  0.00     0.000 A 
ENDBRANCH  49  63
BRANCH  50  69
ATOM     69  C   UNL A   1      42.106  23.340  27.554  1.00  0.00    -0.014 A 
ATOM     70  C   UNL A   1      42.428  23.111  26.208  1.00  0.00     0.009 A 
ATOM     71  C   UNL A   1      41.534  22.301  28.305  1.00  0.00     0.009 A 
ATOM     72  C   UNL A   1      42.169  21.871  25.621  1.00  0.00     0.001 A 
ATOM     73  C   UNL A   1      41.297  21.054  27.721  1.00  0.00     0.001 A 
ATOM     74  C   UNL A   1      41.610  20.843  26.378  1.00  0.00     0.000 A 
ENDBRANCH  50  69
BRANCH  62  75
ATOM     75  C   UNL A   1      47.869  26.290  30.139  1.00  0.00    -0.014 A 
ATOM     76  C   UNL A   1      48.816  26.396  29.109  1.00  0.00     0.009 A 
ATOM     77  C   UNL A   1      48.267  25.781  31.385  1.00  0.00     0.009 A 
ATOM     78  C   UNL A   1      50.135  25.986  29.323  1.00  0.00     0.001 A 
ATOM     79  C   UNL A   1      49.589  25.391  31.601  1.00  0.00     0.001 A 
ATOM     80  C   UNL A   1      50.520  25.490  30.568  1.00  0.00     0.000 A 
ENDBRANCH  62  75
ENDBRANCH  36  37
ENDBRANCH  28  31
ENDBRANCH  26  27
ENDBRANCH  25  26
ENDBRANCH  24  25
ENDBRANCH   1  24
TORSDOF 15
ENDMDL
MODEL 2
REMARK VINA RESULT:     -11.1      2.815      7.889
REMARK SMILES Cc1cc(C(=O)N[C@@H](C)C(=O)NCCCCNC(=O)c2ccc(-c3c4nc(c(-c5ccccc5)c5ccc([nH]5)c(-c5ccccc5)c5nc(c(-c6ccccc6)c6ccc3[nH]6)C=C5)C=C4)cc2)cc(C)c1OC(F)F
REMARK SMILES IDX 13 1 12 2 10 3 11 4 8 6 9 7 7 8 5 9 6 10 4 12 1 13 2 14 3 15
REMARK SMILES IDX 71 16 69 17 68 18 70 19 72 20 73 21 74 22 75 23 14 24 15 25
REMARK SMILES IDX 16 26 17 27 18 28 19 30 20 31 21 32 67 33 22 34 66 35 23 36
REMARK SMILES IDX 24 37 25 38 60 39 26 40 65 41 59 42 61 43 27 44 64 45 58 46
REMARK SMILES IDX 57 47 28 49 50 50 35 51 49 52 36 53 39 54 48 55 62 56 37 57
REMARK SMILES IDX 38 58 47 60 63 61 40 62 29 63 30 64 34 65 31 66 33 67 32 68
REMARK SMILES IDX 51 69 52 70 56 71 53 72 55 73 54 74 41 75 42 76 46 77 43 78
REMARK SMILES IDX 45 79 44 80
REMARK H PARENT 12 5 7 11 17 29 61 48 39 59
REMARK Flexibility Score: inf
ROOT
ATOM      1  C   UNL A   1      33.897  23.243  23.667  1.00  0.00     0.116 C 
ENDROOT
BRANCH   1   2
ATOM      2  N   UNL A   1      33.314  21.977  24.067  1.00  0.00    -0.354 N 
ATOM      3  C   UNL A   1      32.832  21.563  25.277  1.00  0.00     0.242 C 
ATOM      4  O   UNL A   1      32.256  20.471  25.320  1.00  0.00    -0.273 OA
ATOM      5  H   UNL A   1      33.255  21.306  23.349  1.00  0.00     0.163 HD
BRANCH   3   6
ATOM      6  C   UNL A   1      32.987  22.420  26.551  1.00  0.00     0.168 C 
ATOM      7  C   UNL A   1      34.000  21.853  27.538  1.00  0.00     0.041 C 
BRANCH   6   8
ATOM      8  N   UNL A   1      31.657  22.641  27.119  1.00  0.00    -0.341 N 
ATOM      9  C   UNL A   1      30.641  23.505  26.794  1.00  0.00     0.251 C 
ATOM     10  O   UNL A   1      29.546  23.306  27.325  1.00  0.00    -0.269 OA
ATOM     11  H   UNL A   1      31.451  22.056  27.883  1.00  0.00     0.164 HD
BRANCH   9  12
ATOM     12  C   UNL A   1      30.825  24.718  25.951  1.00  0.00     0.040 A 
ATOM     13  C   UNL A   1      31.765  28.270  26.845  1.00  0.00     0.048 C 
ATOM     14  C   UNL A   1      31.463  27.108  25.940  1.00  0.00    -0.008 A 
ATOM     15  C   UNL A   1      31.117  25.914  26.619  1.00  0.00     0.021 A 
ATOM     16  C   UNL A   1      31.592  27.057  24.541  1.00  0.00     0.131 A 
ATOM     17  C   UNL A   1      31.199  25.878  23.858  1.00  0.00    -0.008 A 
ATOM     18  C   UNL A   1      30.762  24.746  24.568  1.00  0.00     0.021 A 
ATOM     19  C   UNL A   1      31.328  25.736  22.360  1.00  0.00     0.048 C 
BRANCH  16  20
ATOM     20  O   UNL A   1      32.171  27.975  23.715  1.00  0.00    -0.434 OA
BRANCH  20  21
ATOM     21  C   UNL A   1      33.572  28.130  23.612  1.00  0.00     0.542 C 
ATOM     22  F   UNL A   1      34.221  27.125  24.240  1.00  0.00    -0.167 F 
ATOM     23  F   UNL A   1      33.928  28.152  22.306  1.00  0.00    -0.167 F 
ENDBRANCH  20  21
ENDBRANCH  16  20
ENDBRANCH   9  12
ENDBRANCH   6   8
ENDBRANCH   3   6
ENDBRANCH   1   2
BRANCH   1  24
ATOM     24  C   UNL A   1      35.413  23.187  23.513  1.00  0.00     0.023 C 
BRANCH  24  25
ATOM     25  C   UNL A   1      36.160  22.468  24.635  1.00  0.00     0.023 C 
BRANCH  25  26
ATOM     26  C   UNL A   1      37.292  23.256  25.285  1.00  0.00     0.116 C 
BRANCH  26  27
ATOM     27  N   UNL A   1      38.474  22.456  25.568  1.00  0.00    -0.352 N 
ATOM     28  C   UNL A   1      39.622  22.818  26.235  1.00  0.00     0.251 C 
ATOM     29  H   UNL A   1      38.448  21.529  25.238  1.00  0.00     0.163 HD
ATOM     30  O   UNL A   1      40.565  22.044  26.323  1.00  0.00    -0.269 OA
BRANCH  28  31
ATOM     31  C   UNL A   1      39.718  24.174  26.811  1.00  0.00     0.039 A 
ATOM     32  C   UNL A   1      39.191  24.406  28.084  1.00  0.00     0.014 A 
ATOM     33  C   UNL A   1      40.378  25.192  26.119  1.00  0.00     0.014 A 
ATOM     34  C   UNL A   1      39.403  25.639  28.703  1.00  0.00     0.010 A 
ATOM     35  C   UNL A   1      40.646  26.394  26.762  1.00  0.00     0.010 A 
ATOM     36  C   UNL A   1      40.170  26.625  28.064  1.00  0.00    -0.014 A 
BRANCH  36  37
ATOM     37  C   UNL A   1      40.511  27.906  28.729  1.00  0.00     0.031 A 
ATOM     38  C   UNL A   1      41.815  28.042  29.460  1.00  0.00     0.074 A 
ATOM     39  C   UNL A   1      39.601  28.898  28.780  1.00  0.00     0.049 A 
ATOM     40  N   UNL A   1      42.230  29.010  30.238  1.00  0.00    -0.248 NA
ATOM     41  C   UNL A   1      42.763  26.925  29.328  1.00  0.00     0.031 C 
ATOM     42  C   UNL A   1      38.280  28.872  28.150  1.00  0.00     0.029 A 
ATOM     43  N   UNL A   1      39.642  30.111  29.420  1.00  0.00    -0.354 N 
ATOM     44  C   UNL A   1      43.466  28.598  30.720  1.00  0.00     0.074 A 
ATOM     45  C   UNL A   1      43.719  27.284  30.171  1.00  0.00     0.031 C 
ATOM     46  C   UNL A   1      37.637  30.016  28.433  1.00  0.00     0.029 A 
ATOM     47  C   UNL A   1      38.482  30.837  29.295  1.00  0.00     0.049 A 
ATOM     48  H   UNL A   1      40.427  30.432  29.920  1.00  0.00     0.167 HD
ATOM     49  C   UNL A   1      44.316  29.260  31.541  1.00  0.00     0.031 A 
ATOM     50  C   UNL A   1      38.128  32.021  29.831  1.00  0.00     0.031 A 
ATOM     51  C   UNL A   1      44.075  30.578  32.060  1.00  0.00     0.049 A 
ATOM     52  C   UNL A   1      39.096  32.748  30.718  1.00  0.00     0.074 A 
ATOM     53  C   UNL A   1      44.915  31.367  32.826  1.00  0.00     0.029 A 
ATOM     54  N   UNL A   1      42.909  31.300  31.867  1.00  0.00    -0.354 N 
ATOM     55  N   UNL A   1      40.292  32.379  31.108  1.00  0.00    -0.248 NA
ATOM     56  C   UNL A   1      38.670  34.057  31.236  1.00  0.00     0.031 C 
ATOM     57  C   UNL A   1      44.238  32.553  33.131  1.00  0.00     0.029 A 
ATOM     58  C   UNL A   1      42.996  32.518  32.519  1.00  0.00     0.049 A 
ATOM     59  H   UNL A   1      42.133  30.993  31.343  1.00  0.00     0.167 HD
ATOM     60  C   UNL A   1      40.772  33.418  31.894  1.00  0.00     0.074 A 
ATOM     61  C   UNL A   1      39.740  34.435  31.922  1.00  0.00     0.031 C 
ATOM     62  C   UNL A   1      41.962  33.520  32.532  1.00  0.00     0.031 A 
BRANCH  49  63
ATOM     63  C   UNL A   1      45.579  28.550  31.938  1.00  0.00    -0.014 A 
ATOM     64  C   UNL A   1      46.767  28.708  31.207  1.00  0.00     0.009 A 
ATOM     65  C   UNL A   1      45.580  27.722  33.070  1.00  0.00     0.009 A 
ATOM     66  C   UNL A   1      47.921  28.014  31.576  1.00  0.00     0.001 A 
ATOM     67  C   UNL A   1      46.743  27.052  33.454  1.00  0.00     0.001 A 
ATOM     68  C   UNL A   1      47.908  27.188  32.701  1.00  0.00     0.000 A 
ENDBRANCH  49  63
BRANCH  50  69
ATOM     69  C   UNL A   1      36.790  32.590  29.533  1.00  0.00    -0.014 A 
ATOM     70  C   UNL A   1      36.568  33.298  28.343  1.00  0.00     0.009 A 
ATOM     71  C   UNL A   1      35.721  32.405  30.424  1.00  0.00     0.009 A 
ATOM     72  C   UNL A   1      35.306  33.823  28.057  1.00  0.00     0.001 A 
ATOM     73  C   UNL A   1      34.454  32.912  30.125  1.00  0.00     0.001 A 
ATOM     74  C   UNL A   1      34.249  33.624  28.945  1.00  0.00     0.000 A 
ENDBRANCH  50  69
BRANCH  62  75
ATOM     75  C   UNL A   1      42.235  34.786  33.290  1.00  0.00    -0.014 A 
ATOM     76  C   UNL A   1      42.973  35.831  32.714  1.00  0.00     0.009 A 
ATOM     77  C   UNL A   1      41.683  34.962  34.569  1.00  0.00     0.009 A 
ATOM     78  C   UNL A   1      43.164  37.026  33.414  1.00  0.00     0.001 A 
ATOM     79  C   UNL A   1      41.857  36.163  35.256  1.00  0.00     0.001 A 
ATOM     80  C   UNL A   1      42.602  37.192  34.680  1.00  0.00     0.000 A 
ENDBRANCH  62  75
ENDBRANCH  36  37
ENDBRANCH  28  31
ENDBRANCH  26  27
ENDBRANCH  25  26
ENDBRANCH  24  25
ENDBRANCH   1  24
TORSDOF 15
ENDMDL
MODEL 3
REMARK VINA RESULT:     -11.1      2.620      7.443
REMARK SMILES Cc1cc(C(=O)N[C@@H](C)C(=O)NCCCCNC(=O)c2ccc(-c3c4nc(c(-c5ccccc5)c5ccc([nH]5)c(-c5ccccc5)c5nc(c(-c6ccccc6)c6ccc3[nH]6)C=C5)C=C4)cc2)cc(C)c1OC(F)F
REMARK SMILES IDX 13 1 12 2 10 3 11 4 8 6 9 7 7 8 5 9 6 10 4 12 1 13 2 14 3 15
REMARK SMILES IDX 71 16 69 17 68 18 70 19 72 20 73 21 74 22 75 23 14 24 15 25
REMARK SMILES IDX 16 26 17 27 18 28 19 30 20 31 21 32 67 33 22 34 66 35 23 36
REMARK SMILES IDX 24 37 25 38 60 39 26 40 65 41 59 42 61 43 27 44 64 45 58 46
REMARK SMILES IDX 57 47 28 49 50 50 35 51 49 52 36 53 39 54 48 55 62 56 37 57
REMARK SMILES IDX 38 58 47 60 63 61 40 62 29 63 30 64 34 65 31 66 33 67 32 68
REMARK SMILES IDX 51 69 52 70 56 71 53 72 55 73 54 74 41 75 42 76 46 77 43 78
REMARK SMILES IDX 45 79 44 80
REMARK H PARENT 12 5 7 11 17 29 61 48 39 59
REMARK Flexibility Score: inf
ROOT
ATOM      1  C   UNL A   1      34.592  21.344  24.985  1.00  0.00     0.116 C 
ENDROOT
BRANCH   1   2
ATOM      2  N   UNL A   1      33.590  20.895  24.036  1.00  0.00    -0.354 N 
ATOM      3  C   UNL A   1      32.679  21.603  23.304  1.00  0.00     0.242 C 
ATOM      4  O   UNL A   1      32.024  20.988  22.457  1.00  0.00    -0.273 OA
ATOM      5  H   UNL A   1      33.563  19.920  23.897  1.00  0.00     0.163 HD
BRANCH   3   6
ATOM      6  C   UNL A   1      32.469  23.118  23.511  1.00  0.00     0.168 C 
ATOM      7  C   UNL A   1      31.156  23.454  24.206  1.00  0.00     0.041 C 
BRANCH   6   8
ATOM      8  N   UNL A   1      32.653  23.786  22.223  1.00  0.00    -0.341 N 
ATOM      9  C   UNL A   1      32.917  25.090  21.883  1.00  0.00     0.251 C 
ATOM     10  O   UNL A   1      33.234  25.309  20.712  1.00  0.00    -0.269 OA
ATOM     11  H   UNL A   1      32.572  23.183  21.449  1.00  0.00     0.164 HD
BRANCH   9  12
ATOM     12  C   UNL A   1      32.718  26.241  22.805  1.00  0.00     0.040 A 
ATOM     13  C   UNL A   1      29.983  28.844  23.010  1.00  0.00     0.048 C 
ATOM     14  C   UNL A   1      31.215  28.099  23.443  1.00  0.00    -0.008 A 
ATOM     15  C   UNL A   1      31.610  27.062  22.563  1.00  0.00     0.021 A 
ATOM     16  C   UNL A   1      31.927  28.249  24.646  1.00  0.00     0.131 A 
ATOM     17  C   UNL A   1      33.107  27.488  24.845  1.00  0.00    -0.008 A 
ATOM     18  C   UNL A   1      33.521  26.539  23.893  1.00  0.00     0.021 A 
ATOM     19  C   UNL A   1      33.914  27.574  26.118  1.00  0.00     0.048 C 
BRANCH  16  20
ATOM     20  O   UNL A   1      31.574  28.969  25.749  1.00  0.00    -0.434 OA
BRANCH  20  21
ATOM     21  C   UNL A   1      31.901  30.334  25.905  1.00  0.00     0.542 C 
ATOM     22  F   UNL A   1      30.873  31.129  25.533  1.00  0.00    -0.167 F 
ATOM     23  F   UNL A   1      32.217  30.578  27.198  1.00  0.00    -0.167 F 
ENDBRANCH  20  21
ENDBRANCH  16  20
ENDBRANCH   9  12
ENDBRANCH   6   8
ENDBRANCH   3   6
ENDBRANCH   1   2
BRANCH   1  24
ATOM     24  C   UNL A   1      35.857  20.494  24.972  1.00  0.00     0.023 C 
BRANCH  24  25
ATOM     25  C   UNL A   1      37.133  21.222  24.553  1.00  0.00     0.023 C 
BRANCH  25  26
ATOM     26  C   UNL A   1      38.252  21.243  25.588  1.00  0.00     0.116 C 
BRANCH  26  27
ATOM     27  N   UNL A   1      39.129  20.084  25.524  1.00  0.00    -0.352 N 
ATOM     28  C   UNL A   1      40.442  19.972  25.921  1.00  0.00     0.251 C 
ATOM     29  H   UNL A   1      38.728  19.268  25.145  1.00  0.00     0.163 HD
ATOM     30  O   UNL A   1      41.069  18.939  25.727  1.00  0.00    -0.269 OA
BRANCH  28  31
ATOM     31  C   UNL A   1      41.101  21.133  26.551  1.00  0.00     0.039 A 
ATOM     32  C   UNL A   1      41.700  22.096  25.734  1.00  0.00     0.014 A 
ATOM     33  C   UNL A   1      41.074  21.296  27.938  1.00  0.00     0.014 A 
ATOM     34  C   UNL A   1      42.196  23.270  26.303  1.00  0.00     0.010 A 
ATOM     35  C   UNL A   1      41.508  22.493  28.494  1.00  0.00     0.010 A 
ATOM     36  C   UNL A   1      42.063  23.495  27.681  1.00  0.00    -0.014 A 
BRANCH  36  37
ATOM     37  C   UNL A   1      42.477  24.773  28.310  1.00  0.00     0.031 A 
ATOM     38  C   UNL A   1      41.463  25.857  28.533  1.00  0.00     0.074 A 
ATOM     39  C   UNL A   1      43.780  25.004  28.564  1.00  0.00     0.049 A 
ATOM     40  N   UNL A   1      41.647  27.096  28.913  1.00  0.00    -0.248 NA
ATOM     41  C   UNL A   1      40.060  25.511  28.258  1.00  0.00     0.031 C 
ATOM     42  C   UNL A   1      44.869  24.050  28.348  1.00  0.00     0.029 A 
ATOM     43  N   UNL A   1      44.410  26.129  29.032  1.00  0.00    -0.354 N 
ATOM     44  C   UNL A   1      40.391  27.687  28.882  1.00  0.00     0.074 A 
ATOM     45  C   UNL A   1      39.460  26.681  28.418  1.00  0.00     0.031 C 
ATOM     46  C   UNL A   1      46.033  24.630  28.685  1.00  0.00     0.029 A 
ATOM     47  C   UNL A   1      45.776  26.005  29.100  1.00  0.00     0.049 A 
ATOM     48  H   UNL A   1      43.929  26.947  29.294  1.00  0.00     0.167 HD
ATOM     49  C   UNL A   1      40.044  28.953  29.215  1.00  0.00     0.031 A 
ATOM     50  C   UNL A   1      46.721  26.904  29.439  1.00  0.00     0.031 A 
ATOM     51  C   UNL A   1      40.966  29.941  29.704  1.00  0.00     0.049 A 
ATOM     52  C   UNL A   1      46.311  28.294  29.829  1.00  0.00     0.074 A 
ATOM     53  C   UNL A   1      40.695  31.221  30.153  1.00  0.00     0.029 A 
ATOM     54  N   UNL A   1      42.335  29.758  29.808  1.00  0.00    -0.354 N 
ATOM     55  N   UNL A   1      45.110  28.819  29.864  1.00  0.00    -0.248 NA
ATOM     56  C   UNL A   1      47.384  29.215  30.233  1.00  0.00     0.031 C 
ATOM     57  C   UNL A   1      41.910  31.829  30.490  1.00  0.00     0.029 A 
ATOM     58  C   UNL A   1      42.928  30.911  30.292  1.00  0.00     0.049 A 
ATOM     59  H   UNL A   1      42.815  28.931  29.573  1.00  0.00     0.167 HD
ATOM     60  C   UNL A   1      45.278  30.121  30.315  1.00  0.00     0.074 A 
ATOM     61  C   UNL A   1      46.697  30.306  30.547  1.00  0.00     0.031 C 
ATOM     62  C   UNL A   1      44.340  31.076  30.522  1.00  0.00     0.031 A 
BRANCH  49  63
ATOM     63  C   UNL A   1      38.603  29.338  29.041  1.00  0.00    -0.014 A 
ATOM     64  C   UNL A   1      38.104  29.761  27.799  1.00  0.00     0.009 A 
ATOM     65  C   UNL A   1      37.729  29.266  30.137  1.00  0.00     0.009 A 
ATOM     66  C   UNL A   1      36.768  30.145  27.668  1.00  0.00     0.001 A 
ATOM     67  C   UNL A   1      36.387  29.623  29.996  1.00  0.00     0.001 A 
ATOM     68  C   UNL A   1      35.910  30.074  28.767  1.00  0.00     0.000 A 
ENDBRANCH  49  63
BRANCH  50  69
ATOM     69  C   UNL A   1      48.151  26.505  29.426  1.00  0.00    -0.014 A 
ATOM     70  C   UNL A   1      48.730  25.902  30.552  1.00  0.00     0.009 A 
ATOM     71  C   UNL A   1      48.936  26.701  28.279  1.00  0.00     0.009 A 
ATOM     72  C   UNL A   1      50.072  25.515  30.535  1.00  0.00     0.001 A 
ATOM     73  C   UNL A   1      50.272  26.293  28.257  1.00  0.00     0.001 A 
ATOM     74  C   UNL A   1      50.839  25.705  29.387  1.00  0.00     0.000 A 
ENDBRANCH  50  69
BRANCH  62  75
ATOM     75  C   UNL A   1      44.805  32.399  31.056  1.00  0.00    -0.014 A 
ATOM     76  C   UNL A   1      44.920  32.624  32.436  1.00  0.00     0.009 A 
ATOM     77  C   UNL A   1      45.202  33.407  30.163  1.00  0.00     0.009 A 
ATOM     78  C   UNL A   1      45.413  33.842  32.910  1.00  0.00     0.001 A 
ATOM     79  C   UNL A   1      45.713  34.614  30.640  1.00  0.00     0.001 A 
ATOM     80  C   UNL A   1      45.813  34.832  32.013  1.00  0.00     0.000 A 
ENDBRANCH  62  75
ENDBRANCH  36  37
ENDBRANCH  28  31
ENDBRANCH  26  27
ENDBRANCH  25  26
ENDBRANCH  24  25
ENDBRANCH   1  24
TORSDOF 15
ENDMDL
