MODEL 1
REMARK VINA RESULT:     -10.7      0.000      0.000
REMARK SMILES O=C(NCCCCNC(=O)[C@@H]1CCC[N@@H+](Cc2nccn2C(F)F)C1)c1ccc(-c2c3nc(c(-c4ccccc4)c4ccc([nH]4)c(-c4ccccc4)c4nc(c(-c5ccccc5)c5ccc2[nH]5)C=C4)C=C3)cc1
REMARK SMILES IDX 6 1 5 2 4 3 3 4 1 5 2 6 26 8 27 9 73 10 28 11 72 12 29 13
REMARK SMILES IDX 30 14 31 15 66 16 32 17 71 18 65 19 67 20 33 21 70 22 64 23
REMARK SMILES IDX 63 24 34 26 56 27 41 28 55 29 42 30 45 31 54 32 68 33 43 34
REMARK SMILES IDX 44 35 53 37 69 38 46 39 35 40 36 41 40 42 37 43 39 44 38 45
REMARK SMILES IDX 57 46 58 47 62 48 59 49 61 50 60 51 47 52 48 53 52 54 49 55
REMARK SMILES IDX 51 56 50 57 7 58 8 59 9 60 10 62 11 63 12 64 25 65 13 66
REMARK SMILES IDX 15 67 14 68 16 70 17 71 18 72 21 73 19 74 20 75 22 76 23 77
REMARK SMILES IDX 24 78
REMARK H PARENT 3 7 67 25 45 36 8 61 15 69
REMARK Flexibility Score: inf
ROOT
ATOM      1  C   UNL A   1      35.430  30.878  27.601  1.00  0.00     0.023 C 
ENDROOT
BRANCH   1   2
ATOM      2  C   UNL A   1      34.242  31.738  28.027  1.00  0.00     0.023 C 
BRANCH   2   3
ATOM      3  C   UNL A   1      34.553  32.938  28.921  1.00  0.00     0.116 C 
BRANCH   3   4
ATOM      4  N   UNL A   1      34.394  32.738  30.349  1.00  0.00    -0.352 N 
ATOM      5  O   UNL A   1      34.824  32.414  32.498  1.00  0.00    -0.269 OA
ATOM      6  C   UNL A   1      35.170  32.193  31.335  1.00  0.00     0.251 C 
ATOM      7  H   UNL A   1      33.530  33.069  30.686  1.00  0.00     0.163 HD
BRANCH   6   8
ATOM      8  C   UNL A   1      36.330  31.293  31.102  1.00  0.00     0.039 A 
ATOM      9  C   UNL A   1      36.286  29.899  31.088  1.00  0.00     0.014 A 
ATOM     10  C   UNL A   1      37.569  31.930  30.901  1.00  0.00     0.014 A 
ATOM     11  C   UNL A   1      37.464  29.159  30.998  1.00  0.00     0.010 A 
ATOM     12  C   UNL A   1      38.744  31.197  30.779  1.00  0.00     0.010 A 
ATOM     13  C   UNL A   1      38.694  29.809  30.867  1.00  0.00    -0.014 A 
BRANCH  13  14
ATOM     14  C   UNL A   1      39.889  28.995  30.663  1.00  0.00     0.031 A 
ATOM     15  C   UNL A   1      40.700  28.738  31.888  1.00  0.00     0.074 A 
ATOM     16  C   UNL A   1      40.181  28.353  29.513  1.00  0.00     0.049 A 
ATOM     17  N   UNL A   1      41.944  29.023  32.101  1.00  0.00    -0.248 NA
ATOM     18  C   UNL A   1      40.013  28.145  33.047  1.00  0.00     0.031 C 
ATOM     19  C   UNL A   1      39.343  28.226  28.320  1.00  0.00     0.029 A 
ATOM     20  N   UNL A   1      41.259  27.567  29.223  1.00  0.00    -0.354 N 
ATOM     21  C   UNL A   1      42.247  28.511  33.362  1.00  0.00     0.074 A 
ATOM     22  C   UNL A   1      40.999  28.085  33.942  1.00  0.00     0.031 C 
ATOM     23  C   UNL A   1      39.831  27.235  27.540  1.00  0.00     0.029 A 
ATOM     24  C   UNL A   1      41.078  26.753  28.114  1.00  0.00     0.049 A 
ATOM     25  H   UNL A   1      42.088  27.576  29.754  1.00  0.00     0.167 HD
ATOM     26  C   UNL A   1      43.528  28.291  33.771  1.00  0.00     0.031 A 
ATOM     27  C   UNL A   1      41.858  25.713  27.731  1.00  0.00     0.031 A 
ATOM     28  C   UNL A   1      44.489  28.982  32.958  1.00  0.00     0.049 A 
ATOM     29  C   UNL A   1      43.168  25.845  28.404  1.00  0.00     0.074 A 
ATOM     30  C   UNL A   1      44.748  30.303  32.652  1.00  0.00     0.029 A 
ATOM     31  N   UNL A   1      45.188  28.241  32.039  1.00  0.00    -0.354 N 
ATOM     32  N   UNL A   1      44.041  26.764  28.115  1.00  0.00    -0.248 NA
ATOM     33  C   UNL A   1      43.364  25.179  29.681  1.00  0.00     0.031 C 
ATOM     34  C   UNL A   1      45.180  30.287  31.293  1.00  0.00     0.029 A 
ATOM     35  C   UNL A   1      45.197  28.957  30.872  1.00  0.00     0.049 A 
ATOM     36  H   UNL A   1      45.603  27.361  32.189  1.00  0.00     0.167 HD
ATOM     37  C   UNL A   1      44.615  27.099  29.332  1.00  0.00     0.074 A 
ATOM     38  C   UNL A   1      44.249  26.011  30.234  1.00  0.00     0.031 C 
ATOM     39  C   UNL A   1      45.088  28.359  29.562  1.00  0.00     0.031 A 
BRANCH  26  40
ATOM     40  C   UNL A   1      43.934  27.143  34.663  1.00  0.00    -0.014 A 
ATOM     41  C   UNL A   1      43.840  25.829  34.165  1.00  0.00     0.009 A 
ATOM     42  C   UNL A   1      44.113  27.280  36.053  1.00  0.00     0.009 A 
ATOM     43  C   UNL A   1      43.839  24.722  35.021  1.00  0.00     0.001 A 
ATOM     44  C   UNL A   1      44.158  26.174  36.906  1.00  0.00     0.001 A 
ATOM     45  C   UNL A   1      43.989  24.896  36.393  1.00  0.00     0.000 A 
ENDBRANCH  26  40
BRANCH  27  46
ATOM     46  C   UNL A   1      41.475  24.477  27.016  1.00  0.00    -0.014 A 
ATOM     47  C   UNL A   1      42.391  23.811  26.186  1.00  0.00     0.009 A 
ATOM     48  C   UNL A   1      40.290  23.800  27.359  1.00  0.00     0.009 A 
ATOM     49  C   UNL A   1      42.147  22.502  25.749  1.00  0.00     0.001 A 
ATOM     50  C   UNL A   1      40.044  22.496  26.919  1.00  0.00     0.001 A 
ATOM     51  C   UNL A   1      40.980  21.841  26.127  1.00  0.00     0.000 A 
ENDBRANCH  27  46
BRANCH  39  52
ATOM     52  C   UNL A   1      45.223  29.291  28.385  1.00  0.00    -0.014 A 
ATOM     53  C   UNL A   1      44.155  30.065  27.895  1.00  0.00     0.009 A 
ATOM     54  C   UNL A   1      46.500  29.506  27.849  1.00  0.00     0.009 A 
ATOM     55  C   UNL A   1      44.355  30.997  26.874  1.00  0.00     0.001 A 
ATOM     56  C   UNL A   1      46.706  30.454  26.845  1.00  0.00     0.001 A 
ATOM     57  C   UNL A   1      45.632  31.195  26.353  1.00  0.00     0.000 A 
ENDBRANCH  39  52
ENDBRANCH  13  14
ENDBRANCH   6   8
ENDBRANCH   3   4
ENDBRANCH   2   3
ENDBRANCH   1   2
BRANCH   1  58
ATOM     58  C   UNL A   1      35.211  29.372  27.611  1.00  0.00     0.116 C 
BRANCH  58  59
ATOM     59  N   UNL A   1      33.860  28.961  27.939  1.00  0.00    -0.356 N 
ATOM     60  C   UNL A   1      32.944  28.312  27.155  1.00  0.00     0.228 C 
ATOM     61  H   UNL A   1      33.561  29.177  28.852  1.00  0.00     0.163 HD
ATOM     62  O   UNL A   1      31.878  27.991  27.690  1.00  0.00    -0.275 OA
BRANCH  60  63
ATOM     63  C   UNL A   1      33.209  28.098  25.659  1.00  0.00     0.133 C 
ATOM     64  C   UNL A   1      32.835  29.328  24.806  1.00  0.00     0.025 C 
ATOM     65  C   UNL A   1      32.490  26.886  25.071  1.00  0.00     0.276 C 
ATOM     66  C   UNL A   1      31.324  29.450  24.561  1.00  0.00     0.062 C 
ATOM     67  N   UNL A   1      31.033  27.075  25.096  1.00  0.00    -0.328 N 
ATOM     68  C   UNL A   1      30.658  28.127  24.155  1.00  0.00     0.262 C 
ATOM     69  H   UNL A   1      30.745  27.401  26.018  1.00  0.00     0.348 HD
BRANCH  67  70
ATOM     70  C   UNL A   1      30.305  25.807  24.946  1.00  0.00     0.339 C 
BRANCH  70  71
ATOM     71  C   UNL A   1      30.960  24.611  25.581  1.00  0.00     0.168 A 
ATOM     72  N   UNL A   1      31.063  24.420  26.887  1.00  0.00    -0.236 NA
ATOM     73  N   UNL A   1      31.527  23.556  24.906  1.00  0.00    -0.273 N 
ATOM     74  C   UNL A   1      31.788  23.276  27.057  1.00  0.00     0.131 A 
ATOM     75  C   UNL A   1      32.096  22.725  25.840  1.00  0.00     0.113 A 
BRANCH  73  76
ATOM     76  C   UNL A   1      31.531  23.305  23.481  1.00  0.00     0.450 C 
ATOM     77  F   UNL A   1      32.067  22.086  23.208  1.00  0.00    -0.185 F 
ATOM     78  F   UNL A   1      30.262  23.293  22.994  1.00  0.00    -0.185 F 
ENDBRANCH  73  76
ENDBRANCH  70  71
ENDBRANCH  67  70
ENDBRANCH  60  63
ENDBRANCH  58  59
ENDBRANCH   1  58
TORSDOF 14
ENDMDL
MODEL 2
REMARK VINA RESULT:     -10.6      1.928      2.905
REMARK SMILES O=C(NCCCCNC(=O)[C@@H]1CCC[N@@H+](Cc2nccn2C(F)F)C1)c1ccc(-c2c3nc(c(-c4ccccc4)c4ccc([nH]4)c(-c4ccccc4)c4nc(c(-c5ccccc5)c5ccc2[nH]5)C=C4)C=C3)cc1
REMARK SMILES IDX 6 1 5 2 4 3 3 4 1 5 2 6 26 8 27 9 73 10 28 11 72 12 29 13
REMARK SMILES IDX 30 14 31 15 66 16 32 17 71 18 65 19 67 20 33 21 70 22 64 23
REMARK SMILES IDX 63 24 34 26 56 27 41 28 55 29 42 30 45 31 54 32 68 33 43 34
REMARK SMILES IDX 44 35 53 37 69 38 46 39 35 40 36 41 40 42 37 43 39 44 38 45
REMARK SMILES IDX 57 46 58 47 62 48 59 49 61 50 60 51 47 52 48 53 52 54 49 55
REMARK SMILES IDX 51 56 50 57 7 58 8 59 9 60 10 62 11 63 12 64 25 65 13 66
REMARK SMILES IDX 15 67 14 68 16 70 17 71 18 72 21 73 19 74 20 75 22 76 23 77
REMARK SMILES IDX 24 78
REMARK H PARENT 3 7 67 25 45 36 8 61 15 69
REMARK Flexibility Score: inf
ROOT
ATOM      1  C   UNL A   1      34.075  28.550  26.040  1.00  0.00     0.023 C 
ENDROOT
BRANCH   1   2
ATOM      2  C   UNL A   1      33.735  29.373  27.281  1.00  0.00     0.023 C 
BRANCH   2   3
ATOM      3  C   UNL A   1      34.174  30.837  27.273  1.00  0.00     0.116 C 
BRANCH   3   4
ATOM      4  N   UNL A   1      34.154  31.523  28.550  1.00  0.00    -0.352 N 
ATOM      5  O   UNL A   1      34.782  32.632  30.363  1.00  0.00    -0.269 OA
ATOM      6  C   UNL A   1      35.093  31.801  29.506  1.00  0.00     0.251 C 
ATOM      7  H   UNL A   1      33.262  31.868  28.783  1.00  0.00     0.163 HD
BRANCH   6   8
ATOM      8  C   UNL A   1      36.405  31.114  29.632  1.00  0.00     0.039 A 
ATOM      9  C   UNL A   1      37.654  31.721  29.500  1.00  0.00     0.014 A 
ATOM     10  C   UNL A   1      36.351  29.731  29.884  1.00  0.00     0.014 A 
ATOM     11  C   UNL A   1      38.814  30.949  29.499  1.00  0.00     0.010 A 
ATOM     12  C   UNL A   1      37.507  28.960  29.916  1.00  0.00     0.010 A 
ATOM     13  C   UNL A   1      38.739  29.566  29.685  1.00  0.00    -0.014 A 
BRANCH  13  14
ATOM     14  C   UNL A   1      39.985  28.812  29.789  1.00  0.00     0.031 A 
ATOM     15  C   UNL A   1      40.510  28.640  31.175  1.00  0.00     0.074 A 
ATOM     16  C   UNL A   1      40.557  28.149  28.763  1.00  0.00     0.049 A 
ATOM     17  N   UNL A   1      41.660  28.999  31.647  1.00  0.00    -0.248 NA
ATOM     18  C   UNL A   1      39.608  28.050  32.176  1.00  0.00     0.031 C 
ATOM     19  C   UNL A   1      40.016  27.938  27.420  1.00  0.00     0.029 A 
ATOM     20  N   UNL A   1      41.707  27.413  28.756  1.00  0.00    -0.354 N 
ATOM     21  C   UNL A   1      41.695  28.546  32.965  1.00  0.00     0.074 A 
ATOM     22  C   UNL A   1      40.369  28.073  33.270  1.00  0.00     0.031 C 
ATOM     23  C   UNL A   1      40.711  26.949  26.813  1.00  0.00     0.029 A 
ATOM     24  C   UNL A   1      41.817  26.554  27.671  1.00  0.00     0.049 A 
ATOM     25  H   UNL A   1      42.395  27.484  29.458  1.00  0.00     0.167 HD
ATOM     26  C   UNL A   1      42.859  28.409  33.659  1.00  0.00     0.031 A 
ATOM     27  C   UNL A   1      42.710  25.546  27.519  1.00  0.00     0.031 A 
ATOM     28  C   UNL A   1      43.946  29.124  33.051  1.00  0.00     0.049 A 
ATOM     29  C   UNL A   1      43.828  25.771  28.461  1.00  0.00     0.074 A 
ATOM     30  C   UNL A   1      44.207  30.446  32.753  1.00  0.00     0.029 A 
ATOM     31  N   UNL A   1      44.867  28.392  32.345  1.00  0.00    -0.354 N 
ATOM     32  N   UNL A   1      44.701  26.726  28.333  1.00  0.00    -0.248 NA
ATOM     33  C   UNL A   1      43.761  25.159  29.778  1.00  0.00     0.031 C 
ATOM     34  C   UNL A   1      44.934  30.409  31.526  1.00  0.00     0.029 A 
ATOM     35  C   UNL A   1      45.106  29.068  31.179  1.00  0.00     0.049 A 
ATOM     36  H   UNL A   1      45.277  27.541  32.623  1.00  0.00     0.167 HD
ATOM     37  C   UNL A   1      44.970  27.131  29.631  1.00  0.00     0.074 A 
ATOM     38  C   UNL A   1      44.461  26.056  30.477  1.00  0.00     0.031 C 
ATOM     39  C   UNL A   1      45.322  28.422  29.905  1.00  0.00     0.031 A 
BRANCH  26  40
ATOM     40  C   UNL A   1      43.106  27.315  34.670  1.00  0.00    -0.014 A 
ATOM     41  C   UNL A   1      43.308  25.999  34.210  1.00  0.00     0.009 A 
ATOM     42  C   UNL A   1      42.848  27.471  36.045  1.00  0.00     0.009 A 
ATOM     43  C   UNL A   1      43.175  24.899  35.065  1.00  0.00     0.001 A 
ATOM     44  C   UNL A   1      42.759  26.378  36.910  1.00  0.00     0.001 A 
ATOM     45  C   UNL A   1      42.891  25.089  36.413  1.00  0.00     0.000 A 
ENDBRANCH  26  40
BRANCH  27  46
ATOM     46  C   UNL A   1      42.554  24.268  26.793  1.00  0.00    -0.014 A 
ATOM     47  C   UNL A   1      43.673  23.575  26.304  1.00  0.00     0.009 A 
ATOM     48  C   UNL A   1      41.322  23.590  26.811  1.00  0.00     0.009 A 
ATOM     49  C   UNL A   1      43.569  22.241  25.887  1.00  0.00     0.001 A 
ATOM     50  C   UNL A   1      41.216  22.261  26.391  1.00  0.00     0.001 A 
ATOM     51  C   UNL A   1      42.344  21.582  25.943  1.00  0.00     0.000 A 
ENDBRANCH  27  46
BRANCH  39  52
ATOM     52  C   UNL A   1      45.676  29.321  28.748  1.00  0.00    -0.014 A 
ATOM     53  C   UNL A   1      46.984  29.446  28.248  1.00  0.00     0.009 A 
ATOM     54  C   UNL A   1      44.634  29.945  28.046  1.00  0.00     0.009 A 
ATOM     55  C   UNL A   1      47.245  30.204  27.104  1.00  0.00     0.001 A 
ATOM     56  C   UNL A   1      44.891  30.683  26.890  1.00  0.00     0.001 A 
ATOM     57  C   UNL A   1      46.197  30.818  26.422  1.00  0.00     0.000 A 
ENDBRANCH  39  52
ENDBRANCH  13  14
ENDBRANCH   6   8
ENDBRANCH   3   4
ENDBRANCH   2   3
ENDBRANCH   1   2
BRANCH   1  58
ATOM     58  C   UNL A   1      33.400  27.191  25.924  1.00  0.00     0.116 C 
BRANCH  58  59
ATOM     59  N   UNL A   1      33.685  26.479  24.693  1.00  0.00    -0.356 N 
ATOM     60  C   UNL A   1      34.196  25.219  24.528  1.00  0.00     0.228 C 
ATOM     61  H   UNL A   1      33.481  26.968  23.863  1.00  0.00     0.163 HD
ATOM     62  O   UNL A   1      34.271  24.795  23.370  1.00  0.00    -0.275 OA
BRANCH  60  63
ATOM     63  C   UNL A   1      34.741  24.434  25.727  1.00  0.00     0.133 C 
ATOM     64  C   UNL A   1      36.110  23.783  25.442  1.00  0.00     0.025 C 
ATOM     65  C   UNL A   1      33.800  23.341  26.228  1.00  0.00     0.276 C 
ATOM     66  C   UNL A   1      36.001  22.502  24.602  1.00  0.00     0.062 C 
ATOM     67  N   UNL A   1      33.639  22.282  25.222  1.00  0.00    -0.328 N 
ATOM     68  C   UNL A   1      34.893  21.549  25.075  1.00  0.00     0.262 C 
ATOM     69  H   UNL A   1      33.445  22.701  24.313  1.00  0.00     0.348 HD
BRANCH  67  70
ATOM     70  C   UNL A   1      32.451  21.454  25.472  1.00  0.00     0.339 C 
BRANCH  70  71
ATOM     71  C   UNL A   1      32.385  20.173  24.687  1.00  0.00     0.168 A 
ATOM     72  N   UNL A   1      32.461  18.964  25.221  1.00  0.00    -0.236 NA
ATOM     73  N   UNL A   1      32.228  20.075  23.325  1.00  0.00    -0.273 N 
ATOM     74  C   UNL A   1      32.449  18.078  24.183  1.00  0.00     0.131 A 
ATOM     75  C   UNL A   1      32.314  18.744  22.992  1.00  0.00     0.113 A 
BRANCH  73  76
ATOM     76  C   UNL A   1      31.990  21.139  22.374  1.00  0.00     0.450 C 
ATOM     77  F   UNL A   1      33.034  22.009  22.351  1.00  0.00    -0.185 F 
ATOM     78  F   UNL A   1      31.871  20.637  21.115  1.00  0.00    -0.185 F 
ENDBRANCH  73  76
ENDBRANCH  70  71
ENDBRANCH  67  70
ENDBRANCH  60  63
ENDBRANCH  58  59
ENDBRANCH   1  58
TORSDOF 14
ENDMDL
MODEL 3
REMARK VINA RESULT:     -10.6      3.526      5.490
REMARK SMILES O=C(NCCCCNC(=O)[C@@H]1CCC[N@@H+](Cc2nccn2C(F)F)C1)c1ccc(-c2c3nc(c(-c4ccccc4)c4ccc([nH]4)c(-c4ccccc4)c4nc(c(-c5ccccc5)c5ccc2[nH]5)C=C4)C=C3)cc1
REMARK SMILES IDX 6 1 5 2 4 3 3 4 1 5 2 6 26 8 27 9 73 10 28 11 72 12 29 13
REMARK SMILES IDX 30 14 31 15 66 16 32 17 71 18 65 19 67 20 33 21 70 22 64 23
REMARK SMILES IDX 63 24 34 26 56 27 41 28 55 29 42 30 45 31 54 32 68 33 43 34
REMARK SMILES IDX 44 35 53 37 69 38 46 39 35 40 36 41 40 42 37 43 39 44 38 45
REMARK SMILES IDX 57 46 58 47 62 48 59 49 61 50 60 51 47 52 48 53 52 54 49 55
REMARK SMILES IDX 51 56 50 57 7 58 8 59 9 60 10 62 11 63 12 64 25 65 13 66
REMARK SMILES IDX 15 67 14 68 16 70 17 71 18 72 21 73 19 74 20 75 22 76 23 77
REMARK SMILES IDX 24 78
REMARK H PARENT 3 7 67 25 45 36 8 61 15 69
REMARK Flexibility Score: inf
ROOT
ATOM      1  C   UNL A   1      39.443  31.445  34.040  1.00  0.00     0.023 C 
ENDROOT
BRANCH   1   2
ATOM      2  C   UNL A   1      40.428  32.556  33.682  1.00  0.00     0.023 C 
BRANCH   2   3
ATOM      3  C   UNL A   1      39.831  33.935  33.401  1.00  0.00     0.116 C 
BRANCH   3   4
ATOM      4  N   UNL A   1      40.087  34.493  32.087  1.00  0.00    -0.352 N 
ATOM      5  O   UNL A   1      40.222  34.751  29.891  1.00  0.00    -0.269 OA
ATOM      6  C   UNL A   1      40.280  33.965  30.840  1.00  0.00     0.251 C 
ATOM      7  H   UNL A   1      40.133  35.477  32.094  1.00  0.00     0.163 HD
BRANCH   6   8
ATOM      8  C   UNL A   1      40.636  32.548  30.564  1.00  0.00     0.039 A 
ATOM      9  C   UNL A   1      39.733  31.490  30.460  1.00  0.00     0.014 A 
ATOM     10  C   UNL A   1      42.009  32.279  30.420  1.00  0.00     0.014 A 
ATOM     11  C   UNL A   1      40.195  30.181  30.337  1.00  0.00     0.010 A 
ATOM     12  C   UNL A   1      42.475  30.978  30.265  1.00  0.00     0.010 A 
ATOM     13  C   UNL A   1      41.566  29.924  30.263  1.00  0.00    -0.014 A 
BRANCH  13  14
ATOM     14  C   UNL A   1      42.001  28.550  30.022  1.00  0.00     0.031 A 
ATOM     15  C   UNL A   1      42.770  27.922  31.135  1.00  0.00     0.074 A 
ATOM     16  C   UNL A   1      41.609  27.806  28.968  1.00  0.00     0.049 A 
ATOM     17  N   UNL A   1      43.963  27.424  31.105  1.00  0.00    -0.248 NA
ATOM     18  C   UNL A   1      42.147  27.910  32.469  1.00  0.00     0.031 C 
ATOM     19  C   UNL A   1      40.609  28.144  27.955  1.00  0.00     0.029 A 
ATOM     20  N   UNL A   1      41.948  26.521  28.656  1.00  0.00    -0.354 N 
ATOM     21  C   UNL A   1      44.193  26.894  32.374  1.00  0.00     0.074 A 
ATOM     22  C   UNL A   1      43.093  27.320  33.201  1.00  0.00     0.031 C 
ATOM     23  C   UNL A   1      40.255  27.020  27.291  1.00  0.00     0.029 A 
ATOM     24  C   UNL A   1      41.093  25.921  27.742  1.00  0.00     0.049 A 
ATOM     25  H   UNL A   1      42.728  26.062  29.045  1.00  0.00     0.167 HD
ATOM     26  C   UNL A   1      45.171  25.977  32.616  1.00  0.00     0.031 A 
ATOM     27  C   UNL A   1      41.032  24.603  27.429  1.00  0.00     0.031 A 
ATOM     28  C   UNL A   1      46.143  25.923  31.561  1.00  0.00     0.049 A 
ATOM     29  C   UNL A   1      42.293  23.965  27.863  1.00  0.00     0.074 A 
ATOM     30  C   UNL A   1      47.033  26.816  30.998  1.00  0.00     0.029 A 
ATOM     31  N   UNL A   1      46.068  24.868  30.686  1.00  0.00    -0.354 N 
ATOM     32  N   UNL A   1      43.443  24.172  27.292  1.00  0.00    -0.248 NA
ATOM     33  C   UNL A   1      42.353  23.375  29.190  1.00  0.00     0.031 C 
ATOM     34  C   UNL A   1      47.062  26.481  29.612  1.00  0.00     0.029 A 
ATOM     35  C   UNL A   1      46.223  25.381  29.426  1.00  0.00     0.049 A 
ATOM     36  H   UNL A   1      45.928  23.922  30.919  1.00  0.00     0.167 HD
ATOM     37  C   UNL A   1      44.359  24.159  28.332  1.00  0.00     0.074 A 
ATOM     38  C   UNL A   1      43.651  23.545  29.452  1.00  0.00     0.031 C 
ATOM     39  C   UNL A   1      45.503  24.902  28.269  1.00  0.00     0.031 A 
BRANCH  26  40
ATOM     40  C   UNL A   1      45.037  24.856  33.619  1.00  0.00    -0.014 A 
ATOM     41  C   UNL A   1      46.082  24.638  34.537  1.00  0.00     0.009 A 
ATOM     42  C   UNL A   1      44.077  23.833  33.499  1.00  0.00     0.009 A 
ATOM     43  C   UNL A   1      46.203  23.429  35.231  1.00  0.00     0.001 A 
ATOM     44  C   UNL A   1      44.170  22.642  34.224  1.00  0.00     0.001 A 
ATOM     45  C   UNL A   1      45.252  22.427  35.067  1.00  0.00     0.000 A 
ENDBRANCH  26  40
BRANCH  27  46
ATOM     46  C   UNL A   1      39.864  23.803  27.003  1.00  0.00    -0.014 A 
ATOM     47  C   UNL A   1      38.647  24.423  26.676  1.00  0.00     0.009 A 
ATOM     48  C   UNL A   1      40.023  22.449  26.656  1.00  0.00     0.009 A 
ATOM     49  C   UNL A   1      37.643  23.722  25.994  1.00  0.00     0.001 A 
ATOM     50  C   UNL A   1      39.019  21.749  25.980  1.00  0.00     0.001 A 
ATOM     51  C   UNL A   1      37.835  22.390  25.635  1.00  0.00     0.000 A 
ENDBRANCH  27  46
BRANCH  39  52
ATOM     52  C   UNL A   1      45.878  25.514  26.943  1.00  0.00    -0.014 A 
ATOM     53  C   UNL A   1      45.343  26.731  26.484  1.00  0.00     0.009 A 
ATOM     54  C   UNL A   1      46.913  24.922  26.206  1.00  0.00     0.009 A 
ATOM     55  C   UNL A   1      45.804  27.314  25.301  1.00  0.00     0.001 A 
ATOM     56  C   UNL A   1      47.390  25.517  25.037  1.00  0.00     0.001 A 
ATOM     57  C   UNL A   1      46.831  26.709  24.580  1.00  0.00     0.000 A 
ENDBRANCH  39  52
ENDBRANCH  13  14
ENDBRANCH   6   8
ENDBRANCH   3   4
ENDBRANCH   2   3
ENDBRANCH   1   2
BRANCH   1  58
ATOM     58  C   UNL A   1      37.991  31.864  34.226  1.00  0.00     0.116 C 
BRANCH  58  59
ATOM     59  N   UNL A   1      37.055  31.209  33.332  1.00  0.00    -0.356 N 
ATOM     60  C   UNL A   1      36.516  31.673  32.162  1.00  0.00     0.228 C 
ATOM     61  H   UNL A   1      36.770  30.307  33.604  1.00  0.00     0.163 HD
ATOM     62  O   UNL A   1      35.801  30.891  31.529  1.00  0.00    -0.275 OA
BRANCH  60  63
ATOM     63  C   UNL A   1      36.720  33.132  31.732  1.00  0.00     0.133 C 
ATOM     64  C   UNL A   1      35.707  34.093  32.387  1.00  0.00     0.025 C 
ATOM     65  C   UNL A   1      36.657  33.345  30.222  1.00  0.00     0.276 C 
ATOM     66  C   UNL A   1      34.323  34.049  31.722  1.00  0.00     0.062 C 
ATOM     67  N   UNL A   1      35.311  33.063  29.705  1.00  0.00    -0.328 N 
ATOM     68  C   UNL A   1      34.378  34.078  30.187  1.00  0.00     0.262 C 
ATOM     69  H   UNL A   1      34.981  32.173  30.077  1.00  0.00     0.348 HD
BRANCH  67  70
ATOM     70  C   UNL A   1      35.307  32.843  28.253  1.00  0.00     0.339 C 
BRANCH  70  71
ATOM     71  C   UNL A   1      34.876  31.472  27.812  1.00  0.00     0.168 A 
ATOM     72  N   UNL A   1      33.675  31.181  27.337  1.00  0.00    -0.236 NA
ATOM     73  N   UNL A   1      35.660  30.342  27.828  1.00  0.00    -0.273 N 
ATOM     74  C   UNL A   1      33.652  29.832  27.135  1.00  0.00     0.131 A 
ATOM     75  C   UNL A   1      34.871  29.285  27.441  1.00  0.00     0.113 A 
BRANCH  73  76
ATOM     76  C   UNL A   1      37.064  30.233  28.160  1.00  0.00     0.450 C 
ATOM     77  F   UNL A   1      37.251  29.362  29.186  1.00  0.00    -0.185 F 
ATOM     78  F   UNL A   1      37.768  29.749  27.102  1.00  0.00    -0.185 F 
ENDBRANCH  73  76
ENDBRANCH  70  71
ENDBRANCH  67  70
ENDBRANCH  60  63
ENDBRANCH  58  59
ENDBRANCH   1  58
TORSDOF 14
ENDMDL
