MODEL 1
REMARK VINA RESULT:     -12.2      0.000      0.000
REMARK SMILES NS(=O)(=O)c1ccc(-c2coc(=O)n2-c2ccc(C(=O)NCCCCNC(=O)c3ccc(-c4c5nc(c(-c6ccccc6)c6ccc([nH]6)c(-c6ccccc6)c6nc(c(-c7ccccc7)c7ccc4[nH]7)C=C6)C=C5)cc3)cc2)cc1
REMARK SMILES IDX 22 1 21 2 19 3 20 4 18 6 15 7 16 8 78 9 17 10 77 11 14 12
REMARK SMILES IDX 9 13 10 14 11 15 12 16 13 17 8 18 5 19 6 20 80 21 7 22 79 23
REMARK SMILES IDX 2 24 3 25 4 26 1 27 23 30 24 31 25 32 26 33 27 34 28 36
REMARK SMILES IDX 29 37 30 38 76 39 31 40 75 41 32 42 33 43 34 44 69 45 35 46
REMARK SMILES IDX 74 47 68 48 70 49 36 50 73 51 67 52 66 53 37 55 59 56 44 57
REMARK SMILES IDX 58 58 45 59 48 60 57 61 71 62 46 63 47 64 56 66 72 67 49 68
REMARK SMILES IDX 38 69 39 70 43 71 40 72 42 73 41 74 60 75 61 76 65 77 62 78
REMARK SMILES IDX 64 79 63 80 50 81 51 82 55 83 52 84 54 85 53 86
REMARK H PARENT 21 5 1 28 1 29 26 35 70 54 48 65
REMARK Flexibility Score: inf
ROOT
ATOM      1  C   UNL A   1      39.174  21.330  25.802  1.00  0.00     0.116 C 
ENDROOT
BRANCH   1   2
ATOM      2  N   UNL A   1      39.258  22.762  26.019  1.00  0.00    -0.352 N 
ATOM      3  C   UNL A   1      38.349  23.788  25.941  1.00  0.00     0.251 C 
ATOM      4  O   UNL A   1      38.761  24.912  26.236  1.00  0.00    -0.269 OA
ATOM      5  H   UNL A   1      40.160  23.062  26.278  1.00  0.00     0.163 HD
BRANCH   3   6
ATOM      6  C   UNL A   1      36.907  23.618  25.585  1.00  0.00     0.039 A 
ATOM      7  C   UNL A   1      34.227  23.457  24.722  1.00  0.00     0.053 A 
ATOM      8  C   UNL A   1      35.257  23.421  23.785  1.00  0.00     0.028 A 
ATOM      9  C   UNL A   1      34.535  23.498  26.082  1.00  0.00     0.028 A 
ATOM     10  C   UNL A   1      36.586  23.535  24.216  1.00  0.00     0.016 A 
ATOM     11  C   UNL A   1      35.865  23.520  26.506  1.00  0.00     0.016 A 
BRANCH   7  12
ATOM     12  N   UNL A   1      32.878  23.445  24.328  1.00  0.00    -0.242 N 
ATOM     13  C   UNL A   1      32.137  22.387  23.885  1.00  0.00     0.095 A 
ATOM     14  C   UNL A   1      31.002  22.904  23.428  1.00  0.00     0.228 A 
ATOM     15  O   UNL A   1      30.914  24.291  23.541  1.00  0.00    -0.415 OA
ATOM     16  C   UNL A   1      32.134  24.607  24.141  1.00  0.00     0.424 A 
ATOM     17  O   UNL A   1      32.463  25.757  24.400  1.00  0.00    -0.223 OA
BRANCH  13  18
ATOM     18  C   UNL A   1      32.464  20.970  24.056  1.00  0.00     0.002 A 
ATOM     19  C   UNL A   1      32.974  18.239  24.463  1.00  0.00     0.082 A 
ATOM     20  C   UNL A   1      33.093  19.127  25.531  1.00  0.00     0.022 A 
ATOM     21  C   UNL A   1      32.618  18.703  23.192  1.00  0.00     0.022 A 
ATOM     22  C   UNL A   1      32.836  20.486  25.324  1.00  0.00     0.012 A 
ATOM     23  C   UNL A   1      32.356  20.064  22.994  1.00  0.00     0.012 A 
BRANCH  19  24
ATOM     24  S   UNL A   1      33.275  16.510  24.678  1.00  0.00     0.238 S 
ATOM     25  O   UNL A   1      33.684  15.960  23.398  1.00  0.00    -0.207 OA
ATOM     26  O   UNL A   1      32.209  15.956  25.463  1.00  0.00    -0.207 OA
BRANCH  24  27
ATOM     27  N   UNL A   1      34.655  16.432  25.638  1.00  0.00    -0.225 NA
ATOM     28  H   UNL A   1      34.509  16.975  26.489  1.00  0.00     0.137 HD
ATOM     29  H   UNL A   1      35.449  16.814  25.124  1.00  0.00     0.137 HD
ENDBRANCH  24  27
ENDBRANCH  19  24
ENDBRANCH  13  18
ENDBRANCH   7  12
ENDBRANCH   3   6
ENDBRANCH   1   2
BRANCH   1  30
ATOM     30  C   UNL A   1      40.107  20.561  26.745  1.00  0.00     0.023 C 
BRANCH  30  31
ATOM     31  C   UNL A   1      41.134  19.658  26.044  1.00  0.00     0.023 C 
BRANCH  31  32
ATOM     32  C   UNL A   1      42.516  19.632  26.691  1.00  0.00     0.116 C 
BRANCH  32  33
ATOM     33  N   UNL A   1      43.598  19.483  25.717  1.00  0.00    -0.352 N 
ATOM     34  C   UNL A   1      44.192  20.462  24.943  1.00  0.00     0.251 C 
ATOM     35  H   UNL A   1      43.946  18.570  25.597  1.00  0.00     0.163 HD
ATOM     36  O   UNL A   1      44.791  20.180  23.913  1.00  0.00    -0.269 OA
BRANCH  34  37
ATOM     37  C   UNL A   1      44.111  21.860  25.393  1.00  0.00     0.039 A 
ATOM     38  C   UNL A   1      43.066  22.698  24.994  1.00  0.00     0.014 A 
ATOM     39  C   UNL A   1      45.096  22.310  26.267  1.00  0.00     0.014 A 
ATOM     40  C   UNL A   1      42.971  23.969  25.557  1.00  0.00     0.010 A 
ATOM     41  C   UNL A   1      44.927  23.503  26.922  1.00  0.00     0.010 A 
ATOM     42  C   UNL A   1      43.895  24.357  26.539  1.00  0.00    -0.014 A 
BRANCH  42  43
ATOM     43  C   UNL A   1      43.731  25.608  27.276  1.00  0.00     0.031 A 
ATOM     44  C   UNL A   1      44.675  26.693  26.890  1.00  0.00     0.074 A 
ATOM     45  C   UNL A   1      42.649  25.855  28.046  1.00  0.00     0.049 A 
ATOM     46  N   UNL A   1      45.584  27.249  27.620  1.00  0.00    -0.248 NA
ATOM     47  C   UNL A   1      44.684  27.140  25.487  1.00  0.00     0.031 C 
ATOM     48  C   UNL A   1      41.476  24.993  28.252  1.00  0.00     0.029 A 
ATOM     49  N   UNL A   1      42.299  26.995  28.702  1.00  0.00    -0.354 N 
ATOM     50  C   UNL A   1      46.143  28.258  26.838  1.00  0.00     0.074 A 
ATOM     51  C   UNL A   1      45.685  28.022  25.492  1.00  0.00     0.031 C 
ATOM     52  C   UNL A   1      40.459  25.725  28.755  1.00  0.00     0.029 A 
ATOM     53  C   UNL A   1      40.961  27.047  29.077  1.00  0.00     0.049 A 
ATOM     54  H   UNL A   1      42.937  27.720  28.894  1.00  0.00     0.167 HD
ATOM     55  C   UNL A   1      46.709  29.361  27.407  1.00  0.00     0.031 A 
ATOM     56  C   UNL A   1      40.299  28.105  29.601  1.00  0.00     0.031 A 
ATOM     57  C   UNL A   1      46.946  29.159  28.815  1.00  0.00     0.049 A 
ATOM     58  C   UNL A   1      41.310  29.037  30.140  1.00  0.00     0.074 A 
ATOM     59  C   UNL A   1      47.695  28.287  29.577  1.00  0.00     0.029 A 
ATOM     60  N   UNL A   1      46.028  29.721  29.669  1.00  0.00    -0.354 N 
ATOM     61  N   UNL A   1      42.064  28.761  31.164  1.00  0.00    -0.248 NA
ATOM     62  C   UNL A   1      41.786  30.113  29.287  1.00  0.00     0.031 C 
ATOM     63  C   UNL A   1      46.901  28.035  30.736  1.00  0.00     0.029 A 
ATOM     64  C   UNL A   1      45.747  28.817  30.654  1.00  0.00     0.049 A 
ATOM     65  H   UNL A   1      45.638  30.621  29.585  1.00  0.00     0.167 HD
ATOM     66  C   UNL A   1      43.303  29.289  30.838  1.00  0.00     0.074 A 
ATOM     67  C   UNL A   1      43.035  30.224  29.746  1.00  0.00     0.031 C 
ATOM     68  C   UNL A   1      44.451  28.701  31.287  1.00  0.00     0.031 A 
BRANCH  55  69
ATOM     69  C   UNL A   1      46.591  30.761  26.831  1.00  0.00    -0.014 A 
ATOM     70  C   UNL A   1      47.717  31.606  26.905  1.00  0.00     0.009 A 
ATOM     71  C   UNL A   1      45.367  31.380  26.518  1.00  0.00     0.009 A 
ATOM     72  C   UNL A   1      47.597  32.998  26.802  1.00  0.00     0.001 A 
ATOM     73  C   UNL A   1      45.252  32.766  26.369  1.00  0.00     0.001 A 
ATOM     74  C   UNL A   1      46.360  33.578  26.550  1.00  0.00     0.000 A 
ENDBRANCH  55  69
BRANCH  56  75
ATOM     75  C   UNL A   1      38.875  28.475  29.483  1.00  0.00    -0.014 A 
ATOM     76  C   UNL A   1      38.089  28.692  30.625  1.00  0.00     0.009 A 
ATOM     77  C   UNL A   1      38.357  28.885  28.240  1.00  0.00     0.009 A 
ATOM     78  C   UNL A   1      36.848  29.337  30.533  1.00  0.00     0.001 A 
ATOM     79  C   UNL A   1      37.119  29.529  28.148  1.00  0.00     0.001 A 
ATOM     80  C   UNL A   1      36.372  29.770  29.296  1.00  0.00     0.000 A 
ENDBRANCH  56  75
BRANCH  68  81
ATOM     81  C   UNL A   1      44.326  27.659  32.373  1.00  0.00    -0.014 A 
ATOM     82  C   UNL A   1      44.198  26.284  32.113  1.00  0.00     0.009 A 
ATOM     83  C   UNL A   1      44.483  28.074  33.703  1.00  0.00     0.009 A 
ATOM     84  C   UNL A   1      44.196  25.355  33.160  1.00  0.00     0.001 A 
ATOM     85  C   UNL A   1      44.503  27.146  34.745  1.00  0.00     0.001 A 
ATOM     86  C   UNL A   1      44.353  25.788  34.474  1.00  0.00     0.000 A 
ENDBRANCH  68  81
ENDBRANCH  42  43
ENDBRANCH  34  37
ENDBRANCH  32  33
ENDBRANCH  31  32
ENDBRANCH  30  31
ENDBRANCH   1  30
TORSDOF 15
ENDMDL
MODEL 2
REMARK VINA RESULT:     -12.0      2.379      7.166
REMARK SMILES NS(=O)(=O)c1ccc(-c2coc(=O)n2-c2ccc(C(=O)NCCCCNC(=O)c3ccc(-c4c5nc(c(-c6ccccc6)c6ccc([nH]6)c(-c6ccccc6)c6nc(c(-c7ccccc7)c7ccc4[nH]7)C=C6)C=C5)cc3)cc2)cc1
REMARK SMILES IDX 22 1 21 2 19 3 20 4 18 6 15 7 16 8 78 9 17 10 77 11 14 12
REMARK SMILES IDX 9 13 10 14 11 15 12 16 13 17 8 18 5 19 6 20 80 21 7 22 79 23
REMARK SMILES IDX 2 24 3 25 4 26 1 27 23 30 24 31 25 32 26 33 27 34 28 36
REMARK SMILES IDX 29 37 30 38 76 39 31 40 75 41 32 42 33 43 34 44 69 45 35 46
REMARK SMILES IDX 74 47 68 48 70 49 36 50 73 51 67 52 66 53 37 55 59 56 44 57
REMARK SMILES IDX 58 58 45 59 48 60 57 61 71 62 46 63 47 64 56 66 72 67 49 68
REMARK SMILES IDX 38 69 39 70 43 71 40 72 42 73 41 74 60 75 61 76 65 77 62 78
REMARK SMILES IDX 64 79 63 80 50 81 51 82 55 83 52 84 54 85 53 86
REMARK H PARENT 21 5 1 28 1 29 26 35 70 54 48 65
REMARK Flexibility Score: inf
ROOT
ATOM      1  C   UNL A   1      32.284  27.866  27.262  1.00  0.00     0.116 C 
ENDROOT
BRANCH   1   2
ATOM      2  N   UNL A   1      31.305  26.846  26.936  1.00  0.00    -0.352 N 
ATOM      3  C   UNL A   1      31.397  25.555  26.476  1.00  0.00     0.251 C 
ATOM      4  O   UNL A   1      30.336  24.943  26.340  1.00  0.00    -0.269 OA
ATOM      5  H   UNL A   1      30.376  27.143  27.074  1.00  0.00     0.163 HD
BRANCH   3   6
ATOM      6  C   UNL A   1      32.682  24.846  26.195  1.00  0.00     0.039 A 
ATOM      7  C   UNL A   1      35.149  23.508  25.911  1.00  0.00     0.053 A 
ATOM      8  C   UNL A   1      34.270  23.129  26.923  1.00  0.00     0.028 A 
ATOM      9  C   UNL A   1      34.767  24.496  25.003  1.00  0.00     0.028 A 
ATOM     10  C   UNL A   1      33.060  23.819  27.081  1.00  0.00     0.016 A 
ATOM     11  C   UNL A   1      33.521  25.116  25.114  1.00  0.00     0.016 A 
BRANCH   7  12
ATOM     12  N   UNL A   1      36.414  22.911  25.778  1.00  0.00    -0.242 N 
ATOM     13  C   UNL A   1      36.708  21.596  25.556  1.00  0.00     0.095 A 
ATOM     14  C   UNL A   1      38.020  21.483  25.727  1.00  0.00     0.228 A 
ATOM     15  O   UNL A   1      38.663  22.676  26.055  1.00  0.00    -0.415 OA
ATOM     16  C   UNL A   1      37.601  23.581  26.063  1.00  0.00     0.424 A 
ATOM     17  O   UNL A   1      37.746  24.766  26.331  1.00  0.00    -0.223 OA
BRANCH  13  18
ATOM     18  C   UNL A   1      35.786  20.577  25.054  1.00  0.00     0.002 A 
ATOM     19  C   UNL A   1      34.010  18.567  24.219  1.00  0.00     0.082 A 
ATOM     20  C   UNL A   1      35.312  18.226  24.585  1.00  0.00     0.022 A 
ATOM     21  C   UNL A   1      33.592  19.902  24.251  1.00  0.00     0.022 A 
ATOM     22  C   UNL A   1      36.191  19.230  25.001  1.00  0.00     0.012 A 
ATOM     23  C   UNL A   1      34.477  20.900  24.675  1.00  0.00     0.012 A 
BRANCH  19  24
ATOM     24  S   UNL A   1      32.857  17.332  23.698  1.00  0.00     0.238 S 
ATOM     25  O   UNL A   1      31.779  17.284  24.669  1.00  0.00    -0.207 OA
ATOM     26  O   UNL A   1      33.591  16.170  23.285  1.00  0.00    -0.207 OA
BRANCH  24  27
ATOM     27  N   UNL A   1      32.154  17.963  22.306  1.00  0.00    -0.225 NA
ATOM     28  H   UNL A   1      31.812  18.905  22.494  1.00  0.00     0.137 HD
ATOM     29  H   UNL A   1      31.374  17.370  22.020  1.00  0.00     0.137 HD
ENDBRANCH  24  27
ENDBRANCH  19  24
ENDBRANCH  13  18
ENDBRANCH   7  12
ENDBRANCH   3   6
ENDBRANCH   1   2
BRANCH   1  30
ATOM     30  C   UNL A   1      32.659  28.700  26.031  1.00  0.00     0.023 C 
BRANCH  30  31
ATOM     31  C   UNL A   1      34.019  29.409  26.122  1.00  0.00     0.023 C 
BRANCH  31  32
ATOM     32  C   UNL A   1      34.909  28.951  27.274  1.00  0.00     0.116 C 
BRANCH  32  33
ATOM     33  N   UNL A   1      35.184  30.016  28.239  1.00  0.00    -0.352 N 
ATOM     34  C   UNL A   1      36.258  30.131  29.102  1.00  0.00     0.251 C 
ATOM     35  H   UNL A   1      34.521  30.742  28.279  1.00  0.00     0.163 HD
ATOM     36  O   UNL A   1      36.193  30.827  30.107  1.00  0.00    -0.269 OA
BRANCH  34  37
ATOM     37  C   UNL A   1      37.501  29.414  28.778  1.00  0.00     0.039 A 
ATOM     38  C   UNL A   1      38.235  29.704  27.625  1.00  0.00     0.014 A 
ATOM     39  C   UNL A   1      37.943  28.458  29.687  1.00  0.00     0.014 A 
ATOM     40  C   UNL A   1      39.470  29.086  27.441  1.00  0.00     0.010 A 
ATOM     41  C   UNL A   1      39.215  27.955  29.577  1.00  0.00     0.010 A 
ATOM     42  C   UNL A   1      39.964  28.226  28.435  1.00  0.00    -0.014 A 
BRANCH  42  43
ATOM     43  C   UNL A   1      41.322  27.694  28.363  1.00  0.00     0.031 A 
ATOM     44  C   UNL A   1      41.456  26.411  27.619  1.00  0.00     0.074 A 
ATOM     45  C   UNL A   1      42.404  28.430  28.701  1.00  0.00     0.049 A 
ATOM     46  N   UNL A   1      41.829  25.263  28.081  1.00  0.00    -0.248 NA
ATOM     47  C   UNL A   1      41.017  26.372  26.215  1.00  0.00     0.031 C 
ATOM     48  C   UNL A   1      42.437  29.832  29.139  1.00  0.00     0.029 A 
ATOM     49  N   UNL A   1      43.725  28.122  28.591  1.00  0.00    -0.354 N 
ATOM     50  C   UNL A   1      41.871  24.402  26.986  1.00  0.00     0.074 A 
ATOM     51  C   UNL A   1      41.190  25.084  25.915  1.00  0.00     0.031 C 
ATOM     52  C   UNL A   1      43.690  30.318  29.010  1.00  0.00     0.029 A 
ATOM     53  C   UNL A   1      44.573  29.222  28.662  1.00  0.00     0.049 A 
ATOM     54  H   UNL A   1      44.053  27.201  28.471  1.00  0.00     0.167 HD
ATOM     55  C   UNL A   1      42.702  23.321  26.969  1.00  0.00     0.031 A 
ATOM     56  C   UNL A   1      45.908  29.242  28.435  1.00  0.00     0.031 A 
ATOM     57  C   UNL A   1      43.207  23.029  28.288  1.00  0.00     0.049 A 
ATOM     58  C   UNL A   1      46.398  27.854  28.554  1.00  0.00     0.074 A 
ATOM     59  C   UNL A   1      42.656  22.684  29.505  1.00  0.00     0.029 A 
ATOM     60  N   UNL A   1      44.482  23.464  28.557  1.00  0.00    -0.354 N 
ATOM     61  N   UNL A   1      46.409  27.194  29.675  1.00  0.00    -0.248 NA
ATOM     62  C   UNL A   1      46.488  27.044  27.351  1.00  0.00     0.031 C 
ATOM     63  C   UNL A   1      43.461  23.349  30.477  1.00  0.00     0.029 A 
ATOM     64  C   UNL A   1      44.497  24.007  29.811  1.00  0.00     0.049 A 
ATOM     65  H   UNL A   1      45.254  23.396  27.950  1.00  0.00     0.167 HD
ATOM     66  C   UNL A   1      46.044  25.903  29.323  1.00  0.00     0.074 A 
ATOM     67  C   UNL A   1      46.244  25.840  27.876  1.00  0.00     0.031 C 
ATOM     68  C   UNL A   1      45.345  25.115  30.193  1.00  0.00     0.031 A 
BRANCH  55  69
ATOM     69  C   UNL A   1      43.441  22.845  25.731  1.00  0.00    -0.014 A 
ATOM     70  C   UNL A   1      43.664  21.460  25.582  1.00  0.00     0.009 A 
ATOM     71  C   UNL A   1      44.187  23.689  24.889  1.00  0.00     0.009 A 
ATOM     72  C   UNL A   1      44.665  20.966  24.737  1.00  0.00     0.001 A 
ATOM     73  C   UNL A   1      45.157  23.195  24.011  1.00  0.00     0.001 A 
ATOM     74  C   UNL A   1      45.423  21.836  23.964  1.00  0.00     0.000 A 
ENDBRANCH  55  69
BRANCH  56  75
ATOM     75  C   UNL A   1      46.756  30.332  27.912  1.00  0.00    -0.014 A 
ATOM     76  C   UNL A   1      46.349  31.095  26.807  1.00  0.00     0.009 A 
ATOM     77  C   UNL A   1      47.841  30.803  28.674  1.00  0.00     0.009 A 
ATOM     78  C   UNL A   1      46.977  32.309  26.501  1.00  0.00     0.001 A 
ATOM     79  C   UNL A   1      48.469  32.016  28.368  1.00  0.00     0.001 A 
ATOM     80  C   UNL A   1      48.026  32.777  27.292  1.00  0.00     0.000 A 
ENDBRANCH  56  75
BRANCH  68  81
ATOM     81  C   UNL A   1      45.244  25.573  31.628  1.00  0.00    -0.014 A 
ATOM     82  C   UNL A   1      44.209  26.394  32.107  1.00  0.00     0.009 A 
ATOM     83  C   UNL A   1      46.153  25.040  32.553  1.00  0.00     0.009 A 
ATOM     84  C   UNL A   1      44.108  26.697  33.469  1.00  0.00     0.001 A 
ATOM     85  C   UNL A   1      46.039  25.323  33.914  1.00  0.00     0.001 A 
ATOM     86  C   UNL A   1      45.021  26.157  34.371  1.00  0.00     0.000 A 
ENDBRANCH  68  81
ENDBRANCH  42  43
ENDBRANCH  34  37
ENDBRANCH  32  33
ENDBRANCH  31  32
ENDBRANCH  30  31
ENDBRANCH   1  30
TORSDOF 15
ENDMDL
MODEL 3
REMARK VINA RESULT:     -11.9      2.450      7.554
REMARK SMILES NS(=O)(=O)c1ccc(-c2coc(=O)n2-c2ccc(C(=O)NCCCCNC(=O)c3ccc(-c4c5nc(c(-c6ccccc6)c6ccc([nH]6)c(-c6ccccc6)c6nc(c(-c7ccccc7)c7ccc4[nH]7)C=C6)C=C5)cc3)cc2)cc1
REMARK SMILES IDX 22 1 21 2 19 3 20 4 18 6 15 7 16 8 78 9 17 10 77 11 14 12
REMARK SMILES IDX 9 13 10 14 11 15 12 16 13 17 8 18 5 19 6 20 80 21 7 22 79 23
REMARK SMILES IDX 2 24 3 25 4 26 1 27 23 30 24 31 25 32 26 33 27 34 28 36
REMARK SMILES IDX 29 37 30 38 76 39 31 40 75 41 32 42 33 43 34 44 69 45 35 46
REMARK SMILES IDX 74 47 68 48 70 49 36 50 73 51 67 52 66 53 37 55 59 56 44 57
REMARK SMILES IDX 58 58 45 59 48 60 57 61 71 62 46 63 47 64 56 66 72 67 49 68
REMARK SMILES IDX 38 69 39 70 43 71 40 72 42 73 41 74 60 75 61 76 65 77 62 78
REMARK SMILES IDX 64 79 63 80 50 81 51 82 55 83 52 84 54 85 53 86
REMARK H PARENT 21 5 1 28 1 29 26 35 70 54 48 65
REMARK Flexibility Score: inf
ROOT
ATOM      1  C   UNL A   1      31.971  27.668  26.985  1.00  0.00     0.116 C 
ENDROOT
BRANCH   1   2
ATOM      2  N   UNL A   1      31.037  26.563  26.867  1.00  0.00    -0.352 N 
ATOM      3  C   UNL A   1      31.177  25.233  26.553  1.00  0.00     0.251 C 
ATOM      4  O   UNL A   1      30.151  24.551  26.582  1.00  0.00    -0.269 OA
ATOM      5  H   UNL A   1      30.106  26.822  27.052  1.00  0.00     0.163 HD
BRANCH   3   6
ATOM      6  C   UNL A   1      32.479  24.568  26.241  1.00  0.00     0.039 A 
ATOM      7  C   UNL A   1      34.995  23.342  25.896  1.00  0.00     0.053 A 
ATOM      8  C   UNL A   1      34.220  23.025  27.009  1.00  0.00     0.028 A 
ATOM      9  C   UNL A   1      34.487  24.207  24.927  1.00  0.00     0.028 A 
ATOM     10  C   UNL A   1      32.985  23.662  27.194  1.00  0.00     0.016 A 
ATOM     11  C   UNL A   1      33.216  24.767  25.075  1.00  0.00     0.016 A 
BRANCH   7  12
ATOM     12  N   UNL A   1      36.281  22.803  25.722  1.00  0.00    -0.242 N 
ATOM     13  C   UNL A   1      36.627  21.504  25.482  1.00  0.00     0.095 A 
ATOM     14  C   UNL A   1      37.947  21.449  25.615  1.00  0.00     0.228 A 
ATOM     15  O   UNL A   1      38.546  22.667  25.933  1.00  0.00    -0.415 OA
ATOM     16  C   UNL A   1      37.445  23.524  25.979  1.00  0.00     0.424 A 
ATOM     17  O   UNL A   1      37.545  24.712  26.252  1.00  0.00    -0.223 OA
BRANCH  13  18
ATOM     18  C   UNL A   1      35.737  20.448  24.998  1.00  0.00     0.002 A 
ATOM     19  C   UNL A   1      34.028  18.368  24.198  1.00  0.00     0.082 A 
ATOM     20  C   UNL A   1      35.349  18.080  24.538  1.00  0.00     0.022 A 
ATOM     21  C   UNL A   1      33.557  19.684  24.239  1.00  0.00     0.022 A 
ATOM     22  C   UNL A   1      36.195  19.119  24.937  1.00  0.00     0.012 A 
ATOM     23  C   UNL A   1      34.408  20.718  24.646  1.00  0.00     0.012 A 
BRANCH  19  24
ATOM     24  S   UNL A   1      32.915  17.087  23.701  1.00  0.00     0.238 S 
ATOM     25  O   UNL A   1      31.876  16.974  24.708  1.00  0.00    -0.207 OA
ATOM     26  O   UNL A   1      33.687  15.966  23.244  1.00  0.00    -0.207 OA
BRANCH  24  27
ATOM     27  N   UNL A   1      32.133  17.702  22.344  1.00  0.00    -0.225 NA
ATOM     28  H   UNL A   1      31.157  17.891  22.570  1.00  0.00     0.137 HD
ATOM     29  H   UNL A   1      32.180  17.020  21.586  1.00  0.00     0.137 HD
ENDBRANCH  24  27
ENDBRANCH  19  24
ENDBRANCH  13  18
ENDBRANCH   7  12
ENDBRANCH   3   6
ENDBRANCH   1   2
BRANCH   1  30
ATOM     30  C   UNL A   1      32.259  28.309  25.622  1.00  0.00     0.023 C 
BRANCH  30  31
ATOM     31  C   UNL A   1      33.309  29.431  25.645  1.00  0.00     0.023 C 
BRANCH  31  32
ATOM     32  C   UNL A   1      34.141  29.508  26.922  1.00  0.00     0.116 C 
BRANCH  32  33
ATOM     33  N   UNL A   1      34.603  30.864  27.220  1.00  0.00    -0.352 N 
ATOM     34  C   UNL A   1      35.678  31.250  27.998  1.00  0.00     0.251 C 
ATOM     35  H   UNL A   1      34.082  31.595  26.815  1.00  0.00     0.163 HD
ATOM     36  O   UNL A   1      35.738  32.370  28.487  1.00  0.00    -0.269 OA
BRANCH  34  37
ATOM     37  C   UNL A   1      36.771  30.289  28.213  1.00  0.00     0.039 A 
ATOM     38  C   UNL A   1      37.796  30.123  27.278  1.00  0.00     0.014 A 
ATOM     39  C   UNL A   1      36.769  29.574  29.407  1.00  0.00     0.014 A 
ATOM     40  C   UNL A   1      38.871  29.298  27.598  1.00  0.00     0.010 A 
ATOM     41  C   UNL A   1      37.888  28.873  29.779  1.00  0.00     0.010 A 
ATOM     42  C   UNL A   1      38.921  28.691  28.863  1.00  0.00    -0.014 A 
BRANCH  42  43
ATOM     43  C   UNL A   1      40.106  27.960  29.301  1.00  0.00     0.031 A 
ATOM     44  C   UNL A   1      40.421  28.084  30.752  1.00  0.00     0.074 A 
ATOM     45  C   UNL A   1      40.712  27.034  28.525  1.00  0.00     0.049 A 
ATOM     46  N   UNL A   1      41.464  28.620  31.293  1.00  0.00    -0.248 NA
ATOM     47  C   UNL A   1      39.398  27.660  31.723  1.00  0.00     0.031 C 
ATOM     48  C   UNL A   1      40.303  26.574  27.190  1.00  0.00     0.029 A 
ATOM     49  N   UNL A   1      41.746  26.201  28.823  1.00  0.00    -0.354 N 
ATOM     50  C   UNL A   1      41.333  28.418  32.666  1.00  0.00     0.074 A 
ATOM     51  C   UNL A   1      39.972  27.995  32.879  1.00  0.00     0.031 C 
ATOM     52  C   UNL A   1      40.906  25.398  26.913  1.00  0.00     0.029 A 
ATOM     53  C   UNL A   1      41.874  25.121  27.956  1.00  0.00     0.049 A 
ATOM     54  H   UNL A   1      42.350  26.349  29.586  1.00  0.00     0.167 HD
ATOM     55  C   UNL A   1      42.427  28.346  33.477  1.00  0.00     0.031 A 
ATOM     56  C   UNL A   1      42.703  24.059  28.089  1.00  0.00     0.031 A 
ATOM     57  C   UNL A   1      43.607  28.837  32.808  1.00  0.00     0.049 A 
ATOM     58  C   UNL A   1      43.767  24.445  29.038  1.00  0.00     0.074 A 
ATOM     59  C   UNL A   1      44.001  30.036  32.251  1.00  0.00     0.029 A 
ATOM     60  N   UNL A   1      44.455  27.883  32.301  1.00  0.00    -0.354 N 
ATOM     61  N   UNL A   1      44.664  25.351  28.777  1.00  0.00    -0.248 NA
ATOM     62  C   UNL A   1      43.591  24.128  30.445  1.00  0.00     0.031 C 
ATOM     63  C   UNL A   1      44.768  29.675  31.103  1.00  0.00     0.029 A 
ATOM     64  C   UNL A   1      44.859  28.282  31.058  1.00  0.00     0.049 A 
ATOM     65  H   UNL A   1      44.726  27.054  32.756  1.00  0.00     0.167 HD
ATOM     66  C   UNL A   1      44.826  26.036  29.972  1.00  0.00     0.074 A 
ATOM     67  C   UNL A   1      44.252  25.154  30.988  1.00  0.00     0.031 C 
ATOM     68  C   UNL A   1      45.143  27.364  29.977  1.00  0.00     0.031 A 
BRANCH  55  69
ATOM     69  C   UNL A   1      42.541  27.399  34.658  1.00  0.00    -0.014 A 
ATOM     70  C   UNL A   1      42.827  26.043  34.397  1.00  0.00     0.009 A 
ATOM     71  C   UNL A   1      42.078  27.699  35.952  1.00  0.00     0.009 A 
ATOM     72  C   UNL A   1      42.541  25.040  35.332  1.00  0.00     0.001 A 
ATOM     73  C   UNL A   1      41.834  26.704  36.904  1.00  0.00     0.001 A 
ATOM     74  C   UNL A   1      42.028  25.371  36.580  1.00  0.00     0.000 A 
ENDBRANCH  55  69
BRANCH  56  75
ATOM     75  C   UNL A   1      42.530  22.668  27.628  1.00  0.00    -0.014 A 
ATOM     76  C   UNL A   1      41.452  21.889  28.075  1.00  0.00     0.009 A 
ATOM     77  C   UNL A   1      43.273  22.195  26.530  1.00  0.00     0.009 A 
ATOM     78  C   UNL A   1      41.102  20.701  27.419  1.00  0.00     0.001 A 
ATOM     79  C   UNL A   1      42.924  21.009  25.875  1.00  0.00     0.001 A 
ATOM     80  C   UNL A   1      41.828  20.270  26.310  1.00  0.00     0.000 A 
ENDBRANCH  56  75
BRANCH  68  81
ATOM     81  C   UNL A   1      45.597  27.981  28.676  1.00  0.00    -0.014 A 
ATOM     82  C   UNL A   1      44.719  28.322  27.634  1.00  0.00     0.009 A 
ATOM     83  C   UNL A   1      46.944  28.355  28.561  1.00  0.00     0.009 A 
ATOM     84  C   UNL A   1      45.183  28.990  26.496  1.00  0.00     0.001 A 
ATOM     85  C   UNL A   1      47.403  29.041  27.436  1.00  0.00     0.001 A 
ATOM     86  C   UNL A   1      46.525  29.353  26.401  1.00  0.00     0.000 A 
ENDBRANCH  68  81
ENDBRANCH  42  43
ENDBRANCH  34  37
ENDBRANCH  32  33
ENDBRANCH  31  32
ENDBRANCH  30  31
ENDBRANCH   1  30
TORSDOF 15
ENDMDL
