MODEL 1
REMARK VINA RESULT:     -13.0      0.000      0.000
REMARK SMILES COc1ccc(-n2c(SCc3cn(-c4ccc(C(=O)NCCCCNC(=O)c5ccc(-c6c7nc(c(-c8ccccc8)c8ccc([nH]8)c(-c8ccccc8)c8nc(c(-c9ccccc9)c9ccc6[nH]9)C=C8)C=C7)cc5)cc4)nn3)nc3ccccc3c2=O)cc1
REMARK SMILES IDX 18 1 19 2 20 3 17 5 14 6 15 7 77 8 16 9 76 10 13 11 11 12
REMARK SMILES IDX 12 13 79 14 78 15 10 16 9 17 8 18 7 19 87 20 80 21 86 22
REMARK SMILES IDX 88 23 81 24 85 25 82 26 84 27 83 28 6 29 3 30 4 31 90 32
REMARK SMILES IDX 5 33 89 34 2 35 1 36 21 37 22 38 23 39 24 40 25 41 26 42
REMARK SMILES IDX 27 44 28 45 29 46 75 47 30 48 74 49 31 50 32 51 33 52 68 53
REMARK SMILES IDX 34 54 73 55 67 56 69 57 35 58 72 59 66 60 65 61 36 63 58 64
REMARK SMILES IDX 43 65 57 66 44 67 47 68 56 69 70 70 45 71 46 72 55 74 71 75
REMARK SMILES IDX 48 76 37 77 38 78 42 79 39 80 41 81 40 82 59 83 60 84 64 85
REMARK SMILES IDX 61 86 63 87 62 88 49 89 50 90 54 91 51 92 53 93 52 94
REMARK H PARENT 20 4 25 43 69 62 47 73
REMARK Flexibility Score: inf
ROOT
ATOM      1  C   UNL A   1      30.295  28.849  22.909  1.00  0.00     0.251 C 
ATOM      2  O   UNL A   1      29.687  29.122  21.875  1.00  0.00    -0.269 OA
ATOM      3  N   UNL A   1      30.709  29.890  23.705  1.00  0.00    -0.352 N 
ATOM      4  H   UNL A   1      30.529  30.778  23.320  1.00  0.00     0.163 HD
ENDROOT
BRANCH   1   5
ATOM      5  C   UNL A   1      30.499  27.425  23.276  1.00  0.00     0.039 A 
ATOM      6  C   UNL A   1      30.943  24.848  24.160  1.00  0.00     0.066 A 
ATOM      7  C   UNL A   1      29.798  25.506  24.598  1.00  0.00     0.029 A 
ATOM      8  C   UNL A   1      31.815  25.406  23.237  1.00  0.00     0.029 A 
ATOM      9  C   UNL A   1      29.604  26.823  24.182  1.00  0.00     0.016 A 
ATOM     10  C   UNL A   1      31.538  26.659  22.752  1.00  0.00     0.016 A 
BRANCH   6  11
ATOM     11  N   UNL A   1      31.197  23.528  24.495  1.00  0.00    -0.220 N 
ATOM     12  C   UNL A   1      32.355  21.967  25.423  1.00  0.00     0.093 A 
ATOM     13  C   UNL A   1      31.646  23.097  25.715  1.00  0.00     0.141 A 
ATOM     14  N   UNL A   1      32.299  21.754  24.068  1.00  0.00    -0.134 NA
ATOM     15  N   UNL A   1      31.501  22.654  23.529  1.00  0.00    -0.062 NA
BRANCH  12  16
ATOM     16  C   UNL A   1      33.057  21.069  26.350  1.00  0.00     0.138 C 
BRANCH  16  17
ATOM     17  S   UNL A   1      34.799  21.402  26.479  1.00  0.00    -0.081 SA
BRANCH  17  18
ATOM     18  C   UNL A   1      35.450  20.897  24.858  1.00  0.00     0.176 A 
ATOM     19  N   UNL A   1      36.223  19.751  24.917  1.00  0.00    -0.255 N 
ATOM     20  C   UNL A   1      37.590  19.953  25.058  1.00  0.00     0.266 A 
ATOM     21  N   UNL A   1      35.855  21.890  24.121  1.00  0.00    -0.223 NA
ATOM     22  C   UNL A   1      37.962  21.401  25.210  1.00  0.00     0.066 A 
ATOM     23  O   UNL A   1      38.454  19.085  25.112  1.00  0.00    -0.268 OA
ATOM     24  C   UNL A   1      37.087  22.341  24.630  1.00  0.00     0.079 A 
ATOM     25  C   UNL A   1      38.916  21.814  26.132  1.00  0.00     0.016 A 
ATOM     26  C   UNL A   1      37.231  23.703  24.889  1.00  0.00     0.029 A 
ATOM     27  C   UNL A   1      38.989  23.171  26.465  1.00  0.00     0.001 A 
ATOM     28  C   UNL A   1      38.170  24.114  25.830  1.00  0.00     0.002 A 
BRANCH  19  29
ATOM     29  C   UNL A   1      35.639  18.474  24.685  1.00  0.00     0.052 A 
ATOM     30  C   UNL A   1      34.184  16.079  24.945  1.00  0.00     0.119 A 
ATOM     31  C   UNL A   1      33.631  17.158  24.259  1.00  0.00     0.048 A 
ATOM     32  C   UNL A   1      35.512  16.145  25.366  1.00  0.00     0.048 A 
ATOM     33  C   UNL A   1      34.343  18.364  24.158  1.00  0.00     0.030 A 
ATOM     34  C   UNL A   1      36.250  17.330  25.207  1.00  0.00     0.030 A 
BRANCH  30  35
ATOM     35  O   UNL A   1      33.406  14.967  25.118  1.00  0.00    -0.497 OA
ATOM     36  C   UNL A   1      32.169  15.213  25.793  1.00  0.00     0.278 C 
ENDBRANCH  30  35
ENDBRANCH  19  29
ENDBRANCH  17  18
ENDBRANCH  16  17
ENDBRANCH  12  16
ENDBRANCH   6  11
ENDBRANCH   1   5
BRANCH   3  37
ATOM     37  C   UNL A   1      31.359  29.936  25.003  1.00  0.00     0.116 C 
BRANCH  37  38
ATOM     38  C   UNL A   1      32.844  29.538  24.930  1.00  0.00     0.023 C 
BRANCH  38  39
ATOM     39  C   UNL A   1      33.290  28.461  25.920  1.00  0.00     0.023 C 
BRANCH  39  40
ATOM     40  C   UNL A   1      34.224  28.947  27.019  1.00  0.00     0.116 C 
BRANCH  40  41
ATOM     41  N   UNL A   1      34.275  30.410  27.134  1.00  0.00    -0.352 N 
ATOM     42  C   UNL A   1      34.987  31.174  28.050  1.00  0.00     0.251 C 
ATOM     43  H   UNL A   1      33.736  30.912  26.480  1.00  0.00     0.163 HD
ATOM     44  O   UNL A   1      34.662  32.312  28.329  1.00  0.00    -0.269 OA
BRANCH  42  45
ATOM     45  C   UNL A   1      36.194  30.572  28.640  1.00  0.00     0.039 A 
ATOM     46  C   UNL A   1      36.183  29.807  29.807  1.00  0.00     0.014 A 
ATOM     47  C   UNL A   1      37.364  30.755  27.917  1.00  0.00     0.014 A 
ATOM     48  C   UNL A   1      37.364  29.171  30.191  1.00  0.00     0.010 A 
ATOM     49  C   UNL A   1      38.424  29.933  28.145  1.00  0.00     0.010 A 
ATOM     50  C   UNL A   1      38.478  29.235  29.339  1.00  0.00    -0.014 A 
BRANCH  50  51
ATOM     51  C   UNL A   1      39.720  28.533  29.611  1.00  0.00     0.031 A 
ATOM     52  C   UNL A   1      40.040  28.379  31.050  1.00  0.00     0.074 A 
ATOM     53  C   UNL A   1      40.386  27.851  28.652  1.00  0.00     0.049 A 
ATOM     54  N   UNL A   1      40.983  28.967  31.704  1.00  0.00    -0.248 NA
ATOM     55  C   UNL A   1      39.127  27.592  31.894  1.00  0.00     0.031 C 
ATOM     56  C   UNL A   1      40.004  27.613  27.251  1.00  0.00     0.029 A 
ATOM     57  N   UNL A   1      41.509  27.101  28.774  1.00  0.00    -0.354 N 
ATOM     58  C   UNL A   1      40.921  28.466  32.998  1.00  0.00     0.074 A 
ATOM     59  C   UNL A   1      39.653  27.788  33.105  1.00  0.00     0.031 C 
ATOM     60  C   UNL A   1      40.728  26.586  26.750  1.00  0.00     0.029 A 
ATOM     61  C   UNL A   1      41.741  26.224  27.722  1.00  0.00     0.049 A 
ATOM     62  H   UNL A   1      42.113  27.173  29.548  1.00  0.00     0.167 HD
ATOM     63  C   UNL A   1      42.029  28.421  33.788  1.00  0.00     0.031 A 
ATOM     64  C   UNL A   1      42.681  25.247  27.679  1.00  0.00     0.031 A 
ATOM     65  C   UNL A   1      43.107  29.205  33.233  1.00  0.00     0.049 A 
ATOM     66  C   UNL A   1      43.702  25.582  28.702  1.00  0.00     0.074 A 
ATOM     67  C   UNL A   1      43.254  30.531  32.875  1.00  0.00     0.029 A 
ATOM     68  N   UNL A   1      44.095  28.523  32.559  1.00  0.00    -0.354 N 
ATOM     69  N   UNL A   1      44.470  26.632  28.621  1.00  0.00    -0.248 NA
ATOM     70  C   UNL A   1      43.517  25.046  30.042  1.00  0.00     0.031 C 
ATOM     71  C   UNL A   1      43.964  30.494  31.638  1.00  0.00     0.029 A 
ATOM     72  C   UNL A   1      44.289  29.164  31.362  1.00  0.00     0.049 A 
ATOM     73  H   UNL A   1      44.575  27.725  32.878  1.00  0.00     0.167 HD
ATOM     74  C   UNL A   1      44.495  27.152  29.909  1.00  0.00     0.074 A 
ATOM     75  C   UNL A   1      43.964  26.083  30.758  1.00  0.00     0.031 C 
ATOM     76  C   UNL A   1      44.654  28.491  30.134  1.00  0.00     0.031 A 
BRANCH  63  77
ATOM     77  C   UNL A   1      42.286  27.343  34.811  1.00  0.00    -0.014 A 
ATOM     78  C   UNL A   1      42.964  26.180  34.404  1.00  0.00     0.009 A 
ATOM     79  C   UNL A   1      41.647  27.297  36.065  1.00  0.00     0.009 A 
ATOM     80  C   UNL A   1      42.930  25.012  35.173  1.00  0.00     0.001 A 
ATOM     81  C   UNL A   1      41.648  26.145  36.855  1.00  0.00     0.001 A 
ATOM     82  C   UNL A   1      42.264  24.992  36.393  1.00  0.00     0.000 A 
ENDBRANCH  63  77
BRANCH  64  83
ATOM     83  C   UNL A   1      42.587  23.912  27.044  1.00  0.00    -0.014 A 
ATOM     84  C   UNL A   1      43.066  23.691  25.744  1.00  0.00     0.009 A 
ATOM     85  C   UNL A   1      42.272  22.781  27.822  1.00  0.00     0.009 A 
ATOM     86  C   UNL A   1      43.257  22.389  25.255  1.00  0.00     0.001 A 
ATOM     87  C   UNL A   1      42.461  21.482  27.335  1.00  0.00     0.001 A 
ATOM     88  C   UNL A   1      42.967  21.286  26.056  1.00  0.00     0.000 A 
ENDBRANCH  64  83
BRANCH  76  89
ATOM     89  C   UNL A   1      44.996  29.381  28.961  1.00  0.00    -0.014 A 
ATOM     90  C   UNL A   1      46.314  29.644  28.548  1.00  0.00     0.009 A 
ATOM     91  C   UNL A   1      43.946  29.826  28.143  1.00  0.00     0.009 A 
ATOM     92  C   UNL A   1      46.571  30.351  27.365  1.00  0.00     0.001 A 
ATOM     93  C   UNL A   1      44.203  30.513  26.953  1.00  0.00     0.001 A 
ATOM     94  C   UNL A   1      45.514  30.780  26.567  1.00  0.00     0.000 A 
ENDBRANCH  76  89
ENDBRANCH  50  51
ENDBRANCH  42  45
ENDBRANCH  40  41
ENDBRANCH  39  40
ENDBRANCH  38  39
ENDBRANCH  37  38
ENDBRANCH   3  37
TORSDOF 17
ENDMDL
MODEL 2
REMARK VINA RESULT:     -12.6      2.890      8.819
REMARK SMILES COc1ccc(-n2c(SCc3cn(-c4ccc(C(=O)NCCCCNC(=O)c5ccc(-c6c7nc(c(-c8ccccc8)c8ccc([nH]8)c(-c8ccccc8)c8nc(c(-c9ccccc9)c9ccc6[nH]9)C=C8)C=C7)cc5)cc4)nn3)nc3ccccc3c2=O)cc1
REMARK SMILES IDX 18 1 19 2 20 3 17 5 14 6 15 7 77 8 16 9 76 10 13 11 11 12
REMARK SMILES IDX 12 13 79 14 78 15 10 16 9 17 8 18 7 19 87 20 80 21 86 22
REMARK SMILES IDX 88 23 81 24 85 25 82 26 84 27 83 28 6 29 3 30 4 31 90 32
REMARK SMILES IDX 5 33 89 34 2 35 1 36 21 37 22 38 23 39 24 40 25 41 26 42
REMARK SMILES IDX 27 44 28 45 29 46 75 47 30 48 74 49 31 50 32 51 33 52 68 53
REMARK SMILES IDX 34 54 73 55 67 56 69 57 35 58 72 59 66 60 65 61 36 63 58 64
REMARK SMILES IDX 43 65 57 66 44 67 47 68 56 69 70 70 45 71 46 72 55 74 71 75
REMARK SMILES IDX 48 76 37 77 38 78 42 79 39 80 41 81 40 82 59 83 60 84 64 85
REMARK SMILES IDX 61 86 63 87 62 88 49 89 50 90 54 91 51 92 53 93 52 94
REMARK H PARENT 20 4 25 43 69 62 47 73
REMARK Flexibility Score: inf
ROOT
ATOM      1  C   UNL A   1      42.552  19.424  26.950  1.00  0.00     0.251 C 
ATOM      2  O   UNL A   1      42.524  18.721  27.960  1.00  0.00    -0.269 OA
ATOM      3  N   UNL A   1      43.715  19.452  26.219  1.00  0.00    -0.352 N 
ATOM      4  H   UNL A   1      44.452  18.942  26.627  1.00  0.00     0.163 HD
ENDROOT
BRANCH   1   5
ATOM      5  C   UNL A   1      41.326  20.154  26.541  1.00  0.00     0.039 A 
ATOM      6  C   UNL A   1      38.981  21.503  25.992  1.00  0.00     0.066 A 
ATOM      7  C   UNL A   1      40.009  22.198  26.620  1.00  0.00     0.029 A 
ATOM      8  C   UNL A   1      39.126  20.193  25.559  1.00  0.00     0.029 A 
ATOM      9  C   UNL A   1      41.174  21.498  26.934  1.00  0.00     0.016 A 
ATOM     10  C   UNL A   1      40.324  19.562  25.775  1.00  0.00     0.016 A 
BRANCH   6  11
ATOM     11  N   UNL A   1      37.805  22.129  25.613  1.00  0.00    -0.220 N 
ATOM     12  C   UNL A   1      36.376  22.819  24.156  1.00  0.00     0.093 A 
ATOM     13  C   UNL A   1      36.951  21.679  24.641  1.00  0.00     0.141 A 
ATOM     14  N   UNL A   1      36.884  23.892  24.846  1.00  0.00    -0.134 NA
ATOM     15  N   UNL A   1      37.674  23.447  25.802  1.00  0.00    -0.062 NA
BRANCH  12  16
ATOM     16  C   UNL A   1      35.363  22.948  23.101  1.00  0.00     0.138 C 
BRANCH  16  17
ATOM     17  S   UNL A   1      33.862  23.730  23.648  1.00  0.00    -0.081 SA
BRANCH  17  18
ATOM     18  C   UNL A   1      33.532  22.941  25.253  1.00  0.00     0.176 A 
ATOM     19  N   UNL A   1      32.357  22.210  25.267  1.00  0.00    -0.255 N 
ATOM     20  C   UNL A   1      31.232  22.888  25.719  1.00  0.00     0.266 A 
ATOM     21  N   UNL A   1      33.817  23.691  26.278  1.00  0.00    -0.223 NA
ATOM     22  C   UNL A   1      31.496  24.335  26.026  1.00  0.00     0.066 A 
ATOM     23  O   UNL A   1      30.100  22.431  25.831  1.00  0.00    -0.268 OA
ATOM     24  C   UNL A   1      32.814  24.671  26.397  1.00  0.00     0.079 A 
ATOM     25  C   UNL A   1      30.601  25.332  25.659  1.00  0.00     0.016 A 
ATOM     26  C   UNL A   1      33.207  26.003  26.501  1.00  0.00     0.029 A 
ATOM     27  C   UNL A   1      31.033  26.663  25.668  1.00  0.00     0.001 A 
ATOM     28  C   UNL A   1      32.319  27.000  26.110  1.00  0.00     0.002 A 
BRANCH  19  29
ATOM     29  C   UNL A   1      32.371  20.816  24.984  1.00  0.00     0.052 A 
ATOM     30  C   UNL A   1      33.141  18.221  24.214  1.00  0.00     0.119 A 
ATOM     31  C   UNL A   1      33.189  18.591  25.556  1.00  0.00     0.048 A 
ATOM     32  C   UNL A   1      32.571  19.090  23.285  1.00  0.00     0.048 A 
ATOM     33  C   UNL A   1      32.836  19.896  25.937  1.00  0.00     0.030 A 
ATOM     34  C   UNL A   1      32.155  20.374  23.675  1.00  0.00     0.030 A 
BRANCH  30  35
ATOM     35  O   UNL A   1      33.605  16.978  23.879  1.00  0.00    -0.497 OA
ATOM     36  C   UNL A   1      34.754  16.559  24.620  1.00  0.00     0.278 C 
ENDBRANCH  30  35
ENDBRANCH  19  29
ENDBRANCH  17  18
ENDBRANCH  16  17
ENDBRANCH  12  16
ENDBRANCH   6  11
ENDBRANCH   1   5
BRANCH   3  37
ATOM     37  C   UNL A   1      44.070  20.086  24.961  1.00  0.00     0.116 C 
BRANCH  37  38
ATOM     38  C   UNL A   1      44.117  21.620  25.070  1.00  0.00     0.023 C 
BRANCH  38  39
ATOM     39  C   UNL A   1      45.287  22.191  25.872  1.00  0.00     0.023 C 
BRANCH  39  40
ATOM     40  C   UNL A   1      44.905  23.230  26.915  1.00  0.00     0.116 C 
BRANCH  40  41
ATOM     41  N   UNL A   1      44.490  22.643  28.195  1.00  0.00    -0.352 N 
ATOM     42  C   UNL A   1      44.033  23.300  29.332  1.00  0.00     0.251 C 
ATOM     43  H   UNL A   1      44.542  21.662  28.256  1.00  0.00     0.163 HD
ATOM     44  O   UNL A   1      44.104  22.797  30.437  1.00  0.00    -0.269 OA
BRANCH  42  45
ATOM     45  C   UNL A   1      43.405  24.618  29.145  1.00  0.00     0.039 A 
ATOM     46  C   UNL A   1      42.259  24.826  28.376  1.00  0.00     0.014 A 
ATOM     47  C   UNL A   1      43.991  25.660  29.850  1.00  0.00     0.014 A 
ATOM     48  C   UNL A   1      41.676  26.093  28.390  1.00  0.00     0.010 A 
ATOM     49  C   UNL A   1      43.281  26.800  30.066  1.00  0.00     0.010 A 
ATOM     50  C   UNL A   1      42.194  27.071  29.252  1.00  0.00    -0.014 A 
BRANCH  50  51
ATOM     51  C   UNL A   1      41.600  28.388  29.400  1.00  0.00     0.031 A 
ATOM     52  C   UNL A   1      42.424  29.500  28.870  1.00  0.00     0.074 A 
ATOM     53  C   UNL A   1      40.303  28.557  29.745  1.00  0.00     0.049 A 
ATOM     54  N   UNL A   1      43.032  30.409  29.552  1.00  0.00    -0.248 NA
ATOM     55  C   UNL A   1      42.724  29.529  27.430  1.00  0.00     0.031 C 
ATOM     56  C   UNL A   1      39.261  27.540  29.954  1.00  0.00     0.029 A 
ATOM     57  N   UNL A   1      39.602  29.713  29.853  1.00  0.00    -0.354 N 
ATOM     58  C   UNL A   1      43.621  31.255  28.621  1.00  0.00     0.074 A 
ATOM     59  C   UNL A   1      43.569  30.561  27.358  1.00  0.00     0.031 C 
ATOM     60  C   UNL A   1      38.041  28.122  29.904  1.00  0.00     0.029 A 
ATOM     61  C   UNL A   1      38.222  29.560  29.846  1.00  0.00     0.049 A 
ATOM     62  H   UNL A   1      40.038  30.592  29.931  1.00  0.00     0.167 HD
ATOM     63  C   UNL A   1      43.862  32.563  28.913  1.00  0.00     0.031 A 
ATOM     64  C   UNL A   1      37.300  30.551  29.761  1.00  0.00     0.031 A 
ATOM     65  C   UNL A   1      43.720  32.824  30.326  1.00  0.00     0.049 A 
ATOM     66  C   UNL A   1      37.980  31.809  30.160  1.00  0.00     0.074 A 
ATOM     67  C   UNL A   1      44.315  32.323  31.467  1.00  0.00     0.029 A 
ATOM     68  N   UNL A   1      42.541  33.403  30.741  1.00  0.00    -0.354 N 
ATOM     69  N   UNL A   1      38.426  32.023  31.366  1.00  0.00    -0.248 NA
ATOM     70  C   UNL A   1      38.608  32.599  29.112  1.00  0.00     0.031 C 
ATOM     71  C   UNL A   1      43.241  32.168  32.396  1.00  0.00     0.029 A 
ATOM     72  C   UNL A   1      42.080  32.669  31.804  1.00  0.00     0.049 A 
ATOM     73  H   UNL A   1      42.110  34.196  30.348  1.00  0.00     0.167 HD
ATOM     74  C   UNL A   1      39.668  32.617  31.183  1.00  0.00     0.074 A 
ATOM     75  C   UNL A   1      39.687  33.027  29.777  1.00  0.00     0.031 C 
ATOM     76  C   UNL A   1      40.677  32.454  32.090  1.00  0.00     0.031 A 
BRANCH  63  77
ATOM     77  C   UNL A   1      43.795  33.675  27.897  1.00  0.00    -0.014 A 
ATOM     78  C   UNL A   1      43.031  34.816  28.201  1.00  0.00     0.009 A 
ATOM     79  C   UNL A   1      44.209  33.528  26.559  1.00  0.00     0.009 A 
ATOM     80  C   UNL A   1      42.633  35.712  27.202  1.00  0.00     0.001 A 
ATOM     81  C   UNL A   1      43.849  34.444  25.567  1.00  0.00     0.001 A 
ATOM     82  C   UNL A   1      43.034  35.519  25.884  1.00  0.00     0.000 A 
ENDBRANCH  63  77
BRANCH  64  83
ATOM     83  C   UNL A   1      35.990  30.530  29.071  1.00  0.00    -0.014 A 
ATOM     84  C   UNL A   1      35.128  31.636  29.116  1.00  0.00     0.009 A 
ATOM     85  C   UNL A   1      35.702  29.518  28.135  1.00  0.00     0.009 A 
ATOM     86  C   UNL A   1      34.041  31.743  28.233  1.00  0.00     0.001 A 
ATOM     87  C   UNL A   1      34.618  29.622  27.255  1.00  0.00     0.001 A 
ATOM     88  C   UNL A   1      33.796  30.742  27.295  1.00  0.00     0.000 A 
ENDBRANCH  64  83
BRANCH  76  89
ATOM     89  C   UNL A   1      40.361  31.768  33.401  1.00  0.00    -0.014 A 
ATOM     90  C   UNL A   1      40.236  30.374  33.533  1.00  0.00     0.009 A 
ATOM     91  C   UNL A   1      40.363  32.545  34.569  1.00  0.00     0.009 A 
ATOM     92  C   UNL A   1      40.094  29.780  34.795  1.00  0.00     0.001 A 
ATOM     93  C   UNL A   1      40.242  31.951  35.828  1.00  0.00     0.001 A 
ATOM     94  C   UNL A   1      40.102  30.570  35.941  1.00  0.00     0.000 A 
ENDBRANCH  76  89
ENDBRANCH  50  51
ENDBRANCH  42  45
ENDBRANCH  40  41
ENDBRANCH  39  40
ENDBRANCH  38  39
ENDBRANCH  37  38
ENDBRANCH   3  37
TORSDOF 17
ENDMDL
MODEL 3
REMARK VINA RESULT:     -12.6      1.709      5.396
REMARK SMILES COc1ccc(-n2c(SCc3cn(-c4ccc(C(=O)NCCCCNC(=O)c5ccc(-c6c7nc(c(-c8ccccc8)c8ccc([nH]8)c(-c8ccccc8)c8nc(c(-c9ccccc9)c9ccc6[nH]9)C=C8)C=C7)cc5)cc4)nn3)nc3ccccc3c2=O)cc1
REMARK SMILES IDX 18 1 19 2 20 3 17 5 14 6 15 7 77 8 16 9 76 10 13 11 11 12
REMARK SMILES IDX 12 13 79 14 78 15 10 16 9 17 8 18 7 19 87 20 80 21 86 22
REMARK SMILES IDX 88 23 81 24 85 25 82 26 84 27 83 28 6 29 3 30 4 31 90 32
REMARK SMILES IDX 5 33 89 34 2 35 1 36 21 37 22 38 23 39 24 40 25 41 26 42
REMARK SMILES IDX 27 44 28 45 29 46 75 47 30 48 74 49 31 50 32 51 33 52 68 53
REMARK SMILES IDX 34 54 73 55 67 56 69 57 35 58 72 59 66 60 65 61 36 63 58 64
REMARK SMILES IDX 43 65 57 66 44 67 47 68 56 69 70 70 45 71 46 72 55 74 71 75
REMARK SMILES IDX 48 76 37 77 38 78 42 79 39 80 41 81 40 82 59 83 60 84 64 85
REMARK SMILES IDX 61 86 63 87 62 88 49 89 50 90 54 91 51 92 53 93 52 94
REMARK H PARENT 20 4 25 43 69 62 47 73
REMARK Flexibility Score: inf
ROOT
ATOM      1  C   UNL A   1      30.774  29.370  24.054  1.00  0.00     0.251 C 
ATOM      2  O   UNL A   1      30.251  29.795  23.024  1.00  0.00    -0.269 OA
ATOM      3  N   UNL A   1      31.180  30.286  24.993  1.00  0.00    -0.352 N 
ATOM      4  H   UNL A   1      31.068  31.222  24.709  1.00  0.00     0.163 HD
ENDROOT
BRANCH   1   5
ATOM      5  C   UNL A   1      30.889  27.903  24.258  1.00  0.00     0.039 A 
ATOM      6  C   UNL A   1      30.983  25.204  24.825  1.00  0.00     0.066 A 
ATOM      7  C   UNL A   1      29.796  25.731  24.328  1.00  0.00     0.029 A 
ATOM      8  C   UNL A   1      32.134  25.965  24.962  1.00  0.00     0.029 A 
ATOM      9  C   UNL A   1      29.742  27.104  24.085  1.00  0.00     0.016 A 
ATOM     10  C   UNL A   1      32.089  27.288  24.605  1.00  0.00     0.016 A 
BRANCH   6  11
ATOM     11  N   UNL A   1      31.135  23.847  25.059  1.00  0.00    -0.220 N 
ATOM     12  C   UNL A   1      32.236  22.122  25.729  1.00  0.00     0.093 A 
ATOM     13  C   UNL A   1      31.708  23.300  26.176  1.00  0.00     0.141 A 
ATOM     14  N   UNL A   1      31.958  21.998  24.391  1.00  0.00    -0.134 NA
ATOM     15  N   UNL A   1      31.194  23.006  24.020  1.00  0.00    -0.062 NA
BRANCH  12  16
ATOM     16  C   UNL A   1      32.963  21.103  26.498  1.00  0.00     0.138 C 
BRANCH  16  17
ATOM     17  S   UNL A   1      34.715  21.392  26.584  1.00  0.00    -0.081 SA
BRANCH  17  18
ATOM     18  C   UNL A   1      35.305  20.927  24.928  1.00  0.00     0.176 A 
ATOM     19  N   UNL A   1      36.072  19.775  24.929  1.00  0.00    -0.255 N 
ATOM     20  C   UNL A   1      37.445  19.966  25.026  1.00  0.00     0.266 A 
ATOM     21  N   UNL A   1      35.689  21.936  24.202  1.00  0.00    -0.223 NA
ATOM     22  C   UNL A   1      37.831  21.407  25.202  1.00  0.00     0.066 A 
ATOM     23  O   UNL A   1      38.305  19.093  25.025  1.00  0.00    -0.268 OA
ATOM     24  C   UNL A   1      36.941  22.367  24.678  1.00  0.00     0.079 A 
ATOM     25  C   UNL A   1      38.820  21.791  26.099  1.00  0.00     0.016 A 
ATOM     26  C   UNL A   1      37.103  23.721  24.968  1.00  0.00     0.029 A 
ATOM     27  C   UNL A   1      38.913  23.139  26.465  1.00  0.00     0.001 A 
ATOM     28  C   UNL A   1      38.077  24.102  25.885  1.00  0.00     0.002 A 
BRANCH  19  29
ATOM     29  C   UNL A   1      35.472  18.508  24.684  1.00  0.00     0.052 A 
ATOM     30  C   UNL A   1      34.063  16.087  24.954  1.00  0.00     0.119 A 
ATOM     31  C   UNL A   1      33.436  17.198  24.395  1.00  0.00     0.048 A 
ATOM     32  C   UNL A   1      35.427  16.142  25.237  1.00  0.00     0.048 A 
ATOM     33  C   UNL A   1      34.128  18.415  24.291  1.00  0.00     0.030 A 
ATOM     34  C   UNL A   1      36.140  17.342  25.071  1.00  0.00     0.030 A 
BRANCH  30  35
ATOM     35  O   UNL A   1      33.311  14.959  25.142  1.00  0.00    -0.497 OA
ATOM     36  C   UNL A   1      32.109  15.169  25.886  1.00  0.00     0.278 C 
ENDBRANCH  30  35
ENDBRANCH  19  29
ENDBRANCH  17  18
ENDBRANCH  16  17
ENDBRANCH  12  16
ENDBRANCH   6  11
ENDBRANCH   1   5
BRANCH   3  37
ATOM     37  C   UNL A   1      31.743  30.144  26.326  1.00  0.00     0.116 C 
BRANCH  37  38
ATOM     38  C   UNL A   1      33.281  30.098  26.311  1.00  0.00     0.023 C 
BRANCH  38  39
ATOM     39  C   UNL A   1      33.919  29.033  27.204  1.00  0.00     0.023 C 
BRANCH  39  40
ATOM     40  C   UNL A   1      35.349  29.328  27.633  1.00  0.00     0.116 C 
BRANCH  40  41
ATOM     41  N   UNL A   1      35.452  29.830  29.008  1.00  0.00    -0.352 N 
ATOM     42  C   UNL A   1      36.412  29.522  29.965  1.00  0.00     0.251 C 
ATOM     43  H   UNL A   1      34.753  30.464  29.289  1.00  0.00     0.163 HD
ATOM     44  O   UNL A   1      36.199  29.651  31.155  1.00  0.00    -0.269 OA
BRANCH  42  45
ATOM     45  C   UNL A   1      37.731  29.079  29.481  1.00  0.00     0.039 A 
ATOM     46  C   UNL A   1      38.381  29.646  28.384  1.00  0.00     0.014 A 
ATOM     47  C   UNL A   1      38.337  28.086  30.237  1.00  0.00     0.014 A 
ATOM     48  C   UNL A   1      39.687  29.239  28.109  1.00  0.00     0.010 A 
ATOM     49  C   UNL A   1      39.679  27.891  30.126  1.00  0.00     0.010 A 
ATOM     50  C   UNL A   1      40.329  28.365  28.999  1.00  0.00    -0.014 A 
BRANCH  50  51
ATOM     51  C   UNL A   1      41.714  27.957  28.843  1.00  0.00     0.031 A 
ATOM     52  C   UNL A   1      41.912  26.755  27.999  1.00  0.00     0.074 A 
ATOM     53  C   UNL A   1      42.744  28.752  29.211  1.00  0.00     0.049 A 
ATOM     54  N   UNL A   1      42.286  25.585  28.389  1.00  0.00    -0.248 NA
ATOM     55  C   UNL A   1      41.515  26.816  26.583  1.00  0.00     0.031 C 
ATOM     56  C   UNL A   1      42.711  30.126  29.735  1.00  0.00     0.029 A 
ATOM     57  N   UNL A   1      44.074  28.533  29.064  1.00  0.00    -0.354 N 
ATOM     58  C   UNL A   1      42.382  24.810  27.240  1.00  0.00     0.074 A 
ATOM     59  C   UNL A   1      41.710  25.551  26.201  1.00  0.00     0.031 C 
ATOM     60  C   UNL A   1      43.935  30.689  29.612  1.00  0.00     0.029 A 
ATOM     61  C   UNL A   1      44.868  29.666  29.180  1.00  0.00     0.049 A 
ATOM     62  H   UNL A   1      44.449  27.639  28.889  1.00  0.00     0.167 HD
ATOM     63  C   UNL A   1      43.233  23.750  27.175  1.00  0.00     0.031 A 
ATOM     64  C   UNL A   1      46.192  29.757  28.902  1.00  0.00     0.031 A 
ATOM     65  C   UNL A   1      43.735  23.394  28.481  1.00  0.00     0.049 A 
ATOM     66  C   UNL A   1      46.734  28.375  28.927  1.00  0.00     0.074 A 
ATOM     67  C   UNL A   1      43.149  23.019  29.674  1.00  0.00     0.029 A 
ATOM     68  N   UNL A   1      45.000  23.830  28.806  1.00  0.00    -0.354 N 
ATOM     69  N   UNL A   1      46.784  27.651  30.009  1.00  0.00    -0.248 NA
ATOM     70  C   UNL A   1      46.743  27.631  27.676  1.00  0.00     0.031 C 
ATOM     71  C   UNL A   1      43.883  23.725  30.674  1.00  0.00     0.029 A 
ATOM     72  C   UNL A   1      44.925  24.410  30.047  1.00  0.00     0.049 A 
ATOM     73  H   UNL A   1      45.809  23.741  28.251  1.00  0.00     0.167 HD
ATOM     74  C   UNL A   1      46.377  26.385  29.606  1.00  0.00     0.074 A 
ATOM     75  C   UNL A   1      46.452  26.412  28.144  1.00  0.00     0.031 C 
ATOM     76  C   UNL A   1      45.732  25.538  30.462  1.00  0.00     0.031 A 
BRANCH  63  77
ATOM     77  C   UNL A   1      43.941  23.320  25.915  1.00  0.00    -0.014 A 
ATOM     78  C   UNL A   1      43.807  21.985  25.493  1.00  0.00     0.009 A 
ATOM     79  C   UNL A   1      44.950  24.081  25.294  1.00  0.00     0.009 A 
ATOM     80  C   UNL A   1      44.689  21.423  24.564  1.00  0.00     0.001 A 
ATOM     81  C   UNL A   1      45.805  23.535  24.335  1.00  0.00     0.001 A 
ATOM     82  C   UNL A   1      45.694  22.196  23.993  1.00  0.00     0.000 A 
ENDBRANCH  63  77
BRANCH  64  83
ATOM     83  C   UNL A   1      46.932  30.900  28.320  1.00  0.00    -0.014 A 
ATOM     84  C   UNL A   1      48.269  30.768  27.913  1.00  0.00     0.009 A 
ATOM     85  C   UNL A   1      46.238  32.056  27.912  1.00  0.00     0.009 A 
ATOM     86  C   UNL A   1      48.875  31.737  27.098  1.00  0.00     0.001 A 
ATOM     87  C   UNL A   1      46.842  33.023  27.099  1.00  0.00     0.001 A 
ATOM     88  C   UNL A   1      48.157  32.856  26.680  1.00  0.00     0.000 A 
ENDBRANCH  64  83
BRANCH  76  89
ATOM     89  C   UNL A   1      45.635  25.926  31.921  1.00  0.00    -0.014 A 
ATOM     90  C   UNL A   1      44.684  26.836  32.416  1.00  0.00     0.009 A 
ATOM     91  C   UNL A   1      46.415  25.217  32.846  1.00  0.00     0.009 A 
ATOM     92  C   UNL A   1      44.537  27.045  33.794  1.00  0.00     0.001 A 
ATOM     93  C   UNL A   1      46.255  25.410  34.221  1.00  0.00     0.001 A 
ATOM     94  C   UNL A   1      45.320  26.327  34.694  1.00  0.00     0.000 A 
ENDBRANCH  76  89
ENDBRANCH  50  51
ENDBRANCH  42  45
ENDBRANCH  40  41
ENDBRANCH  39  40
ENDBRANCH  38  39
ENDBRANCH  37  38
ENDBRANCH   3  37
TORSDOF 17
ENDMDL
