MODEL 1
REMARK VINA RESULT:     -10.9      0.000      0.000
REMARK SMILES CC(C)(C)[C@@H]1CC(C(=O)NCCCCNC(=O)c2ccc(-c3c4nc(c(-c5ccccc5)c5ccc([nH]5)c(-c5ccccc5)c5nc(c(-c6ccccc6)c6ccc3[nH]6)C=C5)C=C4)cc2)C[C@@H](C(C)(C)C)C1
REMARK SMILES IDX 13 1 12 2 11 3 10 4 8 5 9 6 7 8 5 9 6 10 72 11 67 12 66 13
REMARK SMILES IDX 2 14 1 15 3 16 4 17 68 18 69 19 70 20 71 21 14 22 15 23
REMARK SMILES IDX 16 24 17 26 18 27 19 28 65 29 20 30 64 31 21 32 22 33 23 34
REMARK SMILES IDX 58 35 24 36 63 37 57 38 59 39 25 40 62 41 56 42 55 43 26 45
REMARK SMILES IDX 48 46 33 47 47 48 34 49 37 50 46 51 60 52 35 53 36 54 45 56
REMARK SMILES IDX 61 57 38 58 27 59 28 60 32 61 29 62 31 63 30 64 49 65 50 66
REMARK SMILES IDX 54 67 51 68 53 69 52 70 39 71 40 72 44 73 41 74 43 75 42 76
REMARK H PARENT 10 7 15 25 59 44 37 55
REMARK Flexibility Score: inf
ROOT
ATOM      1  C   UNL A   1      32.438  28.231  26.159  1.00  0.00     0.023 C 
ENDROOT
BRANCH   1   2
ATOM      2  C   UNL A   1      31.385  27.463  26.952  1.00  0.00     0.023 C 
BRANCH   2   3
ATOM      3  C   UNL A   1      30.492  26.544  26.118  1.00  0.00     0.116 C 
BRANCH   3   4
ATOM      4  N   UNL A   1      30.365  25.227  26.713  1.00  0.00    -0.356 N 
ATOM      5  C   UNL A   1      31.048  24.073  26.478  1.00  0.00     0.223 C 
ATOM      6  O   UNL A   1      30.703  23.071  27.110  1.00  0.00    -0.275 OA
ATOM      7  H   UNL A   1      29.665  25.155  27.402  1.00  0.00     0.163 HD
BRANCH   5   8
ATOM      8  C   UNL A   1      32.226  24.012  25.504  1.00  0.00     0.079 C 
ATOM      9  C   UNL A   1      33.092  25.156  23.303  1.00  0.00    -0.005 C 
ATOM     10  C   UNL A   1      31.900  24.692  24.164  1.00  0.00     0.017 C 
ATOM     11  C   UNL A   1      34.238  25.684  24.176  1.00  0.00     0.008 C 
ATOM     12  C   UNL A   1      34.706  24.724  25.283  1.00  0.00    -0.005 C 
ATOM     13  C   UNL A   1      33.518  24.445  26.216  1.00  0.00     0.017 C 
BRANCH   9  14
ATOM     14  C   UNL A   1      32.671  26.178  22.162  1.00  0.00    -0.035 C 
ATOM     15  C   UNL A   1      32.749  25.479  20.788  1.00  0.00     0.011 C 
ATOM     16  C   UNL A   1      33.628  27.390  22.118  1.00  0.00     0.011 C 
ATOM     17  C   UNL A   1      31.241  26.733  22.333  1.00  0.00     0.011 C 
ENDBRANCH   9  14
BRANCH  12  18
ATOM     18  C   UNL A   1      35.562  23.460  24.859  1.00  0.00    -0.035 C 
ATOM     19  C   UNL A   1      35.102  22.130  25.484  1.00  0.00     0.011 C 
ATOM     20  C   UNL A   1      35.626  23.252  23.331  1.00  0.00     0.011 C 
ATOM     21  C   UNL A   1      37.017  23.700  25.337  1.00  0.00     0.011 C 
ENDBRANCH  12  18
ENDBRANCH   5   8
ENDBRANCH   3   4
ENDBRANCH   2   3
ENDBRANCH   1   2
BRANCH   1  22
ATOM     22  C   UNL A   1      33.674  28.626  26.951  1.00  0.00     0.116 C 
BRANCH  22  23
ATOM     23  N   UNL A   1      33.603  29.978  27.483  1.00  0.00    -0.352 N 
ATOM     24  C   UNL A   1      34.559  30.678  28.182  1.00  0.00     0.251 C 
ATOM     25  H   UNL A   1      32.758  30.457  27.320  1.00  0.00     0.163 HD
ATOM     26  O   UNL A   1      34.307  31.771  28.662  1.00  0.00    -0.269 OA
BRANCH  24  27
ATOM     27  C   UNL A   1      35.887  30.063  28.378  1.00  0.00     0.039 A 
ATOM     28  C   UNL A   1      36.823  30.141  27.345  1.00  0.00     0.014 A 
ATOM     29  C   UNL A   1      36.220  29.466  29.596  1.00  0.00     0.014 A 
ATOM     30  C   UNL A   1      38.122  29.679  27.559  1.00  0.00     0.010 A 
ATOM     31  C   UNL A   1      37.534  29.080  29.836  1.00  0.00     0.010 A 
ATOM     32  C   UNL A   1      38.496  29.181  28.819  1.00  0.00    -0.014 A 
BRANCH  32  33
ATOM     33  C   UNL A   1      39.889  28.755  29.093  1.00  0.00     0.031 A 
ATOM     34  C   UNL A   1      40.849  29.706  29.754  1.00  0.00     0.074 A 
ATOM     35  C   UNL A   1      40.309  27.541  28.688  1.00  0.00     0.049 A 
ATOM     36  N   UNL A   1      42.118  29.541  30.025  1.00  0.00    -0.248 NA
ATOM     37  C   UNL A   1      40.319  31.026  30.135  1.00  0.00     0.031 C 
ATOM     38  C   UNL A   1      39.489  26.546  27.992  1.00  0.00     0.029 A 
ATOM     39  N   UNL A   1      41.538  26.940  28.799  1.00  0.00    -0.354 N 
ATOM     40  C   UNL A   1      42.541  30.739  30.586  1.00  0.00     0.074 A 
ATOM     41  C   UNL A   1      41.409  31.639  30.570  1.00  0.00     0.031 C 
ATOM     42  C   UNL A   1      40.229  25.450  27.764  1.00  0.00     0.029 A 
ATOM     43  C   UNL A   1      41.582  25.676  28.262  1.00  0.00     0.049 A 
ATOM     44  H   UNL A   1      42.313  27.374  29.222  1.00  0.00     0.167 HD
ATOM     45  C   UNL A   1      43.757  31.057  31.088  1.00  0.00     0.031 A 
ATOM     46  C   UNL A   1      42.600  24.799  28.179  1.00  0.00     0.031 A 
ATOM     47  C   UNL A   1      44.877  30.156  31.120  1.00  0.00     0.049 A 
ATOM     48  C   UNL A   1      43.939  25.173  28.750  1.00  0.00     0.074 A 
ATOM     49  C   UNL A   1      46.132  30.361  31.665  1.00  0.00     0.029 A 
ATOM     50  N   UNL A   1      44.876  28.878  30.585  1.00  0.00    -0.354 N 
ATOM     51  N   UNL A   1      44.303  26.284  29.343  1.00  0.00    -0.248 NA
ATOM     52  C   UNL A   1      45.003  24.164  28.653  1.00  0.00     0.031 C 
ATOM     53  C   UNL A   1      46.906  29.222  31.419  1.00  0.00     0.029 A 
ATOM     54  C   UNL A   1      46.115  28.289  30.769  1.00  0.00     0.049 A 
ATOM     55  H   UNL A   1      44.107  28.452  30.140  1.00  0.00     0.167 HD
ATOM     56  C   UNL A   1      45.629  26.099  29.712  1.00  0.00     0.074 A 
ATOM     57  C   UNL A   1      45.999  24.764  29.291  1.00  0.00     0.031 C 
ATOM     58  C   UNL A   1      46.465  26.959  30.343  1.00  0.00     0.031 A 
BRANCH  45  59
ATOM     59  C   UNL A   1      43.934  32.442  31.642  1.00  0.00    -0.014 A 
ATOM     60  C   UNL A   1      44.294  33.517  30.813  1.00  0.00     0.009 A 
ATOM     61  C   UNL A   1      43.710  32.682  33.006  1.00  0.00     0.009 A 
ATOM     62  C   UNL A   1      44.463  34.796  31.346  1.00  0.00     0.001 A 
ATOM     63  C   UNL A   1      43.850  33.968  33.531  1.00  0.00     0.001 A 
ATOM     64  C   UNL A   1      44.236  35.021  32.703  1.00  0.00     0.000 A 
ENDBRANCH  45  59
BRANCH  46  65
ATOM     65  C   UNL A   1      42.389  23.470  27.548  1.00  0.00    -0.014 A 
ATOM     66  C   UNL A   1      42.696  23.270  26.193  1.00  0.00     0.009 A 
ATOM     67  C   UNL A   1      41.874  22.398  28.293  1.00  0.00     0.009 A 
ATOM     68  C   UNL A   1      42.468  22.030  25.592  1.00  0.00     0.001 A 
ATOM     69  C   UNL A   1      41.673  21.153  27.696  1.00  0.00     0.001 A 
ATOM     70  C   UNL A   1      41.961  20.972  26.344  1.00  0.00     0.000 A 
ENDBRANCH  46  65
BRANCH  58  71
ATOM     71  C   UNL A   1      47.851  26.467  30.648  1.00  0.00    -0.014 A 
ATOM     72  C   UNL A   1      48.150  25.836  31.864  1.00  0.00     0.009 A 
ATOM     73  C   UNL A   1      48.861  26.601  29.682  1.00  0.00     0.009 A 
ATOM     74  C   UNL A   1      49.444  25.378  32.121  1.00  0.00     0.001 A 
ATOM     75  C   UNL A   1      50.146  26.116  29.931  1.00  0.00     0.001 A 
ATOM     76  C   UNL A   1      50.438  25.514  31.153  1.00  0.00     0.000 A 
ENDBRANCH  58  71
ENDBRANCH  32  33
ENDBRANCH  24  27
ENDBRANCH  22  23
ENDBRANCH   1  22
TORSDOF 13
ENDMDL
MODEL 2
REMARK VINA RESULT:     -10.7      2.607      7.475
REMARK SMILES CC(C)(C)[C@@H]1CC(C(=O)NCCCCNC(=O)c2ccc(-c3c4nc(c(-c5ccccc5)c5ccc([nH]5)c(-c5ccccc5)c5nc(c(-c6ccccc6)c6ccc3[nH]6)C=C5)C=C4)cc2)C[C@@H](C(C)(C)C)C1
REMARK SMILES IDX 13 1 12 2 11 3 10 4 8 5 9 6 7 8 5 9 6 10 72 11 67 12 66 13
REMARK SMILES IDX 2 14 1 15 3 16 4 17 68 18 69 19 70 20 71 21 14 22 15 23
REMARK SMILES IDX 16 24 17 26 18 27 19 28 65 29 20 30 64 31 21 32 22 33 23 34
REMARK SMILES IDX 58 35 24 36 63 37 57 38 59 39 25 40 62 41 56 42 55 43 26 45
REMARK SMILES IDX 48 46 33 47 47 48 34 49 37 50 46 51 60 52 35 53 36 54 45 56
REMARK SMILES IDX 61 57 38 58 27 59 28 60 32 61 29 62 31 63 30 64 49 65 50 66
REMARK SMILES IDX 54 67 51 68 53 69 52 70 39 71 40 72 44 73 41 74 43 75 42 76
REMARK H PARENT 10 7 15 25 59 44 37 55
REMARK Flexibility Score: inf
ROOT
ATOM      1  C   UNL A   1      39.464  21.409  25.933  1.00  0.00     0.023 C 
ENDROOT
BRANCH   1   2
ATOM      2  C   UNL A   1      39.284  22.814  26.500  1.00  0.00     0.023 C 
BRANCH   2   3
ATOM      3  C   UNL A   1      37.980  23.508  26.106  1.00  0.00     0.116 C 
BRANCH   3   4
ATOM      4  N   UNL A   1      37.713  23.391  24.685  1.00  0.00    -0.356 N 
ATOM      5  C   UNL A   1      36.538  23.341  23.999  1.00  0.00     0.223 C 
ATOM      6  O   UNL A   1      36.600  23.199  22.775  1.00  0.00    -0.275 OA
ATOM      7  H   UNL A   1      38.518  23.338  24.120  1.00  0.00     0.163 HD
BRANCH   5   8
ATOM      8  C   UNL A   1      35.185  23.496  24.697  1.00  0.00     0.079 C 
ATOM      9  C   UNL A   1      33.364  25.322  25.196  1.00  0.00    -0.005 C 
ATOM     10  C   UNL A   1      34.849  24.969  24.980  1.00  0.00     0.017 C 
ATOM     11  C   UNL A   1      32.453  24.484  24.288  1.00  0.00     0.008 C 
ATOM     12  C   UNL A   1      32.672  22.964  24.376  1.00  0.00    -0.005 C 
ATOM     13  C   UNL A   1      34.121  22.659  23.970  1.00  0.00     0.017 C 
BRANCH   9  14
ATOM     14  C   UNL A   1      33.074  26.879  25.083  1.00  0.00    -0.035 C 
ATOM     15  C   UNL A   1      33.572  27.400  23.719  1.00  0.00     0.011 C 
ATOM     16  C   UNL A   1      33.824  27.668  26.180  1.00  0.00     0.011 C 
ATOM     17  C   UNL A   1      31.577  27.236  25.210  1.00  0.00     0.011 C 
ENDBRANCH   9  14
BRANCH  12  18
ATOM     18  C   UNL A   1      32.143  22.209  25.665  1.00  0.00    -0.035 C 
ATOM     19  C   UNL A   1      33.000  22.411  26.929  1.00  0.00     0.011 C 
ATOM     20  C   UNL A   1      30.689  22.575  26.032  1.00  0.00     0.011 C 
ATOM     21  C   UNL A   1      32.154  20.690  25.355  1.00  0.00     0.011 C 
ENDBRANCH  12  18
ENDBRANCH   5   8
ENDBRANCH   3   4
ENDBRANCH   2   3
ENDBRANCH   1   2
BRANCH   1  22
ATOM     22  C   UNL A   1      40.310  20.478  26.785  1.00  0.00     0.116 C 
BRANCH  22  23
ATOM     23  N   UNL A   1      41.440  19.913  26.064  1.00  0.00    -0.352 N 
ATOM     24  C   UNL A   1      42.641  20.506  25.749  1.00  0.00     0.251 C 
ATOM     25  H   UNL A   1      41.332  18.982  25.762  1.00  0.00     0.163 HD
ATOM     26  O   UNL A   1      43.451  19.935  25.037  1.00  0.00    -0.269 OA
BRANCH  24  27
ATOM     27  C   UNL A   1      42.917  21.865  26.255  1.00  0.00     0.039 A 
ATOM     28  C   UNL A   1      42.962  22.924  25.347  1.00  0.00     0.014 A 
ATOM     29  C   UNL A   1      43.072  22.095  27.624  1.00  0.00     0.014 A 
ATOM     30  C   UNL A   1      43.094  24.229  25.821  1.00  0.00     0.010 A 
ATOM     31  C   UNL A   1      43.121  23.400  28.100  1.00  0.00     0.010 A 
ATOM     32  C   UNL A   1      43.135  24.479  27.203  1.00  0.00    -0.014 A 
BRANCH  32  33
ATOM     33  C   UNL A   1      43.199  25.862  27.732  1.00  0.00     0.031 A 
ATOM     34  C   UNL A   1      44.529  26.475  28.075  1.00  0.00     0.074 A 
ATOM     35  C   UNL A   1      42.059  26.541  27.967  1.00  0.00     0.049 A 
ATOM     36  N   UNL A   1      44.787  27.644  28.602  1.00  0.00    -0.248 NA
ATOM     37  C   UNL A   1      45.724  25.653  27.819  1.00  0.00     0.031 C 
ATOM     38  C   UNL A   1      40.705  26.038  27.724  1.00  0.00     0.029 A 
ATOM     39  N   UNL A   1      41.861  27.801  28.472  1.00  0.00    -0.354 N 
ATOM     40  C   UNL A   1      46.166  27.689  28.759  1.00  0.00     0.074 A 
ATOM     41  C   UNL A   1      46.686  26.412  28.321  1.00  0.00     0.031 C 
ATOM     42  C   UNL A   1      39.818  26.991  28.053  1.00  0.00     0.029 A 
ATOM     43  C   UNL A   1      40.536  28.154  28.564  1.00  0.00     0.049 A 
ATOM     44  H   UNL A   1      42.597  28.395  28.743  1.00  0.00     0.167 HD
ATOM     45  C   UNL A   1      46.935  28.708  29.208  1.00  0.00     0.031 A 
ATOM     46  C   UNL A   1      39.964  29.288  29.012  1.00  0.00     0.031 A 
ATOM     47  C   UNL A   1      46.420  29.984  29.626  1.00  0.00     0.049 A 
ATOM     48  C   UNL A   1      40.841  30.407  29.500  1.00  0.00     0.074 A 
ATOM     49  C   UNL A   1      47.121  31.104  30.037  1.00  0.00     0.029 A 
ATOM     50  N   UNL A   1      45.074  30.309  29.685  1.00  0.00    -0.354 N 
ATOM     51  N   UNL A   1      42.148  30.461  29.575  1.00  0.00    -0.248 NA
ATOM     52  C   UNL A   1      40.159  31.629  29.952  1.00  0.00     0.031 C 
ATOM     53  C   UNL A   1      46.197  32.092  30.389  1.00  0.00     0.029 A 
ATOM     54  C   UNL A   1      44.922  31.606  30.145  1.00  0.00     0.049 A 
ATOM     55  H   UNL A   1      44.335  29.707  29.436  1.00  0.00     0.167 HD
ATOM     56  C   UNL A   1      42.448  31.729  30.056  1.00  0.00     0.074 A 
ATOM     57  C   UNL A   1      41.187  32.417  30.240  1.00  0.00     0.031 C 
ATOM     58  C   UNL A   1      43.660  32.274  30.322  1.00  0.00     0.031 A 
BRANCH  45  59
ATOM     59  C   UNL A   1      48.418  28.478  29.270  1.00  0.00    -0.014 A 
ATOM     60  C   UNL A   1      49.026  27.957  30.424  1.00  0.00     0.009 A 
ATOM     61  C   UNL A   1      49.216  28.758  28.151  1.00  0.00     0.009 A 
ATOM     62  C   UNL A   1      50.407  27.757  30.468  1.00  0.00     0.001 A 
ATOM     63  C   UNL A   1      50.593  28.529  28.187  1.00  0.00     0.001 A 
ATOM     64  C   UNL A   1      51.188  28.039  29.348  1.00  0.00     0.000 A 
ENDBRANCH  45  59
BRANCH  46  65
ATOM     65  C   UNL A   1      38.485  29.431  29.002  1.00  0.00    -0.014 A 
ATOM     66  C   UNL A   1      37.816  29.808  27.827  1.00  0.00     0.009 A 
ATOM     67  C   UNL A   1      37.736  29.196  30.164  1.00  0.00     0.009 A 
ATOM     68  C   UNL A   1      36.430  29.973  27.824  1.00  0.00     0.001 A 
ATOM     69  C   UNL A   1      36.347  29.335  30.151  1.00  0.00     0.001 A 
ATOM     70  C   UNL A   1      35.696  29.733  28.985  1.00  0.00     0.000 A 
ENDBRANCH  46  65
BRANCH  58  71
ATOM     71  C   UNL A   1      43.680  33.695  30.807  1.00  0.00    -0.014 A 
ATOM     72  C   UNL A   1      43.657  33.998  32.177  1.00  0.00     0.009 A 
ATOM     73  C   UNL A   1      43.768  34.743  29.877  1.00  0.00     0.009 A 
ATOM     74  C   UNL A   1      43.688  35.327  32.605  1.00  0.00     0.001 A 
ATOM     75  C   UNL A   1      43.827  36.069  30.310  1.00  0.00     0.001 A 
ATOM     76  C   UNL A   1      43.778  36.359  31.672  1.00  0.00     0.000 A 
ENDBRANCH  58  71
ENDBRANCH  32  33
ENDBRANCH  24  27
ENDBRANCH  22  23
ENDBRANCH   1  22
TORSDOF 13
ENDMDL
MODEL 3
REMARK VINA RESULT:     -10.7      0.357      6.076
REMARK SMILES CC(C)(C)[C@@H]1CC(C(=O)NCCCCNC(=O)c2ccc(-c3c4nc(c(-c5ccccc5)c5ccc([nH]5)c(-c5ccccc5)c5nc(c(-c6ccccc6)c6ccc3[nH]6)C=C5)C=C4)cc2)C[C@@H](C(C)(C)C)C1
REMARK SMILES IDX 13 1 12 2 11 3 10 4 8 5 9 6 7 8 5 9 6 10 72 11 67 12 66 13
REMARK SMILES IDX 2 14 1 15 3 16 4 17 68 18 69 19 70 20 71 21 14 22 15 23
REMARK SMILES IDX 16 24 17 26 18 27 19 28 65 29 20 30 64 31 21 32 22 33 23 34
REMARK SMILES IDX 58 35 24 36 63 37 57 38 59 39 25 40 62 41 56 42 55 43 26 45
REMARK SMILES IDX 48 46 33 47 47 48 34 49 37 50 46 51 60 52 35 53 36 54 45 56
REMARK SMILES IDX 61 57 38 58 27 59 28 60 32 61 29 62 31 63 30 64 49 65 50 66
REMARK SMILES IDX 54 67 51 68 53 69 52 70 39 71 40 72 44 73 41 74 43 75 42 76
REMARK H PARENT 10 7 15 25 59 44 37 55
REMARK Flexibility Score: inf
ROOT
ATOM      1  C   UNL A   1      32.579  28.182  26.177  1.00  0.00     0.023 C 
ENDROOT
BRANCH   1   2
ATOM      2  C   UNL A   1      31.445  27.494  26.930  1.00  0.00     0.023 C 
BRANCH   2   3
ATOM      3  C   UNL A   1      30.547  26.602  26.072  1.00  0.00     0.116 C 
BRANCH   3   4
ATOM      4  N   UNL A   1      30.339  25.300  26.677  1.00  0.00    -0.356 N 
ATOM      5  C   UNL A   1      30.935  24.100  26.438  1.00  0.00     0.223 C 
ATOM      6  O   UNL A   1      30.533  23.127  27.083  1.00  0.00    -0.275 OA
ATOM      7  H   UNL A   1      29.649  25.280  27.380  1.00  0.00     0.163 HD
BRANCH   5   8
ATOM      8  C   UNL A   1      32.088  23.951  25.443  1.00  0.00     0.079 C 
ATOM      9  C   UNL A   1      33.023  25.058  23.251  1.00  0.00    -0.005 C 
ATOM     10  C   UNL A   1      31.807  24.687  24.123  1.00  0.00     0.017 C 
ATOM     11  C   UNL A   1      34.227  25.458  24.115  1.00  0.00     0.008 C 
ATOM     12  C   UNL A   1      34.620  24.435  25.195  1.00  0.00    -0.005 C 
ATOM     13  C   UNL A   1      33.425  24.247  26.142  1.00  0.00     0.017 C 
BRANCH   9  14
ATOM     14  C   UNL A   1      32.683  26.139  22.139  1.00  0.00    -0.035 C 
ATOM     15  C   UNL A   1      31.245  26.660  22.347  1.00  0.00     0.011 C 
ATOM     16  C   UNL A   1      32.750  25.524  20.724  1.00  0.00     0.011 C 
ATOM     17  C   UNL A   1      33.635  27.354  22.152  1.00  0.00     0.011 C 
ENDBRANCH   9  14
BRANCH  12  18
ATOM     18  C   UNL A   1      35.348  23.106  24.730  1.00  0.00    -0.035 C 
ATOM     19  C   UNL A   1      34.425  21.881  24.584  1.00  0.00     0.011 C 
ATOM     20  C   UNL A   1      36.115  23.265  23.401  1.00  0.00     0.011 C 
ATOM     21  C   UNL A   1      36.400  22.748  25.811  1.00  0.00     0.011 C 
ENDBRANCH  12  18
ENDBRANCH   5   8
ENDBRANCH   3   4
ENDBRANCH   2   3
ENDBRANCH   1   2
BRANCH   1  22
ATOM     22  C   UNL A   1      33.771  28.575  27.034  1.00  0.00     0.116 C 
BRANCH  22  23
ATOM     23  N   UNL A   1      33.672  29.926  27.564  1.00  0.00    -0.352 N 
ATOM     24  C   UNL A   1      34.622  30.655  28.242  1.00  0.00     0.251 C 
ATOM     25  H   UNL A   1      32.810  30.380  27.418  1.00  0.00     0.163 HD
ATOM     26  O   UNL A   1      34.348  31.742  28.724  1.00  0.00    -0.269 OA
BRANCH  24  27
ATOM     27  C   UNL A   1      35.971  30.079  28.411  1.00  0.00     0.039 A 
ATOM     28  C   UNL A   1      36.880  30.177  27.357  1.00  0.00     0.014 A 
ATOM     29  C   UNL A   1      36.348  29.499  29.625  1.00  0.00     0.014 A 
ATOM     30  C   UNL A   1      38.196  29.753  27.545  1.00  0.00     0.010 A 
ATOM     31  C   UNL A   1      37.677  29.153  29.837  1.00  0.00     0.010 A 
ATOM     32  C   UNL A   1      38.613  29.274  28.798  1.00  0.00    -0.014 A 
BRANCH  32  33
ATOM     33  C   UNL A   1      40.023  28.890  29.043  1.00  0.00     0.031 A 
ATOM     34  C   UNL A   1      40.513  27.528  28.632  1.00  0.00     0.074 A 
ATOM     35  C   UNL A   1      40.844  29.737  29.695  1.00  0.00     0.049 A 
ATOM     36  N   UNL A   1      41.690  26.987  28.811  1.00  0.00    -0.248 NA
ATOM     37  C   UNL A   1      39.543  26.651  27.955  1.00  0.00     0.031 C 
ATOM     38  C   UNL A   1      40.475  31.065  30.190  1.00  0.00     0.029 A 
ATOM     39  N   UNL A   1      42.160  29.599  30.059  1.00  0.00    -0.354 N 
ATOM     40  C   UNL A   1      41.595  25.702  28.291  1.00  0.00     0.074 A 
ATOM     41  C   UNL A   1      40.233  25.527  27.836  1.00  0.00     0.031 C 
ATOM     42  C   UNL A   1      41.547  31.631  30.767  1.00  0.00     0.029 A 
ATOM     43  C   UNL A   1      42.665  30.694  30.717  1.00  0.00     0.049 A 
ATOM     44  H   UNL A   1      42.690  28.793  29.867  1.00  0.00     0.167 HD
ATOM     45  C   UNL A   1      42.559  24.759  28.182  1.00  0.00     0.031 A 
ATOM     46  C   UNL A   1      43.892  30.917  31.225  1.00  0.00     0.031 A 
ATOM     47  C   UNL A   1      43.918  24.939  28.618  1.00  0.00     0.049 A 
ATOM     48  C   UNL A   1      44.947  29.856  31.085  1.00  0.00     0.074 A 
ATOM     49  C   UNL A   1      44.985  24.068  28.494  1.00  0.00     0.029 A 
ATOM     50  N   UNL A   1      44.395  26.070  29.261  1.00  0.00    -0.354 N 
ATOM     51  N   UNL A   1      44.861  28.674  30.526  1.00  0.00    -0.248 NA
ATOM     52  C   UNL A   1      46.274  30.168  31.636  1.00  0.00     0.031 C 
ATOM     53  C   UNL A   1      46.099  24.653  29.104  1.00  0.00     0.029 A 
ATOM     54  C   UNL A   1      45.737  25.912  29.558  1.00  0.00     0.049 A 
ATOM     55  H   UNL A   1      43.858  26.869  29.474  1.00  0.00     0.167 HD
ATOM     56  C   UNL A   1      46.127  28.112  30.633  1.00  0.00     0.074 A 
ATOM     57  C   UNL A   1      46.965  29.089  31.296  1.00  0.00     0.031 C 
ATOM     58  C   UNL A   1      46.556  26.895  30.219  1.00  0.00     0.031 A 
BRANCH  45  59
ATOM     59  C   UNL A   1      42.172  23.444  27.567  1.00  0.00    -0.014 A 
ATOM     60  C   UNL A   1      42.414  23.177  26.209  1.00  0.00     0.009 A 
ATOM     61  C   UNL A   1      41.585  22.447  28.360  1.00  0.00     0.009 A 
ATOM     62  C   UNL A   1      42.041  21.953  25.651  1.00  0.00     0.001 A 
ATOM     63  C   UNL A   1      41.240  21.213  27.806  1.00  0.00     0.001 A 
ATOM     64  C   UNL A   1      41.459  20.971  26.451  1.00  0.00     0.000 A 
ENDBRANCH  45  59
BRANCH  46  65
ATOM     65  C   UNL A   1      44.197  32.208  31.895  1.00  0.00    -0.014 A 
ATOM     66  C   UNL A   1      43.997  32.357  33.276  1.00  0.00     0.009 A 
ATOM     67  C   UNL A   1      44.684  33.298  31.158  1.00  0.00     0.009 A 
ATOM     68  C   UNL A   1      44.254  33.579  33.900  1.00  0.00     0.001 A 
ATOM     69  C   UNL A   1      44.966  34.511  31.790  1.00  0.00     0.001 A 
ATOM     70  C   UNL A   1      44.742  34.653  33.158  1.00  0.00     0.000 A 
ENDBRANCH  46  65
BRANCH  58  71
ATOM     71  C   UNL A   1      48.004  26.567  30.441  1.00  0.00    -0.014 A 
ATOM     72  C   UNL A   1      48.984  26.919  29.501  1.00  0.00     0.009 A 
ATOM     73  C   UNL A   1      48.397  25.933  31.631  1.00  0.00     0.009 A 
ATOM     74  C   UNL A   1      50.327  26.614  29.733  1.00  0.00     0.001 A 
ATOM     75  C   UNL A   1      49.743  25.655  31.873  1.00  0.00     0.001 A 
ATOM     76  C   UNL A   1      50.704  25.987  30.920  1.00  0.00     0.000 A 
ENDBRANCH  58  71
ENDBRANCH  32  33
ENDBRANCH  24  27
ENDBRANCH  22  23
ENDBRANCH   1  22
TORSDOF 13
ENDMDL
