MODEL 1
REMARK VINA RESULT:     -10.0      0.000      0.000
REMARK SMILES COCC[C@H](NC(=O)c1ccc(Br)nc1)C(=O)NCCCCNC(=O)c1ccc(-c2c3nc(c(-c4ccccc4)c4ccc([nH]4)c(-c4ccccc4)c4nc(c(-c5ccccc5)c5ccc2[nH]5)C=C4)C=C3)cc1
REMARK SMILES IDX 20 1 19 2 18 3 16 4 17 5 5 7 4 8 3 9 2 10 1 11 6 12 7 13
REMARK SMILES IDX 8 15 9 16 10 17 15 18 11 19 14 20 12 21 13 22 21 23 22 24
REMARK SMILES IDX 23 25 24 26 25 28 26 29 27 30 73 31 28 32 72 33 29 34 30 35
REMARK SMILES IDX 31 36 66 37 32 38 71 39 65 40 67 41 33 42 70 43 64 44 63 45
REMARK SMILES IDX 34 47 56 48 41 49 55 50 42 51 45 52 54 53 68 54 43 55 44 56
REMARK SMILES IDX 53 58 69 59 46 60 35 61 36 62 40 63 37 64 39 65 38 66 57 67
REMARK SMILES IDX 58 68 62 69 59 70 61 71 60 72 47 73 48 74 52 75 49 76 51 77
REMARK SMILES IDX 50 78
REMARK H PARENT 18 6 6 14 23 27 67 46 45 57
REMARK Flexibility Score: inf
ROOT
ATOM      1  C   UNL A   1      36.562  20.443  24.884  1.00  0.00     0.023 C 
ENDROOT
BRANCH   1   2
ATOM      2  C   UNL A   1      36.807  21.817  25.495  1.00  0.00     0.116 C 
BRANCH   2   3
ATOM      3  N   UNL A   1      35.922  22.038  26.614  1.00  0.00    -0.354 N 
ATOM      4  C   UNL A   1      34.819  22.835  26.679  1.00  0.00     0.242 C 
ATOM      5  O   UNL A   1      34.215  22.907  27.753  1.00  0.00    -0.273 OA
ATOM      6  H   UNL A   1      36.145  21.550  27.440  1.00  0.00     0.163 HD
BRANCH   4   7
ATOM      7  C   UNL A   1      34.244  23.485  25.401  1.00  0.00     0.173 C 
BRANCH   7   8
ATOM      8  C   UNL A   1      34.949  24.839  25.236  1.00  0.00     0.063 C 
BRANCH   8   9
ATOM      9  C   UNL A   1      34.044  26.053  25.453  1.00  0.00     0.162 C 
BRANCH   9  10
ATOM     10  O   UNL A   1      33.066  26.235  24.438  1.00  0.00    -0.385 OA
ATOM     11  C   UNL A   1      32.019  27.138  24.773  1.00  0.00     0.194 C 
ENDBRANCH   9  10
ENDBRANCH   8   9
ENDBRANCH   7   8
BRANCH   7  12
ATOM     12  N   UNL A   1      32.764  23.369  25.365  1.00  0.00    -0.340 N 
ATOM     13  C   UNL A   1      31.824  22.418  25.066  1.00  0.00     0.253 C 
ATOM     14  H   UNL A   1      32.337  24.215  25.632  1.00  0.00     0.164 HD
ATOM     15  O   UNL A   1      30.641  22.739  24.997  1.00  0.00    -0.269 OA
BRANCH  13  16
ATOM     16  C   UNL A   1      32.183  21.038  24.744  1.00  0.00     0.058 A 
ATOM     17  C   UNL A   1      32.634  20.140  25.704  1.00  0.00     0.018 A 
ATOM     18  C   UNL A   1      32.119  20.622  23.422  1.00  0.00     0.126 A 
ATOM     19  C   UNL A   1      33.144  18.911  25.285  1.00  0.00     0.037 A 
ATOM     20  N   UNL A   1      32.610  19.438  22.987  1.00  0.00    -0.249 NA
ATOM     21  C   UNL A   1      33.136  18.618  23.926  1.00  0.00     0.106 A 
ATOM     22  Br  UNL A   1      33.966  17.022  23.329  1.00  0.00    -0.029 Br
ENDBRANCH  13  16
ENDBRANCH   7  12
ENDBRANCH   4   7
ENDBRANCH   2   3
ENDBRANCH   1   2
BRANCH   1  23
ATOM     23  C   UNL A   1      37.824  19.579  24.835  1.00  0.00     0.023 C 
BRANCH  23  24
ATOM     24  C   UNL A   1      38.978  20.115  25.669  1.00  0.00     0.116 C 
BRANCH  24  25
ATOM     25  N   UNL A   1      40.111  19.204  25.704  1.00  0.00    -0.352 N 
ATOM     26  C   UNL A   1      41.413  19.484  26.029  1.00  0.00     0.251 C 
ATOM     27  H   UNL A   1      39.919  18.269  25.464  1.00  0.00     0.163 HD
ATOM     28  O   UNL A   1      42.297  18.654  25.842  1.00  0.00    -0.269 OA
BRANCH  26  29
ATOM     29  C   UNL A   1      41.740  20.810  26.585  1.00  0.00     0.039 A 
ATOM     30  C   UNL A   1      42.132  21.827  25.714  1.00  0.00     0.014 A 
ATOM     31  C   UNL A   1      41.643  21.047  27.960  1.00  0.00     0.014 A 
ATOM     32  C   UNL A   1      42.403  23.095  26.225  1.00  0.00     0.010 A 
ATOM     33  C   UNL A   1      41.823  22.333  28.452  1.00  0.00     0.010 A 
ATOM     34  C   UNL A   1      42.235  23.362  27.594  1.00  0.00    -0.014 A 
BRANCH  34  35
ATOM     35  C   UNL A   1      42.540  24.705  28.143  1.00  0.00     0.031 A 
ATOM     36  C   UNL A   1      43.955  25.065  28.505  1.00  0.00     0.074 A 
ATOM     37  C   UNL A   1      41.544  25.593  28.327  1.00  0.00     0.049 A 
ATOM     38  N   UNL A   1      44.428  26.196  28.963  1.00  0.00    -0.248 NA
ATOM     39  C   UNL A   1      44.972  24.009  28.358  1.00  0.00     0.031 C 
ATOM     40  C   UNL A   1      40.126  25.346  28.059  1.00  0.00     0.029 A 
ATOM     41  N   UNL A   1      41.579  26.890  28.771  1.00  0.00    -0.354 N 
ATOM     42  C   UNL A   1      45.786  25.984  29.165  1.00  0.00     0.074 A 
ATOM     43  C   UNL A   1      46.050  24.598  28.850  1.00  0.00     0.031 C 
ATOM     44  C   UNL A   1      39.433  26.472  28.297  1.00  0.00     0.029 A 
ATOM     45  C   UNL A   1      40.351  27.504  28.768  1.00  0.00     0.049 A 
ATOM     46  H   UNL A   1      42.405  27.338  29.063  1.00  0.00     0.167 HD
ATOM     47  C   UNL A   1      46.737  26.868  29.549  1.00  0.00     0.031 A 
ATOM     48  C   UNL A   1      40.006  28.762  29.100  1.00  0.00     0.031 A 
ATOM     49  C   UNL A   1      46.474  28.247  29.855  1.00  0.00     0.049 A 
ATOM     50  C   UNL A   1      41.079  29.722  29.535  1.00  0.00     0.074 A 
ATOM     51  C   UNL A   1      47.372  29.241  30.204  1.00  0.00     0.029 A 
ATOM     52  N   UNL A   1      45.215  28.828  29.852  1.00  0.00    -0.354 N 
ATOM     53  N   UNL A   1      42.371  29.527  29.644  1.00  0.00    -0.248 NA
ATOM     54  C   UNL A   1      40.643  31.083  29.873  1.00  0.00     0.031 C 
ATOM     55  C   UNL A   1      46.649  30.408  30.470  1.00  0.00     0.029 A 
ATOM     56  C   UNL A   1      45.309  30.160  30.220  1.00  0.00     0.049 A 
ATOM     57  H   UNL A   1      44.378  28.363  29.621  1.00  0.00     0.167 HD
ATOM     58  C   UNL A   1      42.906  30.747  30.036  1.00  0.00     0.074 A 
ATOM     59  C   UNL A   1      41.800  31.680  30.118  1.00  0.00     0.031 C 
ATOM     60  C   UNL A   1      44.195  31.070  30.307  1.00  0.00     0.031 A 
BRANCH  47  61
ATOM     61  C   UNL A   1      48.148  26.358  29.662  1.00  0.00    -0.014 A 
ATOM     62  C   UNL A   1      49.026  26.390  28.566  1.00  0.00     0.009 A 
ATOM     63  C   UNL A   1      48.615  25.859  30.888  1.00  0.00     0.009 A 
ATOM     64  C   UNL A   1      50.326  25.893  28.683  1.00  0.00     0.001 A 
ATOM     65  C   UNL A   1      49.926  25.395  31.012  1.00  0.00     0.001 A 
ATOM     66  C   UNL A   1      50.776  25.401  29.907  1.00  0.00     0.000 A 
ENDBRANCH  47  61
BRANCH  48  67
ATOM     67  C   UNL A   1      38.587  29.198  29.011  1.00  0.00    -0.014 A 
ATOM     68  C   UNL A   1      37.747  29.132  30.133  1.00  0.00     0.009 A 
ATOM     69  C   UNL A   1      38.060  29.666  27.797  1.00  0.00     0.009 A 
ATOM     70  C   UNL A   1      36.400  29.488  30.033  1.00  0.00     0.001 A 
ATOM     71  C   UNL A   1      36.721  30.055  27.709  1.00  0.00     0.001 A 
ATOM     72  C   UNL A   1      35.890  29.953  28.822  1.00  0.00     0.000 A 
ENDBRANCH  48  67
BRANCH  60  73
ATOM     73  C   UNL A   1      44.476  32.498  30.686  1.00  0.00    -0.014 A 
ATOM     74  C   UNL A   1      44.757  33.473  29.715  1.00  0.00     0.009 A 
ATOM     75  C   UNL A   1      44.446  32.876  32.038  1.00  0.00     0.009 A 
ATOM     76  C   UNL A   1      45.053  34.783  30.095  1.00  0.00     0.001 A 
ATOM     77  C   UNL A   1      44.707  34.195  32.412  1.00  0.00     0.001 A 
ATOM     78  C   UNL A   1      45.024  35.143  31.442  1.00  0.00     0.000 A 
ENDBRANCH  60  73
ENDBRANCH  34  35
ENDBRANCH  26  29
ENDBRANCH  24  25
ENDBRANCH  23  24
ENDBRANCH   1  23
TORSDOF 16
ENDMDL
MODEL 2
REMARK VINA RESULT:      -9.9      1.819      2.867
REMARK SMILES COCC[C@H](NC(=O)c1ccc(Br)nc1)C(=O)NCCCCNC(=O)c1ccc(-c2c3nc(c(-c4ccccc4)c4ccc([nH]4)c(-c4ccccc4)c4nc(c(-c5ccccc5)c5ccc2[nH]5)C=C4)C=C3)cc1
REMARK SMILES IDX 20 1 19 2 18 3 16 4 17 5 5 7 4 8 3 9 2 10 1 11 6 12 7 13
REMARK SMILES IDX 8 15 9 16 10 17 15 18 11 19 14 20 12 21 13 22 21 23 22 24
REMARK SMILES IDX 23 25 24 26 25 28 26 29 27 30 73 31 28 32 72 33 29 34 30 35
REMARK SMILES IDX 31 36 66 37 32 38 71 39 65 40 67 41 33 42 70 43 64 44 63 45
REMARK SMILES IDX 34 47 56 48 41 49 55 50 42 51 45 52 54 53 68 54 43 55 44 56
REMARK SMILES IDX 53 58 69 59 46 60 35 61 36 62 40 63 37 64 39 65 38 66 57 67
REMARK SMILES IDX 58 68 62 69 59 70 61 71 60 72 47 73 48 74 52 75 49 76 51 77
REMARK SMILES IDX 50 78
REMARK H PARENT 18 6 6 14 23 27 67 46 45 57
REMARK Flexibility Score: inf
ROOT
ATOM      1  C   UNL A   1      37.464  21.066  24.647  1.00  0.00     0.023 C 
ENDROOT
BRANCH   1   2
ATOM      2  C   UNL A   1      36.171  21.084  25.453  1.00  0.00     0.116 C 
BRANCH   2   3
ATOM      3  N   UNL A   1      35.233  20.121  24.925  1.00  0.00    -0.354 N 
ATOM      4  C   UNL A   1      33.916  20.296  24.626  1.00  0.00     0.242 C 
ATOM      5  O   UNL A   1      33.280  19.324  24.211  1.00  0.00    -0.273 OA
ATOM      6  H   UNL A   1      35.592  19.219  24.762  1.00  0.00     0.163 HD
BRANCH   4   7
ATOM      7  C   UNL A   1      33.289  21.708  24.636  1.00  0.00     0.173 C 
BRANCH   7   8
ATOM      8  C   UNL A   1      31.859  21.556  25.174  1.00  0.00     0.063 C 
BRANCH   8   9
ATOM      9  C   UNL A   1      31.460  22.604  26.213  1.00  0.00     0.162 C 
BRANCH   9  10
ATOM     10  O   UNL A   1      32.562  23.232  26.854  1.00  0.00    -0.385 OA
ATOM     11  C   UNL A   1      33.106  22.508  27.952  1.00  0.00     0.194 C 
ENDBRANCH   9  10
ENDBRANCH   8   9
ENDBRANCH   7   8
BRANCH   7  12
ATOM     12  N   UNL A   1      33.571  22.424  23.367  1.00  0.00    -0.340 N 
ATOM     13  C   UNL A   1      33.569  23.714  22.902  1.00  0.00     0.253 C 
ATOM     14  H   UNL A   1      33.835  21.794  22.658  1.00  0.00     0.164 HD
ATOM     15  O   UNL A   1      33.715  23.922  21.701  1.00  0.00    -0.269 OA
BRANCH  13  16
ATOM     16  C   UNL A   1      33.318  24.859  23.775  1.00  0.00     0.058 A 
ATOM     17  C   UNL A   1      34.294  25.389  24.610  1.00  0.00     0.018 A 
ATOM     18  C   UNL A   1      32.044  25.407  23.809  1.00  0.00     0.126 A 
ATOM     19  C   UNL A   1      33.921  26.347  25.553  1.00  0.00     0.037 A 
ATOM     20  N   UNL A   1      31.654  26.333  24.715  1.00  0.00    -0.249 NA
ATOM     21  C   UNL A   1      32.596  26.764  25.585  1.00  0.00     0.106 A 
ATOM     22  Br  UNL A   1      32.042  27.946  26.960  1.00  0.00    -0.029 Br
ENDBRANCH  13  16
ENDBRANCH   7  12
ENDBRANCH   4   7
ENDBRANCH   2   3
ENDBRANCH   1   2
BRANCH   1  23
ATOM     23  C   UNL A   1      38.303  19.810  24.896  1.00  0.00     0.023 C 
BRANCH  23  24
ATOM     24  C   UNL A   1      39.264  19.926  26.070  1.00  0.00     0.116 C 
BRANCH  24  25
ATOM     25  N   UNL A   1      40.453  19.105  25.901  1.00  0.00    -0.352 N 
ATOM     26  C   UNL A   1      41.765  19.484  26.007  1.00  0.00     0.251 C 
ATOM     27  H   UNL A   1      40.295  18.158  25.683  1.00  0.00     0.163 HD
ATOM     28  O   UNL A   1      42.665  18.725  25.662  1.00  0.00    -0.269 OA
BRANCH  26  29
ATOM     29  C   UNL A   1      42.081  20.830  26.518  1.00  0.00     0.039 A 
ATOM     30  C   UNL A   1      42.330  21.856  25.606  1.00  0.00     0.014 A 
ATOM     31  C   UNL A   1      42.112  21.078  27.895  1.00  0.00     0.014 A 
ATOM     32  C   UNL A   1      42.588  23.141  26.078  1.00  0.00     0.010 A 
ATOM     33  C   UNL A   1      42.275  22.376  28.357  1.00  0.00     0.010 A 
ATOM     34  C   UNL A   1      42.546  23.414  27.456  1.00  0.00    -0.014 A 
BRANCH  34  35
ATOM     35  C   UNL A   1      42.837  24.777  27.963  1.00  0.00     0.031 A 
ATOM     36  C   UNL A   1      44.262  25.208  28.183  1.00  0.00     0.074 A 
ATOM     37  C   UNL A   1      41.823  25.619  28.236  1.00  0.00     0.049 A 
ATOM     38  N   UNL A   1      44.721  26.366  28.585  1.00  0.00    -0.248 NA
ATOM     39  C   UNL A   1      45.310  24.200  27.946  1.00  0.00     0.031 C 
ATOM     40  C   UNL A   1      40.398  25.302  28.110  1.00  0.00     0.029 A 
ATOM     41  N   UNL A   1      41.837  26.922  28.665  1.00  0.00    -0.354 N 
ATOM     42  C   UNL A   1      46.102  26.221  28.655  1.00  0.00     0.074 A 
ATOM     43  C   UNL A   1      46.401  24.846  28.326  1.00  0.00     0.031 C 
ATOM     44  C   UNL A   1      39.678  26.396  28.405  1.00  0.00     0.029 A 
ATOM     45  C   UNL A   1      40.586  27.476  28.778  1.00  0.00     0.049 A 
ATOM     46  H   UNL A   1      42.665  27.412  28.873  1.00  0.00     0.167 HD
ATOM     47  C   UNL A   1      47.041  27.153  28.939  1.00  0.00     0.031 A 
ATOM     48  C   UNL A   1      40.215  28.721  29.132  1.00  0.00     0.031 A 
ATOM     49  C   UNL A   1      46.742  28.522  29.259  1.00  0.00     0.049 A 
ATOM     50  C   UNL A   1      41.277  29.736  29.454  1.00  0.00     0.074 A 
ATOM     51  C   UNL A   1      47.621  29.561  29.512  1.00  0.00     0.029 A 
ATOM     52  N   UNL A   1      45.462  29.043  29.374  1.00  0.00    -0.354 N 
ATOM     53  N   UNL A   1      42.581  29.603  29.438  1.00  0.00    -0.248 NA
ATOM     54  C   UNL A   1      40.810  31.078  29.823  1.00  0.00     0.031 C 
ATOM     55  C   UNL A   1      46.871  30.696  29.838  1.00  0.00     0.029 A 
ATOM     56  C   UNL A   1      45.527  30.382  29.721  1.00  0.00     0.049 A 
ATOM     57  H   UNL A   1      44.630  28.536  29.229  1.00  0.00     0.167 HD
ATOM     58  C   UNL A   1      43.092  30.852  29.768  1.00  0.00     0.074 A 
ATOM     59  C   UNL A   1      41.956  31.733  29.950  1.00  0.00     0.031 C 
ATOM     60  C   UNL A   1      44.384  31.240  29.909  1.00  0.00     0.031 A 
BRANCH  47  61
ATOM     61  C   UNL A   1      48.479  26.713  28.919  1.00  0.00    -0.014 A 
ATOM     62  C   UNL A   1      49.235  26.742  27.734  1.00  0.00     0.009 A 
ATOM     63  C   UNL A   1      49.097  26.283  30.104  1.00  0.00     0.009 A 
ATOM     64  C   UNL A   1      50.563  26.308  27.729  1.00  0.00     0.001 A 
ATOM     65  C   UNL A   1      50.434  25.884  30.102  1.00  0.00     0.001 A 
ATOM     66  C   UNL A   1      51.162  25.885  28.914  1.00  0.00     0.000 A 
ENDBRANCH  47  61
BRANCH  48  67
ATOM     67  C   UNL A   1      38.774  29.088  29.178  1.00  0.00    -0.014 A 
ATOM     68  C   UNL A   1      38.131  29.601  28.041  1.00  0.00     0.009 A 
ATOM     69  C   UNL A   1      38.039  28.943  30.365  1.00  0.00     0.009 A 
ATOM     70  C   UNL A   1      36.793  29.998  28.103  1.00  0.00     0.001 A 
ATOM     71  C   UNL A   1      36.691  29.309  30.413  1.00  0.00     0.001 A 
ATOM     72  C   UNL A   1      36.074  29.848  29.287  1.00  0.00     0.000 A 
ENDBRANCH  48  67
BRANCH  60  73
ATOM     73  C   UNL A   1      44.631  32.683  30.249  1.00  0.00    -0.014 A 
ATOM     74  C   UNL A   1      44.766  33.660  29.248  1.00  0.00     0.009 A 
ATOM     75  C   UNL A   1      44.717  33.075  31.595  1.00  0.00     0.009 A 
ATOM     76  C   UNL A   1      45.033  34.986  29.588  1.00  0.00     0.001 A 
ATOM     77  C   UNL A   1      44.949  34.409  31.932  1.00  0.00     0.001 A 
ATOM     78  C   UNL A   1      45.121  35.360  30.929  1.00  0.00     0.000 A 
ENDBRANCH  60  73
ENDBRANCH  34  35
ENDBRANCH  26  29
ENDBRANCH  24  25
ENDBRANCH  23  24
ENDBRANCH   1  23
TORSDOF 16
ENDMDL
MODEL 3
REMARK VINA RESULT:      -9.9      1.818      6.489
REMARK SMILES COCC[C@H](NC(=O)c1ccc(Br)nc1)C(=O)NCCCCNC(=O)c1ccc(-c2c3nc(c(-c4ccccc4)c4ccc([nH]4)c(-c4ccccc4)c4nc(c(-c5ccccc5)c5ccc2[nH]5)C=C4)C=C3)cc1
REMARK SMILES IDX 20 1 19 2 18 3 16 4 17 5 5 7 4 8 3 9 2 10 1 11 6 12 7 13
REMARK SMILES IDX 8 15 9 16 10 17 15 18 11 19 14 20 12 21 13 22 21 23 22 24
REMARK SMILES IDX 23 25 24 26 25 28 26 29 27 30 73 31 28 32 72 33 29 34 30 35
REMARK SMILES IDX 31 36 66 37 32 38 71 39 65 40 67 41 33 42 70 43 64 44 63 45
REMARK SMILES IDX 34 47 56 48 41 49 55 50 42 51 45 52 54 53 68 54 43 55 44 56
REMARK SMILES IDX 53 58 69 59 46 60 35 61 36 62 40 63 37 64 39 65 38 66 57 67
REMARK SMILES IDX 58 68 62 69 59 70 61 71 60 72 47 73 48 74 52 75 49 76 51 77
REMARK SMILES IDX 50 78
REMARK H PARENT 18 6 6 14 23 27 67 46 45 57
REMARK Flexibility Score: inf
ROOT
ATOM      1  C   UNL A   1      36.961  21.457  24.506  1.00  0.00     0.023 C 
ENDROOT
BRANCH   1   2
ATOM      2  C   UNL A   1      35.476  21.189  24.724  1.00  0.00     0.116 C 
BRANCH   2   3
ATOM      3  N   UNL A   1      35.180  21.104  26.135  1.00  0.00    -0.354 N 
ATOM      4  C   UNL A   1      34.349  21.888  26.877  1.00  0.00     0.242 C 
ATOM      5  O   UNL A   1      34.262  21.662  28.086  1.00  0.00    -0.273 OA
ATOM      6  H   UNL A   1      35.639  20.384  26.626  1.00  0.00     0.163 HD
BRANCH   4   7
ATOM      7  C   UNL A   1      33.414  22.909  26.190  1.00  0.00     0.173 C 
BRANCH   7   8
ATOM      8  C   UNL A   1      34.189  24.232  26.103  1.00  0.00     0.063 C 
BRANCH   8   9
ATOM      9  C   UNL A   1      34.323  24.793  24.687  1.00  0.00     0.162 C 
BRANCH   9  10
ATOM     10  O   UNL A   1      33.900  26.143  24.557  1.00  0.00    -0.385 OA
ATOM     11  C   UNL A   1      33.815  26.862  25.782  1.00  0.00     0.194 C 
ENDBRANCH   9  10
ENDBRANCH   8   9
ENDBRANCH   7   8
BRANCH   7  12
ATOM     12  N   UNL A   1      32.045  22.845  26.763  1.00  0.00    -0.340 N 
ATOM     13  C   UNL A   1      30.838  23.469  26.588  1.00  0.00     0.253 C 
ATOM     14  H   UNL A   1      31.989  22.159  27.467  1.00  0.00     0.164 HD
ATOM     15  O   UNL A   1      29.926  23.251  27.381  1.00  0.00    -0.269 OA
BRANCH  13  16
ATOM     16  C   UNL A   1      30.612  24.453  25.532  1.00  0.00     0.058 A 
ATOM     17  C   UNL A   1      30.730  24.142  24.182  1.00  0.00     0.018 A 
ATOM     18  C   UNL A   1      30.319  25.762  25.889  1.00  0.00     0.126 A 
ATOM     19  C   UNL A   1      30.696  25.179  23.250  1.00  0.00     0.037 A 
ATOM     20  N   UNL A   1      30.285  26.787  25.007  1.00  0.00    -0.249 NA
ATOM     21  C   UNL A   1      30.500  26.476  23.708  1.00  0.00     0.106 A 
ATOM     22  Br  UNL A   1      30.609  27.909  22.471  1.00  0.00    -0.029 Br
ENDBRANCH  13  16
ENDBRANCH   7  12
ENDBRANCH   4   7
ENDBRANCH   2   3
ENDBRANCH   1   2
BRANCH   1  23
ATOM     23  C   UNL A   1      37.831  20.223  24.756  1.00  0.00     0.023 C 
BRANCH  23  24
ATOM     24  C   UNL A   1      38.798  20.369  25.922  1.00  0.00     0.116 C 
BRANCH  24  25
ATOM     25  N   UNL A   1      39.898  19.420  25.857  1.00  0.00    -0.352 N 
ATOM     26  C   UNL A   1      41.231  19.655  26.068  1.00  0.00     0.251 C 
ATOM     27  H   UNL A   1      39.654  18.493  25.634  1.00  0.00     0.163 HD
ATOM     28  O   UNL A   1      42.067  18.796  25.803  1.00  0.00    -0.269 OA
BRANCH  26  29
ATOM     29  C   UNL A   1      41.651  20.966  26.594  1.00  0.00     0.039 A 
ATOM     30  C   UNL A   1      42.050  21.956  25.695  1.00  0.00     0.014 A 
ATOM     31  C   UNL A   1      41.633  21.218  27.970  1.00  0.00     0.014 A 
ATOM     32  C   UNL A   1      42.409  23.212  26.179  1.00  0.00     0.010 A 
ATOM     33  C   UNL A   1      41.900  22.497  28.439  1.00  0.00     0.010 A 
ATOM     34  C   UNL A   1      42.321  23.497  27.552  1.00  0.00    -0.014 A 
BRANCH  34  35
ATOM     35  C   UNL A   1      42.719  24.827  28.073  1.00  0.00     0.031 A 
ATOM     36  C   UNL A   1      41.678  25.893  28.286  1.00  0.00     0.074 A 
ATOM     37  C   UNL A   1      44.014  25.080  28.340  1.00  0.00     0.049 A 
ATOM     38  N   UNL A   1      41.821  27.103  28.765  1.00  0.00    -0.248 NA
ATOM     39  C   UNL A   1      40.298  25.569  27.886  1.00  0.00     0.031 C 
ATOM     40  C   UNL A   1      45.122  24.145  28.130  1.00  0.00     0.029 A 
ATOM     41  N   UNL A   1      44.615  26.197  28.862  1.00  0.00    -0.354 N 
ATOM     42  C   UNL A   1      40.558  27.680  28.715  1.00  0.00     0.074 A 
ATOM     43  C   UNL A   1      39.676  26.719  28.093  1.00  0.00     0.031 C 
ATOM     44  C   UNL A   1      46.260  24.710  28.565  1.00  0.00     0.029 A 
ATOM     45  C   UNL A   1      45.967  26.056  29.048  1.00  0.00     0.049 A 
ATOM     46  H   UNL A   1      44.122  27.021  29.081  1.00  0.00     0.167 HD
ATOM     47  C   UNL A   1      40.158  28.891  29.171  1.00  0.00     0.031 A 
ATOM     48  C   UNL A   1      46.869  26.914  29.561  1.00  0.00     0.031 A 
ATOM     49  C   UNL A   1      41.035  29.843  29.796  1.00  0.00     0.049 A 
ATOM     50  C   UNL A   1      46.402  28.257  30.051  1.00  0.00     0.074 A 
ATOM     51  C   UNL A   1      40.723  31.076  30.341  1.00  0.00     0.029 A 
ATOM     52  N   UNL A   1      42.401  29.667  29.957  1.00  0.00    -0.354 N 
ATOM     53  N   UNL A   1      45.190  28.757  30.069  1.00  0.00    -0.248 NA
ATOM     54  C   UNL A   1      47.430  29.145  30.610  1.00  0.00     0.031 C 
ATOM     55  C   UNL A   1      41.911  31.673  30.777  1.00  0.00     0.029 A 
ATOM     56  C   UNL A   1      42.952  30.782  30.567  1.00  0.00     0.049 A 
ATOM     57  H   UNL A   1      42.906  28.869  29.679  1.00  0.00     0.167 HD
ATOM     58  C   UNL A   1      45.305  30.006  30.666  1.00  0.00     0.074 A 
ATOM     59  C   UNL A   1      46.701  30.173  31.019  1.00  0.00     0.031 C 
ATOM     60  C   UNL A   1      44.346  30.935  30.901  1.00  0.00     0.031 A 
BRANCH  47  61
ATOM     61  C   UNL A   1      38.707  29.247  29.003  1.00  0.00    -0.014 A 
ATOM     62  C   UNL A   1      38.206  29.708  27.773  1.00  0.00     0.009 A 
ATOM     63  C   UNL A   1      37.820  29.102  30.081  1.00  0.00     0.009 A 
ATOM     64  C   UNL A   1      36.860  30.055  27.641  1.00  0.00     0.001 A 
ATOM     65  C   UNL A   1      36.468  29.416  29.936  1.00  0.00     0.001 A 
ATOM     66  C   UNL A   1      35.992  29.904  28.721  1.00  0.00     0.000 A 
ENDBRANCH  47  61
BRANCH  48  67
ATOM     67  C   UNL A   1      48.301  26.524  29.663  1.00  0.00    -0.014 A 
ATOM     68  C   UNL A   1      49.199  26.825  28.627  1.00  0.00     0.009 A 
ATOM     69  C   UNL A   1      48.773  25.832  30.789  1.00  0.00     0.009 A 
ATOM     70  C   UNL A   1      50.530  26.407  28.700  1.00  0.00     0.001 A 
ATOM     71  C   UNL A   1      50.113  25.446  30.874  1.00  0.00     0.001 A 
ATOM     72  C   UNL A   1      50.987  25.723  29.824  1.00  0.00     0.000 A 
ENDBRANCH  48  67
BRANCH  60  73
ATOM     73  C   UNL A   1      44.773  32.197  31.598  1.00  0.00    -0.014 A 
ATOM     74  C   UNL A   1      44.771  32.298  32.999  1.00  0.00     0.009 A 
ATOM     75  C   UNL A   1      45.196  33.300  30.839  1.00  0.00     0.009 A 
ATOM     76  C   UNL A   1      45.134  33.493  33.621  1.00  0.00     0.001 A 
ATOM     77  C   UNL A   1      45.594  34.481  31.465  1.00  0.00     0.001 A 
ATOM     78  C   UNL A   1      45.549  34.582  32.854  1.00  0.00     0.000 A 
ENDBRANCH  60  73
ENDBRANCH  34  35
ENDBRANCH  26  29
ENDBRANCH  24  25
ENDBRANCH  23  24
ENDBRANCH   1  23
TORSDOF 16
ENDMDL
