MODEL 1
REMARK VINA RESULT:     -10.1      0.000      0.000
REMARK SMILES CC(C)[C@@H]([NH2+][C@@H]1CSCC(C)(C)C1)C(=O)NCCCCNC(=O)c1ccc(-c2c3nc(c(-c4ccccc4)c4ccc([nH]4)c(-c4ccccc4)c4nc(c(-c5ccccc5)c5ccc2[nH]5)C=C4)C=C3)cc1
REMARK SMILES IDX 18 1 17 2 16 3 14 4 15 5 4 7 2 8 1 9 3 10 5 11 6 14 7 15
REMARK SMILES IDX 13 16 8 17 10 18 9 19 11 20 12 21 19 22 20 23 21 24 22 25
REMARK SMILES IDX 23 27 24 28 25 29 71 30 26 31 70 32 27 33 28 34 29 35 64 36
REMARK SMILES IDX 30 37 69 38 63 39 65 40 31 41 68 42 62 43 61 44 32 46 54 47
REMARK SMILES IDX 39 48 53 49 40 50 43 51 52 52 66 53 41 54 42 55 51 57 67 58
REMARK SMILES IDX 44 59 33 60 34 61 38 62 35 63 37 64 36 65 55 66 56 67 60 68
REMARK SMILES IDX 57 69 59 70 58 71 45 72 46 73 50 74 47 75 49 76 48 77
REMARK H PARENT 16 6 5 12 5 13 21 26 65 45 43 56
REMARK Flexibility Score: inf
ROOT
ATOM      1  C   UNL A   1      36.767  21.651  24.435  1.00  0.00     0.023 C 
ENDROOT
BRANCH   1   2
ATOM      2  C   UNL A   1      36.781  22.875  25.339  1.00  0.00     0.116 C 
BRANCH   2   3
ATOM      3  N   UNL A   1      36.020  22.681  26.554  1.00  0.00    -0.351 N 
ATOM      4  C   UNL A   1      34.661  22.663  26.706  1.00  0.00     0.278 C 
ATOM      5  O   UNL A   1      34.203  22.339  27.808  1.00  0.00    -0.268 OA
ATOM      6  H   UNL A   1      36.546  22.547  27.375  1.00  0.00     0.163 HD
BRANCH   4   7
ATOM      7  C   UNL A   1      33.714  23.125  25.568  1.00  0.00     0.275 C 
BRANCH   7   8
ATOM      8  C   UNL A   1      32.738  21.955  25.207  1.00  0.00     0.051 C 
ATOM      9  C   UNL A   1      31.274  22.299  25.492  1.00  0.00     0.014 C 
ATOM     10  C   UNL A   1      32.864  21.535  23.731  1.00  0.00     0.014 C 
ENDBRANCH   7   8
BRANCH   7  11
ATOM     11  N   UNL A   1      33.010  24.390  25.931  1.00  0.00    -0.333 N 
ATOM     12  H   UNL A   1      32.783  24.345  26.925  1.00  0.00     0.347 HD
ATOM     13  H   UNL A   1      32.200  24.435  25.314  1.00  0.00     0.347 HD
BRANCH  11  14
ATOM     14  C   UNL A   1      33.755  25.648  25.696  1.00  0.00     0.193 C 
ATOM     15  C   UNL A   1      33.213  26.947  26.319  1.00  0.00     0.134 C 
ATOM     16  C   UNL A   1      33.967  25.883  24.172  1.00  0.00     0.073 C 
ATOM     17  S   UNL A   1      31.562  27.398  25.709  1.00  0.00    -0.155 SA
ATOM     18  C   UNL A   1      32.729  26.283  23.319  1.00  0.00    -0.021 C 
ATOM     19  C   UNL A   1      31.898  27.434  23.934  1.00  0.00     0.076 C 
ATOM     20  C   UNL A   1      31.856  25.054  23.009  1.00  0.00     0.012 C 
ATOM     21  C   UNL A   1      33.224  26.798  21.944  1.00  0.00     0.012 C 
ENDBRANCH  11  14
ENDBRANCH   7  11
ENDBRANCH   4   7
ENDBRANCH   2   3
ENDBRANCH   1   2
BRANCH   1  22
ATOM     22  C   UNL A   1      37.531  20.458  25.002  1.00  0.00     0.023 C 
BRANCH  22  23
ATOM     23  C   UNL A   1      38.865  20.799  25.662  1.00  0.00     0.116 C 
BRANCH  23  24
ATOM     24  N   UNL A   1      39.802  19.683  25.690  1.00  0.00    -0.352 N 
ATOM     25  C   UNL A   1      41.125  19.697  26.071  1.00  0.00     0.251 C 
ATOM     26  H   UNL A   1      39.445  18.811  25.402  1.00  0.00     0.163 HD
ATOM     27  O   UNL A   1      41.831  18.704  25.964  1.00  0.00    -0.269 OA
BRANCH  25  28
ATOM     28  C   UNL A   1      41.687  20.962  26.583  1.00  0.00     0.039 A 
ATOM     29  C   UNL A   1      42.221  21.883  25.680  1.00  0.00     0.014 A 
ATOM     30  C   UNL A   1      41.578  21.266  27.941  1.00  0.00     0.014 A 
ATOM     31  C   UNL A   1      42.574  23.156  26.131  1.00  0.00     0.010 A 
ATOM     32  C   UNL A   1      41.872  22.553  28.375  1.00  0.00     0.010 A 
ATOM     33  C   UNL A   1      42.360  23.513  27.472  1.00  0.00    -0.014 A 
BRANCH  33  34
ATOM     34  C   UNL A   1      42.639  24.881  27.975  1.00  0.00     0.031 A 
ATOM     35  C   UNL A   1      44.026  25.229  28.434  1.00  0.00     0.074 A 
ATOM     36  C   UNL A   1      41.637  25.770  28.111  1.00  0.00     0.049 A 
ATOM     37  N   UNL A   1      44.444  26.294  29.067  1.00  0.00    -0.248 NA
ATOM     38  C   UNL A   1      45.075  24.231  28.170  1.00  0.00     0.031 C 
ATOM     39  C   UNL A   1      40.242  25.554  27.719  1.00  0.00     0.029 A 
ATOM     40  N   UNL A   1      41.639  27.038  28.639  1.00  0.00    -0.354 N 
ATOM     41  C   UNL A   1      45.795  26.080  29.304  1.00  0.00     0.074 A 
ATOM     42  C   UNL A   1      46.119  24.771  28.780  1.00  0.00     0.031 C 
ATOM     43  C   UNL A   1      39.529  26.655  28.005  1.00  0.00     0.029 A 
ATOM     44  C   UNL A   1      40.401  27.635  28.644  1.00  0.00     0.049 A 
ATOM     45  H   UNL A   1      42.450  27.476  28.982  1.00  0.00     0.167 HD
ATOM     46  C   UNL A   1      46.691  26.905  29.896  1.00  0.00     0.031 A 
ATOM     47  C   UNL A   1      40.013  28.831  29.124  1.00  0.00     0.031 A 
ATOM     48  C   UNL A   1      46.377  28.214  30.399  1.00  0.00     0.049 A 
ATOM     49  C   UNL A   1      41.026  29.724  29.786  1.00  0.00     0.074 A 
ATOM     50  C   UNL A   1      47.222  29.135  30.991  1.00  0.00     0.029 A 
ATOM     51  N   UNL A   1      45.118  28.791  30.356  1.00  0.00    -0.354 N 
ATOM     52  N   UNL A   1      42.304  29.516  29.988  1.00  0.00    -0.248 NA
ATOM     53  C   UNL A   1      40.540  31.020  30.285  1.00  0.00     0.031 C 
ATOM     54  C   UNL A   1      46.468  30.264  31.329  1.00  0.00     0.029 A 
ATOM     55  C   UNL A   1      45.164  30.057  30.910  1.00  0.00     0.049 A 
ATOM     56  H   UNL A   1      44.312  28.364  29.986  1.00  0.00     0.167 HD
ATOM     57  C   UNL A   1      42.782  30.667  30.600  1.00  0.00     0.074 A 
ATOM     58  C   UNL A   1      41.658  31.570  30.736  1.00  0.00     0.031 C 
ATOM     59  C   UNL A   1      44.041  30.951  31.012  1.00  0.00     0.031 A 
BRANCH  46  60
ATOM     60  C   UNL A   1      48.100  26.404  30.029  1.00  0.00    -0.014 A 
ATOM     61  C   UNL A   1      49.033  26.591  28.997  1.00  0.00     0.009 A 
ATOM     62  C   UNL A   1      48.506  25.759  31.208  1.00  0.00     0.009 A 
ATOM     63  C   UNL A   1      50.336  26.108  29.129  1.00  0.00     0.001 A 
ATOM     64  C   UNL A   1      49.817  25.303  31.347  1.00  0.00     0.001 A 
ATOM     65  C   UNL A   1      50.728  25.469  30.305  1.00  0.00     0.000 A 
ENDBRANCH  46  60
BRANCH  47  66
ATOM     66  C   UNL A   1      38.600  29.272  28.990  1.00  0.00    -0.014 A 
ATOM     67  C   UNL A   1      37.716  29.146  30.074  1.00  0.00     0.009 A 
ATOM     68  C   UNL A   1      38.121  29.793  27.779  1.00  0.00     0.009 A 
ATOM     69  C   UNL A   1      36.373  29.505  29.937  1.00  0.00     0.001 A 
ATOM     70  C   UNL A   1      36.783  30.176  27.654  1.00  0.00     0.001 A 
ATOM     71  C   UNL A   1      35.909  30.022  28.729  1.00  0.00     0.000 A 
ENDBRANCH  47  66
BRANCH  59  72
ATOM     72  C   UNL A   1      44.288  32.316  31.584  1.00  0.00    -0.014 A 
ATOM     73  C   UNL A   1      44.189  32.559  32.962  1.00  0.00     0.009 A 
ATOM     74  C   UNL A   1      44.683  33.359  30.730  1.00  0.00     0.009 A 
ATOM     75  C   UNL A   1      44.462  33.830  33.472  1.00  0.00     0.001 A 
ATOM     76  C   UNL A   1      44.976  34.621  31.246  1.00  0.00     0.001 A 
ATOM     77  C   UNL A   1      44.860  34.857  32.615  1.00  0.00     0.000 A 
ENDBRANCH  59  72
ENDBRANCH  33  34
ENDBRANCH  25  28
ENDBRANCH  23  24
ENDBRANCH  22  23
ENDBRANCH   1  22
TORSDOF 14
ENDMDL
MODEL 2
REMARK VINA RESULT:     -10.0      3.734      8.891
REMARK SMILES CC(C)[C@@H]([NH2+][C@@H]1CSCC(C)(C)C1)C(=O)NCCCCNC(=O)c1ccc(-c2c3nc(c(-c4ccccc4)c4ccc([nH]4)c(-c4ccccc4)c4nc(c(-c5ccccc5)c5ccc2[nH]5)C=C4)C=C3)cc1
REMARK SMILES IDX 18 1 17 2 16 3 14 4 15 5 4 7 2 8 1 9 3 10 5 11 6 14 7 15
REMARK SMILES IDX 13 16 8 17 10 18 9 19 11 20 12 21 19 22 20 23 21 24 22 25
REMARK SMILES IDX 23 27 24 28 25 29 71 30 26 31 70 32 27 33 28 34 29 35 64 36
REMARK SMILES IDX 30 37 69 38 63 39 65 40 31 41 68 42 62 43 61 44 32 46 54 47
REMARK SMILES IDX 39 48 53 49 40 50 43 51 52 52 66 53 41 54 42 55 51 57 67 58
REMARK SMILES IDX 44 59 33 60 34 61 38 62 35 63 37 64 36 65 55 66 56 67 60 68
REMARK SMILES IDX 57 69 59 70 58 71 45 72 46 73 50 74 47 75 49 76 48 77
REMARK H PARENT 16 6 5 12 5 13 21 26 65 45 43 56
REMARK Flexibility Score: inf
ROOT
ATOM      1  C   UNL A   1      31.811  30.202  26.805  1.00  0.00     0.023 C 
ENDROOT
BRANCH   1   2
ATOM      2  C   UNL A   1      33.179  29.587  26.551  1.00  0.00     0.116 C 
BRANCH   2   3
ATOM      3  N   UNL A   1      33.558  29.622  25.155  1.00  0.00    -0.351 N 
ATOM      4  C   UNL A   1      33.019  28.917  24.114  1.00  0.00     0.278 C 
ATOM      5  O   UNL A   1      33.390  29.197  22.968  1.00  0.00    -0.268 OA
ATOM      6  H   UNL A   1      34.298  30.230  24.926  1.00  0.00     0.163 HD
BRANCH   4   7
ATOM      7  C   UNL A   1      32.045  27.736  24.357  1.00  0.00     0.275 C 
BRANCH   7   8
ATOM      8  C   UNL A   1      30.751  27.955  23.502  1.00  0.00     0.051 C 
ATOM      9  C   UNL A   1      29.625  26.987  23.877  1.00  0.00     0.014 C 
ATOM     10  C   UNL A   1      30.218  29.394  23.621  1.00  0.00     0.014 C 
ENDBRANCH   7   8
BRANCH   7  11
ATOM     11  N   UNL A   1      32.709  26.426  24.099  1.00  0.00    -0.333 N 
ATOM     12  H   UNL A   1      33.519  26.600  23.505  1.00  0.00     0.347 HD
ATOM     13  H   UNL A   1      31.992  25.838  23.673  1.00  0.00     0.347 HD
BRANCH  11  14
ATOM     14  C   UNL A   1      33.174  25.678  25.289  1.00  0.00     0.193 C 
ATOM     15  C   UNL A   1      34.529  24.949  25.212  1.00  0.00     0.134 C 
ATOM     16  C   UNL A   1      32.093  24.662  25.757  1.00  0.00     0.073 C 
ATOM     17  S   UNL A   1      34.568  23.648  23.944  1.00  0.00    -0.155 SA
ATOM     18  C   UNL A   1      31.851  23.401  24.878  1.00  0.00    -0.021 C 
ATOM     19  C   UNL A   1      33.151  22.663  24.480  1.00  0.00     0.076 C 
ATOM     20  C   UNL A   1      30.994  23.748  23.646  1.00  0.00     0.012 C 
ATOM     21  C   UNL A   1      31.013  22.385  25.693  1.00  0.00     0.012 C 
ENDBRANCH  11  14
ENDBRANCH   7  11
ENDBRANCH   4   7
ENDBRANCH   2   3
ENDBRANCH   1   2
BRANCH   1  22
ATOM     22  C   UNL A   1      31.776  31.718  26.630  1.00  0.00     0.023 C 
BRANCH  22  23
ATOM     23  C   UNL A   1      32.894  32.477  27.341  1.00  0.00     0.116 C 
BRANCH  23  24
ATOM     24  N   UNL A   1      32.531  33.841  27.705  1.00  0.00    -0.352 N 
ATOM     25  C   UNL A   1      33.151  34.669  28.614  1.00  0.00     0.251 C 
ATOM     26  H   UNL A   1      31.745  34.216  27.245  1.00  0.00     0.163 HD
ATOM     27  O   UNL A   1      32.692  35.767  28.894  1.00  0.00    -0.269 OA
BRANCH  25  28
ATOM     28  C   UNL A   1      34.377  34.180  29.274  1.00  0.00     0.039 A 
ATOM     29  C   UNL A   1      34.265  33.446  30.457  1.00  0.00     0.014 A 
ATOM     30  C   UNL A   1      35.615  34.362  28.655  1.00  0.00     0.014 A 
ATOM     31  C   UNL A   1      35.397  32.818  30.980  1.00  0.00     0.010 A 
ATOM     32  C   UNL A   1      36.725  33.685  29.143  1.00  0.00     0.010 A 
ATOM     33  C   UNL A   1      36.624  32.897  30.302  1.00  0.00    -0.014 A 
BRANCH  33  34
ATOM     34  C   UNL A   1      37.830  32.174  30.775  1.00  0.00     0.031 A 
ATOM     35  C   UNL A   1      38.671  32.775  31.864  1.00  0.00     0.074 A 
ATOM     36  C   UNL A   1      38.222  31.039  30.165  1.00  0.00     0.049 A 
ATOM     37  N   UNL A   1      39.848  32.406  32.300  1.00  0.00    -0.248 NA
ATOM     38  C   UNL A   1      38.125  33.968  32.532  1.00  0.00     0.031 C 
ATOM     39  C   UNL A   1      37.506  30.357  29.084  1.00  0.00     0.029 A 
ATOM     40  N   UNL A   1      39.340  30.265  30.360  1.00  0.00    -0.354 N 
ATOM     41  C   UNL A   1      40.196  33.339  33.268  1.00  0.00     0.074 A 
ATOM     42  C   UNL A   1      39.124  34.309  33.332  1.00  0.00     0.031 C 
ATOM     43  C   UNL A   1      38.193  29.261  28.724  1.00  0.00     0.029 A 
ATOM     44  C   UNL A   1      39.419  29.187  29.512  1.00  0.00     0.049 A 
ATOM     45  H   UNL A   1      40.019  30.464  31.044  1.00  0.00     0.167 HD
ATOM     46  C   UNL A   1      41.304  33.379  34.044  1.00  0.00     0.031 A 
ATOM     47  C   UNL A   1      40.381  28.255  29.375  1.00  0.00     0.031 A 
ATOM     48  C   UNL A   1      42.361  32.405  33.997  1.00  0.00     0.049 A 
ATOM     49  C   UNL A   1      41.607  28.328  30.242  1.00  0.00     0.074 A 
ATOM     50  C   UNL A   1      43.512  32.345  34.762  1.00  0.00     0.029 A 
ATOM     51  N   UNL A   1      42.385  31.314  33.144  1.00  0.00    -0.354 N 
ATOM     52  N   UNL A   1      41.915  29.205  31.166  1.00  0.00    -0.248 NA
ATOM     53  C   UNL A   1      42.619  27.277  30.048  1.00  0.00     0.031 C 
ATOM     54  C   UNL A   1      44.247  31.228  34.355  1.00  0.00     0.029 A 
ATOM     55  C   UNL A   1      43.533  30.573  33.365  1.00  0.00     0.049 A 
ATOM     56  H   UNL A   1      41.692  31.098  32.481  1.00  0.00     0.167 HD
ATOM     57  C   UNL A   1      43.134  28.792  31.689  1.00  0.00     0.074 A 
ATOM     58  C   UNL A   1      43.508  27.585  30.981  1.00  0.00     0.031 C 
ATOM     59  C   UNL A   1      43.875  29.361  32.670  1.00  0.00     0.031 A 
BRANCH  46  60
ATOM     60  C   UNL A   1      41.424  34.521  35.010  1.00  0.00    -0.014 A 
ATOM     61  C   UNL A   1      40.914  34.419  36.315  1.00  0.00     0.009 A 
ATOM     62  C   UNL A   1      42.072  35.703  34.621  1.00  0.00     0.009 A 
ATOM     63  C   UNL A   1      41.020  35.494  37.199  1.00  0.00     0.001 A 
ATOM     64  C   UNL A   1      42.201  36.765  35.517  1.00  0.00     0.001 A 
ATOM     65  C   UNL A   1      41.667  36.664  36.801  1.00  0.00     0.000 A 
ENDBRANCH  46  60
BRANCH  47  66
ATOM     66  C   UNL A   1      40.228  27.157  28.385  1.00  0.00    -0.014 A 
ATOM     67  C   UNL A   1      39.534  25.987  28.731  1.00  0.00     0.009 A 
ATOM     68  C   UNL A   1      40.793  27.259  27.105  1.00  0.00     0.009 A 
ATOM     69  C   UNL A   1      39.434  24.928  27.825  1.00  0.00     0.001 A 
ATOM     70  C   UNL A   1      40.670  26.209  26.192  1.00  0.00     0.001 A 
ATOM     71  C   UNL A   1      40.000  25.041  26.556  1.00  0.00     0.000 A 
ENDBRANCH  47  66
BRANCH  59  72
ATOM     72  C   UNL A   1      45.130  28.652  33.084  1.00  0.00    -0.014 A 
ATOM     73  C   UNL A   1      45.114  27.656  34.071  1.00  0.00     0.009 A 
ATOM     74  C   UNL A   1      46.337  28.950  32.430  1.00  0.00     0.009 A 
ATOM     75  C   UNL A   1      46.291  26.985  34.411  1.00  0.00     0.001 A 
ATOM     76  C   UNL A   1      47.505  28.262  32.755  1.00  0.00     0.001 A 
ATOM     77  C   UNL A   1      47.483  27.285  33.749  1.00  0.00     0.000 A 
ENDBRANCH  59  72
ENDBRANCH  33  34
ENDBRANCH  25  28
ENDBRANCH  23  24
ENDBRANCH  22  23
ENDBRANCH   1  22
TORSDOF 14
ENDMDL
MODEL 3
REMARK VINA RESULT:      -9.8      1.455      1.892
REMARK SMILES CC(C)[C@@H]([NH2+][C@@H]1CSCC(C)(C)C1)C(=O)NCCCCNC(=O)c1ccc(-c2c3nc(c(-c4ccccc4)c4ccc([nH]4)c(-c4ccccc4)c4nc(c(-c5ccccc5)c5ccc2[nH]5)C=C4)C=C3)cc1
REMARK SMILES IDX 18 1 17 2 16 3 14 4 15 5 4 7 2 8 1 9 3 10 5 11 6 14 7 15
REMARK SMILES IDX 13 16 8 17 10 18 9 19 11 20 12 21 19 22 20 23 21 24 22 25
REMARK SMILES IDX 23 27 24 28 25 29 71 30 26 31 70 32 27 33 28 34 29 35 64 36
REMARK SMILES IDX 30 37 69 38 63 39 65 40 31 41 68 42 62 43 61 44 32 46 54 47
REMARK SMILES IDX 39 48 53 49 40 50 43 51 52 52 66 53 41 54 42 55 51 57 67 58
REMARK SMILES IDX 44 59 33 60 34 61 38 62 35 63 37 64 36 65 55 66 56 67 60 68
REMARK SMILES IDX 57 69 59 70 58 71 45 72 46 73 50 74 47 75 49 76 48 77
REMARK H PARENT 16 6 5 12 5 13 21 26 65 45 43 56
REMARK Flexibility Score: inf
ROOT
ATOM      1  C   UNL A   1      39.059  23.057  26.507  1.00  0.00     0.023 C 
ENDROOT
BRANCH   1   2
ATOM      2  C   UNL A   1      37.759  23.664  26.001  1.00  0.00     0.116 C 
BRANCH   2   3
ATOM      3  N   UNL A   1      36.593  23.128  26.669  1.00  0.00    -0.351 N 
ATOM      4  C   UNL A   1      35.314  23.036  26.194  1.00  0.00     0.278 C 
ATOM      5  O   UNL A   1      34.487  22.413  26.868  1.00  0.00    -0.268 OA
ATOM      6  H   UNL A   1      36.740  22.786  27.580  1.00  0.00     0.163 HD
BRANCH   4   7
ATOM      7  C   UNL A   1      34.878  23.770  24.900  1.00  0.00     0.275 C 
BRANCH   7   8
ATOM      8  C   UNL A   1      35.032  22.796  23.683  1.00  0.00     0.051 C 
ATOM      9  C   UNL A   1      33.934  22.986  22.633  1.00  0.00     0.014 C 
ATOM     10  C   UNL A   1      36.399  22.949  22.992  1.00  0.00     0.014 C 
ENDBRANCH   7   8
BRANCH   7  11
ATOM     11  N   UNL A   1      33.503  24.333  25.034  1.00  0.00    -0.333 N 
ATOM     12  H   UNL A   1      32.916  23.619  25.464  1.00  0.00     0.347 HD
ATOM     13  H   UNL A   1      33.225  24.597  24.090  1.00  0.00     0.347 HD
BRANCH  11  14
ATOM     14  C   UNL A   1      33.375  25.568  25.842  1.00  0.00     0.193 C 
ATOM     15  C   UNL A   1      31.976  25.973  26.342  1.00  0.00     0.134 C 
ATOM     16  C   UNL A   1      34.002  26.780  25.094  1.00  0.00     0.073 C 
ATOM     17  S   UNL A   1      30.806  26.312  24.994  1.00  0.00    -0.155 SA
ATOM     18  C   UNL A   1      33.247  27.337  23.852  1.00  0.00    -0.021 C 
ATOM     19  C   UNL A   1      31.739  27.574  24.097  1.00  0.00     0.076 C 
ATOM     20  C   UNL A   1      33.492  26.449  22.618  1.00  0.00     0.012 C 
ATOM     21  C   UNL A   1      33.846  28.720  23.492  1.00  0.00     0.012 C 
ENDBRANCH  11  14
ENDBRANCH   7  11
ENDBRANCH   4   7
ENDBRANCH   2   3
ENDBRANCH   1   2
BRANCH   1  22
ATOM     22  C   UNL A   1      39.334  21.655  25.970  1.00  0.00     0.023 C 
BRANCH  22  23
ATOM     23  C   UNL A   1      40.199  20.776  26.870  1.00  0.00     0.116 C 
BRANCH  23  24
ATOM     24  N   UNL A   1      41.271  20.090  26.158  1.00  0.00    -0.352 N 
ATOM     25  C   UNL A   1      42.507  20.585  25.811  1.00  0.00     0.251 C 
ATOM     26  H   UNL A   1      41.087  19.160  25.894  1.00  0.00     0.163 HD
ATOM     27  O   UNL A   1      43.288  19.932  25.132  1.00  0.00    -0.269 OA
BRANCH  25  28
ATOM     28  C   UNL A   1      42.859  21.948  26.250  1.00  0.00     0.039 A 
ATOM     29  C   UNL A   1      42.933  22.971  25.301  1.00  0.00     0.014 A 
ATOM     30  C   UNL A   1      43.005  22.220  27.612  1.00  0.00     0.014 A 
ATOM     31  C   UNL A   1      43.072  24.292  25.730  1.00  0.00     0.010 A 
ATOM     32  C   UNL A   1      43.080  23.540  28.038  1.00  0.00     0.010 A 
ATOM     33  C   UNL A   1      43.102  24.588  27.102  1.00  0.00    -0.014 A 
BRANCH  33  34
ATOM     34  C   UNL A   1      43.160  25.984  27.603  1.00  0.00     0.031 A 
ATOM     35  C   UNL A   1      44.487  26.577  27.981  1.00  0.00     0.074 A 
ATOM     36  C   UNL A   1      42.024  26.677  27.811  1.00  0.00     0.049 A 
ATOM     37  N   UNL A   1      44.745  27.700  28.599  1.00  0.00    -0.248 NA
ATOM     38  C   UNL A   1      45.680  25.784  27.641  1.00  0.00     0.031 C 
ATOM     39  C   UNL A   1      40.670  26.213  27.502  1.00  0.00     0.029 A 
ATOM     40  N   UNL A   1      41.831  27.924  28.353  1.00  0.00    -0.354 N 
ATOM     41  C   UNL A   1      46.125  27.733  28.751  1.00  0.00     0.074 A 
ATOM     42  C   UNL A   1      46.646  26.504  28.192  1.00  0.00     0.031 C 
ATOM     43  C   UNL A   1      39.789  27.167  27.845  1.00  0.00     0.029 A 
ATOM     44  C   UNL A   1      40.508  28.288  28.440  1.00  0.00     0.049 A 
ATOM     45  H   UNL A   1      42.569  28.502  28.651  1.00  0.00     0.167 HD
ATOM     46  C   UNL A   1      46.892  28.705  29.296  1.00  0.00     0.031 A 
ATOM     47  C   UNL A   1      39.941  29.394  28.958  1.00  0.00     0.031 A 
ATOM     48  C   UNL A   1      46.380  29.936  29.833  1.00  0.00     0.049 A 
ATOM     49  C   UNL A   1      40.816  30.455  29.567  1.00  0.00     0.074 A 
ATOM     50  C   UNL A   1      47.080  30.995  30.383  1.00  0.00     0.029 A 
ATOM     51  N   UNL A   1      45.037  30.276  29.873  1.00  0.00    -0.354 N 
ATOM     52  N   UNL A   1      42.121  30.481  29.688  1.00  0.00    -0.248 NA
ATOM     53  C   UNL A   1      40.137  31.641  30.110  1.00  0.00     0.031 C 
ATOM     54  C   UNL A   1      46.158  31.968  30.780  1.00  0.00     0.029 A 
ATOM     55  C   UNL A   1      44.888  31.530  30.439  1.00  0.00     0.049 A 
ATOM     56  H   UNL A   1      44.300  29.711  29.549  1.00  0.00     0.167 HD
ATOM     57  C   UNL A   1      42.421  31.699  30.283  1.00  0.00     0.074 A 
ATOM     58  C   UNL A   1      41.163  32.384  30.498  1.00  0.00     0.031 C 
ATOM     59  C   UNL A   1      43.631  32.206  30.620  1.00  0.00     0.031 A 
BRANCH  46  60
ATOM     60  C   UNL A   1      48.374  28.468  29.337  1.00  0.00    -0.014 A 
ATOM     61  C   UNL A   1      48.974  27.831  30.435  1.00  0.00     0.009 A 
ATOM     62  C   UNL A   1      49.177  28.864  28.256  1.00  0.00     0.009 A 
ATOM     63  C   UNL A   1      50.355  27.629  30.465  1.00  0.00     0.001 A 
ATOM     64  C   UNL A   1      50.553  28.636  28.278  1.00  0.00     0.001 A 
ATOM     65  C   UNL A   1      51.142  28.028  29.385  1.00  0.00     0.000 A 
ENDBRANCH  46  60
BRANCH  47  66
ATOM     66  C   UNL A   1      38.467  29.572  28.916  1.00  0.00    -0.014 A 
ATOM     67  C   UNL A   1      37.844  30.026  27.743  1.00  0.00     0.009 A 
ATOM     68  C   UNL A   1      37.679  29.316  30.049  1.00  0.00     0.009 A 
ATOM     69  C   UNL A   1      36.465  30.250  27.715  1.00  0.00     0.001 A 
ATOM     70  C   UNL A   1      36.298  29.516  30.009  1.00  0.00     0.001 A 
ATOM     71  C   UNL A   1      35.693  29.992  28.846  1.00  0.00     0.000 A 
ENDBRANCH  47  66
BRANCH  59  72
ATOM     72  C   UNL A   1      43.663  33.592  31.192  1.00  0.00    -0.014 A 
ATOM     73  C   UNL A   1      43.622  33.812  32.577  1.00  0.00     0.009 A 
ATOM     74  C   UNL A   1      43.795  34.691  30.327  1.00  0.00     0.009 A 
ATOM     75  C   UNL A   1      43.692  35.111  33.084  1.00  0.00     0.001 A 
ATOM     76  C   UNL A   1      43.888  35.985  30.838  1.00  0.00     0.001 A 
ATOM     77  C   UNL A   1      43.830  36.195  32.215  1.00  0.00     0.000 A 
ENDBRANCH  59  72
ENDBRANCH  33  34
ENDBRANCH  25  28
ENDBRANCH  23  24
ENDBRANCH  22  23
ENDBRANCH   1  22
TORSDOF 14
ENDMDL
