MODEL 1
REMARK VINA RESULT:      -9.5      0.000      0.000
REMARK SMILES O=C(NCCCCNC(=O)[C@H]1CC[C@@H]2CCCC[C@H]2[NH2+]1)c1ccc(-c2c3nc(c(-c4ccccc4)c4ccc([nH]4)c(-c4ccccc4)c4nc(c(-c5ccccc5)c5ccc2[nH]5)C=C4)C=C3)cc1
REMARK SMILES IDX 4 1 3 2 1 3 2 4 21 6 22 7 68 8 23 9 67 10 24 11 25 12 26 13
REMARK SMILES IDX 61 14 27 15 66 16 60 17 62 18 28 19 65 20 59 21 58 22 29 24
REMARK SMILES IDX 51 25 36 26 50 27 37 28 40 29 49 30 63 31 38 32 39 33 48 35
REMARK SMILES IDX 64 36 41 37 30 38 31 39 35 40 32 41 34 42 33 43 52 44 53 45
REMARK SMILES IDX 57 46 54 47 56 48 55 49 42 50 43 51 47 52 44 53 46 54 45 55
REMARK SMILES IDX 5 56 6 57 7 58 8 59 9 60 10 62 11 63 12 64 20 65 13 66 19 67
REMARK SMILES IDX 14 70 18 71 15 72 17 73 16 74
REMARK H PARENT 3 5 62 23 40 34 8 61 20 68 20 69
REMARK Flexibility Score: inf
ROOT
ATOM      1  C   UNL A   1      33.572  35.832  31.076  1.00  0.00     0.116 C 
ENDROOT
BRANCH   1   2
ATOM      2  N   UNL A   1      32.818  35.287  29.953  1.00  0.00    -0.352 N 
ATOM      3  O   UNL A   1      32.443  34.114  28.057  1.00  0.00    -0.269 OA
ATOM      4  C   UNL A   1      33.188  34.365  29.001  1.00  0.00     0.251 C 
ATOM      5  H   UNL A   1      31.900  35.633  29.862  1.00  0.00     0.163 HD
BRANCH   4   6
ATOM      6  C   UNL A   1      34.506  33.703  29.092  1.00  0.00     0.039 A 
ATOM      7  C   UNL A   1      34.714  32.673  30.007  1.00  0.00     0.014 A 
ATOM      8  C   UNL A   1      35.554  34.138  28.277  1.00  0.00     0.014 A 
ATOM      9  C   UNL A   1      36.006  32.230  30.257  1.00  0.00     0.010 A 
ATOM     10  C   UNL A   1      36.836  33.607  28.450  1.00  0.00     0.010 A 
ATOM     11  C   UNL A   1      37.082  32.685  29.478  1.00  0.00    -0.014 A 
BRANCH  11  12
ATOM     12  C   UNL A   1      38.438  32.141  29.747  1.00  0.00     0.031 A 
ATOM     13  C   UNL A   1      39.419  32.873  30.622  1.00  0.00     0.074 A 
ATOM     14  C   UNL A   1      38.753  30.929  29.247  1.00  0.00     0.049 A 
ATOM     15  N   UNL A   1      40.617  32.501  31.000  1.00  0.00    -0.248 NA
ATOM     16  C   UNL A   1      39.014  34.190  31.136  1.00  0.00     0.031 C 
ATOM     17  C   UNL A   1      37.885  30.122  28.384  1.00  0.00     0.029 A 
ATOM     18  N   UNL A   1      39.864  30.147  29.424  1.00  0.00    -0.354 N 
ATOM     19  C   UNL A   1      41.114  33.540  31.777  1.00  0.00     0.074 A 
ATOM     20  C   UNL A   1      40.098  34.570  31.801  1.00  0.00     0.031 C 
ATOM     21  C   UNL A   1      38.463  28.934  28.166  1.00  0.00     0.029 A 
ATOM     22  C   UNL A   1      39.770  28.921  28.810  1.00  0.00     0.049 A 
ATOM     23  H   UNL A   1      40.652  30.435  29.939  1.00  0.00     0.167 HD
ATOM     24  C   UNL A   1      42.304  33.625  32.419  1.00  0.00     0.031 A 
ATOM     25  C   UNL A   1      40.642  27.899  28.759  1.00  0.00     0.031 A 
ATOM     26  C   UNL A   1      43.315  32.598  32.399  1.00  0.00     0.049 A 
ATOM     27  C   UNL A   1      41.958  28.029  29.465  1.00  0.00     0.074 A 
ATOM     28  C   UNL A   1      44.554  32.594  33.018  1.00  0.00     0.029 A 
ATOM     29  N   UNL A   1      43.199  31.390  31.730  1.00  0.00    -0.354 N 
ATOM     30  N   UNL A   1      42.406  29.020  30.195  1.00  0.00    -0.248 NA
ATOM     31  C   UNL A   1      42.888  26.899  29.337  1.00  0.00     0.031 C 
ATOM     32  C   UNL A   1      45.203  31.398  32.690  1.00  0.00     0.029 A 
ATOM     33  C   UNL A   1      44.348  30.638  31.909  1.00  0.00     0.049 A 
ATOM     34  H   UNL A   1      42.415  31.107  31.206  1.00  0.00     0.167 HD
ATOM     35  C   UNL A   1      43.671  28.634  30.617  1.00  0.00     0.074 A 
ATOM     36  C   UNL A   1      43.901  27.305  30.088  1.00  0.00     0.031 C 
ATOM     37  C   UNL A   1      44.564  29.323  31.366  1.00  0.00     0.031 A 
BRANCH  24  38
ATOM     38  C   UNL A   1      42.594  34.885  33.187  1.00  0.00    -0.014 A 
ATOM     39  C   UNL A   1      43.256  35.968  32.584  1.00  0.00     0.009 A 
ATOM     40  C   UNL A   1      42.151  35.014  34.512  1.00  0.00     0.009 A 
ATOM     41  C   UNL A   1      43.488  37.143  33.303  1.00  0.00     0.001 A 
ATOM     42  C   UNL A   1      42.363  36.199  35.220  1.00  0.00     0.001 A 
ATOM     43  C   UNL A   1      43.037  37.260  34.618  1.00  0.00     0.000 A 
ENDBRANCH  24  38
BRANCH  25  44
ATOM     44  C   UNL A   1      40.301  26.676  27.988  1.00  0.00    -0.014 A 
ATOM     45  C   UNL A   1      40.746  26.511  26.669  1.00  0.00     0.009 A 
ATOM     46  C   UNL A   1      39.539  25.658  28.582  1.00  0.00     0.009 A 
ATOM     47  C   UNL A   1      40.416  25.357  25.953  1.00  0.00     0.001 A 
ATOM     48  C   UNL A   1      39.238  24.492  27.876  1.00  0.00     0.001 A 
ATOM     49  C   UNL A   1      39.669  24.348  26.560  1.00  0.00     0.000 A 
ENDBRANCH  25  44
BRANCH  37  50
ATOM     50  C   UNL A   1      45.863  28.634  31.666  1.00  0.00    -0.014 A 
ATOM     51  C   UNL A   1      46.956  28.739  30.792  1.00  0.00     0.009 A 
ATOM     52  C   UNL A   1      45.996  27.876  32.839  1.00  0.00     0.009 A 
ATOM     53  C   UNL A   1      48.146  28.063  31.068  1.00  0.00     0.001 A 
ATOM     54  C   UNL A   1      47.195  27.222  33.124  1.00  0.00     0.001 A 
ATOM     55  C   UNL A   1      48.265  27.308  32.235  1.00  0.00     0.000 A 
ENDBRANCH  37  50
ENDBRANCH  11  12
ENDBRANCH   4   6
ENDBRANCH   1   2
BRANCH   1  56
ATOM     56  C   UNL A   1      33.143  35.275  32.426  1.00  0.00     0.023 C 
BRANCH  56  57
ATOM     57  C   UNL A   1      34.105  34.277  33.056  1.00  0.00     0.023 C 
BRANCH  57  58
ATOM     58  C   UNL A   1      35.189  34.874  33.940  1.00  0.00     0.116 C 
BRANCH  58  59
ATOM     59  N   UNL A   1      35.384  34.209  35.217  1.00  0.00    -0.351 N 
ATOM     60  C   UNL A   1      36.488  33.484  35.604  1.00  0.00     0.278 C 
ATOM     61  H   UNL A   1      34.652  34.283  35.870  1.00  0.00     0.163 HD
ATOM     62  O   UNL A   1      36.564  33.120  36.781  1.00  0.00    -0.268 OA
BRANCH  60  63
ATOM     63  C   UNL A   1      37.560  33.063  34.560  1.00  0.00     0.272 C 
ATOM     64  C   UNL A   1      38.865  32.769  35.316  1.00  0.00     0.076 C 
ATOM     65  N   UNL A   1      37.014  31.974  33.731  1.00  0.00    -0.333 N 
ATOM     66  C   UNL A   1      39.852  31.964  34.483  1.00  0.00     0.016 C 
ATOM     67  C   UNL A   1      37.961  31.062  33.103  1.00  0.00     0.186 C 
ATOM     68  H   UNL A   1      36.467  32.405  32.986  1.00  0.00     0.347 HD
ATOM     69  H   UNL A   1      36.489  31.393  34.384  1.00  0.00     0.347 HD
ATOM     70  C   UNL A   1      39.148  30.696  34.011  1.00  0.00     0.048 C 
ATOM     71  C   UNL A   1      37.189  29.782  32.740  1.00  0.00     0.065 C 
ATOM     72  C   UNL A   1      40.091  29.733  33.286  1.00  0.00     0.010 C 
ATOM     73  C   UNL A   1      38.090  28.726  32.101  1.00  0.00     0.006 C 
ATOM     74  C   UNL A   1      39.346  28.448  32.924  1.00  0.00     0.001 C 
ENDBRANCH  60  63
ENDBRANCH  58  59
ENDBRANCH  57  58
ENDBRANCH  56  57
ENDBRANCH   1  56
TORSDOF 11
ENDMDL
MODEL 2
REMARK VINA RESULT:      -9.2      0.435      6.213
REMARK SMILES O=C(NCCCCNC(=O)[C@H]1CC[C@@H]2CCCC[C@H]2[NH2+]1)c1ccc(-c2c3nc(c(-c4ccccc4)c4ccc([nH]4)c(-c4ccccc4)c4nc(c(-c5ccccc5)c5ccc2[nH]5)C=C4)C=C3)cc1
REMARK SMILES IDX 4 1 3 2 1 3 2 4 21 6 22 7 68 8 23 9 67 10 24 11 25 12 26 13
REMARK SMILES IDX 61 14 27 15 66 16 60 17 62 18 28 19 65 20 59 21 58 22 29 24
REMARK SMILES IDX 51 25 36 26 50 27 37 28 40 29 49 30 63 31 38 32 39 33 48 35
REMARK SMILES IDX 64 36 41 37 30 38 31 39 35 40 32 41 34 42 33 43 52 44 53 45
REMARK SMILES IDX 57 46 54 47 56 48 55 49 42 50 43 51 47 52 44 53 46 54 45 55
REMARK SMILES IDX 5 56 6 57 7 58 8 59 9 60 10 62 11 63 12 64 20 65 13 66 19 67
REMARK SMILES IDX 14 70 18 71 15 72 17 73 16 74
REMARK H PARENT 3 5 62 23 40 34 8 61 20 68 20 69
REMARK Flexibility Score: inf
ROOT
ATOM      1  C   UNL A   1      33.569  35.915  31.002  1.00  0.00     0.116 C 
ENDROOT
BRANCH   1   2
ATOM      2  N   UNL A   1      32.811  35.338  29.898  1.00  0.00    -0.352 N 
ATOM      3  O   UNL A   1      32.423  34.093  28.052  1.00  0.00    -0.269 OA
ATOM      4  C   UNL A   1      33.166  34.368  28.990  1.00  0.00     0.251 C 
ATOM      5  H   UNL A   1      31.902  35.700  29.785  1.00  0.00     0.163 HD
BRANCH   4   6
ATOM      6  C   UNL A   1      34.468  33.681  29.121  1.00  0.00     0.039 A 
ATOM      7  C   UNL A   1      34.643  32.679  30.073  1.00  0.00     0.014 A 
ATOM      8  C   UNL A   1      35.536  34.065  28.304  1.00  0.00     0.014 A 
ATOM      9  C   UNL A   1      35.921  32.217  30.354  1.00  0.00     0.010 A 
ATOM     10  C   UNL A   1      36.803  33.512  28.512  1.00  0.00     0.010 A 
ATOM     11  C   UNL A   1      37.016  32.621  29.574  1.00  0.00    -0.014 A 
BRANCH  11  12
ATOM     12  C   UNL A   1      38.357  32.058  29.879  1.00  0.00     0.031 A 
ATOM     13  C   UNL A   1      38.785  30.716  29.348  1.00  0.00     0.074 A 
ATOM     14  C   UNL A   1      39.223  32.811  30.586  1.00  0.00     0.049 A 
ATOM     15  N   UNL A   1      39.943  30.115  29.476  1.00  0.00    -0.248 NA
ATOM     16  C   UNL A   1      37.794  29.944  28.584  1.00  0.00     0.031 C 
ATOM     17  C   UNL A   1      38.923  34.129  31.154  1.00  0.00     0.029 A 
ATOM     18  N   UNL A   1      40.537  32.601  30.912  1.00  0.00    -0.354 N 
ATOM     19  C   UNL A   1      39.814  28.894  28.827  1.00  0.00     0.074 A 
ATOM     20  C   UNL A   1      38.459  28.826  28.324  1.00  0.00     0.031 C 
ATOM     21  C   UNL A   1      40.038  34.639  31.694  1.00  0.00     0.029 A 
ATOM     22  C   UNL A   1      41.109  33.659  31.576  1.00  0.00     0.049 A 
ATOM     23  H   UNL A   1      41.023  31.774  30.692  1.00  0.00     0.167 HD
ATOM     24  C   UNL A   1      40.742  27.921  28.658  1.00  0.00     0.031 A 
ATOM     25  C   UNL A   1      42.356  33.822  32.052  1.00  0.00     0.031 A 
ATOM     26  C   UNL A   1      42.092  27.989  29.156  1.00  0.00     0.049 A 
ATOM     27  C   UNL A   1      43.357  32.722  31.865  1.00  0.00     0.074 A 
ATOM     28  C   UNL A   1      43.105  27.052  29.037  1.00  0.00     0.029 A 
ATOM     29  N   UNL A   1      42.620  29.059  29.862  1.00  0.00    -0.354 N 
ATOM     30  N   UNL A   1      43.213  31.575  31.247  1.00  0.00    -0.248 NA
ATOM     31  C   UNL A   1      44.688  32.938  32.444  1.00  0.00     0.031 C 
ATOM     32  C   UNL A   1      44.235  27.540  29.705  1.00  0.00     0.029 A 
ATOM     33  C   UNL A   1      43.939  28.801  30.197  1.00  0.00     0.049 A 
ATOM     34  H   UNL A   1      42.130  29.881  30.091  1.00  0.00     0.167 HD
ATOM     35  C   UNL A   1      44.438  30.932  31.360  1.00  0.00     0.074 A 
ATOM     36  C   UNL A   1      45.320  31.832  32.076  1.00  0.00     0.031 C 
ATOM     37  C   UNL A   1      44.797  29.703  30.919  1.00  0.00     0.031 A 
BRANCH  24  38
ATOM     38  C   UNL A   1      40.325  26.679  27.919  1.00  0.00    -0.014 A 
ATOM     39  C   UNL A   1      40.712  26.462  26.586  1.00  0.00     0.009 A 
ATOM     40  C   UNL A   1      39.584  25.688  28.581  1.00  0.00     0.009 A 
ATOM     41  C   UNL A   1      40.342  25.288  25.926  1.00  0.00     0.001 A 
ATOM     42  C   UNL A   1      39.237  24.504  27.925  1.00  0.00     0.001 A 
ATOM     43  C   UNL A   1      39.610  24.308  26.597  1.00  0.00     0.000 A 
ENDBRANCH  24  38
BRANCH  25  44
ATOM     44  C   UNL A   1      42.714  35.071  32.772  1.00  0.00    -0.014 A 
ATOM     45  C   UNL A   1      42.441  35.216  34.139  1.00  0.00     0.009 A 
ATOM     46  C   UNL A   1      43.348  36.121  32.089  1.00  0.00     0.009 A 
ATOM     47  C   UNL A   1      42.780  36.397  34.804  1.00  0.00     0.001 A 
ATOM     48  C   UNL A   1      43.715  37.287  32.763  1.00  0.00     0.001 A 
ATOM     49  C   UNL A   1      43.421  37.427  34.117  1.00  0.00     0.000 A 
ENDBRANCH  25  44
BRANCH  37  50
ATOM     50  C   UNL A   1      46.210  29.278  31.189  1.00  0.00    -0.014 A 
ATOM     51  C   UNL A   1      47.241  29.581  30.287  1.00  0.00     0.009 A 
ATOM     52  C   UNL A   1      46.514  28.572  32.362  1.00  0.00     0.009 A 
ATOM     53  C   UNL A   1      48.546  29.149  30.536  1.00  0.00     0.001 A 
ATOM     54  C   UNL A   1      47.823  28.163  32.620  1.00  0.00     0.001 A 
ATOM     55  C   UNL A   1      48.835  28.442  31.703  1.00  0.00     0.000 A 
ENDBRANCH  37  50
ENDBRANCH  11  12
ENDBRANCH   4   6
ENDBRANCH   1   2
BRANCH   1  56
ATOM     56  C   UNL A   1      33.099  35.448  32.373  1.00  0.00     0.023 C 
BRANCH  56  57
ATOM     57  C   UNL A   1      33.946  34.359  33.018  1.00  0.00     0.023 C 
BRANCH  57  58
ATOM     58  C   UNL A   1      35.164  34.842  33.791  1.00  0.00     0.116 C 
BRANCH  58  59
ATOM     59  N   UNL A   1      35.376  34.200  35.076  1.00  0.00    -0.351 N 
ATOM     60  C   UNL A   1      36.485  33.480  35.461  1.00  0.00     0.278 C 
ATOM     61  H   UNL A   1      34.654  34.288  35.739  1.00  0.00     0.163 HD
ATOM     62  O   UNL A   1      36.578  33.137  36.642  1.00  0.00    -0.268 OA
BRANCH  60  63
ATOM     63  C   UNL A   1      37.541  33.038  34.409  1.00  0.00     0.272 C 
ATOM     64  C   UNL A   1      38.880  32.845  35.137  1.00  0.00     0.076 C 
ATOM     65  N   UNL A   1      37.016  31.878  33.667  1.00  0.00    -0.333 N 
ATOM     66  C   UNL A   1      39.874  32.030  34.322  1.00  0.00     0.016 C 
ATOM     67  C   UNL A   1      37.980  30.968  33.065  1.00  0.00     0.186 C 
ATOM     68  H   UNL A   1      36.428  32.239  32.916  1.00  0.00     0.347 HD
ATOM     69  H   UNL A   1      36.537  31.318  34.372  1.00  0.00     0.347 HD
ATOM     70  C   UNL A   1      39.210  30.707  33.953  1.00  0.00     0.048 C 
ATOM     71  C   UNL A   1      37.253  29.636  32.809  1.00  0.00     0.065 C 
ATOM     72  C   UNL A   1      40.170  29.740  33.257  1.00  0.00     0.010 C 
ATOM     73  C   UNL A   1      38.177  28.580  32.205  1.00  0.00     0.006 C 
ATOM     74  C   UNL A   1      39.470  28.405  33.000  1.00  0.00     0.001 C 
ENDBRANCH  60  63
ENDBRANCH  58  59
ENDBRANCH  57  58
ENDBRANCH  56  57
ENDBRANCH   1  56
TORSDOF 11
ENDMDL
MODEL 3
REMARK VINA RESULT:      -9.0      4.024      9.290
REMARK SMILES O=C(NCCCCNC(=O)[C@H]1CC[C@@H]2CCCC[C@H]2[NH2+]1)c1ccc(-c2c3nc(c(-c4ccccc4)c4ccc([nH]4)c(-c4ccccc4)c4nc(c(-c5ccccc5)c5ccc2[nH]5)C=C4)C=C3)cc1
REMARK SMILES IDX 4 1 3 2 1 3 2 4 21 6 22 7 68 8 23 9 67 10 24 11 25 12 26 13
REMARK SMILES IDX 61 14 27 15 66 16 60 17 62 18 28 19 65 20 59 21 58 22 29 24
REMARK SMILES IDX 51 25 36 26 50 27 37 28 40 29 49 30 63 31 38 32 39 33 48 35
REMARK SMILES IDX 64 36 41 37 30 38 31 39 35 40 32 41 34 42 33 43 52 44 53 45
REMARK SMILES IDX 57 46 54 47 56 48 55 49 42 50 43 51 47 52 44 53 46 54 45 55
REMARK SMILES IDX 5 56 6 57 7 58 8 59 9 60 10 62 11 63 12 64 20 65 13 66 19 67
REMARK SMILES IDX 14 70 18 71 15 72 17 73 16 74
REMARK H PARENT 3 5 62 23 40 34 8 61 20 68 20 69
REMARK Flexibility Score: inf
ROOT
ATOM      1  C   UNL A   1      36.475  23.860  25.898  1.00  0.00     0.116 C 
ENDROOT
BRANCH   1   2
ATOM      2  N   UNL A   1      37.467  22.792  25.917  1.00  0.00    -0.352 N 
ATOM      3  O   UNL A   1      39.502  21.828  26.127  1.00  0.00    -0.269 OA
ATOM      4  C   UNL A   1      38.791  22.817  26.291  1.00  0.00     0.251 C 
ATOM      5  H   UNL A   1      37.138  21.914  25.615  1.00  0.00     0.163 HD
BRANCH   4   6
ATOM      6  C   UNL A   1      39.371  24.053  26.855  1.00  0.00     0.039 A 
ATOM      7  C   UNL A   1      39.275  24.317  28.220  1.00  0.00     0.014 A 
ATOM      8  C   UNL A   1      39.991  24.974  26.006  1.00  0.00     0.014 A 
ATOM      9  C   UNL A   1      39.600  25.579  28.698  1.00  0.00     0.010 A 
ATOM     10  C   UNL A   1      40.424  26.203  26.511  1.00  0.00     0.010 A 
ATOM     11  C   UNL A   1      40.185  26.536  27.853  1.00  0.00    -0.014 A 
BRANCH  11  12
ATOM     12  C   UNL A   1      40.565  27.855  28.423  1.00  0.00     0.031 A 
ATOM     13  C   UNL A   1      39.545  28.940  28.640  1.00  0.00     0.074 A 
ATOM     14  C   UNL A   1      41.841  28.039  28.815  1.00  0.00     0.049 A 
ATOM     15  N   UNL A   1      39.709  30.122  29.183  1.00  0.00    -0.248 NA
ATOM     16  C   UNL A   1      38.170  28.675  28.190  1.00  0.00     0.031 C 
ATOM     17  C   UNL A   1      42.921  27.060  28.656  1.00  0.00     0.029 A 
ATOM     18  N   UNL A   1      42.438  29.088  29.464  1.00  0.00    -0.354 N 
ATOM     19  C   UNL A   1      38.469  30.745  29.123  1.00  0.00     0.074 A 
ATOM     20  C   UNL A   1      37.565  29.822  28.472  1.00  0.00     0.031 C 
ATOM     21  C   UNL A   1      44.026  27.524  29.254  1.00  0.00     0.029 A 
ATOM     22  C   UNL A   1      43.756  28.858  29.773  1.00  0.00     0.049 A 
ATOM     23  H   UNL A   1      41.968  29.925  29.686  1.00  0.00     0.167 HD
ATOM     24  C   UNL A   1      38.113  31.972  29.577  1.00  0.00     0.031 A 
ATOM     25  C   UNL A   1      44.658  29.637  30.396  1.00  0.00     0.031 A 
ATOM     26  C   UNL A   1      39.012  32.890  30.228  1.00  0.00     0.049 A 
ATOM     27  C   UNL A   1      44.240  30.996  30.872  1.00  0.00     0.074 A 
ATOM     28  C   UNL A   1      38.745  34.157  30.721  1.00  0.00     0.029 A 
ATOM     29  N   UNL A   1      40.351  32.637  30.483  1.00  0.00    -0.354 N 
ATOM     30  N   UNL A   1      43.062  31.565  30.805  1.00  0.00    -0.248 NA
ATOM     31  C   UNL A   1      45.279  31.819  31.505  1.00  0.00     0.031 C 
ATOM     32  C   UNL A   1      39.934  34.684  31.241  1.00  0.00     0.029 A 
ATOM     33  C   UNL A   1      40.927  33.727  31.114  1.00  0.00     0.049 A 
ATOM     34  H   UNL A   1      40.823  31.805  30.251  1.00  0.00     0.167 HD
ATOM     35  C   UNL A   1      43.214  32.814  31.392  1.00  0.00     0.074 A 
ATOM     36  C   UNL A   1      44.591  32.903  31.836  1.00  0.00     0.031 C 
ATOM     37  C   UNL A   1      42.300  33.802  31.539  1.00  0.00     0.031 A 
BRANCH  24  38
ATOM     38  C   UNL A   1      36.690  32.409  29.366  1.00  0.00    -0.014 A 
ATOM     39  C   UNL A   1      35.713  32.206  30.355  1.00  0.00     0.009 A 
ATOM     40  C   UNL A   1      36.332  33.081  28.187  1.00  0.00     0.009 A 
ATOM     41  C   UNL A   1      34.403  32.648  30.155  1.00  0.00     0.001 A 
ATOM     42  C   UNL A   1      35.027  33.543  28.001  1.00  0.00     0.001 A 
ATOM     43  C   UNL A   1      34.062  33.320  28.981  1.00  0.00     0.000 A 
ENDBRANCH  24  38
BRANCH  25  44
ATOM     44  C   UNL A   1      46.050  29.154  30.580  1.00  0.00    -0.014 A 
ATOM     45  C   UNL A   1      46.418  28.443  31.731  1.00  0.00     0.009 A 
ATOM     46  C   UNL A   1      47.015  29.390  29.588  1.00  0.00     0.009 A 
ATOM     47  C   UNL A   1      47.731  27.996  31.893  1.00  0.00     0.001 A 
ATOM     48  C   UNL A   1      48.318  28.914  29.738  1.00  0.00     0.001 A 
ATOM     49  C   UNL A   1      48.677  28.227  30.894  1.00  0.00     0.000 A 
ENDBRANCH  25  44
BRANCH  37  50
ATOM     50  C   UNL A   1      42.766  35.052  32.225  1.00  0.00    -0.014 A 
ATOM     51  C   UNL A   1      42.559  35.242  33.600  1.00  0.00     0.009 A 
ATOM     52  C   UNL A   1      43.423  36.048  31.489  1.00  0.00     0.009 A 
ATOM     53  C   UNL A   1      42.967  36.426  34.218  1.00  0.00     0.001 A 
ATOM     54  C   UNL A   1      43.853  37.220  32.114  1.00  0.00     0.001 A 
ATOM     55  C   UNL A   1      43.615  37.412  33.474  1.00  0.00     0.000 A 
ENDBRANCH  37  50
ENDBRANCH  11  12
ENDBRANCH   4   6
ENDBRANCH   1   2
BRANCH   1  56
ATOM     56  C   UNL A   1      35.704  23.952  24.589  1.00  0.00     0.023 C 
BRANCH  56  57
ATOM     57  C   UNL A   1      34.848  22.739  24.249  1.00  0.00     0.023 C 
BRANCH  57  58
ATOM     58  C   UNL A   1      33.344  22.955  24.315  1.00  0.00     0.116 C 
BRANCH  58  59
ATOM     59  N   UNL A   1      32.802  23.139  25.650  1.00  0.00    -0.351 N 
ATOM     60  C   UNL A   1      32.232  24.287  26.154  1.00  0.00     0.278 C 
ATOM     61  H   UNL A   1      32.847  22.365  26.256  1.00  0.00     0.163 HD
ATOM     62  O   UNL A   1      31.675  24.228  27.252  1.00  0.00    -0.268 OA
BRANCH  60  63
ATOM     63  C   UNL A   1      32.373  25.635  25.392  1.00  0.00     0.272 C 
ATOM     64  C   UNL A   1      30.965  26.224  25.212  1.00  0.00     0.076 C 
ATOM     65  N   UNL A   1      33.359  26.476  26.093  1.00  0.00    -0.333 N 
ATOM     66  C   UNL A   1      30.994  27.705  24.862  1.00  0.00     0.016 C 
ATOM     67  C   UNL A   1      33.252  27.920  25.933  1.00  0.00     0.186 C 
ATOM     68  H   UNL A   1      34.283  26.200  25.763  1.00  0.00     0.347 HD
ATOM     69  H   UNL A   1      33.178  26.312  27.084  1.00  0.00     0.347 HD
ATOM     70  C   UNL A   1      31.800  28.428  25.936  1.00  0.00     0.048 C 
ATOM     71  C   UNL A   1      34.016  28.567  27.101  1.00  0.00     0.065 C 
ATOM     72  C   UNL A   1      31.771  29.949  25.770  1.00  0.00     0.010 C 
ATOM     73  C   UNL A   1      33.947  30.093  27.062  1.00  0.00     0.006 C 
ATOM     74  C   UNL A   1      32.517  30.614  26.927  1.00  0.00     0.001 C 
ENDBRANCH  60  63
ENDBRANCH  58  59
ENDBRANCH  57  58
ENDBRANCH  56  57
ENDBRANCH   1  56
TORSDOF 11
ENDMDL
