MODEL 1
REMARK VINA RESULT:     -11.7      0.000      0.000
REMARK SMILES Cc1cc(Cl)ccc1-c1ccc(C(=O)NCCCCNC(=O)c2ccc(-c3c4nc(c(-c5ccccc5)c5ccc([nH]5)c(-c5ccccc5)c5nc(c(-c6ccccc6)c6ccc3[nH]6)C=C5)C=C4)cc2)c(Cl)c1
REMARK SMILES IDX 18 1 17 2 16 3 15 4 13 5 14 6 12 8 9 9 10 10 73 11 11 12
REMARK SMILES IDX 71 13 72 14 8 15 1 16 2 17 3 18 4 19 7 20 5 21 6 22 19 23
REMARK SMILES IDX 20 24 21 25 22 27 23 28 24 29 70 30 25 31 69 32 26 33 27 34
REMARK SMILES IDX 28 35 63 36 29 37 68 38 62 39 64 40 30 41 67 42 61 43 60 44
REMARK SMILES IDX 31 46 53 47 38 48 52 49 39 50 42 51 51 52 65 53 40 54 41 55
REMARK SMILES IDX 50 57 66 58 43 59 32 60 33 61 37 62 34 63 36 64 35 65 54 66
REMARK SMILES IDX 55 67 59 68 56 69 58 70 57 71 44 72 45 73 49 74 46 75 48 76
REMARK SMILES IDX 47 77
REMARK H PARENT 15 7 20 26 64 45 42 56
REMARK Flexibility Score: inf
ROOT
ATOM      1  C   UNL A   1      37.722  20.817  24.637  1.00  0.00     0.023 C 
ENDROOT
BRANCH   1   2
ATOM      2  C   UNL A   1      36.416  20.077  24.892  1.00  0.00     0.023 C 
BRANCH   2   3
ATOM      3  C   UNL A   1      35.135  20.916  24.797  1.00  0.00     0.116 C 
BRANCH   3   4
ATOM      4  N   UNL A   1      34.450  20.897  26.070  1.00  0.00    -0.352 N 
ATOM      5  C   UNL A   1      33.882  21.869  26.850  1.00  0.00     0.252 C 
ATOM      6  O   UNL A   1      33.468  21.496  27.952  1.00  0.00    -0.269 OA
ATOM      7  H   UNL A   1      34.375  19.996  26.459  1.00  0.00     0.163 HD
BRANCH   5   8
ATOM      8  C   UNL A   1      33.625  23.288  26.457  1.00  0.00     0.058 A 
ATOM      9  C   UNL A   1      32.814  26.000  26.089  1.00  0.00    -0.017 A 
ATOM     10  C   UNL A   1      31.928  25.074  26.629  1.00  0.00     0.009 A 
ATOM     11  C   UNL A   1      34.085  25.556  25.716  1.00  0.00     0.030 A 
ATOM     12  C   UNL A   1      32.324  23.739  26.792  1.00  0.00     0.016 A 
ATOM     13  C   UNL A   1      34.512  24.240  25.946  1.00  0.00     0.054 A 
ATOM     14  Cl  UNL A   1      36.205  24.061  25.729  1.00  0.00    -0.083 Cl
BRANCH   9  15
ATOM     15  C   UNL A   1      32.524  27.433  25.990  1.00  0.00    -0.015 A 
ATOM     16  C   UNL A   1      31.613  27.205  23.597  1.00  0.00     0.045 C 
ATOM     17  C   UNL A   1      31.893  27.991  24.853  1.00  0.00    -0.042 A 
ATOM     18  C   UNL A   1      31.504  29.342  24.877  1.00  0.00     0.024 A 
ATOM     19  C   UNL A   1      31.713  30.121  26.014  1.00  0.00     0.041 A 
ATOM     20  C   UNL A   1      32.743  28.246  27.117  1.00  0.00     0.010 A 
ATOM     21  Cl  UNL A   1      31.176  31.755  26.039  1.00  0.00    -0.084 Cl
ATOM     22  C   UNL A   1      32.336  29.580  27.132  1.00  0.00     0.021 A 
ENDBRANCH   9  15
ENDBRANCH   5   8
ENDBRANCH   3   4
ENDBRANCH   2   3
ENDBRANCH   1   2
BRANCH   1  23
ATOM     23  C   UNL A   1      38.715  20.756  25.786  1.00  0.00     0.116 C 
BRANCH  23  24
ATOM     24  N   UNL A   1      39.691  19.680  25.671  1.00  0.00    -0.352 N 
ATOM     25  C   UNL A   1      41.022  19.710  26.008  1.00  0.00     0.251 C 
ATOM     26  H   UNL A   1      39.355  18.828  25.310  1.00  0.00     0.163 HD
ATOM     27  O   UNL A   1      41.751  18.746  25.805  1.00  0.00    -0.269 OA
BRANCH  25  28
ATOM     28  C   UNL A   1      41.571  20.957  26.569  1.00  0.00     0.039 A 
ATOM     29  C   UNL A   1      42.071  21.924  25.695  1.00  0.00     0.014 A 
ATOM     30  C   UNL A   1      41.488  21.204  27.941  1.00  0.00     0.014 A 
ATOM     31  C   UNL A   1      42.418  23.178  26.194  1.00  0.00     0.010 A 
ATOM     32  C   UNL A   1      41.755  22.479  28.422  1.00  0.00     0.010 A 
ATOM     33  C   UNL A   1      42.220  23.477  27.552  1.00  0.00    -0.014 A 
BRANCH  33  34
ATOM     34  C   UNL A   1      42.501  24.827  28.091  1.00  0.00     0.031 A 
ATOM     35  C   UNL A   1      43.891  25.174  28.541  1.00  0.00     0.074 A 
ATOM     36  C   UNL A   1      41.496  25.712  28.238  1.00  0.00     0.049 A 
ATOM     37  N   UNL A   1      44.327  26.271  29.104  1.00  0.00    -0.248 NA
ATOM     38  C   UNL A   1      44.924  24.140  28.358  1.00  0.00     0.031 C 
ATOM     39  C   UNL A   1      40.095  25.476  27.880  1.00  0.00     0.029 A 
ATOM     40  N   UNL A   1      41.501  26.990  28.735  1.00  0.00    -0.354 N 
ATOM     41  C   UNL A   1      45.674  26.053  29.354  1.00  0.00     0.074 A 
ATOM     42  C   UNL A   1      45.973  24.702  28.936  1.00  0.00     0.031 C 
ATOM     43  C   UNL A   1      39.382  26.586  28.142  1.00  0.00     0.029 A 
ATOM     44  C   UNL A   1      40.267  27.592  28.718  1.00  0.00     0.049 A 
ATOM     45  H   UNL A   1      42.313  27.434  29.073  1.00  0.00     0.167 HD
ATOM     46  C   UNL A   1      46.591  26.910  29.863  1.00  0.00     0.031 A 
ATOM     47  C   UNL A   1      39.893  28.820  29.123  1.00  0.00     0.031 A 
ATOM     48  C   UNL A   1      46.297  28.257  30.265  1.00  0.00     0.049 A 
ATOM     49  C   UNL A   1      40.928  29.749  29.692  1.00  0.00     0.074 A 
ATOM     50  C   UNL A   1      47.163  29.220  30.756  1.00  0.00     0.029 A 
ATOM     51  N   UNL A   1      45.038  28.835  30.216  1.00  0.00    -0.354 N 
ATOM     52  N   UNL A   1      42.211  29.548  29.871  1.00  0.00    -0.248 NA
ATOM     53  C   UNL A   1      40.463  31.081  30.105  1.00  0.00     0.031 C 
ATOM     54  C   UNL A   1      46.420  30.371  31.035  1.00  0.00     0.029 A 
ATOM     55  C   UNL A   1      45.101  30.138  30.678  1.00  0.00     0.049 A 
ATOM     56  H   UNL A   1      44.222  28.386  29.900  1.00  0.00     0.167 HD
ATOM     57  C   UNL A   1      42.711  30.735  30.388  1.00  0.00     0.074 A 
ATOM     58  C   UNL A   1      41.597  31.656  30.481  1.00  0.00     0.031 C 
ATOM     59  C   UNL A   1      43.981  31.038  30.754  1.00  0.00     0.031 A 
BRANCH  46  60
ATOM     60  C   UNL A   1      47.998  26.406  30.000  1.00  0.00    -0.014 A 
ATOM     61  C   UNL A   1      48.919  26.543  28.949  1.00  0.00     0.009 A 
ATOM     62  C   UNL A   1      48.416  25.803  31.197  1.00  0.00     0.009 A 
ATOM     63  C   UNL A   1      50.221  26.055  29.080  1.00  0.00     0.001 A 
ATOM     64  C   UNL A   1      49.726  25.340  31.334  1.00  0.00     0.001 A 
ATOM     65  C   UNL A   1      50.623  25.458  30.273  1.00  0.00     0.000 A 
ENDBRANCH  46  60
BRANCH  47  66
ATOM     66  C   UNL A   1      38.479  29.256  28.990  1.00  0.00    -0.014 A 
ATOM     67  C   UNL A   1      38.003  29.751  27.765  1.00  0.00     0.009 A 
ATOM     68  C   UNL A   1      37.605  29.204  30.086  1.00  0.00     0.009 A 
ATOM     69  C   UNL A   1      36.691  30.214  27.650  1.00  0.00     0.001 A 
ATOM     70  C   UNL A   1      36.285  29.643  29.961  1.00  0.00     0.001 A 
ATOM     71  C   UNL A   1      35.832  30.157  28.748  1.00  0.00     0.000 A 
ENDBRANCH  47  66
BRANCH  59  72
ATOM     72  C   UNL A   1      44.235  32.432  31.249  1.00  0.00    -0.014 A 
ATOM     73  C   UNL A   1      44.172  32.741  32.616  1.00  0.00     0.009 A 
ATOM     74  C   UNL A   1      44.580  33.439  30.335  1.00  0.00     0.009 A 
ATOM     75  C   UNL A   1      44.420  34.043  33.054  1.00  0.00     0.001 A 
ATOM     76  C   UNL A   1      44.853  34.733  30.779  1.00  0.00     0.001 A 
ATOM     77  C   UNL A   1      44.764  35.036  32.137  1.00  0.00     0.000 A 
ENDBRANCH  59  72
ENDBRANCH  33  34
ENDBRANCH  25  28
ENDBRANCH  23  24
ENDBRANCH   1  23
TORSDOF 12
ENDMDL
MODEL 2
REMARK VINA RESULT:     -11.7      2.749      7.857
REMARK SMILES Cc1cc(Cl)ccc1-c1ccc(C(=O)NCCCCNC(=O)c2ccc(-c3c4nc(c(-c5ccccc5)c5ccc([nH]5)c(-c5ccccc5)c5nc(c(-c6ccccc6)c6ccc3[nH]6)C=C5)C=C4)cc2)c(Cl)c1
REMARK SMILES IDX 18 1 17 2 16 3 15 4 13 5 14 6 12 8 9 9 10 10 73 11 11 12
REMARK SMILES IDX 71 13 72 14 8 15 1 16 2 17 3 18 4 19 7 20 5 21 6 22 19 23
REMARK SMILES IDX 20 24 21 25 22 27 23 28 24 29 70 30 25 31 69 32 26 33 27 34
REMARK SMILES IDX 28 35 63 36 29 37 68 38 62 39 64 40 30 41 67 42 61 43 60 44
REMARK SMILES IDX 31 46 53 47 38 48 52 49 39 50 42 51 51 52 65 53 40 54 41 55
REMARK SMILES IDX 50 57 66 58 43 59 32 60 33 61 37 62 34 63 36 64 35 65 54 66
REMARK SMILES IDX 55 67 59 68 56 69 58 70 57 71 44 72 45 73 49 74 46 75 48 76
REMARK SMILES IDX 47 77
REMARK H PARENT 15 7 20 26 64 45 42 56
REMARK Flexibility Score: inf
ROOT
ATOM      1  C   UNL A   1      33.826  28.755  25.794  1.00  0.00     0.023 C 
ENDROOT
BRANCH   1   2
ATOM      2  C   UNL A   1      32.925  29.610  24.914  1.00  0.00     0.023 C 
BRANCH   2   3
ATOM      3  C   UNL A   1      31.416  29.463  25.148  1.00  0.00     0.116 C 
BRANCH   3   4
ATOM      4  N   UNL A   1      30.794  28.910  23.965  1.00  0.00    -0.352 N 
ATOM      5  C   UNL A   1      30.987  27.760  23.247  1.00  0.00     0.252 C 
ATOM      6  O   UNL A   1      30.330  27.664  22.206  1.00  0.00    -0.269 OA
ATOM      7  H   UNL A   1      30.081  29.482  23.597  1.00  0.00     0.163 HD
BRANCH   5   8
ATOM      8  C   UNL A   1      31.820  26.588  23.653  1.00  0.00     0.058 A 
ATOM      9  C   UNL A   1      33.783  24.587  24.195  1.00  0.00    -0.017 A 
ATOM     10  C   UNL A   1      33.877  25.364  23.044  1.00  0.00     0.009 A 
ATOM     11  C   UNL A   1      32.697  24.802  25.048  1.00  0.00     0.030 A 
ATOM     12  C   UNL A   1      32.901  26.334  22.773  1.00  0.00     0.016 A 
ATOM     13  C   UNL A   1      31.761  25.821  24.820  1.00  0.00     0.054 A 
ATOM     14  Cl  UNL A   1      30.758  26.095  26.185  1.00  0.00    -0.083 Cl
BRANCH   9  15
ATOM     15  C   UNL A   1      34.815  23.635  24.613  1.00  0.00    -0.015 A 
ATOM     16  C   UNL A   1      33.406  21.609  23.891  1.00  0.00     0.045 C 
ATOM     17  C   UNL A   1      34.675  22.242  24.405  1.00  0.00    -0.042 A 
ATOM     18  C   UNL A   1      35.759  21.393  24.688  1.00  0.00     0.024 A 
ATOM     19  C   UNL A   1      36.968  21.913  25.145  1.00  0.00     0.041 A 
ATOM     20  C   UNL A   1      36.039  24.133  25.096  1.00  0.00     0.010 A 
ATOM     21  Cl  UNL A   1      38.298  20.860  25.429  1.00  0.00    -0.084 Cl
ATOM     22  C   UNL A   1      37.111  23.280  25.355  1.00  0.00     0.021 A 
ENDBRANCH   9  15
ENDBRANCH   5   8
ENDBRANCH   3   4
ENDBRANCH   2   3
ENDBRANCH   1   2
BRANCH   1  23
ATOM     23  C   UNL A   1      33.545  28.869  27.282  1.00  0.00     0.116 C 
BRANCH  23  24
ATOM     24  N   UNL A   1      33.574  30.235  27.789  1.00  0.00    -0.352 N 
ATOM     25  C   UNL A   1      34.633  30.900  28.358  1.00  0.00     0.251 C 
ATOM     26  H   UNL A   1      32.735  30.743  27.713  1.00  0.00     0.163 HD
ATOM     27  O   UNL A   1      34.507  32.036  28.799  1.00  0.00    -0.269 OA
BRANCH  25  28
ATOM     28  C   UNL A   1      35.918  30.190  28.479  1.00  0.00     0.039 A 
ATOM     29  C   UNL A   1      36.824  30.256  27.419  1.00  0.00     0.014 A 
ATOM     30  C   UNL A   1      36.259  29.556  29.676  1.00  0.00     0.014 A 
ATOM     31  C   UNL A   1      38.112  29.750  27.592  1.00  0.00     0.010 A 
ATOM     32  C   UNL A   1      37.565  29.129  29.874  1.00  0.00     0.010 A 
ATOM     33  C   UNL A   1      38.503  29.224  28.834  1.00  0.00    -0.014 A 
BRANCH  33  34
ATOM     34  C   UNL A   1      39.888  28.757  29.070  1.00  0.00     0.031 A 
ATOM     35  C   UNL A   1      40.890  29.687  29.691  1.00  0.00     0.074 A 
ATOM     36  C   UNL A   1      40.258  27.527  28.664  1.00  0.00     0.049 A 
ATOM     37  N   UNL A   1      42.164  29.496  29.915  1.00  0.00    -0.248 NA
ATOM     38  C   UNL A   1      40.401  31.018  30.089  1.00  0.00     0.031 C 
ATOM     39  C   UNL A   1      39.387  26.549  28.007  1.00  0.00     0.029 A 
ATOM     40  N   UNL A   1      41.471  26.892  28.741  1.00  0.00    -0.354 N 
ATOM     41  C   UNL A   1      42.629  30.683  30.464  1.00  0.00     0.074 A 
ATOM     42  C   UNL A   1      41.518  31.607  30.487  1.00  0.00     0.031 C 
ATOM     43  C   UNL A   1      40.088  25.427  27.769  1.00  0.00     0.029 A 
ATOM     44  C   UNL A   1      41.461  25.621  28.221  1.00  0.00     0.049 A 
ATOM     45  H   UNL A   1      42.274  27.309  29.131  1.00  0.00     0.167 HD
ATOM     46  C   UNL A   1      43.866  30.972  30.933  1.00  0.00     0.031 A 
ATOM     47  C   UNL A   1      42.452  24.714  28.122  1.00  0.00     0.031 A 
ATOM     48  C   UNL A   1      44.967  30.049  30.924  1.00  0.00     0.049 A 
ATOM     49  C   UNL A   1      43.817  25.063  28.643  1.00  0.00     0.074 A 
ATOM     50  C   UNL A   1      46.249  30.231  31.412  1.00  0.00     0.029 A 
ATOM     51  N   UNL A   1      44.911  28.765  30.405  1.00  0.00    -0.354 N 
ATOM     52  N   UNL A   1      44.228  26.171  29.211  1.00  0.00    -0.248 NA
ATOM     53  C   UNL A   1      44.855  24.030  28.518  1.00  0.00     0.031 C 
ATOM     54  C   UNL A   1      46.981  29.066  31.157  1.00  0.00     0.029 A 
ATOM     55  C   UNL A   1      46.140  28.146  30.550  1.00  0.00     0.049 A 
ATOM     56  H   UNL A   1      44.117  28.355  29.994  1.00  0.00     0.167 HD
ATOM     57  C   UNL A   1      45.560  25.958  29.537  1.00  0.00     0.074 A 
ATOM     58  C   UNL A   1      45.884  24.610  29.117  1.00  0.00     0.031 C 
ATOM     59  C   UNL A   1      46.438  26.801  30.132  1.00  0.00     0.031 A 
BRANCH  46  60
ATOM     60  C   UNL A   1      44.079  32.344  31.502  1.00  0.00    -0.014 A 
ATOM     61  C   UNL A   1      43.866  32.601  32.866  1.00  0.00     0.009 A 
ATOM     62  C   UNL A   1      44.515  33.390  30.673  1.00  0.00     0.009 A 
ATOM     63  C   UNL A   1      44.049  33.886  33.382  1.00  0.00     0.001 A 
ATOM     64  C   UNL A   1      44.723  34.667  31.197  1.00  0.00     0.001 A 
ATOM     65  C   UNL A   1      44.481  34.915  32.548  1.00  0.00     0.000 A 
ENDBRANCH  46  60
BRANCH  47  66
ATOM     66  C   UNL A   1      42.190  23.380  27.523  1.00  0.00    -0.014 A 
ATOM     67  C   UNL A   1      41.596  22.364  28.288  1.00  0.00     0.009 A 
ATOM     68  C   UNL A   1      42.552  23.106  26.195  1.00  0.00     0.009 A 
ATOM     69  C   UNL A   1      41.400  21.092  27.747  1.00  0.00     0.001 A 
ATOM     70  C   UNL A   1      42.330  21.840  25.648  1.00  0.00     0.001 A 
ATOM     71  C   UNL A   1      41.765  20.832  26.427  1.00  0.00     0.000 A 
ENDBRANCH  47  66
BRANCH  59  72
ATOM     72  C   UNL A   1      47.817  26.275  30.399  1.00  0.00    -0.014 A 
ATOM     73  C   UNL A   1      48.171  25.768  31.659  1.00  0.00     0.009 A 
ATOM     74  C   UNL A   1      48.762  26.251  29.361  1.00  0.00     0.009 A 
ATOM     75  C   UNL A   1      49.459  25.276  31.881  1.00  0.00     0.001 A 
ATOM     76  C   UNL A   1      50.039  25.734  29.581  1.00  0.00     0.001 A 
ATOM     77  C   UNL A   1      50.390  25.255  30.842  1.00  0.00     0.000 A 
ENDBRANCH  59  72
ENDBRANCH  33  34
ENDBRANCH  25  28
ENDBRANCH  23  24
ENDBRANCH   1  23
TORSDOF 12
ENDMDL
MODEL 3
REMARK VINA RESULT:     -11.7      0.382      5.992
REMARK SMILES Cc1cc(Cl)ccc1-c1ccc(C(=O)NCCCCNC(=O)c2ccc(-c3c4nc(c(-c5ccccc5)c5ccc([nH]5)c(-c5ccccc5)c5nc(c(-c6ccccc6)c6ccc3[nH]6)C=C5)C=C4)cc2)c(Cl)c1
REMARK SMILES IDX 18 1 17 2 16 3 15 4 13 5 14 6 12 8 9 9 10 10 73 11 11 12
REMARK SMILES IDX 71 13 72 14 8 15 1 16 2 17 3 18 4 19 7 20 5 21 6 22 19 23
REMARK SMILES IDX 20 24 21 25 22 27 23 28 24 29 70 30 25 31 69 32 26 33 27 34
REMARK SMILES IDX 28 35 63 36 29 37 68 38 62 39 64 40 30 41 67 42 61 43 60 44
REMARK SMILES IDX 31 46 53 47 38 48 52 49 39 50 42 51 51 52 65 53 40 54 41 55
REMARK SMILES IDX 50 57 66 58 43 59 32 60 33 61 37 62 34 63 36 64 35 65 54 66
REMARK SMILES IDX 55 67 59 68 56 69 58 70 57 71 44 72 45 73 49 74 46 75 48 76
REMARK SMILES IDX 47 77
REMARK H PARENT 15 7 20 26 64 45 42 56
REMARK Flexibility Score: inf
ROOT
ATOM      1  C   UNL A   1      37.607  21.111  24.663  1.00  0.00     0.023 C 
ENDROOT
BRANCH   1   2
ATOM      2  C   UNL A   1      36.377  20.268  24.965  1.00  0.00     0.023 C 
BRANCH   2   3
ATOM      3  C   UNL A   1      35.021  20.967  24.802  1.00  0.00     0.116 C 
BRANCH   3   4
ATOM      4  N   UNL A   1      34.311  20.947  26.061  1.00  0.00    -0.352 N 
ATOM      5  C   UNL A   1      33.739  21.918  26.838  1.00  0.00     0.252 C 
ATOM      6  O   UNL A   1      33.300  21.541  27.929  1.00  0.00    -0.269 OA
ATOM      7  H   UNL A   1      34.219  20.043  26.441  1.00  0.00     0.163 HD
BRANCH   5   8
ATOM      8  C   UNL A   1      33.505  23.343  26.452  1.00  0.00     0.058 A 
ATOM      9  C   UNL A   1      32.728  26.065  26.089  1.00  0.00    -0.017 A 
ATOM     10  C   UNL A   1      31.819  25.142  26.595  1.00  0.00     0.009 A 
ATOM     11  C   UNL A   1      34.005  25.614  25.747  1.00  0.00     0.030 A 
ATOM     12  C   UNL A   1      32.200  23.802  26.756  1.00  0.00     0.016 A 
ATOM     13  C   UNL A   1      34.414  24.292  25.976  1.00  0.00     0.054 A 
ATOM     14  Cl  UNL A   1      36.111  24.100  25.804  1.00  0.00    -0.083 Cl
BRANCH   9  15
ATOM     15  C   UNL A   1      32.454  27.502  25.996  1.00  0.00    -0.015 A 
ATOM     16  C   UNL A   1      31.257  27.248  23.735  1.00  0.00     0.045 C 
ATOM     17  C   UNL A   1      31.700  28.051  24.932  1.00  0.00    -0.042 A 
ATOM     18  C   UNL A   1      31.340  29.410  24.975  1.00  0.00     0.024 A 
ATOM     19  C   UNL A   1      31.697  30.206  26.062  1.00  0.00     0.041 A 
ATOM     20  C   UNL A   1      32.820  28.331  27.072  1.00  0.00     0.010 A 
ATOM     21  Cl  UNL A   1      31.196  31.850  26.118  1.00  0.00    -0.084 Cl
ATOM     22  C   UNL A   1      32.441  29.673  27.108  1.00  0.00     0.021 A 
ENDBRANCH   9  15
ENDBRANCH   5   8
ENDBRANCH   3   4
ENDBRANCH   2   3
ENDBRANCH   1   2
BRANCH   1  23
ATOM     23  C   UNL A   1      38.674  21.079  25.744  1.00  0.00     0.116 C 
BRANCH  23  24
ATOM     24  N   UNL A   1      39.543  19.911  25.688  1.00  0.00    -0.352 N 
ATOM     25  C   UNL A   1      40.858  19.818  26.074  1.00  0.00     0.251 C 
ATOM     26  H   UNL A   1      39.138  19.088  25.331  1.00  0.00     0.163 HD
ATOM     27  O   UNL A   1      41.495  18.784  25.919  1.00  0.00    -0.269 OA
BRANCH  25  28
ATOM     28  C   UNL A   1      41.506  21.019  26.632  1.00  0.00     0.039 A 
ATOM     29  C   UNL A   1      42.038  21.964  25.753  1.00  0.00     0.014 A 
ATOM     30  C   UNL A   1      41.487  21.250  28.009  1.00  0.00     0.014 A 
ATOM     31  C   UNL A   1      42.483  23.185  26.256  1.00  0.00     0.010 A 
ATOM     32  C   UNL A   1      41.853  22.497  28.496  1.00  0.00     0.010 A 
ATOM     33  C   UNL A   1      42.352  23.476  27.623  1.00  0.00    -0.014 A 
BRANCH  33  34
ATOM     34  C   UNL A   1      42.739  24.797  28.169  1.00  0.00     0.031 A 
ATOM     35  C   UNL A   1      41.695  25.858  28.360  1.00  0.00     0.074 A 
ATOM     36  C   UNL A   1      44.035  25.061  28.427  1.00  0.00     0.049 A 
ATOM     37  N   UNL A   1      41.838  27.096  28.756  1.00  0.00    -0.248 NA
ATOM     38  C   UNL A   1      40.306  25.485  28.038  1.00  0.00     0.031 C 
ATOM     39  C   UNL A   1      45.149  24.127  28.239  1.00  0.00     0.029 A 
ATOM     40  N   UNL A   1      44.634  26.201  28.899  1.00  0.00    -0.354 N 
ATOM     41  C   UNL A   1      40.567  27.651  28.716  1.00  0.00     0.074 A 
ATOM     42  C   UNL A   1      39.674  26.636  28.204  1.00  0.00     0.031 C 
ATOM     43  C   UNL A   1      46.291  24.724  28.621  1.00  0.00     0.029 A 
ATOM     44  C   UNL A   1      45.995  26.088  29.044  1.00  0.00     0.049 A 
ATOM     45  H   UNL A   1      44.136  27.022  29.112  1.00  0.00     0.167 HD
ATOM     46  C   UNL A   1      40.171  28.888  29.096  1.00  0.00     0.031 A 
ATOM     47  C   UNL A   1      46.902  26.987  29.470  1.00  0.00     0.031 A 
ATOM     48  C   UNL A   1      41.056  29.892  29.619  1.00  0.00     0.049 A 
ATOM     49  C   UNL A   1      46.437  28.357  29.879  1.00  0.00     0.074 A 
ATOM     50  C   UNL A   1      40.748  31.164  30.071  1.00  0.00     0.029 A 
ATOM     51  N   UNL A   1      42.425  29.733  29.766  1.00  0.00    -0.354 N 
ATOM     52  N   UNL A   1      45.222  28.849  29.888  1.00  0.00    -0.248 NA
ATOM     53  C   UNL A   1      47.470  29.292  30.347  1.00  0.00     0.031 C 
ATOM     54  C   UNL A   1      41.937  31.787  30.461  1.00  0.00     0.029 A 
ATOM     55  C   UNL A   1      42.978  30.887  30.292  1.00  0.00     0.049 A 
ATOM     56  H   UNL A   1      42.928  28.921  29.532  1.00  0.00     0.167 HD
ATOM     57  C   UNL A   1      45.340  30.138  30.389  1.00  0.00     0.074 A 
ATOM     58  C   UNL A   1      46.743  30.346  30.686  1.00  0.00     0.031 C 
ATOM     59  C   UNL A   1      44.375  31.069  30.587  1.00  0.00     0.031 A 
BRANCH  46  60
ATOM     60  C   UNL A   1      38.711  29.211  28.965  1.00  0.00    -0.014 A 
ATOM     61  C   UNL A   1      38.182  29.683  27.753  1.00  0.00     0.009 A 
ATOM     62  C   UNL A   1      37.849  29.025  30.057  1.00  0.00     0.009 A 
ATOM     63  C   UNL A   1      36.825  29.997  27.648  1.00  0.00     0.001 A 
ATOM     64  C   UNL A   1      36.488  29.315  29.940  1.00  0.00     0.001 A 
ATOM     65  C   UNL A   1      35.981  29.809  28.739  1.00  0.00     0.000 A 
ENDBRANCH  46  60
BRANCH  47  66
ATOM     66  C   UNL A   1      48.339  26.622  29.553  1.00  0.00    -0.014 A 
ATOM     67  C   UNL A   1      49.214  26.942  28.503  1.00  0.00     0.009 A 
ATOM     68  C   UNL A   1      48.841  25.934  30.668  1.00  0.00     0.009 A 
ATOM     69  C   UNL A   1      50.554  26.551  28.553  1.00  0.00     0.001 A 
ATOM     70  C   UNL A   1      50.188  25.568  30.728  1.00  0.00     0.001 A 
ATOM     71  C   UNL A   1      51.040  25.867  29.666  1.00  0.00     0.000 A 
ENDBRANCH  47  66
BRANCH  59  72
ATOM     72  C   UNL A   1      44.799  32.376  31.188  1.00  0.00    -0.014 A 
ATOM     73  C   UNL A   1      45.170  33.461  30.380  1.00  0.00     0.009 A 
ATOM     74  C   UNL A   1      44.789  32.534  32.583  1.00  0.00     0.009 A 
ATOM     75  C   UNL A   1      45.553  34.672  30.961  1.00  0.00     0.001 A 
ATOM     76  C   UNL A   1      45.148  33.753  33.159  1.00  0.00     0.001 A 
ATOM     77  C   UNL A   1      45.538  34.818  32.348  1.00  0.00     0.000 A 
ENDBRANCH  59  72
ENDBRANCH  33  34
ENDBRANCH  25  28
ENDBRANCH  23  24
ENDBRANCH   1  23
TORSDOF 12
ENDMDL
