MODEL 1
REMARK VINA RESULT:     -11.2      0.000      0.000
REMARK SMILES O=C(NCc1ccc(C(=O)NCCCCNC(=O)c2ccc(-c3c4nc(c(-c5ccccc5)c5ccc([nH]5)c(-c5ccccc5)c5nc(c(-c6ccccc6)c6ccc3[nH]6)C=C5)C=C4)cc2)cc1)Nc1ccccc1Br
REMARK SMILES IDX 13 1 12 2 11 3 9 4 10 5 8 7 5 8 6 9 68 10 7 11 67 12 4 13
REMARK SMILES IDX 3 14 1 15 2 16 69 17 70 20 71 21 75 22 72 23 74 24 76 25
REMARK SMILES IDX 73 26 14 27 15 28 16 29 17 30 18 32 19 33 20 34 66 35 21 36
REMARK SMILES IDX 65 37 22 38 23 39 24 40 59 41 25 42 64 43 58 44 60 45 26 46
REMARK SMILES IDX 63 47 57 48 56 49 27 51 49 52 34 53 48 54 35 55 38 56 47 57
REMARK SMILES IDX 61 58 36 59 37 60 46 62 62 63 39 64 28 65 29 66 33 67 30 68
REMARK SMILES IDX 32 69 31 70 50 71 51 72 55 73 52 74 54 75 53 76 40 77 41 78
REMARK SMILES IDX 45 79 42 80 44 81 43 82
REMARK H PARENT 11 6 3 18 69 19 16 31 60 50 38 61
REMARK Flexibility Score: inf
ROOT
ATOM      1  C   UNL A   1      35.909  21.498  25.799  1.00  0.00     0.023 C 
ENDROOT
BRANCH   1   2
ATOM      2  C   UNL A   1      34.691  21.407  26.720  1.00  0.00     0.116 C 
BRANCH   2   3
ATOM      3  N   UNL A   1      33.758  20.406  26.240  1.00  0.00    -0.352 N 
ATOM      4  C   UNL A   1      32.723  20.480  25.342  1.00  0.00     0.251 C 
ATOM      5  O   UNL A   1      32.118  19.441  25.077  1.00  0.00    -0.269 OA
ATOM      6  H   UNL A   1      33.892  19.511  26.628  1.00  0.00     0.163 HD
BRANCH   4   7
ATOM      7  C   UNL A   1      32.342  21.740  24.647  1.00  0.00     0.039 A 
ATOM      8  C   UNL A   1      31.756  24.107  23.212  1.00  0.00    -0.029 A 
ATOM      9  C   UNL A   1      32.527  23.092  22.631  1.00  0.00     0.006 A 
ATOM     10  C   UNL A   1      31.225  23.890  24.491  1.00  0.00     0.006 A 
ATOM     11  C   UNL A   1      32.825  21.927  23.345  1.00  0.00     0.014 A 
ATOM     12  C   UNL A   1      31.498  22.710  25.190  1.00  0.00     0.014 A 
BRANCH   8  13
ATOM     13  C   UNL A   1      31.405  25.387  22.494  1.00  0.00     0.153 C 
BRANCH  13  14
ATOM     14  N   UNL A   1      32.542  26.251  22.262  1.00  0.00    -0.334 N 
ATOM     15  O   UNL A   1      34.018  27.874  22.610  1.00  0.00    -0.248 OA
ATOM     16  C   UNL A   1      33.105  27.196  23.065  1.00  0.00     0.319 C 
ATOM     17  N   UNL A   1      32.625  27.256  24.342  1.00  0.00    -0.307 N 
ATOM     18  H   UNL A   1      32.977  26.139  21.387  1.00  0.00     0.165 HD
ATOM     19  H   UNL A   1      32.040  26.520  24.634  1.00  0.00     0.171 HD
BRANCH  17  20
ATOM     20  C   UNL A   1      32.888  28.276  25.285  1.00  0.00     0.057 A 
ATOM     21  C   UNL A   1      33.869  27.968  26.243  1.00  0.00     0.027 A 
ATOM     22  C   UNL A   1      32.241  29.520  25.361  1.00  0.00     0.041 A 
ATOM     23  C   UNL A   1      34.260  28.905  27.201  1.00  0.00     0.002 A 
ATOM     24  C   UNL A   1      32.645  30.460  26.321  1.00  0.00     0.018 A 
ATOM     25  Br  UNL A   1      30.665  29.966  24.390  1.00  0.00    -0.049 Br
ATOM     26  C   UNL A   1      33.661  30.159  27.229  1.00  0.00     0.001 A 
ENDBRANCH  17  20
ENDBRANCH  13  14
ENDBRANCH   8  13
ENDBRANCH   4   7
ENDBRANCH   2   3
ENDBRANCH   1   2
BRANCH   1  27
ATOM     27  C   UNL A   1      36.014  22.814  25.022  1.00  0.00     0.023 C 
BRANCH  27  28
ATOM     28  C   UNL A   1      37.423  23.385  24.905  1.00  0.00     0.116 C 
BRANCH  28  29
ATOM     29  N   UNL A   1      38.446  22.507  25.452  1.00  0.00    -0.352 N 
ATOM     30  C   UNL A   1      39.464  22.813  26.326  1.00  0.00     0.251 C 
ATOM     31  H   UNL A   1      38.405  21.568  25.156  1.00  0.00     0.163 HD
ATOM     32  O   UNL A   1      40.309  21.978  26.616  1.00  0.00    -0.269 OA
BRANCH  30  33
ATOM     33  C   UNL A   1      39.551  24.181  26.873  1.00  0.00     0.039 A 
ATOM     34  C   UNL A   1      38.982  24.441  28.122  1.00  0.00     0.014 A 
ATOM     35  C   UNL A   1      40.241  25.181  26.183  1.00  0.00     0.014 A 
ATOM     36  C   UNL A   1      39.186  25.683  28.724  1.00  0.00     0.010 A 
ATOM     37  C   UNL A   1      40.488  26.400  26.807  1.00  0.00     0.010 A 
ATOM     38  C   UNL A   1      39.982  26.652  28.092  1.00  0.00    -0.014 A 
BRANCH  38  39
ATOM     39  C   UNL A   1      40.354  27.908  28.785  1.00  0.00     0.031 A 
ATOM     40  C   UNL A   1      41.676  28.031  29.485  1.00  0.00     0.074 A 
ATOM     41  C   UNL A   1      39.456  28.909  28.855  1.00  0.00     0.049 A 
ATOM     42  N   UNL A   1      42.134  29.018  30.213  1.00  0.00    -0.248 NA
ATOM     43  C   UNL A   1      42.596  26.889  29.368  1.00  0.00     0.031 C 
ATOM     44  C   UNL A   1      38.121  28.895  28.250  1.00  0.00     0.029 A 
ATOM     45  N   UNL A   1      39.523  30.129  29.481  1.00  0.00    -0.354 N 
ATOM     46  C   UNL A   1      43.387  28.614  30.650  1.00  0.00     0.074 A 
ATOM     47  C   UNL A   1      43.604  27.277  30.137  1.00  0.00     0.031 C 
ATOM     48  C   UNL A   1      37.504  30.057  28.521  1.00  0.00     0.029 A 
ATOM     49  C   UNL A   1      38.380  30.878  29.349  1.00  0.00     0.049 A 
ATOM     50  H   UNL A   1      40.316  30.436  29.977  1.00  0.00     0.167 HD
ATOM     51  C   UNL A   1      44.283  29.300  31.398  1.00  0.00     0.031 A 
ATOM     52  C   UNL A   1      38.065  32.086  29.852  1.00  0.00     0.031 A 
ATOM     53  C   UNL A   1      44.069  30.629  31.905  1.00  0.00     0.049 A 
ATOM     54  C   UNL A   1      39.065  32.811  30.706  1.00  0.00     0.074 A 
ATOM     55  C   UNL A   1      44.944  31.428  32.623  1.00  0.00     0.029 A 
ATOM     56  N   UNL A   1      42.897  31.352  31.755  1.00  0.00    -0.354 N 
ATOM     57  N   UNL A   1      40.274  32.442  31.054  1.00  0.00    -0.248 NA
ATOM     58  C   UNL A   1      38.656  34.120  31.235  1.00  0.00     0.031 C 
ATOM     59  C   UNL A   1      44.282  32.618  32.946  1.00  0.00     0.029 A 
ATOM     60  C   UNL A   1      43.014  32.576  32.390  1.00  0.00     0.049 A 
ATOM     61  H   UNL A   1      42.100  31.042  31.267  1.00  0.00     0.167 HD
ATOM     62  C   UNL A   1      40.776  33.478  31.830  1.00  0.00     0.074 A 
ATOM     63  C   UNL A   1      39.749  34.499  31.884  1.00  0.00     0.031 C 
ATOM     64  C   UNL A   1      41.979  33.575  32.444  1.00  0.00     0.031 A 
BRANCH  51  65
ATOM     65  C   UNL A   1      45.581  28.617  31.719  1.00  0.00    -0.014 A 
ATOM     66  C   UNL A   1      46.692  28.736  30.869  1.00  0.00     0.009 A 
ATOM     67  C   UNL A   1      45.710  27.883  32.908  1.00  0.00     0.009 A 
ATOM     68  C   UNL A   1      47.898  28.110  31.189  1.00  0.00     0.001 A 
ATOM     69  C   UNL A   1      46.925  27.277  33.238  1.00  0.00     0.001 A 
ATOM     70  C   UNL A   1      48.014  27.386  32.375  1.00  0.00     0.000 A 
ENDBRANCH  51  65
BRANCH  52  71
ATOM     71  C   UNL A   1      36.739  32.690  29.565  1.00  0.00    -0.014 A 
ATOM     72  C   UNL A   1      36.507  33.350  28.350  1.00  0.00     0.009 A 
ATOM     73  C   UNL A   1      35.702  32.619  30.509  1.00  0.00     0.009 A 
ATOM     74  C   UNL A   1      35.273  33.949  28.094  1.00  0.00     0.001 A 
ATOM     75  C   UNL A   1      34.460  33.196  30.239  1.00  0.00     0.001 A 
ATOM     76  C   UNL A   1      34.249  33.869  29.037  1.00  0.00     0.000 A 
ENDBRANCH  52  71
BRANCH  64  77
ATOM     77  C   UNL A   1      42.252  34.834  33.214  1.00  0.00    -0.014 A 
ATOM     78  C   UNL A   1      42.994  35.881  32.647  1.00  0.00     0.009 A 
ATOM     79  C   UNL A   1      41.733  34.987  34.510  1.00  0.00     0.009 A 
ATOM     80  C   UNL A   1      43.235  37.048  33.375  1.00  0.00     0.001 A 
ATOM     81  C   UNL A   1      41.955  36.164  35.225  1.00  0.00     0.001 A 
ATOM     82  C   UNL A   1      42.712  37.190  34.661  1.00  0.00     0.000 A 
ENDBRANCH  64  77
ENDBRANCH  38  39
ENDBRANCH  30  33
ENDBRANCH  28  29
ENDBRANCH  27  28
ENDBRANCH   1  27
TORSDOF 14
ENDMDL
MODEL 2
REMARK VINA RESULT:     -11.1      1.648      2.096
REMARK SMILES O=C(NCc1ccc(C(=O)NCCCCNC(=O)c2ccc(-c3c4nc(c(-c5ccccc5)c5ccc([nH]5)c(-c5ccccc5)c5nc(c(-c6ccccc6)c6ccc3[nH]6)C=C5)C=C4)cc2)cc1)Nc1ccccc1Br
REMARK SMILES IDX 13 1 12 2 11 3 9 4 10 5 8 7 5 8 6 9 68 10 7 11 67 12 4 13
REMARK SMILES IDX 3 14 1 15 2 16 69 17 70 20 71 21 75 22 72 23 74 24 76 25
REMARK SMILES IDX 73 26 14 27 15 28 16 29 17 30 18 32 19 33 20 34 66 35 21 36
REMARK SMILES IDX 65 37 22 38 23 39 24 40 59 41 25 42 64 43 58 44 60 45 26 46
REMARK SMILES IDX 63 47 57 48 56 49 27 51 49 52 34 53 48 54 35 55 38 56 47 57
REMARK SMILES IDX 61 58 36 59 37 60 46 62 62 63 39 64 28 65 29 66 33 67 30 68
REMARK SMILES IDX 32 69 31 70 50 71 51 72 55 73 52 74 54 75 53 76 40 77 41 78
REMARK SMILES IDX 45 79 42 80 44 81 43 82
REMARK H PARENT 11 6 3 18 69 19 16 31 60 50 38 61
REMARK Flexibility Score: inf
ROOT
ATOM      1  C   UNL A   1      36.072  21.107  24.902  1.00  0.00     0.023 C 
ENDROOT
BRANCH   1   2
ATOM      2  C   UNL A   1      35.146  21.033  26.117  1.00  0.00     0.116 C 
BRANCH   2   3
ATOM      3  N   UNL A   1      34.114  20.034  25.915  1.00  0.00    -0.352 N 
ATOM      4  C   UNL A   1      32.862  20.115  25.358  1.00  0.00     0.251 C 
ATOM      5  O   UNL A   1      32.207  19.077  25.267  1.00  0.00    -0.269 OA
ATOM      6  H   UNL A   1      34.355  19.135  26.236  1.00  0.00     0.163 HD
BRANCH   4   7
ATOM      7  C   UNL A   1      32.295  21.382  24.820  1.00  0.00     0.039 A 
ATOM      8  C   UNL A   1      31.342  23.783  23.666  1.00  0.00    -0.029 A 
ATOM      9  C   UNL A   1      32.113  22.886  22.914  1.00  0.00     0.006 A 
ATOM     10  C   UNL A   1      30.998  23.428  24.977  1.00  0.00     0.006 A 
ATOM     11  C   UNL A   1      32.592  21.705  23.489  1.00  0.00     0.014 A 
ATOM     12  C   UNL A   1      31.452  22.230  25.538  1.00  0.00     0.014 A 
BRANCH   8  13
ATOM     13  C   UNL A   1      30.801  25.074  23.102  1.00  0.00     0.153 C 
BRANCH  13  14
ATOM     14  N   UNL A   1      29.492  25.424  23.609  1.00  0.00    -0.334 N 
ATOM     15  O   UNL A   1      27.778  26.696  24.223  1.00  0.00    -0.248 OA
ATOM     16  C   UNL A   1      28.863  26.630  23.657  1.00  0.00     0.319 C 
ATOM     17  N   UNL A   1      29.488  27.655  23.007  1.00  0.00    -0.307 N 
ATOM     18  H   UNL A   1      28.975  24.672  23.977  1.00  0.00     0.165 HD
ATOM     19  H   UNL A   1      30.244  27.417  22.423  1.00  0.00     0.171 HD
BRANCH  17  20
ATOM     20  C   UNL A   1      29.153  29.026  23.094  1.00  0.00     0.057 A 
ATOM     21  C   UNL A   1      28.121  29.447  22.237  1.00  0.00     0.027 A 
ATOM     22  C   UNL A   1      29.776  29.980  23.915  1.00  0.00     0.041 A 
ATOM     23  C   UNL A   1      27.659  30.763  22.257  1.00  0.00     0.002 A 
ATOM     24  C   UNL A   1      29.300  31.300  23.937  1.00  0.00     0.018 A 
ATOM     25  Br  UNL A   1      31.400  29.678  24.862  1.00  0.00    -0.049 Br
ATOM     26  C   UNL A   1      28.237  31.687  23.121  1.00  0.00     0.001 A 
ENDBRANCH  17  20
ENDBRANCH  13  14
ENDBRANCH   8  13
ENDBRANCH   4   7
ENDBRANCH   2   3
ENDBRANCH   1   2
BRANCH   1  27
ATOM     27  C   UNL A   1      36.394  22.531  24.439  1.00  0.00     0.023 C 
BRANCH  27  28
ATOM     28  C   UNL A   1      37.395  23.283  25.309  1.00  0.00     0.116 C 
BRANCH  28  29
ATOM     29  N   UNL A   1      38.596  22.514  25.599  1.00  0.00    -0.352 N 
ATOM     30  C   UNL A   1      39.733  22.913  26.262  1.00  0.00     0.251 C 
ATOM     31  H   UNL A   1      38.594  21.583  25.278  1.00  0.00     0.163 HD
ATOM     32  O   UNL A   1      40.703  22.172  26.339  1.00  0.00    -0.269 OA
BRANCH  30  33
ATOM     33  C   UNL A   1      39.786  24.271  26.839  1.00  0.00     0.039 A 
ATOM     34  C   UNL A   1      39.261  24.478  28.116  1.00  0.00     0.014 A 
ATOM     35  C   UNL A   1      40.405  25.316  26.147  1.00  0.00     0.014 A 
ATOM     36  C   UNL A   1      39.437  25.713  28.740  1.00  0.00     0.010 A 
ATOM     37  C   UNL A   1      40.627  26.529  26.790  1.00  0.00     0.010 A 
ATOM     38  C   UNL A   1      40.166  26.729  28.100  1.00  0.00    -0.014 A 
BRANCH  38  39
ATOM     39  C   UNL A   1      40.514  27.984  28.808  1.00  0.00     0.031 A 
ATOM     40  C   UNL A   1      41.837  28.126  29.503  1.00  0.00     0.074 A 
ATOM     41  C   UNL A   1      39.594  28.964  28.898  1.00  0.00     0.049 A 
ATOM     42  N   UNL A   1      42.277  29.113  30.242  1.00  0.00    -0.248 NA
ATOM     43  C   UNL A   1      42.781  27.006  29.365  1.00  0.00     0.031 C 
ATOM     44  C   UNL A   1      38.257  28.929  28.300  1.00  0.00     0.029 A 
ATOM     45  N   UNL A   1      39.638  30.176  29.539  1.00  0.00    -0.354 N 
ATOM     46  C   UNL A   1      43.541  28.730  30.667  1.00  0.00     0.074 A 
ATOM     47  C   UNL A   1      43.784  27.406  30.134  1.00  0.00     0.031 C 
ATOM     48  C   UNL A   1      37.616  30.073  28.590  1.00  0.00     0.029 A 
ATOM     49  C   UNL A   1      38.478  30.902  29.424  1.00  0.00     0.049 A 
ATOM     50  H   UNL A   1      40.427  30.494  30.035  1.00  0.00     0.167 HD
ATOM     51  C   UNL A   1      44.426  29.426  31.419  1.00  0.00     0.031 A 
ATOM     52  C   UNL A   1      38.140  32.096  29.946  1.00  0.00     0.031 A 
ATOM     53  C   UNL A   1      44.186  30.743  31.946  1.00  0.00     0.049 A 
ATOM     54  C   UNL A   1      39.128  32.830  30.804  1.00  0.00     0.074 A 
ATOM     55  C   UNL A   1      45.047  31.551  32.670  1.00  0.00     0.029 A 
ATOM     56  N   UNL A   1      42.998  31.441  31.812  1.00  0.00    -0.354 N 
ATOM     57  N   UNL A   1      40.347  32.483  31.141  1.00  0.00    -0.248 NA
ATOM     58  C   UNL A   1      38.694  34.123  31.353  1.00  0.00     0.031 C 
ATOM     59  C   UNL A   1      44.361  32.721  33.013  1.00  0.00     0.029 A 
ATOM     60  C   UNL A   1      43.091  32.660  32.464  1.00  0.00     0.049 A 
ATOM     61  H   UNL A   1      42.205  31.121  31.324  1.00  0.00     0.167 HD
ATOM     62  C   UNL A   1      40.830  33.520  31.927  1.00  0.00     0.074 A 
ATOM     63  C   UNL A   1      39.782  34.517  32.001  1.00  0.00     0.031 C 
ATOM     64  C   UNL A   1      42.035  33.635  32.536  1.00  0.00     0.031 A 
BRANCH  51  65
ATOM     65  C   UNL A   1      45.740  28.767  31.724  1.00  0.00    -0.014 A 
ATOM     66  C   UNL A   1      46.863  28.978  30.907  1.00  0.00     0.009 A 
ATOM     67  C   UNL A   1      45.872  27.963  32.866  1.00  0.00     0.009 A 
ATOM     68  C   UNL A   1      48.083  28.373  31.213  1.00  0.00     0.001 A 
ATOM     69  C   UNL A   1      47.100  27.378  33.183  1.00  0.00     0.001 A 
ATOM     70  C   UNL A   1      48.202  27.578  32.352  1.00  0.00     0.000 A 
ENDBRANCH  51  65
BRANCH  52  71
ATOM     71  C   UNL A   1      36.799  32.673  29.674  1.00  0.00    -0.014 A 
ATOM     72  C   UNL A   1      35.753  32.502  30.592  1.00  0.00     0.009 A 
ATOM     73  C   UNL A   1      36.556  33.388  28.490  1.00  0.00     0.009 A 
ATOM     74  C   UNL A   1      34.482  33.013  30.320  1.00  0.00     0.001 A 
ATOM     75  C   UNL A   1      35.291  33.921  28.234  1.00  0.00     0.001 A 
ATOM     76  C   UNL A   1      34.253  33.725  29.144  1.00  0.00     0.000 A 
ENDBRANCH  52  71
BRANCH  64  77
ATOM     77  C   UNL A   1      42.284  34.888  33.322  1.00  0.00    -0.014 A 
ATOM     78  C   UNL A   1      43.000  35.960  32.766  1.00  0.00     0.009 A 
ATOM     79  C   UNL A   1      41.770  35.012  34.623  1.00  0.00     0.009 A 
ATOM     80  C   UNL A   1      43.220  37.122  33.509  1.00  0.00     0.001 A 
ATOM     81  C   UNL A   1      41.970  36.184  35.353  1.00  0.00     0.001 A 
ATOM     82  C   UNL A   1      42.701  37.234  34.799  1.00  0.00     0.000 A 
ENDBRANCH  64  77
ENDBRANCH  38  39
ENDBRANCH  30  33
ENDBRANCH  28  29
ENDBRANCH  27  28
ENDBRANCH   1  27
TORSDOF 14
ENDMDL
MODEL 3
REMARK VINA RESULT:     -10.9      2.297      7.554
REMARK SMILES O=C(NCc1ccc(C(=O)NCCCCNC(=O)c2ccc(-c3c4nc(c(-c5ccccc5)c5ccc([nH]5)c(-c5ccccc5)c5nc(c(-c6ccccc6)c6ccc3[nH]6)C=C5)C=C4)cc2)cc1)Nc1ccccc1Br
REMARK SMILES IDX 13 1 12 2 11 3 9 4 10 5 8 7 5 8 6 9 68 10 7 11 67 12 4 13
REMARK SMILES IDX 3 14 1 15 2 16 69 17 70 20 71 21 75 22 72 23 74 24 76 25
REMARK SMILES IDX 73 26 14 27 15 28 16 29 17 30 18 32 19 33 20 34 66 35 21 36
REMARK SMILES IDX 65 37 22 38 23 39 24 40 59 41 25 42 64 43 58 44 60 45 26 46
REMARK SMILES IDX 63 47 57 48 56 49 27 51 49 52 34 53 48 54 35 55 38 56 47 57
REMARK SMILES IDX 61 58 36 59 37 60 46 62 62 63 39 64 28 65 29 66 33 67 30 68
REMARK SMILES IDX 32 69 31 70 50 71 51 72 55 73 52 74 54 75 53 76 40 77 41 78
REMARK SMILES IDX 45 79 42 80 44 81 43 82
REMARK H PARENT 11 6 3 18 69 19 16 31 60 50 38 61
REMARK Flexibility Score: inf
ROOT
ATOM      1  C   UNL A   1      32.984  29.158  25.589  1.00  0.00     0.023 C 
ENDROOT
BRANCH   1   2
ATOM      2  C   UNL A   1      32.888  28.960  24.075  1.00  0.00     0.116 C 
BRANCH   2   3
ATOM      3  N   UNL A   1      31.523  29.135  23.620  1.00  0.00    -0.352 N 
ATOM      4  C   UNL A   1      30.449  28.281  23.606  1.00  0.00     0.251 C 
ATOM      5  O   UNL A   1      29.373  28.719  23.201  1.00  0.00    -0.269 OA
ATOM      6  H   UNL A   1      31.331  30.029  23.254  1.00  0.00     0.163 HD
BRANCH   4   7
ATOM      7  C   UNL A   1      30.523  26.879  24.101  1.00  0.00     0.039 A 
ATOM      8  C   UNL A   1      30.691  24.281  25.208  1.00  0.00    -0.029 A 
ATOM      9  C   UNL A   1      30.418  25.388  26.023  1.00  0.00     0.006 A 
ATOM     10  C   UNL A   1      30.809  24.484  23.827  1.00  0.00     0.006 A 
ATOM     11  C   UNL A   1      30.345  26.672  25.475  1.00  0.00     0.014 A 
ATOM     12  C   UNL A   1      30.704  25.766  23.278  1.00  0.00     0.014 A 
BRANCH   8  13
ATOM     13  C   UNL A   1      30.786  22.872  25.741  1.00  0.00     0.153 C 
BRANCH  13  14
ATOM     14  N   UNL A   1      31.681  22.739  26.870  1.00  0.00    -0.334 N 
ATOM     15  O   UNL A   1      33.549  22.328  27.999  1.00  0.00    -0.248 OA
ATOM     16  C   UNL A   1      33.018  22.490  26.906  1.00  0.00     0.319 C 
ATOM     17  N   UNL A   1      33.660  22.502  25.701  1.00  0.00    -0.307 N 
ATOM     18  H   UNL A   1      31.255  22.844  27.751  1.00  0.00     0.165 HD
ATOM     19  H   UNL A   1      33.154  22.848  24.930  1.00  0.00     0.171 HD
BRANCH  17  20
ATOM     20  C   UNL A   1      34.981  22.065  25.454  1.00  0.00     0.057 A 
ATOM     21  C   UNL A   1      35.966  23.068  25.512  1.00  0.00     0.027 A 
ATOM     22  C   UNL A   1      35.374  20.756  25.129  1.00  0.00     0.041 A 
ATOM     23  C   UNL A   1      37.316  22.763  25.337  1.00  0.00     0.002 A 
ATOM     24  C   UNL A   1      36.735  20.456  24.964  1.00  0.00     0.018 A 
ATOM     25  Br  UNL A   1      34.164  19.363  24.661  1.00  0.00    -0.049 Br
ATOM     26  C   UNL A   1      37.703  21.453  25.081  1.00  0.00     0.001 A 
ENDBRANCH  17  20
ENDBRANCH  13  14
ENDBRANCH   8  13
ENDBRANCH   4   7
ENDBRANCH   2   3
ENDBRANCH   1   2
BRANCH   1  27
ATOM     27  C   UNL A   1      32.228  30.383  26.114  1.00  0.00     0.023 C 
BRANCH  27  28
ATOM     28  C   UNL A   1      32.919  31.130  27.250  1.00  0.00     0.116 C 
BRANCH  28  29
ATOM     29  N   UNL A   1      32.461  32.504  27.396  1.00  0.00    -0.352 N 
ATOM     30  C   UNL A   1      33.069  33.546  28.056  1.00  0.00     0.251 C 
ATOM     31  H   UNL A   1      31.600  32.715  26.966  1.00  0.00     0.163 HD
ATOM     32  O   UNL A   1      32.503  34.625  28.173  1.00  0.00    -0.269 OA
BRANCH  30  33
ATOM     33  C   UNL A   1      34.396  33.332  28.666  1.00  0.00     0.039 A 
ATOM     34  C   UNL A   1      34.465  32.730  29.925  1.00  0.00     0.014 A 
ATOM     35  C   UNL A   1      35.561  33.668  27.973  1.00  0.00     0.014 A 
ATOM     36  C   UNL A   1      35.709  32.380  30.451  1.00  0.00     0.010 A 
ATOM     37  C   UNL A   1      36.797  33.270  28.474  1.00  0.00     0.010 A 
ATOM     38  C   UNL A   1      36.879  32.602  29.705  1.00  0.00    -0.014 A 
BRANCH  38  39
ATOM     39  C   UNL A   1      38.189  32.085  30.164  1.00  0.00     0.031 A 
ATOM     40  C   UNL A   1      38.722  30.784  29.639  1.00  0.00     0.074 A 
ATOM     41  C   UNL A   1      38.857  32.752  31.126  1.00  0.00     0.049 A 
ATOM     42  N   UNL A   1      39.804  30.136  29.990  1.00  0.00    -0.248 NA
ATOM     43  C   UNL A   1      37.927  30.114  28.599  1.00  0.00     0.031 C 
ATOM     44  C   UNL A   1      38.424  34.006  31.746  1.00  0.00     0.029 A 
ATOM     45  N   UNL A   1      40.038  32.458  31.762  1.00  0.00    -0.354 N 
ATOM     46  C   UNL A   1      39.815  28.979  29.224  1.00  0.00     0.074 A 
ATOM     47  C   UNL A   1      38.613  28.994  28.417  1.00  0.00     0.031 C 
ATOM     48  C   UNL A   1      39.333  34.382  32.659  1.00  0.00     0.029 A 
ATOM     49  C   UNL A   1      40.390  33.378  32.719  1.00  0.00     0.049 A 
ATOM     50  H   UNL A   1      40.580  31.664  31.551  1.00  0.00     0.167 HD
ATOM     51  C   UNL A   1      40.750  28.000  29.186  1.00  0.00     0.031 A 
ATOM     52  C   UNL A   1      41.439  33.403  33.562  1.00  0.00     0.031 A 
ATOM     53  C   UNL A   1      41.945  27.986  29.985  1.00  0.00     0.049 A 
ATOM     54  C   UNL A   1      42.442  32.287  33.521  1.00  0.00     0.074 A 
ATOM     55  C   UNL A   1      42.979  27.065  29.972  1.00  0.00     0.029 A 
ATOM     56  N   UNL A   1      42.263  28.932  30.946  1.00  0.00    -0.354 N 
ATOM     57  N   UNL A   1      42.472  31.233  32.742  1.00  0.00    -0.248 NA
ATOM     58  C   UNL A   1      43.558  32.366  34.474  1.00  0.00     0.031 C 
ATOM     59  C   UNL A   1      43.902  27.431  30.958  1.00  0.00     0.029 A 
ATOM     60  C   UNL A   1      43.463  28.603  31.553  1.00  0.00     0.049 A 
ATOM     61  H   UNL A   1      41.717  29.722  31.164  1.00  0.00     0.167 HD
ATOM     62  C   UNL A   1      43.615  30.532  33.101  1.00  0.00     0.074 A 
ATOM     63  C   UNL A   1      44.262  31.290  34.152  1.00  0.00     0.031 C 
ATOM     64  C   UNL A   1      44.087  29.362  32.604  1.00  0.00     0.031 A 
BRANCH  51  65
ATOM     65  C   UNL A   1      40.510  26.853  28.246  1.00  0.00    -0.014 A 
ATOM     66  C   UNL A   1      39.744  25.744  28.639  1.00  0.00     0.009 A 
ATOM     67  C   UNL A   1      41.016  26.902  26.939  1.00  0.00     0.009 A 
ATOM     68  C   UNL A   1      39.515  24.693  27.749  1.00  0.00     0.001 A 
ATOM     69  C   UNL A   1      40.765  25.860  26.043  1.00  0.00     0.001 A 
ATOM     70  C   UNL A   1      40.021  24.754  26.452  1.00  0.00     0.000 A 
ENDBRANCH  51  65
BRANCH  52  71
ATOM     71  C   UNL A   1      41.594  34.523  34.524  1.00  0.00    -0.014 A 
ATOM     72  C   UNL A   1      42.311  35.674  34.164  1.00  0.00     0.009 A 
ATOM     73  C   UNL A   1      41.038  34.443  35.810  1.00  0.00     0.009 A 
ATOM     74  C   UNL A   1      42.488  36.712  35.080  1.00  0.00     0.001 A 
ATOM     75  C   UNL A   1      41.196  35.495  36.715  1.00  0.00     0.001 A 
ATOM     76  C   UNL A   1      41.928  36.624  36.353  1.00  0.00     0.000 A 
ENDBRANCH  52  71
BRANCH  64  77
ATOM     77  C   UNL A   1      45.368  28.843  33.186  1.00  0.00    -0.014 A 
ATOM     78  C   UNL A   1      46.610  29.227  32.657  1.00  0.00     0.009 A 
ATOM     79  C   UNL A   1      45.335  27.984  34.297  1.00  0.00     0.009 A 
ATOM     80  C   UNL A   1      47.795  28.738  33.212  1.00  0.00     0.001 A 
ATOM     81  C   UNL A   1      46.521  27.518  34.864  1.00  0.00     0.001 A 
ATOM     82  C   UNL A   1      47.749  27.888  34.318  1.00  0.00     0.000 A 
ENDBRANCH  64  77
ENDBRANCH  38  39
ENDBRANCH  30  33
ENDBRANCH  28  29
ENDBRANCH  27  28
ENDBRANCH   1  27
TORSDOF 14
ENDMDL
