MODEL 1
REMARK VINA RESULT:     -12.3      0.000      0.000
REMARK SMILES Cc1ccc(CN2/C(=[NH+]/C(=O)CCC(=O)NCCCCNC(=O)c3ccc(-c4c5nc(c(-c6ccccc6)c6ccc([nH]6)c(-c6ccccc6)c6nc(c(-c7ccccc7)c7ccc4[nH]7)C=C6)C=C5)cc3)S[C@H]3CS(=O)(=O)C[C@@H]32)cc1
REMARK SMILES IDX 17 1 16 2 14 3 15 4 13 6 12 7 10 8 7 9 8 10 79 11 9 12 72 13
REMARK SMILES IDX 73 14 78 15 74 17 75 18 11 19 76 20 77 21 6 22 5 23 1 24
REMARK SMILES IDX 2 25 3 26 81 27 4 28 80 29 18 30 19 31 20 32 21 33 22 34
REMARK SMILES IDX 23 36 24 37 25 38 71 39 26 40 70 41 27 42 28 43 29 44 64 45
REMARK SMILES IDX 30 46 69 47 63 48 65 49 31 50 68 51 62 52 61 53 32 55 54 56
REMARK SMILES IDX 39 57 53 58 40 59 43 60 52 61 66 62 41 63 42 64 51 66 67 67
REMARK SMILES IDX 44 68 33 69 34 70 38 71 35 72 37 73 36 74 55 75 56 76 60 77
REMARK SMILES IDX 57 78 59 79 58 80 45 81 46 82 50 83 47 84 49 85 48 86
REMARK H PARENT 16 5 9 16 21 35 65 54 43 65
REMARK Flexibility Score: inf
ROOT
ATOM      1  C   UNL A   1      33.649  28.516  25.126  1.00  0.00     0.116 C 
ENDROOT
BRANCH   1   2
ATOM      2  N   UNL A   1      32.363  27.880  25.006  1.00  0.00    -0.356 N 
ATOM      3  C   UNL A   1      32.243  26.560  24.646  1.00  0.00     0.220 C 
ATOM      4  O   UNL A   1      31.300  26.217  23.937  1.00  0.00    -0.275 OA
ATOM      5  H   UNL A   1      31.549  28.405  25.187  1.00  0.00     0.163 HD
BRANCH   3   6
ATOM      6  C   UNL A   1      33.291  25.576  25.168  1.00  0.00     0.112 C 
BRANCH   6   7
ATOM      7  C   UNL A   1      32.922  24.727  26.415  1.00  0.00     0.138 C 
BRANCH   7   8
ATOM      8  C   UNL A   1      32.939  23.182  26.246  1.00  0.00     0.308 C 
ATOM      9  N   UNL A   1      35.257  20.387  25.168  1.00  0.00    -0.247 N 
ATOM     10  C   UNL A   1      34.188  21.405  25.262  1.00  0.00     0.314 C 
ATOM     11  C   UNL A   1      34.657  19.168  24.452  1.00  0.00     0.206 C 
ATOM     12  N   UNL A   1      34.141  22.593  25.791  1.00  0.00    -0.205 N 
ATOM     13  S   UNL A   1      32.663  20.754  24.464  1.00  0.00    -0.030 SA
ATOM     14  C   UNL A   1      33.185  19.106  24.883  1.00  0.00     0.120 C 
ATOM     15  C   UNL A   1      35.200  17.774  24.678  1.00  0.00     0.187 C 
ATOM     16  H   UNL A   1      34.978  23.103  25.879  1.00  0.00     0.316 HD
ATOM     17  C   UNL A   1      32.485  17.850  24.428  1.00  0.00     0.156 C 
ATOM     18  S   UNL A   1      33.824  16.674  24.291  1.00  0.00     0.155 S 
ATOM     19  O   UNL A   1      31.981  22.548  26.692  1.00  0.00    -0.247 OA
ATOM     20  O   UNL A   1      33.714  15.676  25.349  1.00  0.00    -0.229 OA
ATOM     21  O   UNL A   1      33.933  16.287  22.908  1.00  0.00    -0.229 OA
BRANCH   9  22
ATOM     22  C   UNL A   1      36.828  20.542  25.110  1.00  0.00     0.273 C 
BRANCH  22  23
ATOM     23  C   UNL A   1      37.727  21.812  25.507  1.00  0.00    -0.007 A 
ATOM     24  C   UNL A   1      39.360  24.934  28.048  1.00  0.00     0.044 C 
ATOM     25  C   UNL A   1      39.039  24.015  26.884  1.00  0.00    -0.051 A 
ATOM     26  C   UNL A   1      37.939  24.236  26.049  1.00  0.00     0.004 A 
ATOM     27  C   UNL A   1      39.677  22.791  26.720  1.00  0.00     0.004 A 
ATOM     28  C   UNL A   1      37.303  23.149  25.356  1.00  0.00     0.008 A 
ATOM     29  C   UNL A   1      39.057  21.732  25.980  1.00  0.00     0.008 A 
ENDBRANCH  22  23
ENDBRANCH   9  22
ENDBRANCH   7   8
ENDBRANCH   6   7
ENDBRANCH   3   6
ENDBRANCH   1   2
BRANCH   1  30
ATOM     30  C   UNL A   1      33.660  29.074  26.509  1.00  0.00     0.023 C 
BRANCH  30  31
ATOM     31  C   UNL A   1      34.969  28.987  27.208  1.00  0.00     0.023 C 
BRANCH  31  32
ATOM     32  C   UNL A   1      35.709  29.914  28.135  1.00  0.00     0.116 C 
BRANCH  32  33
ATOM     33  N   UNL A   1      35.758  29.774  29.580  1.00  0.00    -0.352 N 
ATOM     34  C   UNL A   1      36.741  29.202  30.407  1.00  0.00     0.251 C 
ATOM     35  H   UNL A   1      34.976  30.136  30.056  1.00  0.00     0.163 HD
ATOM     36  O   UNL A   1      36.677  29.419  31.618  1.00  0.00    -0.269 OA
BRANCH  34  37
ATOM     37  C   UNL A   1      37.881  28.321  29.963  1.00  0.00     0.039 A 
ATOM     38  C   UNL A   1      38.712  27.836  30.959  1.00  0.00     0.014 A 
ATOM     39  C   UNL A   1      38.495  28.604  28.786  1.00  0.00     0.014 A 
ATOM     40  C   UNL A   1      39.950  28.433  31.068  1.00  0.00     0.010 A 
ATOM     41  C   UNL A   1      39.550  29.437  28.911  1.00  0.00     0.010 A 
ATOM     42  C   UNL A   1      40.220  29.403  30.123  1.00  0.00    -0.014 A 
BRANCH  42  43
ATOM     43  C   UNL A   1      41.087  30.531  30.275  1.00  0.00     0.031 A 
ATOM     44  C   UNL A   1      40.481  31.673  30.951  1.00  0.00     0.074 A 
ATOM     45  C   UNL A   1      42.397  30.220  30.124  1.00  0.00     0.049 A 
ATOM     46  N   UNL A   1      40.887  32.880  30.846  1.00  0.00    -0.248 NA
ATOM     47  C   UNL A   1      39.275  31.553  31.785  1.00  0.00     0.031 C 
ATOM     48  C   UNL A   1      43.601  30.856  30.637  1.00  0.00     0.029 A 
ATOM     49  N   UNL A   1      42.896  29.227  29.280  1.00  0.00    -0.354 N 
ATOM     50  C   UNL A   1      40.359  33.528  31.940  1.00  0.00     0.074 A 
ATOM     51  C   UNL A   1      39.210  32.764  32.339  1.00  0.00     0.031 C 
ATOM     52  C   UNL A   1      44.655  30.457  29.893  1.00  0.00     0.029 A 
ATOM     53  C   UNL A   1      44.138  29.649  28.792  1.00  0.00     0.049 A 
ATOM     54  H   UNL A   1      42.452  28.376  29.066  1.00  0.00     0.167 HD
ATOM     55  C   UNL A   1      41.130  34.465  32.553  1.00  0.00     0.031 A 
ATOM     56  C   UNL A   1      44.205  30.001  27.469  1.00  0.00     0.031 A 
ATOM     57  C   UNL A   1      42.426  34.566  31.875  1.00  0.00     0.049 A 
ATOM     58  C   UNL A   1      44.276  31.507  27.295  1.00  0.00     0.074 A 
ATOM     59  C   UNL A   1      43.692  34.102  32.193  1.00  0.00     0.029 A 
ATOM     60  N   UNL A   1      42.445  34.849  30.517  1.00  0.00    -0.354 N 
ATOM     61  N   UNL A   1      43.894  32.370  28.198  1.00  0.00    -0.248 NA
ATOM     62  C   UNL A   1      44.811  32.156  26.102  1.00  0.00     0.031 C 
ATOM     63  C   UNL A   1      44.457  34.065  30.991  1.00  0.00     0.029 A 
ATOM     64  C   UNL A   1      43.655  34.507  29.953  1.00  0.00     0.049 A 
ATOM     65  H   UNL A   1      41.692  35.245  30.021  1.00  0.00     0.167 HD
ATOM     66  C   UNL A   1      44.142  33.643  27.763  1.00  0.00     0.074 A 
ATOM     67  C   UNL A   1      44.710  33.455  26.439  1.00  0.00     0.031 C 
ATOM     68  C   UNL A   1      43.862  34.742  28.528  1.00  0.00     0.031 A 
BRANCH  55  69
ATOM     69  C   UNL A   1      40.862  35.069  33.903  1.00  0.00    -0.014 A 
ATOM     70  C   UNL A   1      41.811  35.962  34.432  1.00  0.00     0.009 A 
ATOM     71  C   UNL A   1      39.724  34.838  34.694  1.00  0.00     0.009 A 
ATOM     72  C   UNL A   1      41.649  36.569  35.681  1.00  0.00     0.001 A 
ATOM     73  C   UNL A   1      39.560  35.430  35.954  1.00  0.00     0.001 A 
ATOM     74  C   UNL A   1      40.522  36.300  36.445  1.00  0.00     0.000 A 
ENDBRANCH  55  69
BRANCH  56  75
ATOM     75  C   UNL A   1      43.413  29.070  26.597  1.00  0.00    -0.014 A 
ATOM     76  C   UNL A   1      43.865  27.738  26.474  1.00  0.00     0.009 A 
ATOM     77  C   UNL A   1      42.072  29.345  26.279  1.00  0.00     0.009 A 
ATOM     78  C   UNL A   1      42.976  26.699  26.178  1.00  0.00     0.001 A 
ATOM     79  C   UNL A   1      41.190  28.301  25.966  1.00  0.00     0.001 A 
ATOM     80  C   UNL A   1      41.631  26.979  25.953  1.00  0.00     0.000 A 
ENDBRANCH  56  75
BRANCH  68  81
ATOM     81  C   UNL A   1      43.762  36.173  28.045  1.00  0.00    -0.014 A 
ATOM     82  C   UNL A   1      44.825  37.077  28.007  1.00  0.00     0.009 A 
ATOM     83  C   UNL A   1      42.552  36.612  27.448  1.00  0.00     0.009 A 
ATOM     84  C   UNL A   1      44.679  38.354  27.446  1.00  0.00     0.001 A 
ATOM     85  C   UNL A   1      42.422  37.848  26.819  1.00  0.00     0.001 A 
ATOM     86  C   UNL A   1      43.486  38.731  26.836  1.00  0.00     0.000 A 
ENDBRANCH  68  81
ENDBRANCH  42  43
ENDBRANCH  34  37
ENDBRANCH  32  33
ENDBRANCH  31  32
ENDBRANCH  30  31
ENDBRANCH   1  30
TORSDOF 15
ENDMDL
MODEL 2
REMARK VINA RESULT:     -12.2      3.571      8.010
REMARK SMILES Cc1ccc(CN2/C(=[NH+]/C(=O)CCC(=O)NCCCCNC(=O)c3ccc(-c4c5nc(c(-c6ccccc6)c6ccc([nH]6)c(-c6ccccc6)c6nc(c(-c7ccccc7)c7ccc4[nH]7)C=C6)C=C5)cc3)S[C@H]3CS(=O)(=O)C[C@@H]32)cc1
REMARK SMILES IDX 17 1 16 2 14 3 15 4 13 6 12 7 10 8 7 9 8 10 79 11 9 12 72 13
REMARK SMILES IDX 73 14 78 15 74 17 75 18 11 19 76 20 77 21 6 22 5 23 1 24
REMARK SMILES IDX 2 25 3 26 81 27 4 28 80 29 18 30 19 31 20 32 21 33 22 34
REMARK SMILES IDX 23 36 24 37 25 38 71 39 26 40 70 41 27 42 28 43 29 44 64 45
REMARK SMILES IDX 30 46 69 47 63 48 65 49 31 50 68 51 62 52 61 53 32 55 54 56
REMARK SMILES IDX 39 57 53 58 40 59 43 60 52 61 66 62 41 63 42 64 51 66 67 67
REMARK SMILES IDX 44 68 33 69 34 70 38 71 35 72 37 73 36 74 55 75 56 76 60 77
REMARK SMILES IDX 57 78 59 79 58 80 45 81 46 82 50 83 47 84 49 85 48 86
REMARK H PARENT 16 5 9 16 21 35 65 54 43 65
REMARK Flexibility Score: inf
ROOT
ATOM      1  C   UNL A   1      33.200  31.182  26.759  1.00  0.00     0.116 C 
ENDROOT
BRANCH   1   2
ATOM      2  N   UNL A   1      32.203  30.167  26.976  1.00  0.00    -0.356 N 
ATOM      3  C   UNL A   1      32.334  28.903  26.451  1.00  0.00     0.220 C 
ATOM      4  O   UNL A   1      31.331  28.312  26.058  1.00  0.00    -0.275 OA
ATOM      5  H   UNL A   1      31.406  30.383  27.513  1.00  0.00     0.163 HD
BRANCH   3   6
ATOM      6  C   UNL A   1      33.734  28.289  26.402  1.00  0.00     0.112 C 
BRANCH   6   7
ATOM      7  C   UNL A   1      34.063  27.347  25.213  1.00  0.00     0.138 C 
BRANCH   7   8
ATOM      8  C   UNL A   1      33.750  25.836  25.403  1.00  0.00     0.308 C 
ATOM      9  N   UNL A   1      35.212  22.430  24.625  1.00  0.00    -0.247 N 
ATOM     10  C   UNL A   1      34.401  23.667  24.660  1.00  0.00     0.314 C 
ATOM     11  C   UNL A   1      34.254  21.270  24.319  1.00  0.00     0.206 C 
ATOM     12  N   UNL A   1      34.693  24.911  24.902  1.00  0.00    -0.205 N 
ATOM     13  S   UNL A   1      32.646  23.247  24.298  1.00  0.00    -0.030 SA
ATOM     14  C   UNL A   1      32.921  21.633  24.991  1.00  0.00     0.120 C 
ATOM     15  C   UNL A   1      34.557  19.857  24.765  1.00  0.00     0.187 C 
ATOM     16  H   UNL A   1      35.612  25.221  24.730  1.00  0.00     0.316 HD
ATOM     17  C   UNL A   1      31.915  20.510  24.959  1.00  0.00     0.156 C 
ATOM     18  S   UNL A   1      32.946  19.052  24.875  1.00  0.00     0.155 S 
ATOM     19  O   UNL A   1      32.805  25.537  26.136  1.00  0.00    -0.247 OA
ATOM     20  O   UNL A   1      32.875  18.324  26.137  1.00  0.00    -0.229 OA
ATOM     21  O   UNL A   1      32.684  18.397  23.620  1.00  0.00    -0.229 OA
BRANCH   9  22
ATOM     22  C   UNL A   1      36.735  22.204  24.273  1.00  0.00     0.273 C 
BRANCH  22  23
ATOM     23  C   UNL A   1      37.868  21.468  25.140  1.00  0.00    -0.007 A 
ATOM     24  C   UNL A   1      41.820  19.948  26.111  1.00  0.00     0.044 C 
ATOM     25  C   UNL A   1      40.350  20.320  26.140  1.00  0.00    -0.051 A 
ATOM     26  C   UNL A   1      39.372  19.520  25.539  1.00  0.00     0.004 A 
ATOM     27  C   UNL A   1      39.919  21.574  26.559  1.00  0.00     0.004 A 
ATOM     28  C   UNL A   1      38.140  20.086  25.061  1.00  0.00     0.008 A 
ATOM     29  C   UNL A   1      38.664  22.106  26.120  1.00  0.00     0.008 A 
ENDBRANCH  22  23
ENDBRANCH   9  22
ENDBRANCH   7   8
ENDBRANCH   6   7
ENDBRANCH   3   6
ENDBRANCH   1   2
BRANCH   1  30
ATOM     30  C   UNL A   1      33.993  31.198  28.022  1.00  0.00     0.023 C 
BRANCH  30  31
ATOM     31  C   UNL A   1      34.949  32.330  28.146  1.00  0.00     0.023 C 
BRANCH  31  32
ATOM     32  C   UNL A   1      35.690  32.935  29.309  1.00  0.00     0.116 C 
BRANCH  32  33
ATOM     33  N   UNL A   1      37.092  32.702  29.607  1.00  0.00    -0.352 N 
ATOM     34  C   UNL A   1      37.929  31.625  29.266  1.00  0.00     0.251 C 
ATOM     35  H   UNL A   1      37.525  33.412  30.135  1.00  0.00     0.163 HD
ATOM     36  O   UNL A   1      39.143  31.764  29.419  1.00  0.00    -0.269 OA
BRANCH  34  37
ATOM     37  C   UNL A   1      37.488  30.284  28.735  1.00  0.00     0.039 A 
ATOM     38  C   UNL A   1      37.146  29.329  29.678  1.00  0.00     0.014 A 
ATOM     39  C   UNL A   1      38.090  29.802  27.618  1.00  0.00     0.014 A 
ATOM     40  C   UNL A   1      38.062  28.320  29.889  1.00  0.00     0.010 A 
ATOM     41  C   UNL A   1      39.174  29.038  27.871  1.00  0.00     0.010 A 
ATOM     42  C   UNL A   1      39.183  28.365  29.083  1.00  0.00    -0.014 A 
BRANCH  42  43
ATOM     43  C   UNL A   1      40.486  27.867  29.397  1.00  0.00     0.031 A 
ATOM     44  C   UNL A   1      40.784  26.555  28.831  1.00  0.00     0.074 A 
ATOM     45  C   UNL A   1      41.337  28.831  29.821  1.00  0.00     0.049 A 
ATOM     46  N   UNL A   1      41.671  25.753  29.282  1.00  0.00    -0.248 NA
ATOM     47  C   UNL A   1      40.030  25.988  27.702  1.00  0.00     0.031 C 
ATOM     48  C   UNL A   1      42.789  28.916  29.783  1.00  0.00     0.029 A 
ATOM     49  N   UNL A   1      40.971  29.965  30.548  1.00  0.00    -0.354 N 
ATOM     50  C   UNL A   1      41.926  24.887  28.242  1.00  0.00     0.074 A 
ATOM     51  C   UNL A   1      40.757  24.910  27.408  1.00  0.00     0.031 C 
ATOM     52  C   UNL A   1      43.195  29.838  30.682  1.00  0.00     0.029 A 
ATOM     53  C   UNL A   1      42.016  30.284  31.421  1.00  0.00     0.049 A 
ATOM     54  H   UNL A   1      40.123  30.456  30.460  1.00  0.00     0.167 HD
ATOM     55  C   UNL A   1      43.211  24.485  28.056  1.00  0.00     0.031 A 
ATOM     56  C   UNL A   1      41.807  30.066  32.757  1.00  0.00     0.031 A 
ATOM     57  C   UNL A   1      44.080  25.111  29.058  1.00  0.00     0.049 A 
ATOM     58  C   UNL A   1      42.548  28.835  33.245  1.00  0.00     0.074 A 
ATOM     59  C   UNL A   1      44.976  26.166  28.998  1.00  0.00     0.029 A 
ATOM     60  N   UNL A   1      43.786  24.926  30.401  1.00  0.00    -0.354 N 
ATOM     61  N   UNL A   1      42.964  27.872  32.468  1.00  0.00    -0.248 NA
ATOM     62  C   UNL A   1      42.904  28.610  34.643  1.00  0.00     0.031 C 
ATOM     63  C   UNL A   1      45.176  26.643  30.326  1.00  0.00     0.029 A 
ATOM     64  C   UNL A   1      44.405  25.878  31.183  1.00  0.00     0.049 A 
ATOM     65  H   UNL A   1      43.211  24.207  30.750  1.00  0.00     0.167 HD
ATOM     66  C   UNL A   1      43.647  26.941  33.202  1.00  0.00     0.074 A 
ATOM     67  C   UNL A   1      43.574  27.446  34.561  1.00  0.00     0.031 C 
ATOM     68  C   UNL A   1      44.216  25.836  32.629  1.00  0.00     0.031 A 
BRANCH  55  69
ATOM     69  C   UNL A   1      43.740  23.786  26.835  1.00  0.00    -0.014 A 
ATOM     70  C   UNL A   1      44.792  22.867  26.997  1.00  0.00     0.009 A 
ATOM     71  C   UNL A   1      43.263  23.952  25.524  1.00  0.00     0.009 A 
ATOM     72  C   UNL A   1      45.350  22.173  25.919  1.00  0.00     0.001 A 
ATOM     73  C   UNL A   1      43.826  23.273  24.435  1.00  0.00     0.001 A 
ATOM     74  C   UNL A   1      44.868  22.380  24.635  1.00  0.00     0.000 A 
ENDBRANCH  55  69
BRANCH  56  75
ATOM     75  C   UNL A   1      40.422  30.462  33.183  1.00  0.00    -0.014 A 
ATOM     76  C   UNL A   1      40.052  31.817  33.042  1.00  0.00     0.009 A 
ATOM     77  C   UNL A   1      39.399  29.505  33.290  1.00  0.00     0.009 A 
ATOM     78  C   UNL A   1      38.712  32.185  32.875  1.00  0.00     0.001 A 
ATOM     79  C   UNL A   1      38.056  29.883  33.139  1.00  0.00     0.001 A 
ATOM     80  C   UNL A   1      37.718  31.212  32.895  1.00  0.00     0.000 A 
ENDBRANCH  56  75
BRANCH  68  81
ATOM     81  C   UNL A   1      44.680  24.587  33.348  1.00  0.00    -0.014 A 
ATOM     82  C   UNL A   1      46.011  24.291  33.649  1.00  0.00     0.009 A 
ATOM     83  C   UNL A   1      43.709  23.709  33.893  1.00  0.00     0.009 A 
ATOM     84  C   UNL A   1      46.353  23.165  34.413  1.00  0.00     0.001 A 
ATOM     85  C   UNL A   1      44.036  22.635  34.718  1.00  0.00     0.001 A 
ATOM     86  C   UNL A   1      45.367  22.350  34.962  1.00  0.00     0.000 A 
ENDBRANCH  68  81
ENDBRANCH  42  43
ENDBRANCH  34  37
ENDBRANCH  32  33
ENDBRANCH  31  32
ENDBRANCH  30  31
ENDBRANCH   1  30
TORSDOF 15
ENDMDL
MODEL 3
REMARK VINA RESULT:     -12.1      2.906      7.727
REMARK SMILES Cc1ccc(CN2/C(=[NH+]/C(=O)CCC(=O)NCCCCNC(=O)c3ccc(-c4c5nc(c(-c6ccccc6)c6ccc([nH]6)c(-c6ccccc6)c6nc(c(-c7ccccc7)c7ccc4[nH]7)C=C6)C=C5)cc3)S[C@H]3CS(=O)(=O)C[C@@H]32)cc1
REMARK SMILES IDX 17 1 16 2 14 3 15 4 13 6 12 7 10 8 7 9 8 10 79 11 9 12 72 13
REMARK SMILES IDX 73 14 78 15 74 17 75 18 11 19 76 20 77 21 6 22 5 23 1 24
REMARK SMILES IDX 2 25 3 26 81 27 4 28 80 29 18 30 19 31 20 32 21 33 22 34
REMARK SMILES IDX 23 36 24 37 25 38 71 39 26 40 70 41 27 42 28 43 29 44 64 45
REMARK SMILES IDX 30 46 69 47 63 48 65 49 31 50 68 51 62 52 61 53 32 55 54 56
REMARK SMILES IDX 39 57 53 58 40 59 43 60 52 61 66 62 41 63 42 64 51 66 67 67
REMARK SMILES IDX 44 68 33 69 34 70 38 71 35 72 37 73 36 74 55 75 56 76 60 77
REMARK SMILES IDX 57 78 59 79 58 80 45 81 46 82 50 83 47 84 49 85 48 86
REMARK H PARENT 16 5 9 16 21 35 65 54 43 65
REMARK Flexibility Score: inf
ROOT
ATOM      1  C   UNL A   1      34.275  28.342  26.132  1.00  0.00     0.116 C 
ENDROOT
BRANCH   1   2
ATOM      2  N   UNL A   1      32.849  28.185  26.027  1.00  0.00    -0.356 N 
ATOM      3  C   UNL A   1      32.287  27.098  25.402  1.00  0.00     0.220 C 
ATOM      4  O   UNL A   1      31.256  27.249  24.751  1.00  0.00    -0.275 OA
ATOM      5  H   UNL A   1      32.260  28.875  26.413  1.00  0.00     0.163 HD
BRANCH   3   6
ATOM      6  C   UNL A   1      32.973  25.741  25.569  1.00  0.00     0.112 C 
BRANCH   6   7
ATOM      7  C   UNL A   1      32.512  24.842  26.746  1.00  0.00     0.138 C 
BRANCH   7   8
ATOM      8  C   UNL A   1      32.596  23.304  26.534  1.00  0.00     0.308 C 
ATOM      9  N   UNL A   1      34.956  20.667  25.182  1.00  0.00    -0.247 N 
ATOM     10  C   UNL A   1      33.847  21.622  25.398  1.00  0.00     0.314 C 
ATOM     11  C   UNL A   1      34.361  19.434  24.489  1.00  0.00     0.206 C 
ATOM     12  N   UNL A   1      33.783  22.793  25.961  1.00  0.00    -0.205 N 
ATOM     13  S   UNL A   1      32.294  20.906  24.718  1.00  0.00    -0.030 SA
ATOM     14  C   UNL A   1      32.938  19.280  25.044  1.00  0.00     0.120 C 
ATOM     15  C   UNL A   1      34.996  18.067  24.628  1.00  0.00     0.187 C 
ATOM     16  H   UNL A   1      34.597  23.347  25.989  1.00  0.00     0.316 HD
ATOM     17  C   UNL A   1      32.269  17.998  24.617  1.00  0.00     0.156 C 
ATOM     18  S   UNL A   1      33.651  16.901  24.333  1.00  0.00     0.155 S 
ATOM     19  O   UNL A   1      31.717  22.608  27.045  1.00  0.00    -0.247 OA
ATOM     20  O   UNL A   1      33.690  15.875  25.368  1.00  0.00    -0.229 OA
ATOM     21  O   UNL A   1      33.658  16.553  22.935  1.00  0.00    -0.229 OA
BRANCH   9  22
ATOM     22  C   UNL A   1      36.505  20.911  24.992  1.00  0.00     0.273 C 
BRANCH  22  23
ATOM     23  C   UNL A   1      37.451  21.981  25.726  1.00  0.00    -0.007 A 
ATOM     24  C   UNL A   1      40.343  25.203  26.077  1.00  0.00     0.044 C 
ATOM     25  C   UNL A   1      39.339  24.102  26.365  1.00  0.00    -0.051 A 
ATOM     26  C   UNL A   1      39.715  22.756  26.424  1.00  0.00     0.004 A 
ATOM     27  C   UNL A   1      37.970  24.339  26.358  1.00  0.00     0.004 A 
ATOM     28  C   UNL A   1      38.777  21.709  26.125  1.00  0.00     0.008 A 
ATOM     29  C   UNL A   1      37.040  23.278  26.114  1.00  0.00     0.008 A 
ENDBRANCH  22  23
ENDBRANCH   9  22
ENDBRANCH   7   8
ENDBRANCH   6   7
ENDBRANCH   3   6
ENDBRANCH   1   2
BRANCH   1  30
ATOM     30  C   UNL A   1      34.466  29.230  27.314  1.00  0.00     0.023 C 
BRANCH  30  31
ATOM     31  C   UNL A   1      35.867  29.335  27.799  1.00  0.00     0.023 C 
BRANCH  31  32
ATOM     32  C   UNL A   1      36.482  29.794  29.095  1.00  0.00     0.116 C 
BRANCH  32  33
ATOM     33  N   UNL A   1      37.792  30.408  29.217  1.00  0.00    -0.352 N 
ATOM     34  C   UNL A   1      39.019  29.859  29.632  1.00  0.00     0.251 C 
ATOM     35  H   UNL A   1      37.827  31.360  28.972  1.00  0.00     0.163 HD
ATOM     36  O   UNL A   1      40.044  30.508  29.420  1.00  0.00    -0.269 OA
BRANCH  34  37
ATOM     37  C   UNL A   1      39.216  28.541  30.337  1.00  0.00     0.039 A 
ATOM     38  C   UNL A   1      40.287  28.462  31.212  1.00  0.00     0.014 A 
ATOM     39  C   UNL A   1      38.939  27.398  29.659  1.00  0.00     0.014 A 
ATOM     40  C   UNL A   1      41.387  27.756  30.772  1.00  0.00     0.010 A 
ATOM     41  C   UNL A   1      40.001  26.889  28.997  1.00  0.00     0.010 A 
ATOM     42  C   UNL A   1      41.249  27.168  29.530  1.00  0.00    -0.014 A 
BRANCH  42  43
ATOM     43  C   UNL A   1      42.294  26.880  28.597  1.00  0.00     0.031 A 
ATOM     44  C   UNL A   1      42.725  25.485  28.583  1.00  0.00     0.074 A 
ATOM     45  C   UNL A   1      42.431  27.828  27.640  1.00  0.00     0.049 A 
ATOM     46  N   UNL A   1      43.861  25.079  28.162  1.00  0.00    -0.248 NA
ATOM     47  C   UNL A   1      41.901  24.394  29.127  1.00  0.00     0.031 C 
ATOM     48  C   UNL A   1      42.964  27.760  26.288  1.00  0.00     0.029 A 
ATOM     49  N   UNL A   1      42.185  29.191  27.818  1.00  0.00    -0.354 N 
ATOM     50  C   UNL A   1      43.687  23.737  27.912  1.00  0.00     0.074 A 
ATOM     51  C   UNL A   1      42.580  23.319  28.727  1.00  0.00     0.031 C 
ATOM     52  C   UNL A   1      43.281  29.009  25.882  1.00  0.00     0.029 A 
ATOM     53  C   UNL A   1      43.081  29.907  27.016  1.00  0.00     0.049 A 
ATOM     54  H   UNL A   1      41.499  29.581  28.404  1.00  0.00     0.167 HD
ATOM     55  C   UNL A   1      44.309  23.211  26.824  1.00  0.00     0.031 A 
ATOM     56  C   UNL A   1      44.083  30.592  27.652  1.00  0.00     0.031 A 
ATOM     57  C   UNL A   1      45.057  24.259  26.121  1.00  0.00     0.049 A 
ATOM     58  C   UNL A   1      45.420  29.888  27.510  1.00  0.00     0.074 A 
ATOM     59  C   UNL A   1      44.811  24.971  24.959  1.00  0.00     0.029 A 
ATOM     60  N   UNL A   1      46.010  24.980  26.826  1.00  0.00    -0.354 N 
ATOM     61  N   UNL A   1      45.556  28.622  27.219  1.00  0.00    -0.248 NA
ATOM     62  C   UNL A   1      46.705  30.563  27.654  1.00  0.00     0.031 C 
ATOM     63  C   UNL A   1      45.597  26.159  25.001  1.00  0.00     0.029 A 
ATOM     64  C   UNL A   1      46.315  26.161  26.184  1.00  0.00     0.049 A 
ATOM     65  H   UNL A   1      46.415  24.686  27.673  1.00  0.00     0.167 HD
ATOM     66  C   UNL A   1      46.883  28.309  27.103  1.00  0.00     0.074 A 
ATOM     67  C   UNL A   1      47.563  29.559  27.393  1.00  0.00     0.031 C 
ATOM     68  C   UNL A   1      47.308  27.051  26.777  1.00  0.00     0.031 A 
BRANCH  55  69
ATOM     69  C   UNL A   1      44.026  21.862  26.221  1.00  0.00    -0.014 A 
ATOM     70  C   UNL A   1      45.029  21.257  25.444  1.00  0.00     0.009 A 
ATOM     71  C   UNL A   1      42.839  21.128  26.379  1.00  0.00     0.009 A 
ATOM     72  C   UNL A   1      44.854  20.007  24.842  1.00  0.00     0.001 A 
ATOM     73  C   UNL A   1      42.648  19.881  25.767  1.00  0.00     0.001 A 
ATOM     74  C   UNL A   1      43.659  19.320  25.001  1.00  0.00     0.000 A 
ENDBRANCH  55  69
BRANCH  56  75
ATOM     75  C   UNL A   1      43.596  31.271  28.901  1.00  0.00    -0.014 A 
ATOM     76  C   UNL A   1      43.787  30.603  30.130  1.00  0.00     0.009 A 
ATOM     77  C   UNL A   1      43.375  32.658  28.929  1.00  0.00     0.009 A 
ATOM     78  C   UNL A   1      43.891  31.317  31.330  1.00  0.00     0.001 A 
ATOM     79  C   UNL A   1      43.464  33.365  30.137  1.00  0.00     0.001 A 
ATOM     80  C   UNL A   1      43.759  32.702  31.326  1.00  0.00     0.000 A 
ENDBRANCH  56  75
BRANCH  68  81
ATOM     81  C   UNL A   1      48.707  26.499  26.956  1.00  0.00    -0.014 A 
ATOM     82  C   UNL A   1      49.140  25.774  28.068  1.00  0.00     0.009 A 
ATOM     83  C   UNL A   1      49.621  26.583  25.874  1.00  0.00     0.009 A 
ATOM     84  C   UNL A   1      50.420  25.204  28.114  1.00  0.00     0.001 A 
ATOM     85  C   UNL A   1      50.863  25.953  25.881  1.00  0.00     0.001 A 
ATOM     86  C   UNL A   1      51.272  25.276  27.016  1.00  0.00     0.000 A 
ENDBRANCH  68  81
ENDBRANCH  42  43
ENDBRANCH  34  37
ENDBRANCH  32  33
ENDBRANCH  31  32
ENDBRANCH  30  31
ENDBRANCH   1  30
TORSDOF 15
ENDMDL
