MODEL 1
REMARK VINA RESULT:     -12.6      0.000      0.000
REMARK SMILES O=C(NCCCCNC(=O)[C@@H]1[C@@H](C(=O)Nc2cccc([N+](=O)[O-])c2)[C@@H]2C=C[C@H]1O2)c1ccc(-c2c3nc(c(-c4ccccc4)c4ccc([nH]4)c(-c4ccccc4)c4nc(c(-c5ccccc5)c5ccc2[nH]5)C=C4)C=C3)cc1
REMARK SMILES IDX 6 1 5 2 4 3 3 4 1 5 2 6 30 8 31 9 77 10 32 11 76 12 33 13
REMARK SMILES IDX 34 14 35 15 70 16 36 17 75 18 69 19 71 20 37 21 74 22 68 23
REMARK SMILES IDX 67 24 38 26 60 27 45 28 59 29 46 30 49 31 58 32 72 33 47 34
REMARK SMILES IDX 48 35 57 37 73 38 50 39 39 40 40 41 44 42 41 43 43 44 42 45
REMARK SMILES IDX 61 46 62 47 66 48 63 49 65 50 64 51 51 52 52 53 56 54 53 55
REMARK SMILES IDX 55 56 54 57 7 58 8 59 9 60 10 62 11 63 12 64 28 65 25 66
REMARK SMILES IDX 27 67 29 68 26 69 13 70 14 71 15 72 16 74 17 75 24 76 18 77
REMARK SMILES IDX 20 78 19 79 21 80 22 81 23 82
REMARK H PARENT 3 7 71 25 49 36 8 61 15 73
REMARK Flexibility Score: inf
ROOT
ATOM      1  C   UNL A   1      36.641  20.872  25.165  1.00  0.00     0.023 C 
ENDROOT
BRANCH   1   2
ATOM      2  C   UNL A   1      37.822  19.941  24.919  1.00  0.00     0.023 C 
BRANCH   2   3
ATOM      3  C   UNL A   1      39.063  20.237  25.749  1.00  0.00     0.116 C 
BRANCH   3   4
ATOM      4  N   UNL A   1      40.035  19.152  25.752  1.00  0.00    -0.352 N 
ATOM      5  O   UNL A   1      42.096  18.220  25.841  1.00  0.00    -0.269 OA
ATOM      6  C   UNL A   1      41.392  19.207  25.989  1.00  0.00     0.251 C 
ATOM      7  H   UNL A   1      39.673  18.258  25.557  1.00  0.00     0.163 HD
BRANCH   6   8
ATOM      8  C   UNL A   1      41.990  20.496  26.389  1.00  0.00     0.039 A 
ATOM      9  C   UNL A   1      42.044  20.849  27.737  1.00  0.00     0.014 A 
ATOM     10  C   UNL A   1      42.435  21.382  25.405  1.00  0.00     0.014 A 
ATOM     11  C   UNL A   1      42.363  22.152  28.088  1.00  0.00     0.010 A 
ATOM     12  C   UNL A   1      42.860  22.663  25.772  1.00  0.00     0.010 A 
ATOM     13  C   UNL A   1      42.787  23.071  27.111  1.00  0.00    -0.014 A 
BRANCH  13  14
ATOM     14  C   UNL A   1      43.204  24.426  27.547  1.00  0.00     0.031 A 
ATOM     15  C   UNL A   1      44.638  24.873  27.479  1.00  0.00     0.074 A 
ATOM     16  C   UNL A   1      42.244  25.284  27.946  1.00  0.00     0.049 A 
ATOM     17  N   UNL A   1      45.144  26.048  27.762  1.00  0.00    -0.248 NA
ATOM     18  C   UNL A   1      45.636  23.883  27.044  1.00  0.00     0.031 C 
ATOM     19  C   UNL A   1      40.818  24.959  28.057  1.00  0.00     0.029 A 
ATOM     20  N   UNL A   1      42.309  26.609  28.289  1.00  0.00    -0.354 N 
ATOM     21  C   UNL A   1      46.513  25.935  27.561  1.00  0.00     0.074 A 
ATOM     22  C   UNL A   1      46.766  24.571  27.146  1.00  0.00     0.031 C 
ATOM     23  C   UNL A   1      40.137  26.070  28.368  1.00  0.00     0.029 A 
ATOM     24  C   UNL A   1      41.081  27.165  28.552  1.00  0.00     0.049 A 
ATOM     25  H   UNL A   1      43.154  27.112  28.342  1.00  0.00     0.167 HD
ATOM     26  C   UNL A   1      47.471  26.883  27.705  1.00  0.00     0.031 A 
ATOM     27  C   UNL A   1      40.746  28.415  28.915  1.00  0.00     0.031 A 
ATOM     28  C   UNL A   1      47.215  28.241  28.114  1.00  0.00     0.049 A 
ATOM     29  C   UNL A   1      41.830  29.436  29.079  1.00  0.00     0.074 A 
ATOM     30  C   UNL A   1      48.119  29.277  28.280  1.00  0.00     0.029 A 
ATOM     31  N   UNL A   1      45.963  28.752  28.418  1.00  0.00    -0.354 N 
ATOM     32  N   UNL A   1      43.119  29.309  28.875  1.00  0.00    -0.248 NA
ATOM     33  C   UNL A   1      41.414  30.769  29.531  1.00  0.00     0.031 C 
ATOM     34  C   UNL A   1      47.419  30.403  28.725  1.00  0.00     0.029 A 
ATOM     35  C   UNL A   1      46.073  30.083  28.789  1.00  0.00     0.049 A 
ATOM     36  H   UNL A   1      45.120  28.244  28.378  1.00  0.00     0.167 HD
ATOM     37  C   UNL A   1      43.668  30.547  29.172  1.00  0.00     0.074 A 
ATOM     38  C   UNL A   1      42.569  31.419  29.535  1.00  0.00     0.031 C 
ATOM     39  C   UNL A   1      44.969  30.927  29.160  1.00  0.00     0.031 A 
BRANCH  26  40
ATOM     40  C   UNL A   1      48.897  26.486  27.440  1.00  0.00    -0.014 A 
ATOM     41  C   UNL A   1      49.719  25.999  28.467  1.00  0.00     0.009 A 
ATOM     42  C   UNL A   1      49.401  26.530  26.130  1.00  0.00     0.009 A 
ATOM     43  C   UNL A   1      51.024  25.581  28.189  1.00  0.00     0.001 A 
ATOM     44  C   UNL A   1      50.696  26.091  25.851  1.00  0.00     0.001 A 
ATOM     45  C   UNL A   1      51.509  25.621  26.882  1.00  0.00     0.000 A 
ENDBRANCH  26  40
BRANCH  27  46
ATOM     46  C   UNL A   1      39.325  28.754  29.173  1.00  0.00    -0.014 A 
ATOM     47  C   UNL A   1      38.777  28.623  30.457  1.00  0.00     0.009 A 
ATOM     48  C   UNL A   1      38.509  29.223  28.131  1.00  0.00     0.009 A 
ATOM     49  C   UNL A   1      37.434  28.935  30.686  1.00  0.00     0.001 A 
ATOM     50  C   UNL A   1      37.178  29.565  28.369  1.00  0.00     0.001 A 
ATOM     51  C   UNL A   1      36.639  29.411  29.644  1.00  0.00     0.000 A 
ENDBRANCH  27  46
BRANCH  39  52
ATOM     52  C   UNL A   1      45.255  32.349  29.543  1.00  0.00    -0.014 A 
ATOM     53  C   UNL A   1      45.259  33.369  28.578  1.00  0.00     0.009 A 
ATOM     54  C   UNL A   1      45.525  32.672  30.880  1.00  0.00     0.009 A 
ATOM     55  C   UNL A   1      45.572  34.680  28.941  1.00  0.00     0.001 A 
ATOM     56  C   UNL A   1      45.812  33.988  31.245  1.00  0.00     0.001 A 
ATOM     57  C   UNL A   1      45.846  34.988  30.274  1.00  0.00     0.000 A 
ENDBRANCH  39  52
ENDBRANCH  13  14
ENDBRANCH   6   8
ENDBRANCH   3   4
ENDBRANCH   2   3
ENDBRANCH   1   2
BRANCH   1  58
ATOM     58  C   UNL A   1      36.857  22.309  24.713  1.00  0.00     0.116 C 
BRANCH  58  59
ATOM     59  N   UNL A   1      36.138  22.644  23.496  1.00  0.00    -0.356 N 
ATOM     60  C   UNL A   1      34.863  23.137  23.384  1.00  0.00     0.227 C 
ATOM     61  H   UNL A   1      36.623  22.501  22.651  1.00  0.00     0.163 HD
ATOM     62  O   UNL A   1      34.405  23.364  22.269  1.00  0.00    -0.275 OA
BRANCH  60  63
ATOM     63  C   UNL A   1      34.082  23.332  24.665  1.00  0.00     0.127 C 
ATOM     64  C   UNL A   1      33.067  22.227  25.037  1.00  0.00     0.127 C 
ATOM     65  C   UNL A   1      33.171  24.570  24.588  1.00  0.00     0.155 C 
ATOM     66  C   UNL A   1      31.754  23.016  25.142  1.00  0.00     0.155 C 
ATOM     67  C   UNL A   1      32.202  24.479  23.451  1.00  0.00     0.004 C 
ATOM     68  O   UNL A   1      32.253  24.274  25.672  1.00  0.00    -0.365 OA
ATOM     69  C   UNL A   1      31.335  23.513  23.786  1.00  0.00     0.004 C 
BRANCH  64  70
ATOM     70  C   UNL A   1      33.280  21.370  26.291  1.00  0.00     0.231 C 
ATOM     71  O   UNL A   1      33.624  21.944  27.335  1.00  0.00    -0.274 OA
ATOM     72  N   UNL A   1      33.024  20.033  26.405  1.00  0.00    -0.325 N 
ATOM     73  H   UNL A   1      32.877  19.736  27.332  1.00  0.00     0.169 HD
BRANCH  72  74
ATOM     74  C   UNL A   1      32.928  19.007  25.462  1.00  0.00     0.048 A 
ATOM     75  C   UNL A   1      32.565  19.347  24.154  1.00  0.00     0.026 A 
ATOM     76  C   UNL A   1      33.204  17.679  25.776  1.00  0.00     0.111 A 
ATOM     77  C   UNL A   1      32.625  18.394  23.131  1.00  0.00     0.009 A 
ATOM     78  C   UNL A   1      33.281  16.737  24.746  1.00  0.00     0.271 A 
ATOM     79  C   UNL A   1      33.013  17.087  23.419  1.00  0.00     0.086 A 
BRANCH  78  80
ATOM     80  N   UNL A   1      33.733  15.384  25.052  1.00  0.00     0.062 N 
ATOM     81  O   UNL A   1      32.855  14.534  25.259  1.00  0.00    -0.258 OA
ATOM     82  O   UNL A   1      34.952  15.174  25.067  1.00  0.00    -0.258 OA
ENDBRANCH  78  80
ENDBRANCH  72  74
ENDBRANCH  64  70
ENDBRANCH  60  63
ENDBRANCH  58  59
ENDBRANCH   1  58
TORSDOF 14
ENDMDL
MODEL 2
REMARK VINA RESULT:     -12.5      5.878     10.982
REMARK SMILES O=C(NCCCCNC(=O)[C@@H]1[C@@H](C(=O)Nc2cccc([N+](=O)[O-])c2)[C@@H]2C=C[C@H]1O2)c1ccc(-c2c3nc(c(-c4ccccc4)c4ccc([nH]4)c(-c4ccccc4)c4nc(c(-c5ccccc5)c5ccc2[nH]5)C=C4)C=C3)cc1
REMARK SMILES IDX 6 1 5 2 4 3 3 4 1 5 2 6 30 8 31 9 77 10 32 11 76 12 33 13
REMARK SMILES IDX 34 14 35 15 70 16 36 17 75 18 69 19 71 20 37 21 74 22 68 23
REMARK SMILES IDX 67 24 38 26 60 27 45 28 59 29 46 30 49 31 58 32 72 33 47 34
REMARK SMILES IDX 48 35 57 37 73 38 50 39 39 40 40 41 44 42 41 43 43 44 42 45
REMARK SMILES IDX 61 46 62 47 66 48 63 49 65 50 64 51 51 52 52 53 56 54 53 55
REMARK SMILES IDX 55 56 54 57 7 58 8 59 9 60 10 62 11 63 12 64 28 65 25 66
REMARK SMILES IDX 27 67 29 68 26 69 13 70 14 71 15 72 16 74 17 75 24 76 18 77
REMARK SMILES IDX 20 78 19 79 21 80 22 81 23 82
REMARK H PARENT 3 7 71 25 49 36 8 61 15 73
REMARK Flexibility Score: inf
ROOT
ATOM      1  C   UNL A   1      31.867  30.628  26.177  1.00  0.00     0.023 C 
ENDROOT
BRANCH   1   2
ATOM      2  C   UNL A   1      31.513  31.993  26.753  1.00  0.00     0.023 C 
BRANCH   2   3
ATOM      3  C   UNL A   1      32.688  32.779  27.320  1.00  0.00     0.116 C 
BRANCH   3   4
ATOM      4  N   UNL A   1      32.360  34.160  27.646  1.00  0.00    -0.352 N 
ATOM      5  O   UNL A   1      32.500  36.105  28.797  1.00  0.00    -0.269 OA
ATOM      6  C   UNL A   1      32.967  35.002  28.554  1.00  0.00     0.251 C 
ATOM      7  H   UNL A   1      31.602  34.545  27.150  1.00  0.00     0.163 HD
BRANCH   6   8
ATOM      8  C   UNL A   1      34.174  34.530  29.260  1.00  0.00     0.039 A 
ATOM      9  C   UNL A   1      35.431  34.703  28.681  1.00  0.00     0.014 A 
ATOM     10  C   UNL A   1      34.039  33.853  30.474  1.00  0.00     0.014 A 
ATOM     11  C   UNL A   1      36.524  34.038  29.215  1.00  0.00     0.010 A 
ATOM     12  C   UNL A   1      35.164  33.273  31.068  1.00  0.00     0.010 A 
ATOM     13  C   UNL A   1      36.407  33.326  30.422  1.00  0.00    -0.014 A 
BRANCH  13  14
ATOM     14  C   UNL A   1      37.625  32.706  31.000  1.00  0.00     0.031 A 
ATOM     15  C   UNL A   1      38.188  33.151  32.321  1.00  0.00     0.074 A 
ATOM     16  C   UNL A   1      38.182  31.672  30.338  1.00  0.00     0.049 A 
ATOM     17  N   UNL A   1      39.206  32.661  32.984  1.00  0.00    -0.248 NA
ATOM     18  C   UNL A   1      37.536  34.291  32.985  1.00  0.00     0.031 C 
ATOM     19  C   UNL A   1      37.724  31.156  29.044  1.00  0.00     0.029 A 
ATOM     20  N   UNL A   1      39.221  30.845  30.675  1.00  0.00    -0.354 N 
ATOM     21  C   UNL A   1      39.330  33.439  34.127  1.00  0.00     0.074 A 
ATOM     22  C   UNL A   1      38.294  34.448  34.064  1.00  0.00     0.031 C 
ATOM     23  C   UNL A   1      38.427  30.059  28.734  1.00  0.00     0.029 A 
ATOM     24  C   UNL A   1      39.432  29.838  29.766  1.00  0.00     0.049 A 
ATOM     25  H   UNL A   1      39.762  30.962  31.489  1.00  0.00     0.167 HD
ATOM     26  C   UNL A   1      40.225  33.321  35.138  1.00  0.00     0.031 A 
ATOM     27  C   UNL A   1      40.343  28.849  29.751  1.00  0.00     0.031 A 
ATOM     28  C   UNL A   1      41.252  32.313  35.201  1.00  0.00     0.049 A 
ATOM     29  C   UNL A   1      41.327  28.755  30.877  1.00  0.00     0.074 A 
ATOM     30  C   UNL A   1      42.200  32.107  36.189  1.00  0.00     0.029 A 
ATOM     31  N   UNL A   1      41.465  31.340  34.236  1.00  0.00    -0.354 N 
ATOM     32  N   UNL A   1      41.420  29.497  31.954  1.00  0.00    -0.248 NA
ATOM     33  C   UNL A   1      42.333  27.691  30.783  1.00  0.00     0.031 C 
ATOM     34  C   UNL A   1      43.012  31.035  35.802  1.00  0.00     0.029 A 
ATOM     35  C   UNL A   1      42.540  30.544  34.596  1.00  0.00     0.049 A 
ATOM     36  H   UNL A   1      40.931  31.232  33.415  1.00  0.00     0.167 HD
ATOM     37  C   UNL A   1      42.496  28.989  32.666  1.00  0.00     0.074 A 
ATOM     38  C   UNL A   1      42.998  27.854  31.917  1.00  0.00     0.031 C 
ATOM     39  C   UNL A   1      43.032  29.430  33.830  1.00  0.00     0.031 A 
BRANCH  26  40
ATOM     40  C   UNL A   1      40.152  34.320  36.260  1.00  0.00    -0.014 A 
ATOM     41  C   UNL A   1      40.861  35.529  36.205  1.00  0.00     0.009 A 
ATOM     42  C   UNL A   1      39.303  34.080  37.353  1.00  0.00     0.009 A 
ATOM     43  C   UNL A   1      40.735  36.469  37.231  1.00  0.00     0.001 A 
ATOM     44  C   UNL A   1      39.162  35.031  38.365  1.00  0.00     0.001 A 
ATOM     45  C   UNL A   1      39.881  36.223  38.306  1.00  0.00     0.000 A 
ENDBRANCH  26  40
BRANCH  27  46
ATOM     46  C   UNL A   1      40.379  27.894  28.616  1.00  0.00    -0.014 A 
ATOM     47  C   UNL A   1      39.684  26.678  28.679  1.00  0.00     0.009 A 
ATOM     48  C   UNL A   1      41.105  28.203  27.455  1.00  0.00     0.009 A 
ATOM     49  C   UNL A   1      39.733  25.781  27.608  1.00  0.00     0.001 A 
ATOM     50  C   UNL A   1      41.127  27.321  26.375  1.00  0.00     0.001 A 
ATOM     51  C   UNL A   1      40.449  26.106  26.456  1.00  0.00     0.000 A 
ENDBRANCH  27  46
BRANCH  39  52
ATOM     52  C   UNL A   1      44.213  28.668  34.355  1.00  0.00    -0.014 A 
ATOM     53  C   UNL A   1      45.522  29.038  34.008  1.00  0.00     0.009 A 
ATOM     54  C   UNL A   1      44.015  27.568  35.201  1.00  0.00     0.009 A 
ATOM     55  C   UNL A   1      46.609  28.292  34.467  1.00  0.00     0.001 A 
ATOM     56  C   UNL A   1      45.105  26.840  35.679  1.00  0.00     0.001 A 
ATOM     57  C   UNL A   1      46.399  27.196  35.303  1.00  0.00     0.000 A 
ENDBRANCH  39  52
ENDBRANCH  13  14
ENDBRANCH   6   8
ENDBRANCH   3   4
ENDBRANCH   2   3
ENDBRANCH   1   2
BRANCH   1  58
ATOM     58  C   UNL A   1      32.429  29.635  27.185  1.00  0.00     0.116 C 
BRANCH  58  59
ATOM     59  N   UNL A   1      31.619  28.437  27.326  1.00  0.00    -0.356 N 
ATOM     60  C   UNL A   1      31.742  27.257  26.637  1.00  0.00     0.227 C 
ATOM     61  H   UNL A   1      30.898  28.475  27.995  1.00  0.00     0.163 HD
ATOM     62  O   UNL A   1      30.966  26.339  26.881  1.00  0.00    -0.275 OA
BRANCH  60  63
ATOM     63  C   UNL A   1      32.818  27.183  25.576  1.00  0.00     0.127 C 
ATOM     64  C   UNL A   1      32.352  27.238  24.104  1.00  0.00     0.127 C 
ATOM     65  C   UNL A   1      33.556  25.833  25.613  1.00  0.00     0.155 C 
ATOM     66  C   UNL A   1      32.922  25.931  23.535  1.00  0.00     0.155 C 
ATOM     67  C   UNL A   1      32.620  24.682  25.418  1.00  0.00     0.004 C 
ATOM     68  O   UNL A   1      34.159  25.840  24.293  1.00  0.00    -0.365 OA
ATOM     69  C   UNL A   1      32.219  24.748  24.141  1.00  0.00     0.004 C 
BRANCH  64  70
ATOM     70  C   UNL A   1      32.737  28.426  23.213  1.00  0.00     0.231 C 
ATOM     71  O   UNL A   1      33.931  28.761  23.176  1.00  0.00    -0.274 OA
ATOM     72  N   UNL A   1      31.906  29.095  22.360  1.00  0.00    -0.325 N 
ATOM     73  H   UNL A   1      32.377  29.565  21.635  1.00  0.00     0.169 HD
BRANCH  72  74
ATOM     74  C   UNL A   1      30.517  29.241  22.318  1.00  0.00     0.048 A 
ATOM     75  C   UNL A   1      29.734  28.289  22.981  1.00  0.00     0.026 A 
ATOM     76  C   UNL A   1      29.900  30.305  21.665  1.00  0.00     0.111 A 
ATOM     77  C   UNL A   1      28.355  28.480  23.123  1.00  0.00     0.009 A 
ATOM     78  C   UNL A   1      28.525  30.500  21.828  1.00  0.00     0.271 A 
ATOM     79  C   UNL A   1      27.747  29.605  22.570  1.00  0.00     0.086 A 
BRANCH  78  80
ATOM     80  N   UNL A   1      27.908  31.705  21.284  1.00  0.00     0.062 N 
ATOM     81  O   UNL A   1      27.522  31.653  20.108  1.00  0.00    -0.258 OA
ATOM     82  O   UNL A   1      27.797  32.682  22.034  1.00  0.00    -0.258 OA
ENDBRANCH  78  80
ENDBRANCH  72  74
ENDBRANCH  64  70
ENDBRANCH  60  63
ENDBRANCH  58  59
ENDBRANCH   1  58
TORSDOF 14
ENDMDL
MODEL 3
REMARK VINA RESULT:     -12.5      0.703      5.889
REMARK SMILES O=C(NCCCCNC(=O)[C@@H]1[C@@H](C(=O)Nc2cccc([N+](=O)[O-])c2)[C@@H]2C=C[C@H]1O2)c1ccc(-c2c3nc(c(-c4ccccc4)c4ccc([nH]4)c(-c4ccccc4)c4nc(c(-c5ccccc5)c5ccc2[nH]5)C=C4)C=C3)cc1
REMARK SMILES IDX 6 1 5 2 4 3 3 4 1 5 2 6 30 8 31 9 77 10 32 11 76 12 33 13
REMARK SMILES IDX 34 14 35 15 70 16 36 17 75 18 69 19 71 20 37 21 74 22 68 23
REMARK SMILES IDX 67 24 38 26 60 27 45 28 59 29 46 30 49 31 58 32 72 33 47 34
REMARK SMILES IDX 48 35 57 37 73 38 50 39 39 40 40 41 44 42 41 43 43 44 42 45
REMARK SMILES IDX 61 46 62 47 66 48 63 49 65 50 64 51 51 52 52 53 56 54 53 55
REMARK SMILES IDX 55 56 54 57 7 58 8 59 9 60 10 62 11 63 12 64 28 65 25 66
REMARK SMILES IDX 27 67 29 68 26 69 13 70 14 71 15 72 16 74 17 75 24 76 18 77
REMARK SMILES IDX 20 78 19 79 21 80 22 81 23 82
REMARK H PARENT 3 7 71 25 49 36 8 61 15 73
REMARK Flexibility Score: inf
ROOT
ATOM      1  C   UNL A   1      36.630  20.814  25.143  1.00  0.00     0.023 C 
ENDROOT
BRANCH   1   2
ATOM      2  C   UNL A   1      37.910  20.045  24.840  1.00  0.00     0.023 C 
BRANCH   2   3
ATOM      3  C   UNL A   1      39.105  20.411  25.709  1.00  0.00     0.116 C 
BRANCH   3   4
ATOM      4  N   UNL A   1      40.104  19.356  25.799  1.00  0.00    -0.352 N 
ATOM      5  O   UNL A   1      42.181  18.486  26.036  1.00  0.00    -0.269 OA
ATOM      6  C   UNL A   1      41.443  19.456  26.115  1.00  0.00     0.251 C 
ATOM      7  H   UNL A   1      39.780  18.446  25.608  1.00  0.00     0.163 HD
BRANCH   6   8
ATOM      8  C   UNL A   1      41.979  20.773  26.513  1.00  0.00     0.039 A 
ATOM      9  C   UNL A   1      41.956  21.156  27.854  1.00  0.00     0.014 A 
ATOM     10  C   UNL A   1      42.444  21.651  25.532  1.00  0.00     0.014 A 
ATOM     11  C   UNL A   1      42.217  22.476  28.189  1.00  0.00     0.010 A 
ATOM     12  C   UNL A   1      42.810  22.952  25.889  1.00  0.00     0.010 A 
ATOM     13  C   UNL A   1      42.659  23.387  27.213  1.00  0.00    -0.014 A 
BRANCH  13  14
ATOM     14  C   UNL A   1      43.012  24.764  27.637  1.00  0.00     0.031 A 
ATOM     15  C   UNL A   1      41.957  25.791  27.944  1.00  0.00     0.074 A 
ATOM     16  C   UNL A   1      44.315  25.057  27.813  1.00  0.00     0.049 A 
ATOM     17  N   UNL A   1      42.110  27.014  28.388  1.00  0.00    -0.248 NA
ATOM     18  C   UNL A   1      40.554  25.408  27.723  1.00  0.00     0.031 C 
ATOM     19  C   UNL A   1      45.428  24.141  27.541  1.00  0.00     0.029 A 
ATOM     20  N   UNL A   1      44.926  26.184  28.297  1.00  0.00    -0.354 N 
ATOM     21  C   UNL A   1      40.833  27.551  28.481  1.00  0.00     0.074 A 
ATOM     22  C   UNL A   1      39.913  26.528  28.031  1.00  0.00     0.031 C 
ATOM     23  C   UNL A   1      46.574  24.713  27.932  1.00  0.00     0.029 A 
ATOM     24  C   UNL A   1      46.289  26.060  28.410  1.00  0.00     0.049 A 
ATOM     25  H   UNL A   1      44.435  27.002  28.540  1.00  0.00     0.167 HD
ATOM     26  C   UNL A   1      40.462  28.784  28.906  1.00  0.00     0.031 A 
ATOM     27  C   UNL A   1      47.215  26.935  28.837  1.00  0.00     0.031 A 
ATOM     28  C   UNL A   1      41.380  29.798  29.357  1.00  0.00     0.049 A 
ATOM     29  C   UNL A   1      46.774  28.294  29.286  1.00  0.00     0.074 A 
ATOM     30  C   UNL A   1      41.098  31.074  29.815  1.00  0.00     0.029 A 
ATOM     31  N   UNL A   1      42.757  29.651  29.410  1.00  0.00    -0.354 N 
ATOM     32  N   UNL A   1      45.558  28.778  29.374  1.00  0.00    -0.248 NA
ATOM     33  C   UNL A   1      47.831  29.229  29.690  1.00  0.00     0.031 C 
ATOM     34  C   UNL A   1      42.309  31.713  30.106  1.00  0.00     0.029 A 
ATOM     35  C   UNL A   1      43.340  30.818  29.875  1.00  0.00     0.049 A 
ATOM     36  H   UNL A   1      43.248  28.836  29.154  1.00  0.00     0.167 HD
ATOM     37  C   UNL A   1      45.705  30.075  29.843  1.00  0.00     0.074 A 
ATOM     38  C   UNL A   1      47.123  30.287  30.056  1.00  0.00     0.031 C 
ATOM     39  C   UNL A   1      44.753  31.013  30.065  1.00  0.00     0.031 A 
BRANCH  26  40
ATOM     40  C   UNL A   1      38.996  29.121  28.886  1.00  0.00    -0.014 A 
ATOM     41  C   UNL A   1      38.381  29.625  27.730  1.00  0.00     0.009 A 
ATOM     42  C   UNL A   1      38.206  28.861  30.017  1.00  0.00     0.009 A 
ATOM     43  C   UNL A   1      37.007  29.878  27.713  1.00  0.00     0.001 A 
ATOM     44  C   UNL A   1      36.830  29.094  29.991  1.00  0.00     0.001 A 
ATOM     45  C   UNL A   1      36.231  29.606  28.841  1.00  0.00     0.000 A 
ENDBRANCH  26  40
BRANCH  27  46
ATOM     46  C   UNL A   1      48.650  26.556  28.829  1.00  0.00    -0.014 A 
ATOM     47  C   UNL A   1      49.425  26.705  27.670  1.00  0.00     0.009 A 
ATOM     48  C   UNL A   1      49.254  26.052  29.991  1.00  0.00     0.009 A 
ATOM     49  C   UNL A   1      50.773  26.335  27.671  1.00  0.00     0.001 A 
ATOM     50  C   UNL A   1      50.607  25.714  30.000  1.00  0.00     0.001 A 
ATOM     51  C   UNL A   1      51.363  25.846  28.836  1.00  0.00     0.000 A 
ENDBRANCH  27  46
BRANCH  39  52
ATOM     52  C   UNL A   1      45.229  32.343  30.572  1.00  0.00    -0.014 A 
ATOM     53  C   UNL A   1      45.354  32.587  31.950  1.00  0.00     0.009 A 
ATOM     54  C   UNL A   1      45.551  33.362  29.665  1.00  0.00     0.009 A 
ATOM     55  C   UNL A   1      45.754  33.843  32.408  1.00  0.00     0.001 A 
ATOM     56  C   UNL A   1      45.976  34.608  30.126  1.00  0.00     0.001 A 
ATOM     57  C   UNL A   1      46.066  34.851  31.496  1.00  0.00     0.000 A 
ENDBRANCH  39  52
ENDBRANCH  13  14
ENDBRANCH   6   8
ENDBRANCH   3   4
ENDBRANCH   2   3
ENDBRANCH   1   2
BRANCH   1  58
ATOM     58  C   UNL A   1      36.690  22.302  24.830  1.00  0.00     0.116 C 
BRANCH  58  59
ATOM     59  N   UNL A   1      36.103  22.645  23.546  1.00  0.00    -0.356 N 
ATOM     60  C   UNL A   1      34.839  23.120  23.302  1.00  0.00     0.227 C 
ATOM     61  H   UNL A   1      36.680  22.523  22.757  1.00  0.00     0.163 HD
ATOM     62  O   UNL A   1      34.503  23.357  22.147  1.00  0.00    -0.275 OA
BRANCH  60  63
ATOM     63  C   UNL A   1      33.920  23.282  24.492  1.00  0.00     0.127 C 
ATOM     64  C   UNL A   1      32.981  22.097  24.814  1.00  0.00     0.127 C 
ATOM     65  C   UNL A   1      32.909  24.422  24.273  1.00  0.00     0.155 C 
ATOM     66  C   UNL A   1      31.596  22.757  24.757  1.00  0.00     0.155 C 
ATOM     67  C   UNL A   1      32.071  24.197  23.054  1.00  0.00     0.004 C 
ATOM     68  O   UNL A   1      31.919  24.076  25.277  1.00  0.00    -0.365 OA
ATOM     69  C   UNL A   1      31.269  23.164  23.346  1.00  0.00     0.004 C 
BRANCH  64  70
ATOM     70  C   UNL A   1      33.147  21.309  26.119  1.00  0.00     0.231 C 
ATOM     71  O   UNL A   1      33.387  21.947  27.155  1.00  0.00    -0.274 OA
ATOM     72  N   UNL A   1      32.951  19.967  26.279  1.00  0.00    -0.325 N 
ATOM     73  H   UNL A   1      32.754  19.704  27.207  1.00  0.00     0.169 HD
BRANCH  72  74
ATOM     74  C   UNL A   1      32.975  18.896  25.382  1.00  0.00     0.048 A 
ATOM     75  C   UNL A   1      32.652  19.152  24.044  1.00  0.00     0.026 A 
ATOM     76  C   UNL A   1      33.329  17.607  25.770  1.00  0.00     0.111 A 
ATOM     77  C   UNL A   1      32.830  18.162  23.071  1.00  0.00     0.009 A 
ATOM     78  C   UNL A   1      33.523  16.629  24.791  1.00  0.00     0.271 A 
ATOM     79  C   UNL A   1      33.296  16.900  23.437  1.00  0.00     0.086 A 
BRANCH  78  80
ATOM     80  N   UNL A   1      34.055  15.328  25.180  1.00  0.00     0.062 N 
ATOM     81  O   UNL A   1      33.230  14.446  25.455  1.00  0.00    -0.258 OA
ATOM     82  O   UNL A   1      35.285  15.189  25.192  1.00  0.00    -0.258 OA
ENDBRANCH  78  80
ENDBRANCH  72  74
ENDBRANCH  64  70
ENDBRANCH  60  63
ENDBRANCH  58  59
ENDBRANCH   1  58
TORSDOF 14
ENDMDL
