MODEL 1
REMARK VINA RESULT:     -11.1      0.000      0.000
REMARK SMILES CC[C@@H](NS(=O)(=O)c1cc(C)ccc1C)C(=O)NCCCCNC(=O)c1ccc(-c2c3nc(c(-c4ccccc4)c4ccc([nH]4)c(-c4ccccc4)c4nc(c(-c5ccccc5)c5ccc2[nH]5)C=C4)C=C3)cc1
REMARK SMILES IDX 20 1 19 2 18 3 16 4 17 5 3 7 2 8 1 9 4 10 5 12 6 13 7 14
REMARK SMILES IDX 8 15 9 16 14 17 10 18 13 19 15 20 11 21 12 22 21 23 22 24
REMARK SMILES IDX 23 25 24 26 25 28 26 29 27 30 73 31 28 32 72 33 29 34 30 35
REMARK SMILES IDX 31 36 66 37 32 38 71 39 65 40 67 41 33 42 70 43 64 44 63 45
REMARK SMILES IDX 34 47 56 48 41 49 55 50 42 51 45 52 54 53 68 54 43 55 44 56
REMARK SMILES IDX 53 58 69 59 46 60 35 61 36 62 40 63 37 64 39 65 38 66 57 67
REMARK SMILES IDX 58 68 62 69 59 70 61 71 60 72 47 73 48 74 52 75 49 76 51 77
REMARK SMILES IDX 50 78
REMARK H PARENT 18 6 4 11 23 27 67 46 45 57
REMARK Flexibility Score: inf
ROOT
ATOM      1  C   UNL A   1      32.903  29.399  25.270  1.00  0.00     0.023 C 
ENDROOT
BRANCH   1   2
ATOM      2  C   UNL A   1      33.212  29.131  23.796  1.00  0.00     0.116 C 
BRANCH   2   3
ATOM      3  N   UNL A   1      31.978  29.067  23.038  1.00  0.00    -0.355 N 
ATOM      4  C   UNL A   1      31.250  27.979  22.646  1.00  0.00     0.238 C 
ATOM      5  O   UNL A   1      30.458  28.118  21.711  1.00  0.00    -0.273 OA
ATOM      6  H   UNL A   1      31.608  29.938  22.766  1.00  0.00     0.163 HD
BRANCH   4   7
ATOM      7  C   UNL A   1      31.385  26.645  23.382  1.00  0.00     0.158 C 
BRANCH   7   8
ATOM      8  C   UNL A   1      30.176  26.435  24.297  1.00  0.00     0.027 C 
ATOM      9  C   UNL A   1      30.520  26.257  25.766  1.00  0.00     0.006 C 
ENDBRANCH   7   8
BRANCH   7  10
ATOM     10  N   UNL A   1      31.583  25.562  22.397  1.00  0.00    -0.199 NA
ATOM     11  H   UNL A   1      31.382  25.948  21.475  1.00  0.00     0.142 HD
BRANCH  10  12
ATOM     12  S   UNL A   1      33.110  24.838  22.320  1.00  0.00     0.241 S 
ATOM     13  O   UNL A   1      33.277  24.273  21.012  1.00  0.00    -0.207 OA
ATOM     14  O   UNL A   1      34.007  25.890  22.777  1.00  0.00    -0.207 OA
BRANCH  12  15
ATOM     15  C   UNL A   1      33.070  23.495  23.520  1.00  0.00     0.085 A 
ATOM     16  C   UNL A   1      31.867  23.234  24.179  1.00  0.00     0.025 A 
ATOM     17  C   UNL A   1      34.158  22.674  23.816  1.00  0.00    -0.031 A 
ATOM     18  C   UNL A   1      31.801  22.256  25.187  1.00  0.00    -0.050 A 
ATOM     19  C   UNL A   1      34.021  21.563  24.671  1.00  0.00     0.005 A 
ATOM     20  C   UNL A   1      35.519  22.929  23.321  1.00  0.00     0.046 C 
ATOM     21  C   UNL A   1      30.647  22.199  26.136  1.00  0.00     0.044 C 
ATOM     22  C   UNL A   1      32.850  21.360  25.365  1.00  0.00     0.004 A 
ENDBRANCH  12  15
ENDBRANCH  10  12
ENDBRANCH   7  10
ENDBRANCH   4   7
ENDBRANCH   2   3
ENDBRANCH   1   2
BRANCH   1  23
ATOM     23  C   UNL A   1      33.971  28.904  26.259  1.00  0.00     0.023 C 
BRANCH  23  24
ATOM     24  C   UNL A   1      34.094  29.720  27.545  1.00  0.00     0.116 C 
BRANCH  24  25
ATOM     25  N   UNL A   1      34.580  31.086  27.299  1.00  0.00    -0.352 N 
ATOM     26  C   UNL A   1      35.659  31.814  27.770  1.00  0.00     0.251 C 
ATOM     27  H   UNL A   1      34.018  31.589  26.665  1.00  0.00     0.163 HD
ATOM     28  O   UNL A   1      35.659  33.035  27.646  1.00  0.00    -0.269 OA
BRANCH  26  29
ATOM     29  C   UNL A   1      36.829  31.154  28.386  1.00  0.00     0.039 A 
ATOM     30  C   UNL A   1      37.666  31.749  29.342  1.00  0.00     0.014 A 
ATOM     31  C   UNL A   1      37.260  29.971  27.843  1.00  0.00     0.014 A 
ATOM     32  C   UNL A   1      38.913  31.151  29.629  1.00  0.00     0.010 A 
ATOM     33  C   UNL A   1      38.135  29.198  28.535  1.00  0.00     0.010 A 
ATOM     34  C   UNL A   1      39.188  29.891  29.099  1.00  0.00    -0.014 A 
BRANCH  34  35
ATOM     35  C   UNL A   1      40.372  29.060  29.293  1.00  0.00     0.031 A 
ATOM     36  C   UNL A   1      40.633  28.723  30.720  1.00  0.00     0.074 A 
ATOM     37  C   UNL A   1      40.956  28.356  28.296  1.00  0.00     0.049 A 
ATOM     38  N   UNL A   1      41.577  29.228  31.442  1.00  0.00    -0.248 NA
ATOM     39  C   UNL A   1      39.658  27.930  31.494  1.00  0.00     0.031 C 
ATOM     40  C   UNL A   1      40.714  28.373  26.845  1.00  0.00     0.029 A 
ATOM     41  N   UNL A   1      41.841  27.319  28.424  1.00  0.00    -0.354 N 
ATOM     42  C   UNL A   1      41.411  28.687  32.708  1.00  0.00     0.074 A 
ATOM     43  C   UNL A   1      40.071  28.171  32.739  1.00  0.00     0.031 C 
ATOM     44  C   UNL A   1      41.289  27.277  26.272  1.00  0.00     0.029 A 
ATOM     45  C   UNL A   1      41.995  26.506  27.291  1.00  0.00     0.049 A 
ATOM     46  H   UNL A   1      42.336  27.153  29.258  1.00  0.00     0.167 HD
ATOM     47  C   UNL A   1      42.468  28.432  33.529  1.00  0.00     0.031 A 
ATOM     48  C   UNL A   1      42.584  25.271  27.289  1.00  0.00     0.031 A 
ATOM     49  C   UNL A   1      43.691  28.953  32.961  1.00  0.00     0.049 A 
ATOM     50  C   UNL A   1      43.594  25.312  28.368  1.00  0.00     0.074 A 
ATOM     51  C   UNL A   1      44.147  30.207  32.603  1.00  0.00     0.029 A 
ATOM     52  N   UNL A   1      44.474  28.057  32.265  1.00  0.00    -0.354 N 
ATOM     53  N   UNL A   1      44.593  26.145  28.333  1.00  0.00    -0.248 NA
ATOM     54  C   UNL A   1      43.250  24.800  29.686  1.00  0.00     0.031 C 
ATOM     55  C   UNL A   1      44.847  30.013  31.375  1.00  0.00     0.029 A 
ATOM     56  C   UNL A   1      44.840  28.649  31.083  1.00  0.00     0.049 A 
ATOM     57  H   UNL A   1      44.725  27.153  32.564  1.00  0.00     0.167 HD
ATOM     58  C   UNL A   1      44.673  26.635  29.623  1.00  0.00     0.074 A 
ATOM     59  C   UNL A   1      43.931  25.671  30.442  1.00  0.00     0.031 C 
ATOM     60  C   UNL A   1      45.047  27.930  29.850  1.00  0.00     0.031 A 
BRANCH  47  61
ATOM     61  C   UNL A   1      42.479  27.382  34.616  1.00  0.00    -0.014 A 
ATOM     62  C   UNL A   1      42.900  26.084  34.278  1.00  0.00     0.009 A 
ATOM     63  C   UNL A   1      41.907  27.536  35.894  1.00  0.00     0.009 A 
ATOM     64  C   UNL A   1      42.683  24.996  35.132  1.00  0.00     0.001 A 
ATOM     65  C   UNL A   1      41.724  26.460  36.768  1.00  0.00     0.001 A 
ATOM     66  C   UNL A   1      42.085  25.183  36.373  1.00  0.00     0.000 A 
ENDBRANCH  47  61
BRANCH  48  67
ATOM     67  C   UNL A   1      42.174  23.956  26.718  1.00  0.00    -0.014 A 
ATOM     68  C   UNL A   1      43.087  22.966  26.330  1.00  0.00     0.009 A 
ATOM     69  C   UNL A   1      40.837  23.537  26.863  1.00  0.00     0.009 A 
ATOM     70  C   UNL A   1      42.661  21.652  26.030  1.00  0.00     0.001 A 
ATOM     71  C   UNL A   1      40.397  22.246  26.529  1.00  0.00     0.001 A 
ATOM     72  C   UNL A   1      41.315  21.298  26.109  1.00  0.00     0.000 A 
ENDBRANCH  48  67
BRANCH  60  73
ATOM     73  C   UNL A   1      45.424  28.759  28.635  1.00  0.00    -0.014 A 
ATOM     74  C   UNL A   1      44.463  29.467  27.888  1.00  0.00     0.009 A 
ATOM     75  C   UNL A   1      46.764  28.969  28.315  1.00  0.00     0.009 A 
ATOM     76  C   UNL A   1      44.808  30.316  26.834  1.00  0.00     0.001 A 
ATOM     77  C   UNL A   1      47.123  29.842  27.278  1.00  0.00     0.001 A 
ATOM     78  C   UNL A   1      46.147  30.508  26.533  1.00  0.00     0.000 A 
ENDBRANCH  60  73
ENDBRANCH  34  35
ENDBRANCH  26  29
ENDBRANCH  24  25
ENDBRANCH  23  24
ENDBRANCH   1  23
TORSDOF 15
ENDMDL
MODEL 2
REMARK VINA RESULT:     -11.1      2.963      7.059
REMARK SMILES CC[C@@H](NS(=O)(=O)c1cc(C)ccc1C)C(=O)NCCCCNC(=O)c1ccc(-c2c3nc(c(-c4ccccc4)c4ccc([nH]4)c(-c4ccccc4)c4nc(c(-c5ccccc5)c5ccc2[nH]5)C=C4)C=C3)cc1
REMARK SMILES IDX 20 1 19 2 18 3 16 4 17 5 3 7 2 8 1 9 4 10 5 12 6 13 7 14
REMARK SMILES IDX 8 15 9 16 14 17 10 18 13 19 15 20 11 21 12 22 21 23 22 24
REMARK SMILES IDX 23 25 24 26 25 28 26 29 27 30 73 31 28 32 72 33 29 34 30 35
REMARK SMILES IDX 31 36 66 37 32 38 71 39 65 40 67 41 33 42 70 43 64 44 63 45
REMARK SMILES IDX 34 47 56 48 41 49 55 50 42 51 45 52 54 53 68 54 43 55 44 56
REMARK SMILES IDX 53 58 69 59 46 60 35 61 36 62 40 63 37 64 39 65 38 66 57 67
REMARK SMILES IDX 58 68 62 69 59 70 61 71 60 72 47 73 48 74 52 75 49 76 51 77
REMARK SMILES IDX 50 78
REMARK H PARENT 18 6 4 11 23 27 67 46 45 57
REMARK Flexibility Score: inf
ROOT
ATOM      1  C   UNL A   1      32.646  26.971  26.568  1.00  0.00     0.023 C 
ENDROOT
BRANCH   1   2
ATOM      2  C   UNL A   1      33.589  26.341  25.542  1.00  0.00     0.116 C 
BRANCH   2   3
ATOM      3  N   UNL A   1      33.786  24.939  25.851  1.00  0.00    -0.355 N 
ATOM      4  C   UNL A   1      33.985  23.879  25.010  1.00  0.00     0.238 C 
ATOM      5  O   UNL A   1      33.759  22.747  25.442  1.00  0.00    -0.273 OA
ATOM      6  H   UNL A   1      33.776  24.715  26.810  1.00  0.00     0.163 HD
BRANCH   4   7
ATOM      7  C   UNL A   1      34.520  24.099  23.594  1.00  0.00     0.158 C 
BRANCH   7   8
ATOM      8  C   UNL A   1      35.634  23.091  23.301  1.00  0.00     0.027 C 
ATOM      9  C   UNL A   1      36.877  23.257  24.159  1.00  0.00     0.006 C 
ENDBRANCH   7   8
BRANCH   7  10
ATOM     10  N   UNL A   1      33.397  24.045  22.634  1.00  0.00    -0.199 NA
ATOM     11  H   UNL A   1      32.563  23.776  23.156  1.00  0.00     0.142 HD
BRANCH  10  12
ATOM     12  S   UNL A   1      33.026  25.454  21.777  1.00  0.00     0.241 S 
ATOM     13  O   UNL A   1      34.079  26.405  21.992  1.00  0.00    -0.207 OA
ATOM     14  O   UNL A   1      32.750  24.969  20.431  1.00  0.00    -0.207 OA
BRANCH  12  15
ATOM     15  C   UNL A   1      31.518  26.094  22.525  1.00  0.00     0.085 A 
ATOM     16  C   UNL A   1      31.215  27.446  22.347  1.00  0.00     0.025 A 
ATOM     17  C   UNL A   1      30.611  25.321  23.249  1.00  0.00    -0.031 A 
ATOM     18  C   UNL A   1      30.098  28.017  22.981  1.00  0.00    -0.050 A 
ATOM     19  C   UNL A   1      29.390  25.859  23.697  1.00  0.00     0.005 A 
ATOM     20  C   UNL A   1      30.875  23.930  23.648  1.00  0.00     0.046 C 
ATOM     21  C   UNL A   1      29.949  29.500  23.098  1.00  0.00     0.044 C 
ATOM     22  C   UNL A   1      29.137  27.206  23.575  1.00  0.00     0.004 A 
ENDBRANCH  12  15
ENDBRANCH  10  12
ENDBRANCH   7  10
ENDBRANCH   4   7
ENDBRANCH   2   3
ENDBRANCH   1   2
BRANCH   1  23
ATOM     23  C   UNL A   1      31.864  28.196  26.066  1.00  0.00     0.023 C 
BRANCH  23  24
ATOM     24  C   UNL A   1      32.724  29.381  25.627  1.00  0.00     0.116 C 
BRANCH  24  25
ATOM     25  N   UNL A   1      32.034  30.668  25.793  1.00  0.00    -0.352 N 
ATOM     26  C   UNL A   1      32.155  31.705  26.703  1.00  0.00     0.251 C 
ATOM     27  H   UNL A   1      31.339  30.827  25.114  1.00  0.00     0.163 HD
ATOM     28  O   UNL A   1      31.246  32.524  26.803  1.00  0.00    -0.269 OA
BRANCH  26  29
ATOM     29  C   UNL A   1      33.367  31.872  27.531  1.00  0.00     0.039 A 
ATOM     30  C   UNL A   1      33.877  33.108  27.955  1.00  0.00     0.014 A 
ATOM     31  C   UNL A   1      34.170  30.777  27.724  1.00  0.00     0.014 A 
ATOM     32  C   UNL A   1      35.189  33.168  28.474  1.00  0.00     0.010 A 
ATOM     33  C   UNL A   1      35.121  30.808  28.692  1.00  0.00     0.010 A 
ATOM     34  C   UNL A   1      35.862  31.974  28.727  1.00  0.00    -0.014 A 
BRANCH  34  35
ATOM     35  C   UNL A   1      37.190  31.781  29.301  1.00  0.00     0.031 A 
ATOM     36  C   UNL A   1      37.775  30.443  29.009  1.00  0.00     0.074 A 
ATOM     37  C   UNL A   1      37.972  32.802  29.724  1.00  0.00     0.049 A 
ATOM     38  N   UNL A   1      37.897  29.482  29.864  1.00  0.00    -0.248 NA
ATOM     39  C   UNL A   1      38.057  30.035  27.619  1.00  0.00     0.031 C 
ATOM     40  C   UNL A   1      37.668  34.232  29.891  1.00  0.00     0.029 A 
ATOM     41  N   UNL A   1      39.319  32.768  29.965  1.00  0.00    -0.354 N 
ATOM     42  C   UNL A   1      38.424  28.414  29.154  1.00  0.00     0.074 A 
ATOM     43  C   UNL A   1      38.200  28.718  27.768  1.00  0.00     0.031 C 
ATOM     44  C   UNL A   1      38.830  34.934  30.017  1.00  0.00     0.029 A 
ATOM     45  C   UNL A   1      39.963  34.013  30.006  1.00  0.00     0.049 A 
ATOM     46  H   UNL A   1      39.805  31.922  30.100  1.00  0.00     0.167 HD
ATOM     47  C   UNL A   1      39.266  27.511  29.729  1.00  0.00     0.031 A 
ATOM     48  C   UNL A   1      41.316  34.197  29.937  1.00  0.00     0.031 A 
ATOM     49  C   UNL A   1      39.366  27.742  31.153  1.00  0.00     0.049 A 
ATOM     50  C   UNL A   1      41.912  32.986  30.543  1.00  0.00     0.074 A 
ATOM     51  C   UNL A   1      38.476  27.730  32.210  1.00  0.00     0.029 A 
ATOM     52  N   UNL A   1      40.446  28.483  31.580  1.00  0.00    -0.354 N 
ATOM     53  N   UNL A   1      41.692  32.671  31.787  1.00  0.00    -0.248 NA
ATOM     54  C   UNL A   1      42.331  31.890  29.683  1.00  0.00     0.031 C 
ATOM     55  C   UNL A   1      38.851  28.840  33.024  1.00  0.00     0.029 A 
ATOM     56  C   UNL A   1      39.985  29.427  32.462  1.00  0.00     0.049 A 
ATOM     57  H   UNL A   1      41.382  28.358  31.301  1.00  0.00     0.167 HD
ATOM     58  C   UNL A   1      41.461  31.309  31.756  1.00  0.00     0.074 A 
ATOM     59  C   UNL A   1      42.012  30.858  30.474  1.00  0.00     0.031 C 
ATOM     60  C   UNL A   1      40.563  30.740  32.616  1.00  0.00     0.031 A 
BRANCH  47  61
ATOM     61  C   UNL A   1      40.299  26.699  28.980  1.00  0.00    -0.014 A 
ATOM     62  C   UNL A   1      39.906  25.461  28.442  1.00  0.00     0.009 A 
ATOM     63  C   UNL A   1      41.679  26.977  28.952  1.00  0.00     0.009 A 
ATOM     64  C   UNL A   1      40.843  24.528  27.984  1.00  0.00     0.001 A 
ATOM     65  C   UNL A   1      42.618  26.066  28.459  1.00  0.00     0.001 A 
ATOM     66  C   UNL A   1      42.201  24.827  28.002  1.00  0.00     0.000 A 
ENDBRANCH  47  61
BRANCH  48  67
ATOM     67  C   UNL A   1      42.175  35.106  29.124  1.00  0.00    -0.014 A 
ATOM     68  C   UNL A   1      43.557  35.238  29.316  1.00  0.00     0.009 A 
ATOM     69  C   UNL A   1      41.671  35.614  27.911  1.00  0.00     0.009 A 
ATOM     70  C   UNL A   1      44.367  35.913  28.376  1.00  0.00     0.001 A 
ATOM     71  C   UNL A   1      42.459  36.322  26.990  1.00  0.00     0.001 A 
ATOM     72  C   UNL A   1      43.816  36.473  27.225  1.00  0.00     0.000 A 
ENDBRANCH  48  67
BRANCH  60  73
ATOM     73  C   UNL A   1      39.899  31.660  33.625  1.00  0.00    -0.014 A 
ATOM     74  C   UNL A   1      38.714  32.360  33.329  1.00  0.00     0.009 A 
ATOM     75  C   UNL A   1      40.366  31.718  34.937  1.00  0.00     0.009 A 
ATOM     76  C   UNL A   1      38.038  33.127  34.281  1.00  0.00     0.001 A 
ATOM     77  C   UNL A   1      39.678  32.460  35.907  1.00  0.00     0.001 A 
ATOM     78  C   UNL A   1      38.521  33.170  35.579  1.00  0.00     0.000 A 
ENDBRANCH  60  73
ENDBRANCH  34  35
ENDBRANCH  26  29
ENDBRANCH  24  25
ENDBRANCH  23  24
ENDBRANCH   1  23
TORSDOF 15
ENDMDL
MODEL 3
REMARK VINA RESULT:     -11.1      3.283      7.027
REMARK SMILES CC[C@@H](NS(=O)(=O)c1cc(C)ccc1C)C(=O)NCCCCNC(=O)c1ccc(-c2c3nc(c(-c4ccccc4)c4ccc([nH]4)c(-c4ccccc4)c4nc(c(-c5ccccc5)c5ccc2[nH]5)C=C4)C=C3)cc1
REMARK SMILES IDX 20 1 19 2 18 3 16 4 17 5 3 7 2 8 1 9 4 10 5 12 6 13 7 14
REMARK SMILES IDX 8 15 9 16 14 17 10 18 13 19 15 20 11 21 12 22 21 23 22 24
REMARK SMILES IDX 23 25 24 26 25 28 26 29 27 30 73 31 28 32 72 33 29 34 30 35
REMARK SMILES IDX 31 36 66 37 32 38 71 39 65 40 67 41 33 42 70 43 64 44 63 45
REMARK SMILES IDX 34 47 56 48 41 49 55 50 42 51 45 52 54 53 68 54 43 55 44 56
REMARK SMILES IDX 53 58 69 59 46 60 35 61 36 62 40 63 37 64 39 65 38 66 57 67
REMARK SMILES IDX 58 68 62 69 59 70 61 71 60 72 47 73 48 74 52 75 49 76 51 77
REMARK SMILES IDX 50 78
REMARK H PARENT 18 6 4 11 23 27 67 46 45 57
REMARK Flexibility Score: inf
ROOT
ATOM      1  C   UNL A   1      31.471  26.753  26.093  1.00  0.00     0.023 C 
ENDROOT
BRANCH   1   2
ATOM      2  C   UNL A   1      30.833  25.519  25.455  1.00  0.00     0.116 C 
BRANCH   2   3
ATOM      3  N   UNL A   1      30.298  24.653  26.487  1.00  0.00    -0.355 N 
ATOM      4  C   UNL A   1      30.647  23.374  26.821  1.00  0.00     0.238 C 
ATOM      5  O   UNL A   1      29.837  22.700  27.459  1.00  0.00    -0.273 OA
ATOM      6  H   UNL A   1      29.575  25.044  27.029  1.00  0.00     0.163 HD
BRANCH   4   7
ATOM      7  C   UNL A   1      32.025  22.822  26.451  1.00  0.00     0.158 C 
BRANCH   7   8
ATOM      8  C   UNL A   1      32.877  22.670  27.714  1.00  0.00     0.027 C 
ATOM      9  C   UNL A   1      34.376  22.724  27.473  1.00  0.00     0.006 C 
ENDBRANCH   7   8
BRANCH   7  10
ATOM     10  N   UNL A   1      31.859  21.566  25.689  1.00  0.00    -0.199 NA
ATOM     11  H   UNL A   1      30.873  21.312  25.731  1.00  0.00     0.142 HD
BRANCH  10  12
ATOM     12  S   UNL A   1      32.311  21.570  24.059  1.00  0.00     0.241 S 
ATOM     13  O   UNL A   1      32.215  20.228  23.560  1.00  0.00    -0.207 OA
ATOM     14  O   UNL A   1      31.485  22.621  23.481  1.00  0.00    -0.207 OA
BRANCH  12  15
ATOM     15  C   UNL A   1      34.043  22.063  24.038  1.00  0.00     0.085 A 
ATOM     16  C   UNL A   1      35.000  21.134  24.455  1.00  0.00     0.025 A 
ATOM     17  C   UNL A   1      34.500  23.307  23.604  1.00  0.00    -0.031 A 
ATOM     18  C   UNL A   1      36.356  21.494  24.541  1.00  0.00    -0.050 A 
ATOM     19  C   UNL A   1      35.878  23.579  23.495  1.00  0.00     0.005 A 
ATOM     20  C   UNL A   1      33.605  24.430  23.289  1.00  0.00     0.046 C 
ATOM     21  C   UNL A   1      37.332  20.655  25.302  1.00  0.00     0.044 C 
ATOM     22  C   UNL A   1      36.804  22.681  23.972  1.00  0.00     0.004 A 
ENDBRANCH  12  15
ENDBRANCH  10  12
ENDBRANCH   7  10
ENDBRANCH   4   7
ENDBRANCH   2   3
ENDBRANCH   1   2
BRANCH   1  23
ATOM     23  C   UNL A   1      33.009  26.749  26.122  1.00  0.00     0.023 C 
BRANCH  23  24
ATOM     24  C   UNL A   1      33.673  28.026  25.609  1.00  0.00     0.116 C 
BRANCH  24  25
ATOM     25  N   UNL A   1      32.774  29.188  25.665  1.00  0.00    -0.352 N 
ATOM     26  C   UNL A   1      32.697  30.294  26.493  1.00  0.00     0.251 C 
ATOM     27  H   UNL A   1      32.081  29.177  24.966  1.00  0.00     0.163 HD
ATOM     28  O   UNL A   1      31.663  30.955  26.518  1.00  0.00    -0.269 OA
BRANCH  26  29
ATOM     29  C   UNL A   1      33.843  30.724  27.323  1.00  0.00     0.039 A 
ATOM     30  C   UNL A   1      34.132  32.056  27.650  1.00  0.00     0.014 A 
ATOM     31  C   UNL A   1      34.808  29.795  27.617  1.00  0.00     0.014 A 
ATOM     32  C   UNL A   1      35.403  32.372  28.181  1.00  0.00     0.010 A 
ATOM     33  C   UNL A   1      35.713  30.058  28.593  1.00  0.00     0.010 A 
ATOM     34  C   UNL A   1      36.253  31.329  28.542  1.00  0.00    -0.014 A 
BRANCH  34  35
ATOM     35  C   UNL A   1      37.578  31.403  29.149  1.00  0.00     0.031 A 
ATOM     36  C   UNL A   1      38.402  30.182  28.929  1.00  0.00     0.074 A 
ATOM     37  C   UNL A   1      38.152  32.566  29.540  1.00  0.00     0.049 A 
ATOM     38  N   UNL A   1      38.672  29.295  29.829  1.00  0.00    -0.248 NA
ATOM     39  C   UNL A   1      38.791  29.775  27.565  1.00  0.00     0.031 C 
ATOM     40  C   UNL A   1      37.592  33.922  29.636  1.00  0.00     0.029 A 
ATOM     41  N   UNL A   1      39.477  32.785  29.808  1.00  0.00    -0.354 N 
ATOM     42  C   UNL A   1      39.402  28.312  29.178  1.00  0.00     0.074 A 
ATOM     43  C   UNL A   1      39.164  28.513  27.776  1.00  0.00     0.031 C 
ATOM     44  C   UNL A   1      38.605  34.828  29.753  1.00  0.00     0.029 A 
ATOM     45  C   UNL A   1      39.885  34.127  29.804  1.00  0.00     0.049 A 
ATOM     46  H   UNL A   1      40.103  32.048  29.990  1.00  0.00     0.167 HD
ATOM     47  C   UNL A   1      40.377  27.600  29.809  1.00  0.00     0.031 A 
ATOM     48  C   UNL A   1      41.185  34.549  29.753  1.00  0.00     0.031 A 
ATOM     49  C   UNL A   1      40.395  27.903  31.223  1.00  0.00     0.049 A 
ATOM     50  C   UNL A   1      41.972  33.492  30.424  1.00  0.00     0.074 A 
ATOM     51  C   UNL A   1      39.494  27.775  32.263  1.00  0.00     0.029 A 
ATOM     52  N   UNL A   1      41.312  28.845  31.636  1.00  0.00    -0.354 N 
ATOM     53  N   UNL A   1      41.779  33.194  31.677  1.00  0.00    -0.248 NA
ATOM     54  C   UNL A   1      42.604  32.455  29.623  1.00  0.00     0.031 C 
ATOM     55  C   UNL A   1      39.641  28.967  33.033  1.00  0.00     0.029 A 
ATOM     56  C   UNL A   1      40.665  29.725  32.466  1.00  0.00     0.049 A 
ATOM     57  H   UNL A   1      42.263  28.880  31.381  1.00  0.00     0.167 HD
ATOM     58  C   UNL A   1      41.797  31.812  31.704  1.00  0.00     0.074 A 
ATOM     59  C   UNL A   1      42.454  31.416  30.454  1.00  0.00     0.031 C 
ATOM     60  C   UNL A   1      40.994  31.126  32.571  1.00  0.00     0.031 A 
BRANCH  47  61
ATOM     61  C   UNL A   1      41.558  26.958  29.118  1.00  0.00    -0.014 A 
ATOM     62  C   UNL A   1      42.658  27.772  28.795  1.00  0.00     0.009 A 
ATOM     63  C   UNL A   1      41.570  25.657  28.579  1.00  0.00     0.009 A 
ATOM     64  C   UNL A   1      43.661  27.338  27.921  1.00  0.00     0.001 A 
ATOM     65  C   UNL A   1      42.589  25.204  27.737  1.00  0.00     0.001 A 
ATOM     66  C   UNL A   1      43.621  26.056  27.383  1.00  0.00     0.000 A 
ENDBRANCH  47  61
BRANCH  48  67
ATOM     67  C   UNL A   1      41.887  35.564  28.916  1.00  0.00    -0.014 A 
ATOM     68  C   UNL A   1      42.971  36.326  29.375  1.00  0.00     0.009 A 
ATOM     69  C   UNL A   1      41.692  35.551  27.521  1.00  0.00     0.009 A 
ATOM     70  C   UNL A   1      43.759  37.090  28.486  1.00  0.00     0.001 A 
ATOM     71  C   UNL A   1      42.443  36.338  26.634  1.00  0.00     0.001 A 
ATOM     72  C   UNL A   1      43.483  37.113  27.119  1.00  0.00     0.000 A 
ENDBRANCH  48  67
BRANCH  60  73
ATOM     73  C   UNL A   1      40.149  31.952  33.524  1.00  0.00    -0.014 A 
ATOM     74  C   UNL A   1      40.624  32.349  34.788  1.00  0.00     0.009 A 
ATOM     75  C   UNL A   1      38.926  32.475  33.107  1.00  0.00     0.009 A 
ATOM     76  C   UNL A   1      39.899  33.196  35.631  1.00  0.00     0.001 A 
ATOM     77  C   UNL A   1      38.204  33.349  33.933  1.00  0.00     0.001 A 
ATOM     78  C   UNL A   1      38.685  33.703  35.196  1.00  0.00     0.000 A 
ENDBRANCH  60  73
ENDBRANCH  34  35
ENDBRANCH  26  29
ENDBRANCH  24  25
ENDBRANCH  23  24
ENDBRANCH   1  23
TORSDOF 15
ENDMDL
