MODEL 1
REMARK VINA RESULT:     -10.8      0.000      0.000
REMARK SMILES COc1ccc2cc([C@@H](C)C(=O)NCCCCNC(=O)c3ccc(-c4c5nc(c(-c6ccccc6)c6ccc([nH]6)c(-c6ccccc6)c6nc(c(-c7ccccc7)c7ccc4[nH]7)C=C6)C=C5)cc3)ccc2c1
REMARK SMILES IDX 15 1 14 2 13 3 11 4 12 5 9 7 10 8 8 9 3 10 4 11 72 12 5 13
REMARK SMILES IDX 71 14 6 15 70 16 7 17 69 18 2 19 1 20 16 21 17 22 18 23
REMARK SMILES IDX 19 24 20 26 21 27 22 28 68 29 23 30 67 31 24 32 25 33 26 34
REMARK SMILES IDX 61 35 27 36 66 37 60 38 62 39 28 40 65 41 59 42 58 43 29 45
REMARK SMILES IDX 51 46 36 47 50 48 37 49 40 50 49 51 63 52 38 53 39 54 48 56
REMARK SMILES IDX 64 57 41 58 30 59 31 60 35 61 32 62 34 63 33 64 52 65 53 66
REMARK SMILES IDX 57 67 54 68 56 69 55 70 42 71 43 72 47 73 44 74 46 75 45 76
REMARK H PARENT 13 6 18 25 62 44 40 55
REMARK Flexibility Score: inf
ROOT
ATOM      1  C   UNL A   1      34.263  35.098  28.815  1.00  0.00     0.023 C 
ENDROOT
BRANCH   1   2
ATOM      2  C   UNL A   1      33.113  36.107  28.842  1.00  0.00     0.116 C 
BRANCH   2   3
ATOM      3  N   UNL A   1      33.273  37.083  29.899  1.00  0.00    -0.356 N 
ATOM      4  C   UNL A   1      33.077  37.002  31.244  1.00  0.00     0.227 C 
ATOM      5  O   UNL A   1      33.223  38.054  31.879  1.00  0.00    -0.274 OA
ATOM      6  H   UNL A   1      33.580  37.966  29.589  1.00  0.00     0.163 HD
BRANCH   4   7
ATOM      7  C   UNL A   1      32.705  35.707  31.986  1.00  0.00     0.105 C 
ATOM      8  C   UNL A   1      31.478  35.829  32.889  1.00  0.00     0.023 C 
BRANCH   7   9
ATOM      9  C   UNL A   1      33.907  34.988  32.582  1.00  0.00    -0.035 A 
ATOM     10  C   UNL A   1      37.366  31.543  34.034  1.00  0.00     0.119 A 
ATOM     11  C   UNL A   1      36.824  31.080  32.837  1.00  0.00     0.047 A 
ATOM     12  C   UNL A   1      36.929  32.763  34.558  1.00  0.00     0.055 A 
ATOM     13  C   UNL A   1      35.886  31.853  32.149  1.00  0.00     0.012 A 
ATOM     14  C   UNL A   1      35.959  33.535  33.896  1.00  0.00    -0.015 A 
ATOM     15  C   UNL A   1      35.448  33.083  32.664  1.00  0.00    -0.018 A 
ATOM     16  C   UNL A   1      35.467  34.730  34.437  1.00  0.00     0.009 A 
ATOM     17  C   UNL A   1      34.476  33.850  31.996  1.00  0.00     0.013 A 
ATOM     18  C   UNL A   1      34.436  35.430  33.804  1.00  0.00     0.005 A 
BRANCH  10  19
ATOM     19  O   UNL A   1      38.302  30.891  34.789  1.00  0.00    -0.497 OA
ATOM     20  C   UNL A   1      39.662  31.093  34.421  1.00  0.00     0.278 C 
ENDBRANCH  10  19
ENDBRANCH   7   9
ENDBRANCH   4   7
ENDBRANCH   2   3
ENDBRANCH   1   2
BRANCH   1  21
ATOM     21  C   UNL A   1      34.001  33.836  27.998  1.00  0.00     0.023 C 
BRANCH  21  22
ATOM     22  C   UNL A   1      34.627  32.563  28.554  1.00  0.00     0.116 C 
BRANCH  22  23
ATOM     23  N   UNL A   1      33.999  31.336  28.085  1.00  0.00    -0.352 N 
ATOM     24  C   UNL A   1      34.565  30.086  27.942  1.00  0.00     0.251 C 
ATOM     25  H   UNL A   1      33.048  31.406  27.839  1.00  0.00     0.163 HD
ATOM     26  O   UNL A   1      33.926  29.161  27.468  1.00  0.00    -0.269 OA
BRANCH  24  27
ATOM     27  C   UNL A   1      35.981  29.900  28.325  1.00  0.00     0.039 A 
ATOM     28  C   UNL A   1      36.273  29.366  29.583  1.00  0.00     0.014 A 
ATOM     29  C   UNL A   1      37.005  30.180  27.418  1.00  0.00     0.014 A 
ATOM     30  C   UNL A   1      37.589  29.026  29.896  1.00  0.00     0.010 A 
ATOM     31  C   UNL A   1      38.301  29.770  27.701  1.00  0.00     0.010 A 
ATOM     32  C   UNL A   1      38.605  29.180  28.939  1.00  0.00    -0.014 A 
BRANCH  32  33
ATOM     33  C   UNL A   1      39.990  28.718  29.196  1.00  0.00     0.031 A 
ATOM     34  C   UNL A   1      40.990  29.649  29.822  1.00  0.00     0.074 A 
ATOM     35  C   UNL A   1      40.374  27.497  28.778  1.00  0.00     0.049 A 
ATOM     36  N   UNL A   1      42.268  29.465  30.035  1.00  0.00    -0.248 NA
ATOM     37  C   UNL A   1      40.495  30.974  30.228  1.00  0.00     0.031 C 
ATOM     38  C   UNL A   1      39.515  26.520  28.103  1.00  0.00     0.029 A 
ATOM     39  N   UNL A   1      41.595  26.873  28.846  1.00  0.00    -0.354 N 
ATOM     40  C   UNL A   1      42.734  30.659  30.569  1.00  0.00     0.074 A 
ATOM     41  C   UNL A   1      41.614  31.574  30.609  1.00  0.00     0.031 C 
ATOM     42  C   UNL A   1      40.231  25.414  27.839  1.00  0.00     0.029 A 
ATOM     43  C   UNL A   1      41.604  25.616  28.291  1.00  0.00     0.049 A 
ATOM     44  H   UNL A   1      42.389  27.288  29.252  1.00  0.00     0.167 HD
ATOM     45  C   UNL A   1      43.980  30.963  31.004  1.00  0.00     0.031 A 
ATOM     46  C   UNL A   1      42.605  24.728  28.158  1.00  0.00     0.031 A 
ATOM     47  C   UNL A   1      45.086  30.046  30.993  1.00  0.00     0.049 A 
ATOM     48  C   UNL A   1      43.972  25.077  28.676  1.00  0.00     0.074 A 
ATOM     49  C   UNL A   1      46.365  30.232  31.488  1.00  0.00     0.029 A 
ATOM     50  N   UNL A   1      45.043  28.767  30.461  1.00  0.00    -0.354 N 
ATOM     51  N   UNL A   1      44.378  26.183  29.251  1.00  0.00    -0.248 NA
ATOM     52  C   UNL A   1      45.014  24.050  28.537  1.00  0.00     0.031 C 
ATOM     53  C   UNL A   1      47.107  29.077  31.221  1.00  0.00     0.029 A 
ATOM     54  C   UNL A   1      46.278  28.158  30.598  1.00  0.00     0.049 A 
ATOM     55  H   UNL A   1      44.251  28.354  30.048  1.00  0.00     0.167 HD
ATOM     56  C   UNL A   1      45.715  25.977  29.561  1.00  0.00     0.074 A 
ATOM     57  C   UNL A   1      46.048  24.637  29.124  1.00  0.00     0.031 C 
ATOM     58  C   UNL A   1      46.590  26.825  30.155  1.00  0.00     0.031 A 
BRANCH  45  59
ATOM     59  C   UNL A   1      44.205  32.354  31.524  1.00  0.00    -0.014 A 
ATOM     60  C   UNL A   1      43.994  32.668  32.876  1.00  0.00     0.009 A 
ATOM     61  C   UNL A   1      44.652  33.360  30.654  1.00  0.00     0.009 A 
ATOM     62  C   UNL A   1      44.187  33.971  33.338  1.00  0.00     0.001 A 
ATOM     63  C   UNL A   1      44.871  34.656  31.124  1.00  0.00     0.001 A 
ATOM     64  C   UNL A   1      44.628  34.963  32.463  1.00  0.00     0.000 A 
ENDBRANCH  45  59
BRANCH  46  65
ATOM     65  C   UNL A   1      42.348  23.410  27.523  1.00  0.00    -0.014 A 
ATOM     66  C   UNL A   1      41.806  22.355  28.275  1.00  0.00     0.009 A 
ATOM     67  C   UNL A   1      42.639  23.200  26.167  1.00  0.00     0.009 A 
ATOM     68  C   UNL A   1      41.581  21.110  27.685  1.00  0.00     0.001 A 
ATOM     69  C   UNL A   1      42.389  21.961  25.574  1.00  0.00     0.001 A 
ATOM     70  C   UNL A   1      41.868  20.915  26.334  1.00  0.00     0.000 A 
ENDBRANCH  46  65
BRANCH  58  71
ATOM     71  C   UNL A   1      47.983  26.317  30.391  1.00  0.00    -0.014 A 
ATOM     72  C   UNL A   1      48.965  26.409  29.393  1.00  0.00     0.009 A 
ATOM     73  C   UNL A   1      48.326  25.781  31.642  1.00  0.00     0.009 A 
ATOM     74  C   UNL A   1      50.261  25.951  29.638  1.00  0.00     0.001 A 
ATOM     75  C   UNL A   1      49.627  25.346  31.890  1.00  0.00     0.001 A 
ATOM     76  C   UNL A   1      50.591  25.424  30.887  1.00  0.00     0.000 A 
ENDBRANCH  58  71
ENDBRANCH  32  33
ENDBRANCH  24  27
ENDBRANCH  22  23
ENDBRANCH  21  22
ENDBRANCH   1  21
TORSDOF 13
ENDMDL
MODEL 2
REMARK VINA RESULT:     -10.5      4.944     10.590
REMARK SMILES COc1ccc2cc([C@@H](C)C(=O)NCCCCNC(=O)c3ccc(-c4c5nc(c(-c6ccccc6)c6ccc([nH]6)c(-c6ccccc6)c6nc(c(-c7ccccc7)c7ccc4[nH]7)C=C6)C=C5)cc3)ccc2c1
REMARK SMILES IDX 15 1 14 2 13 3 11 4 12 5 9 7 10 8 8 9 3 10 4 11 72 12 5 13
REMARK SMILES IDX 71 14 6 15 70 16 7 17 69 18 2 19 1 20 16 21 17 22 18 23
REMARK SMILES IDX 19 24 20 26 21 27 22 28 68 29 23 30 67 31 24 32 25 33 26 34
REMARK SMILES IDX 61 35 27 36 66 37 60 38 62 39 28 40 65 41 59 42 58 43 29 45
REMARK SMILES IDX 51 46 36 47 50 48 37 49 40 50 49 51 63 52 38 53 39 54 48 56
REMARK SMILES IDX 64 57 41 58 30 59 31 60 35 61 32 62 34 63 33 64 52 65 53 66
REMARK SMILES IDX 57 67 54 68 56 69 55 70 42 71 43 72 47 73 44 74 46 75 45 76
REMARK H PARENT 13 6 18 25 62 44 40 55
REMARK Flexibility Score: inf
ROOT
ATOM      1  C   UNL A   1      36.607  22.646  23.870  1.00  0.00     0.023 C 
ENDROOT
BRANCH   1   2
ATOM      2  C   UNL A   1      35.873  23.704  24.696  1.00  0.00     0.116 C 
BRANCH   2   3
ATOM      3  N   UNL A   1      34.904  24.433  23.906  1.00  0.00    -0.356 N 
ATOM      4  C   UNL A   1      33.542  24.417  23.901  1.00  0.00     0.227 C 
ATOM      5  O   UNL A   1      32.993  25.108  23.034  1.00  0.00    -0.274 OA
ATOM      6  H   UNL A   1      35.302  25.055  23.254  1.00  0.00     0.163 HD
BRANCH   4   7
ATOM      7  C   UNL A   1      32.685  23.615  24.896  1.00  0.00     0.105 C 
ATOM      8  C   UNL A   1      32.536  24.271  26.269  1.00  0.00     0.023 C 
BRANCH   7   9
ATOM      9  C   UNL A   1      32.997  22.125  24.894  1.00  0.00    -0.035 A 
ATOM     10  C   UNL A   1      33.046  17.103  24.051  1.00  0.00     0.119 A 
ATOM     11  C   UNL A   1      32.561  17.695  22.887  1.00  0.00     0.047 A 
ATOM     12  C   UNL A   1      33.423  17.912  25.127  1.00  0.00     0.055 A 
ATOM     13  C   UNL A   1      32.496  19.087  22.786  1.00  0.00     0.012 A 
ATOM     14  C   UNL A   1      33.328  19.312  25.053  1.00  0.00    -0.015 A 
ATOM     15  C   UNL A   1      32.880  19.907  23.858  1.00  0.00    -0.018 A 
ATOM     16  C   UNL A   1      33.645  20.134  26.143  1.00  0.00     0.009 A 
ATOM     17  C   UNL A   1      32.782  21.308  23.777  1.00  0.00     0.013 A 
ATOM     18  C   UNL A   1      33.454  21.518  26.073  1.00  0.00     0.005 A 
BRANCH  10  19
ATOM     19  O   UNL A   1      33.176  15.758  24.266  1.00  0.00    -0.497 OA
ATOM     20  C   UNL A   1      32.559  15.244  25.441  1.00  0.00     0.278 C 
ENDBRANCH  10  19
ENDBRANCH   7   9
ENDBRANCH   4   7
ENDBRANCH   2   3
ENDBRANCH   1   2
BRANCH   1  21
ATOM     21  C   UNL A   1      36.924  21.349  24.609  1.00  0.00     0.023 C 
BRANCH  21  22
ATOM     22  C   UNL A   1      38.165  21.395  25.493  1.00  0.00     0.116 C 
BRANCH  22  23
ATOM     23  N   UNL A   1      38.965  20.178  25.460  1.00  0.00    -0.352 N 
ATOM     24  C   UNL A   1      40.259  19.993  25.899  1.00  0.00     0.251 C 
ATOM     25  H   UNL A   1      38.526  19.385  25.075  1.00  0.00     0.163 HD
ATOM     26  O   UNL A   1      40.826  18.925  25.742  1.00  0.00    -0.269 OA
BRANCH  24  27
ATOM     27  C   UNL A   1      40.968  21.133  26.519  1.00  0.00     0.039 A 
ATOM     28  C   UNL A   1      41.617  22.053  25.691  1.00  0.00     0.014 A 
ATOM     29  C   UNL A   1      40.924  21.331  27.901  1.00  0.00     0.014 A 
ATOM     30  C   UNL A   1      42.143  23.222  26.242  1.00  0.00     0.010 A 
ATOM     31  C   UNL A   1      41.380  22.528  28.437  1.00  0.00     0.010 A 
ATOM     32  C   UNL A   1      41.985  23.490  27.612  1.00  0.00    -0.014 A 
BRANCH  32  33
ATOM     33  C   UNL A   1      42.426  24.774  28.207  1.00  0.00     0.031 A 
ATOM     34  C   UNL A   1      41.429  25.872  28.451  1.00  0.00     0.074 A 
ATOM     35  C   UNL A   1      43.736  24.989  28.435  1.00  0.00     0.049 A 
ATOM     36  N   UNL A   1      41.634  27.095  28.868  1.00  0.00    -0.248 NA
ATOM     37  C   UNL A   1      40.021  25.564  28.153  1.00  0.00     0.031 C 
ATOM     38  C   UNL A   1      44.812  24.026  28.183  1.00  0.00     0.029 A 
ATOM     39  N   UNL A   1      44.388  26.096  28.916  1.00  0.00    -0.354 N 
ATOM     40  C   UNL A   1      40.389  27.711  28.851  1.00  0.00     0.074 A 
ATOM     41  C   UNL A   1      39.442  26.741  28.345  1.00  0.00     0.031 C 
ATOM     42  C   UNL A   1      45.986  24.578  28.533  1.00  0.00     0.029 A 
ATOM     43  C   UNL A   1      45.751  25.941  28.997  1.00  0.00     0.049 A 
ATOM     44  H   UNL A   1      43.924  26.924  29.177  1.00  0.00     0.167 HD
ATOM     45  C   UNL A   1      40.059  28.965  29.239  1.00  0.00     0.031 A 
ATOM     46  C   UNL A   1      46.705  26.802  29.396  1.00  0.00     0.031 A 
ATOM     47  C   UNL A   1      40.994  29.919  29.771  1.00  0.00     0.049 A 
ATOM     48  C   UNL A   1      46.311  28.179  29.850  1.00  0.00     0.074 A 
ATOM     49  C   UNL A   1      40.743  31.185  30.269  1.00  0.00     0.029 A 
ATOM     50  N   UNL A   1      42.359  29.708  29.876  1.00  0.00    -0.354 N 
ATOM     51  N   UNL A   1      45.118  28.719  29.903  1.00  0.00    -0.248 NA
ATOM     52  C   UNL A   1      47.394  29.059  30.311  1.00  0.00     0.031 C 
ATOM     53  C   UNL A   1      41.965  31.756  30.642  1.00  0.00     0.029 A 
ATOM     54  C   UNL A   1      42.969  30.829  30.413  1.00  0.00     0.049 A 
ATOM     55  H   UNL A   1      42.826  28.884  29.608  1.00  0.00     0.167 HD
ATOM     56  C   UNL A   1      45.303  29.993  30.422  1.00  0.00     0.074 A 
ATOM     57  C   UNL A   1      46.721  30.140  30.681  1.00  0.00     0.031 C 
ATOM     58  C   UNL A   1      44.381  30.956  30.662  1.00  0.00     0.031 A 
BRANCH  45  59
ATOM     59  C   UNL A   1      38.621  29.373  29.094  1.00  0.00    -0.014 A 
ATOM     60  C   UNL A   1      38.119  29.848  27.872  1.00  0.00     0.009 A 
ATOM     61  C   UNL A   1      37.752  29.266  30.191  1.00  0.00     0.009 A 
ATOM     62  C   UNL A   1      36.786  30.244  27.762  1.00  0.00     0.001 A 
ATOM     63  C   UNL A   1      36.412  29.637  30.070  1.00  0.00     0.001 A 
ATOM     64  C   UNL A   1      35.933  30.136  28.858  1.00  0.00     0.000 A 
ENDBRANCH  45  59
BRANCH  46  65
ATOM     65  C   UNL A   1      48.129  26.380  29.403  1.00  0.00    -0.014 A 
ATOM     66  C   UNL A   1      48.692  25.808  30.555  1.00  0.00     0.009 A 
ATOM     67  C   UNL A   1      48.930  26.542  28.263  1.00  0.00     0.009 A 
ATOM     68  C   UNL A   1      50.035  25.427  30.570  1.00  0.00     0.001 A 
ATOM     69  C   UNL A   1      50.266  26.137  28.274  1.00  0.00     0.001 A 
ATOM     70  C   UNL A   1      50.820  25.587  29.429  1.00  0.00     0.000 A 
ENDBRANCH  46  65
BRANCH  58  71
ATOM     71  C   UNL A   1      44.873  32.243  31.259  1.00  0.00    -0.014 A 
ATOM     72  C   UNL A   1      45.249  33.321  30.444  1.00  0.00     0.009 A 
ATOM     73  C   UNL A   1      44.917  32.390  32.654  1.00  0.00     0.009 A 
ATOM     74  C   UNL A   1      45.684  34.517  31.018  1.00  0.00     0.001 A 
ATOM     75  C   UNL A   1      45.330  33.595  33.223  1.00  0.00     0.001 A 
ATOM     76  C   UNL A   1      45.719  34.654  32.405  1.00  0.00     0.000 A 
ENDBRANCH  58  71
ENDBRANCH  32  33
ENDBRANCH  24  27
ENDBRANCH  22  23
ENDBRANCH  21  22
ENDBRANCH   1  21
TORSDOF 13
ENDMDL
MODEL 3
REMARK VINA RESULT:     -10.5      3.655      9.390
REMARK SMILES COc1ccc2cc([C@@H](C)C(=O)NCCCCNC(=O)c3ccc(-c4c5nc(c(-c6ccccc6)c6ccc([nH]6)c(-c6ccccc6)c6nc(c(-c7ccccc7)c7ccc4[nH]7)C=C6)C=C5)cc3)ccc2c1
REMARK SMILES IDX 15 1 14 2 13 3 11 4 12 5 9 7 10 8 8 9 3 10 4 11 72 12 5 13
REMARK SMILES IDX 71 14 6 15 70 16 7 17 69 18 2 19 1 20 16 21 17 22 18 23
REMARK SMILES IDX 19 24 20 26 21 27 22 28 68 29 23 30 67 31 24 32 25 33 26 34
REMARK SMILES IDX 61 35 27 36 66 37 60 38 62 39 28 40 65 41 59 42 58 43 29 45
REMARK SMILES IDX 51 46 36 47 50 48 37 49 40 50 49 51 63 52 38 53 39 54 48 56
REMARK SMILES IDX 64 57 41 58 30 59 31 60 35 61 32 62 34 63 33 64 52 65 53 66
REMARK SMILES IDX 57 67 54 68 56 69 55 70 42 71 43 72 47 73 44 74 46 75 45 76
REMARK H PARENT 13 6 18 25 62 44 40 55
REMARK Flexibility Score: inf
ROOT
ATOM      1  C   UNL A   1      32.383  28.655  26.960  1.00  0.00     0.023 C 
ENDROOT
BRANCH   1   2
ATOM      2  C   UNL A   1      31.441  27.637  26.316  1.00  0.00     0.116 C 
BRANCH   2   3
ATOM      3  N   UNL A   1      31.096  27.998  24.958  1.00  0.00    -0.356 N 
ATOM      4  C   UNL A   1      31.859  28.153  23.840  1.00  0.00     0.227 C 
ATOM      5  O   UNL A   1      31.268  28.555  22.830  1.00  0.00    -0.274 OA
ATOM      6  H   UNL A   1      30.135  28.160  24.815  1.00  0.00     0.163 HD
BRANCH   4   7
ATOM      7  C   UNL A   1      33.366  27.851  23.775  1.00  0.00     0.105 C 
ATOM      8  C   UNL A   1      34.115  28.616  22.685  1.00  0.00     0.023 C 
BRANCH   7   9
ATOM      9  C   UNL A   1      33.689  26.368  23.896  1.00  0.00    -0.035 A 
ATOM     10  C   UNL A   1      35.793  21.854  24.961  1.00  0.00     0.119 A 
ATOM     11  C   UNL A   1      36.146  22.711  26.001  1.00  0.00     0.047 A 
ATOM     12  C   UNL A   1      34.982  22.329  23.926  1.00  0.00     0.055 A 
ATOM     13  C   UNL A   1      35.653  24.018  26.028  1.00  0.00     0.012 A 
ATOM     14  C   UNL A   1      34.509  23.653  23.920  1.00  0.00    -0.015 A 
ATOM     15  C   UNL A   1      34.832  24.500  24.998  1.00  0.00    -0.018 A 
ATOM     16  C   UNL A   1      33.745  24.161  22.862  1.00  0.00     0.009 A 
ATOM     17  C   UNL A   1      34.363  25.826  24.998  1.00  0.00     0.013 A 
ATOM     18  C   UNL A   1      33.366  25.507  22.837  1.00  0.00     0.005 A 
BRANCH  10  19
ATOM     19  O   UNL A   1      36.193  20.552  24.832  1.00  0.00    -0.497 OA
ATOM     20  C   UNL A   1      37.596  20.317  24.856  1.00  0.00     0.278 C 
ENDBRANCH  10  19
ENDBRANCH   7   9
ENDBRANCH   4   7
ENDBRANCH   2   3
ENDBRANCH   1   2
BRANCH   1  21
ATOM     21  C   UNL A   1      31.849  30.083  27.026  1.00  0.00     0.023 C 
BRANCH  21  22
ATOM     22  C   UNL A   1      32.915  31.173  27.048  1.00  0.00     0.116 C 
BRANCH  22  23
ATOM     23  N   UNL A   1      32.400  32.505  27.328  1.00  0.00    -0.352 N 
ATOM     24  C   UNL A   1      32.995  33.518  28.051  1.00  0.00     0.251 C 
ATOM     25  H   UNL A   1      31.512  32.710  26.955  1.00  0.00     0.163 HD
ATOM     26  O   UNL A   1      32.407  34.566  28.260  1.00  0.00    -0.269 OA
BRANCH  24  27
ATOM     27  C   UNL A   1      34.344  33.291  28.613  1.00  0.00     0.039 A 
ATOM     28  C   UNL A   1      34.459  32.627  29.837  1.00  0.00     0.014 A 
ATOM     29  C   UNL A   1      35.484  33.663  27.897  1.00  0.00     0.014 A 
ATOM     30  C   UNL A   1      35.722  32.254  30.299  1.00  0.00     0.010 A 
ATOM     31  C   UNL A   1      36.731  33.225  28.320  1.00  0.00     0.010 A 
ATOM     32  C   UNL A   1      36.862  32.507  29.520  1.00  0.00    -0.014 A 
BRANCH  32  33
ATOM     33  C   UNL A   1      38.202  32.018  29.925  1.00  0.00     0.031 A 
ATOM     34  C   UNL A   1      38.712  30.703  29.406  1.00  0.00     0.074 A 
ATOM     35  C   UNL A   1      38.917  32.708  30.835  1.00  0.00     0.049 A 
ATOM     36  N   UNL A   1      39.809  30.062  29.719  1.00  0.00    -0.248 NA
ATOM     37  C   UNL A   1      37.859  30.001  28.434  1.00  0.00     0.031 C 
ATOM     38  C   UNL A   1      38.507  33.968  31.461  1.00  0.00     0.029 A 
ATOM     39  N   UNL A   1      40.136  32.437  31.403  1.00  0.00    -0.354 N 
ATOM     40  C   UNL A   1      39.761  28.869  29.009  1.00  0.00     0.074 A 
ATOM     41  C   UNL A   1      38.511  28.857  28.281  1.00  0.00     0.031 C 
ATOM     42  C   UNL A   1      39.468  34.369  32.310  1.00  0.00     0.029 A 
ATOM     43  C   UNL A   1      40.541  33.381  32.316  1.00  0.00     0.049 A 
ATOM     44  H   UNL A   1      40.670  31.641  31.180  1.00  0.00     0.167 HD
ATOM     45  C   UNL A   1      40.683  27.880  28.953  1.00  0.00     0.031 A 
ATOM     46  C   UNL A   1      41.650  33.442  33.075  1.00  0.00     0.031 A 
ATOM     47  C   UNL A   1      41.940  27.905  29.651  1.00  0.00     0.049 A 
ATOM     48  C   UNL A   1      42.673  32.347  32.973  1.00  0.00     0.074 A 
ATOM     49  C   UNL A   1      42.976  26.990  29.593  1.00  0.00     0.029 A 
ATOM     50  N   UNL A   1      42.330  28.899  30.533  1.00  0.00    -0.354 N 
ATOM     51  N   UNL A   1      42.649  31.263  32.236  1.00  0.00    -0.248 NA
ATOM     52  C   UNL A   1      43.880  32.490  33.798  1.00  0.00     0.031 C 
ATOM     53  C   UNL A   1      43.980  27.413  30.471  1.00  0.00     0.029 A 
ATOM     54  C   UNL A   1      43.585  28.612  31.042  1.00  0.00     0.049 A 
ATOM     55  H   UNL A   1      41.794  29.693  30.763  1.00  0.00     0.167 HD
ATOM     56  C   UNL A   1      43.845  30.606  32.491  1.00  0.00     0.074 A 
ATOM     57  C   UNL A   1      44.577  31.420  33.441  1.00  0.00     0.031 C 
ATOM     58  C   UNL A   1      44.296  29.433  31.986  1.00  0.00     0.031 A 
BRANCH  45  59
ATOM     59  C   UNL A   1      40.357  26.683  28.106  1.00  0.00    -0.014 A 
ATOM     60  C   UNL A   1      40.836  26.570  26.791  1.00  0.00     0.009 A 
ATOM     61  C   UNL A   1      39.573  25.647  28.636  1.00  0.00     0.009 A 
ATOM     62  C   UNL A   1      40.503  25.462  26.011  1.00  0.00     0.001 A 
ATOM     63  C   UNL A   1      39.265  24.526  27.862  1.00  0.00     0.001 A 
ATOM     64  C   UNL A   1      39.721  24.440  26.547  1.00  0.00     0.000 A 
ENDBRANCH  45  59
BRANCH  46  65
ATOM     65  C   UNL A   1      41.861  34.595  33.988  1.00  0.00    -0.014 A 
ATOM     66  C   UNL A   1      42.490  35.760  33.522  1.00  0.00     0.009 A 
ATOM     67  C   UNL A   1      41.436  34.539  35.323  1.00  0.00     0.009 A 
ATOM     68  C   UNL A   1      42.707  36.838  34.382  1.00  0.00     0.001 A 
ATOM     69  C   UNL A   1      41.632  35.628  36.174  1.00  0.00     0.001 A 
ATOM     70  C   UNL A   1      42.273  36.773  35.706  1.00  0.00     0.000 A 
ENDBRANCH  46  65
BRANCH  58  71
ATOM     71  C   UNL A   1      45.655  28.973  32.428  1.00  0.00    -0.014 A 
ATOM     72  C   UNL A   1      46.813  29.382  31.750  1.00  0.00     0.009 A 
ATOM     73  C   UNL A   1      45.778  28.159  33.565  1.00  0.00     0.009 A 
ATOM     74  C   UNL A   1      48.070  28.962  32.189  1.00  0.00     0.001 A 
ATOM     75  C   UNL A   1      47.038  27.760  34.014  1.00  0.00     0.001 A 
ATOM     76  C   UNL A   1      48.181  28.156  33.322  1.00  0.00     0.000 A 
ENDBRANCH  58  71
ENDBRANCH  32  33
ENDBRANCH  24  27
ENDBRANCH  22  23
ENDBRANCH  21  22
ENDBRANCH   1  21
TORSDOF 13
ENDMDL
