MODEL 1
REMARK VINA RESULT:      -9.9      0.000      0.000
REMARK SMILES CC[C@@H]1CCCN1C(=O)N(CC(=O)NCCCCNC(=O)c1ccc(-c2c3nc(c(-c4ccccc4)c4ccc([nH]4)c(-c4ccccc4)c4nc(c(-c5ccccc5)c5ccc2[nH]5)C=C4)C=C3)cc1)CC(F)(F)F
REMARK SMILES IDX 15 1 14 2 12 3 13 4 11 6 10 7 8 8 9 9 7 10 3 11 4 12 5 13
REMARK SMILES IDX 6 14 2 15 1 16 70 17 71 18 72 19 73 20 74 21 16 22 17 23
REMARK SMILES IDX 18 24 19 25 20 26 21 28 22 29 23 30 69 31 24 32 68 33 25 34
REMARK SMILES IDX 26 35 27 36 62 37 28 38 67 39 61 40 63 41 29 42 66 43 60 44
REMARK SMILES IDX 59 45 30 47 52 48 37 49 51 50 38 51 41 52 50 53 64 54 39 55
REMARK SMILES IDX 40 56 49 58 65 59 42 60 31 61 32 62 36 63 33 64 35 65 34 66
REMARK SMILES IDX 53 67 54 68 58 69 55 70 57 71 56 72 43 73 44 74 48 75 45 76
REMARK SMILES IDX 47 77 46 78
REMARK H PARENT 14 5 19 27 63 46 41 57
REMARK Flexibility Score: inf
ROOT
ATOM      1  C   UNL A   1      31.427  29.713  24.958  1.00  0.00     0.116 C 
ENDROOT
BRANCH   1   2
ATOM      2  N   UNL A   1      32.632  29.533  24.170  1.00  0.00    -0.355 N 
ATOM      3  C   UNL A   1      33.005  28.557  23.301  1.00  0.00     0.239 C 
ATOM      4  O   UNL A   1      34.015  28.783  22.622  1.00  0.00    -0.273 OA
ATOM      5  H   UNL A   1      33.301  30.246  24.287  1.00  0.00     0.163 HD
BRANCH   3   6
ATOM      6  C   UNL A   1      32.159  27.312  22.988  1.00  0.00     0.221 C 
BRANCH   6   7
ATOM      7  N   UNL A   1      32.436  26.018  23.572  1.00  0.00    -0.306 N 
BRANCH   7   8
ATOM      8  C   UNL A   1      33.392  25.093  23.248  1.00  0.00     0.321 C 
ATOM      9  O   UNL A   1      33.923  25.244  22.134  1.00  0.00    -0.248 OA
BRANCH   8  10
ATOM     10  N   UNL A   1      33.885  24.102  24.076  1.00  0.00    -0.322 N 
ATOM     11  C   UNL A   1      33.988  22.607  24.134  1.00  0.00     0.086 C 
ATOM     12  C   UNL A   1      34.647  22.376  25.514  1.00  0.00     0.027 C 
ATOM     13  C   UNL A   1      35.679  23.466  25.592  1.00  0.00     0.024 C 
ATOM     14  C   UNL A   1      34.975  24.632  24.931  1.00  0.00     0.122 C 
BRANCH  11  15
ATOM     15  C   UNL A   1      32.868  21.561  24.002  1.00  0.00     0.022 C 
ATOM     16  C   UNL A   1      32.090  21.239  25.265  1.00  0.00     0.006 C 
ENDBRANCH  11  15
ENDBRANCH   8  10
ENDBRANCH   7   8
BRANCH   7  17
ATOM     17  C   UNL A   1      31.422  25.578  24.580  1.00  0.00     0.237 C 
BRANCH  17  18
ATOM     18  C   UNL A   1      31.643  26.016  26.036  1.00  0.00     0.406 C 
ATOM     19  F   UNL A   1      31.788  24.992  26.898  1.00  0.00    -0.169 F 
ATOM     20  F   UNL A   1      32.752  26.790  26.135  1.00  0.00    -0.169 F 
ATOM     21  F   UNL A   1      30.610  26.776  26.473  1.00  0.00    -0.169 F 
ENDBRANCH  17  18
ENDBRANCH   7  17
ENDBRANCH   6   7
ENDBRANCH   3   6
ENDBRANCH   1   2
BRANCH   1  22
ATOM     22  C   UNL A   1      31.710  30.126  26.396  1.00  0.00     0.023 C 
BRANCH  22  23
ATOM     23  C   UNL A   1      31.527  31.613  26.680  1.00  0.00     0.023 C 
BRANCH  23  24
ATOM     24  C   UNL A   1      32.779  32.331  27.168  1.00  0.00     0.116 C 
BRANCH  24  25
ATOM     25  N   UNL A   1      32.503  33.669  27.669  1.00  0.00    -0.352 N 
ATOM     26  C   UNL A   1      33.190  34.422  28.593  1.00  0.00     0.251 C 
ATOM     27  H   UNL A   1      31.704  34.102  27.289  1.00  0.00     0.163 HD
ATOM     28  O   UNL A   1      32.716  35.465  29.018  1.00  0.00    -0.269 OA
BRANCH  26  29
ATOM     29  C   UNL A   1      34.496  33.944  29.094  1.00  0.00     0.039 A 
ATOM     30  C   UNL A   1      34.532  33.161  30.249  1.00  0.00     0.014 A 
ATOM     31  C   UNL A   1      35.676  34.249  28.412  1.00  0.00     0.014 A 
ATOM     32  C   UNL A   1      35.747  32.623  30.676  1.00  0.00     0.010 A 
ATOM     33  C   UNL A   1      36.866  33.631  28.781  1.00  0.00     0.010 A 
ATOM     34  C   UNL A   1      36.917  32.818  29.921  1.00  0.00    -0.014 A 
BRANCH  34  35
ATOM     35  C   UNL A   1      38.194  32.172  30.316  1.00  0.00     0.031 A 
ATOM     36  C   UNL A   1      39.101  32.828  31.322  1.00  0.00     0.074 A 
ATOM     37  C   UNL A   1      38.557  31.010  29.736  1.00  0.00     0.049 A 
ATOM     38  N   UNL A   1      40.246  32.406  31.797  1.00  0.00    -0.248 NA
ATOM     39  C   UNL A   1      38.683  34.140  31.843  1.00  0.00     0.031 C 
ATOM     40  C   UNL A   1      37.797  30.303  28.702  1.00  0.00     0.029 A 
ATOM     41  N   UNL A   1      39.658  30.217  29.938  1.00  0.00    -0.354 N 
ATOM     42  C   UNL A   1      40.687  33.403  32.658  1.00  0.00     0.074 A 
ATOM     43  C   UNL A   1      39.720  34.477  32.596  1.00  0.00     0.031 C 
ATOM     44  C   UNL A   1      38.430  29.160  28.396  1.00  0.00     0.029 A 
ATOM     45  C   UNL A   1      39.658  29.071  29.178  1.00  0.00     0.049 A 
ATOM     46  H   UNL A   1      40.380  30.445  30.567  1.00  0.00     0.167 HD
ATOM     47  C   UNL A   1      41.784  33.415  33.451  1.00  0.00     0.031 A 
ATOM     48  C   UNL A   1      40.546  28.061  29.119  1.00  0.00     0.031 A 
ATOM     49  C   UNL A   1      42.742  32.345  33.520  1.00  0.00     0.049 A 
ATOM     50  C   UNL A   1      41.755  28.099  30.011  1.00  0.00     0.074 A 
ATOM     51  C   UNL A   1      43.855  32.234  34.337  1.00  0.00     0.029 A 
ATOM     52  N   UNL A   1      42.704  31.202  32.738  1.00  0.00    -0.354 N 
ATOM     53  N   UNL A   1      42.111  29.008  30.886  1.00  0.00    -0.248 NA
ATOM     54  C   UNL A   1      42.678  26.959  29.918  1.00  0.00     0.031 C 
ATOM     55  C   UNL A   1      44.523  31.051  34.005  1.00  0.00     0.029 A 
ATOM     56  C   UNL A   1      43.790  30.393  33.031  1.00  0.00     0.049 A 
ATOM     57  H   UNL A   1      42.009  30.995  32.071  1.00  0.00     0.167 HD
ATOM     58  C   UNL A   1      43.282  28.539  31.465  1.00  0.00     0.074 A 
ATOM     59  C   UNL A   1      43.561  27.253  30.861  1.00  0.00     0.031 C 
ATOM     60  C   UNL A   1      44.058  29.119  32.413  1.00  0.00     0.031 A 
BRANCH  47  61
ATOM     61  C   UNL A   1      42.008  34.633  34.308  1.00  0.00    -0.014 A 
ATOM     62  C   UNL A   1      42.753  35.728  33.840  1.00  0.00     0.009 A 
ATOM     63  C   UNL A   1      41.435  34.701  35.587  1.00  0.00     0.009 A 
ATOM     64  C   UNL A   1      42.951  36.849  34.650  1.00  0.00     0.001 A 
ATOM     65  C   UNL A   1      41.608  35.836  36.382  1.00  0.00     0.001 A 
ATOM     66  C   UNL A   1      42.373  36.904  35.917  1.00  0.00     0.000 A 
ENDBRANCH  47  61
BRANCH  48  67
ATOM     67  C   UNL A   1      40.315  26.915  28.200  1.00  0.00    -0.014 A 
ATOM     68  C   UNL A   1      39.599  25.786  28.629  1.00  0.00     0.009 A 
ATOM     69  C   UNL A   1      40.822  26.937  26.891  1.00  0.00     0.009 A 
ATOM     70  C   UNL A   1      39.426  24.691  27.778  1.00  0.00     0.001 A 
ATOM     71  C   UNL A   1      40.618  25.855  26.032  1.00  0.00     0.001 A 
ATOM     72  C   UNL A   1      39.931  24.729  26.480  1.00  0.00     0.000 A 
ENDBRANCH  48  67
BRANCH  60  73
ATOM     73  C   UNL A   1      45.265  28.350  32.874  1.00  0.00    -0.014 A 
ATOM     74  C   UNL A   1      46.520  28.522  32.268  1.00  0.00     0.009 A 
ATOM     75  C   UNL A   1      45.147  27.451  33.946  1.00  0.00     0.009 A 
ATOM     76  C   UNL A   1      47.619  27.774  32.695  1.00  0.00     0.001 A 
ATOM     77  C   UNL A   1      46.255  26.732  34.394  1.00  0.00     0.001 A 
ATOM     78  C   UNL A   1      47.487  26.884  33.760  1.00  0.00     0.000 A 
ENDBRANCH  60  73
ENDBRANCH  34  35
ENDBRANCH  26  29
ENDBRANCH  24  25
ENDBRANCH  23  24
ENDBRANCH  22  23
ENDBRANCH   1  22
TORSDOF 17
ENDMDL
MODEL 2
REMARK VINA RESULT:      -9.8      4.967      7.610
REMARK SMILES CC[C@@H]1CCCN1C(=O)N(CC(=O)NCCCCNC(=O)c1ccc(-c2c3nc(c(-c4ccccc4)c4ccc([nH]4)c(-c4ccccc4)c4nc(c(-c5ccccc5)c5ccc2[nH]5)C=C4)C=C3)cc1)CC(F)(F)F
REMARK SMILES IDX 15 1 14 2 12 3 13 4 11 6 10 7 8 8 9 9 7 10 3 11 4 12 5 13
REMARK SMILES IDX 6 14 2 15 1 16 70 17 71 18 72 19 73 20 74 21 16 22 17 23
REMARK SMILES IDX 18 24 19 25 20 26 21 28 22 29 23 30 69 31 24 32 68 33 25 34
REMARK SMILES IDX 26 35 27 36 62 37 28 38 67 39 61 40 63 41 29 42 66 43 60 44
REMARK SMILES IDX 59 45 30 47 52 48 37 49 51 50 38 51 41 52 50 53 64 54 39 55
REMARK SMILES IDX 40 56 49 58 65 59 42 60 31 61 32 62 36 63 33 64 35 65 34 66
REMARK SMILES IDX 53 67 54 68 58 69 55 70 57 71 56 72 43 73 44 74 48 75 45 76
REMARK SMILES IDX 47 77 46 78
REMARK H PARENT 14 5 19 27 63 46 41 57
REMARK Flexibility Score: inf
ROOT
ATOM      1  C   UNL A   1      34.290  33.359  33.603  1.00  0.00     0.116 C 
ENDROOT
BRANCH   1   2
ATOM      2  N   UNL A   1      35.519  34.129  33.591  1.00  0.00    -0.355 N 
ATOM      3  C   UNL A   1      36.498  34.283  34.522  1.00  0.00     0.239 C 
ATOM      4  O   UNL A   1      37.532  34.847  34.143  1.00  0.00    -0.273 OA
ATOM      5  H   UNL A   1      35.673  34.631  32.758  1.00  0.00     0.163 HD
BRANCH   3   6
ATOM      6  C   UNL A   1      36.465  33.645  35.920  1.00  0.00     0.221 C 
BRANCH   6   7
ATOM      7  N   UNL A   1      37.618  32.997  36.505  1.00  0.00    -0.306 N 
BRANCH   7   8
ATOM      8  C   UNL A   1      38.035  31.696  36.418  1.00  0.00     0.321 C 
ATOM      9  O   UNL A   1      37.652  30.950  37.336  1.00  0.00    -0.248 OA
BRANCH   8  10
ATOM     10  N   UNL A   1      38.730  31.129  35.366  1.00  0.00    -0.322 N 
ATOM     11  C   UNL A   1      38.596  30.923  33.886  1.00  0.00     0.086 C 
ATOM     12  C   UNL A   1      39.859  30.094  33.554  1.00  0.00     0.027 C 
ATOM     13  C   UNL A   1      40.926  30.737  34.394  1.00  0.00     0.024 C 
ATOM     14  C   UNL A   1      40.181  31.076  35.668  1.00  0.00     0.122 C 
BRANCH  11  15
ATOM     15  C   UNL A   1      37.434  30.283  33.107  1.00  0.00     0.022 C 
ATOM     16  C   UNL A   1      37.729  28.967  32.411  1.00  0.00     0.006 C 
ENDBRANCH  11  15
ENDBRANCH   8  10
ENDBRANCH   7   8
BRANCH   7  17
ATOM     17  C   UNL A   1      38.374  33.857  37.467  1.00  0.00     0.237 C 
BRANCH  17  18
ATOM     18  C   UNL A   1      39.634  34.562  36.940  1.00  0.00     0.406 C 
ATOM     19  F   UNL A   1      39.886  34.327  35.638  1.00  0.00    -0.169 F 
ATOM     20  F   UNL A   1      39.526  35.904  37.096  1.00  0.00    -0.169 F 
ATOM     21  F   UNL A   1      40.728  34.184  37.644  1.00  0.00    -0.169 F 
ENDBRANCH  17  18
ENDBRANCH   7  17
ENDBRANCH   6   7
ENDBRANCH   3   6
ENDBRANCH   1   2
BRANCH   1  22
ATOM     22  C   UNL A   1      33.161  34.023  32.827  1.00  0.00     0.023 C 
BRANCH  22  23
ATOM     23  C   UNL A   1      33.314  35.530  32.644  1.00  0.00     0.023 C 
BRANCH  23  24
ATOM     24  C   UNL A   1      33.787  35.963  31.262  1.00  0.00     0.116 C 
BRANCH  24  25
ATOM     25  N   UNL A   1      32.978  35.408  30.188  1.00  0.00    -0.352 N 
ATOM     26  C   UNL A   1      33.302  34.468  29.237  1.00  0.00     0.251 C 
ATOM     27  H   UNL A   1      32.059  35.758  30.133  1.00  0.00     0.163 HD
ATOM     28  O   UNL A   1      32.545  34.243  28.305  1.00  0.00    -0.269 OA
BRANCH  26  29
ATOM     29  C   UNL A   1      34.591  33.750  29.335  1.00  0.00     0.039 A 
ATOM     30  C   UNL A   1      35.680  34.215  28.596  1.00  0.00     0.014 A 
ATOM     31  C   UNL A   1      34.727  32.639  30.169  1.00  0.00     0.014 A 
ATOM     32  C   UNL A   1      36.926  33.606  28.754  1.00  0.00     0.010 A 
ATOM     33  C   UNL A   1      35.987  32.099  30.400  1.00  0.00     0.010 A 
ATOM     34  C   UNL A   1      37.100  32.571  29.690  1.00  0.00    -0.014 A 
BRANCH  34  35
ATOM     35  C   UNL A   1      38.441  31.981  29.933  1.00  0.00     0.031 A 
ATOM     36  C   UNL A   1      39.471  32.735  30.730  1.00  0.00     0.074 A 
ATOM     37  C   UNL A   1      38.745  30.782  29.399  1.00  0.00     0.049 A 
ATOM     38  N   UNL A   1      40.688  32.374  31.055  1.00  0.00    -0.248 NA
ATOM     39  C   UNL A   1      39.099  34.079  31.202  1.00  0.00     0.031 C 
ATOM     40  C   UNL A   1      37.857  29.977  28.556  1.00  0.00     0.029 A 
ATOM     41  N   UNL A   1      39.887  30.026  29.491  1.00  0.00    -0.354 N 
ATOM     42  C   UNL A   1      41.225  33.447  31.754  1.00  0.00     0.074 A 
ATOM     43  C   UNL A   1      40.229  34.495  31.755  1.00  0.00     0.031 C 
ATOM     44  C   UNL A   1      38.469  28.823  28.249  1.00  0.00     0.029 A 
ATOM     45  C   UNL A   1      39.805  28.821  28.836  1.00  0.00     0.049 A 
ATOM     46  H   UNL A   1      40.689  30.318  29.981  1.00  0.00     0.167 HD
ATOM     47  C   UNL A   1      42.430  33.544  32.364  1.00  0.00     0.031 A 
ATOM     48  C   UNL A   1      40.702  27.824  28.722  1.00  0.00     0.031 A 
ATOM     49  C   UNL A   1      43.418  32.499  32.370  1.00  0.00     0.049 A 
ATOM     50  C   UNL A   1      42.032  27.957  29.410  1.00  0.00     0.074 A 
ATOM     51  C   UNL A   1      44.645  32.477  33.011  1.00  0.00     0.029 A 
ATOM     52  N   UNL A   1      43.295  31.294  31.698  1.00  0.00    -0.354 N 
ATOM     53  N   UNL A   1      42.490  28.943  30.143  1.00  0.00    -0.248 NA
ATOM     54  C   UNL A   1      42.962  26.829  29.267  1.00  0.00     0.031 C 
ATOM     55  C   UNL A   1      45.290  31.281  32.677  1.00  0.00     0.029 A 
ATOM     56  C   UNL A   1      44.436  30.531  31.884  1.00  0.00     0.049 A 
ATOM     57  H   UNL A   1      42.513  31.020  31.166  1.00  0.00     0.167 HD
ATOM     58  C   UNL A   1      43.749  28.544  30.571  1.00  0.00     0.074 A 
ATOM     59  C   UNL A   1      43.970  27.216  30.036  1.00  0.00     0.031 C 
ATOM     60  C   UNL A   1      44.644  29.214  31.337  1.00  0.00     0.031 A 
BRANCH  47  61
ATOM     61  C   UNL A   1      42.746  34.833  33.075  1.00  0.00    -0.014 A 
ATOM     62  C   UNL A   1      43.269  35.939  32.384  1.00  0.00     0.009 A 
ATOM     63  C   UNL A   1      42.485  34.956  34.448  1.00  0.00     0.009 A 
ATOM     64  C   UNL A   1      43.557  37.126  33.060  1.00  0.00     0.001 A 
ATOM     65  C   UNL A   1      42.743  36.154  35.116  1.00  0.00     0.001 A 
ATOM     66  C   UNL A   1      43.288  37.235  34.424  1.00  0.00     0.000 A 
ENDBRANCH  47  61
BRANCH  48  67
ATOM     67  C   UNL A   1      40.367  26.601  27.945  1.00  0.00    -0.014 A 
ATOM     68  C   UNL A   1      39.601  25.575  28.520  1.00  0.00     0.009 A 
ATOM     69  C   UNL A   1      40.824  26.446  26.627  1.00  0.00     0.009 A 
ATOM     70  C   UNL A   1      39.329  24.407  27.804  1.00  0.00     0.001 A 
ATOM     71  C   UNL A   1      40.522  25.292  25.902  1.00  0.00     0.001 A 
ATOM     72  C   UNL A   1      39.785  24.268  26.494  1.00  0.00     0.000 A 
ENDBRANCH  48  67
BRANCH  60  73
ATOM     73  C   UNL A   1      45.929  28.506  31.665  1.00  0.00    -0.014 A 
ATOM     74  C   UNL A   1      47.059  28.616  30.840  1.00  0.00     0.009 A 
ATOM     75  C   UNL A   1      46.015  27.731  32.833  1.00  0.00     0.009 A 
ATOM     76  C   UNL A   1      48.232  27.926  31.152  1.00  0.00     0.001 A 
ATOM     77  C   UNL A   1      47.199  27.072  33.161  1.00  0.00     0.001 A 
ATOM     78  C   UNL A   1      48.302  27.159  32.313  1.00  0.00     0.000 A 
ENDBRANCH  60  73
ENDBRANCH  34  35
ENDBRANCH  26  29
ENDBRANCH  24  25
ENDBRANCH  23  24
ENDBRANCH  22  23
ENDBRANCH   1  22
TORSDOF 17
ENDMDL
MODEL 3
REMARK VINA RESULT:      -9.7      2.669      7.213
REMARK SMILES CC[C@@H]1CCCN1C(=O)N(CC(=O)NCCCCNC(=O)c1ccc(-c2c3nc(c(-c4ccccc4)c4ccc([nH]4)c(-c4ccccc4)c4nc(c(-c5ccccc5)c5ccc2[nH]5)C=C4)C=C3)cc1)CC(F)(F)F
REMARK SMILES IDX 15 1 14 2 12 3 13 4 11 6 10 7 8 8 9 9 7 10 3 11 4 12 5 13
REMARK SMILES IDX 6 14 2 15 1 16 70 17 71 18 72 19 73 20 74 21 16 22 17 23
REMARK SMILES IDX 18 24 19 25 20 26 21 28 22 29 23 30 69 31 24 32 68 33 25 34
REMARK SMILES IDX 26 35 27 36 62 37 28 38 67 39 61 40 63 41 29 42 66 43 60 44
REMARK SMILES IDX 59 45 30 47 52 48 37 49 51 50 38 51 41 52 50 53 64 54 39 55
REMARK SMILES IDX 40 56 49 58 65 59 42 60 31 61 32 62 36 63 33 64 35 65 34 66
REMARK SMILES IDX 53 67 54 68 58 69 55 70 57 71 56 72 43 73 44 74 48 75 45 76
REMARK SMILES IDX 47 77 46 78
REMARK H PARENT 14 5 19 27 63 46 41 57
REMARK Flexibility Score: inf
ROOT
ATOM      1  C   UNL A   1      33.349  26.073  24.562  1.00  0.00     0.116 C 
ENDROOT
BRANCH   1   2
ATOM      2  N   UNL A   1      34.274  25.223  23.837  1.00  0.00    -0.355 N 
ATOM      3  C   UNL A   1      34.262  23.889  23.577  1.00  0.00     0.239 C 
ATOM      4  O   UNL A   1      35.090  23.481  22.753  1.00  0.00    -0.273 OA
ATOM      5  H   UNL A   1      35.053  25.698  23.466  1.00  0.00     0.163 HD
BRANCH   3   6
ATOM      6  C   UNL A   1      33.182  22.922  24.089  1.00  0.00     0.221 C 
BRANCH   6   7
ATOM      7  N   UNL A   1      33.208  22.364  25.424  1.00  0.00    -0.306 N 
BRANCH   7   8
ATOM      8  C   UNL A   1      34.252  21.835  26.135  1.00  0.00     0.321 C 
ATOM      9  O   UNL A   1      34.051  21.700  27.354  1.00  0.00    -0.248 OA
BRANCH   8  10
ATOM     10  N   UNL A   1      35.434  21.347  25.611  1.00  0.00    -0.322 N 
ATOM     11  C   UNL A   1      36.915  21.526  25.769  1.00  0.00     0.086 C 
ATOM     12  C   UNL A   1      37.478  20.589  24.675  1.00  0.00     0.027 C 
ATOM     13  C   UNL A   1      36.590  19.380  24.764  1.00  0.00     0.024 C 
ATOM     14  C   UNL A   1      35.233  19.990  25.047  1.00  0.00     0.122 C 
BRANCH  11  15
ATOM     15  C   UNL A   1      37.738  22.824  25.701  1.00  0.00     0.022 C 
ATOM     16  C   UNL A   1      37.009  24.108  26.056  1.00  0.00     0.006 C 
ENDBRANCH  11  15
ENDBRANCH   8  10
ENDBRANCH   7   8
BRANCH   7  17
ATOM     17  C   UNL A   1      31.856  22.215  26.046  1.00  0.00     0.237 C 
BRANCH  17  18
ATOM     18  C   UNL A   1      31.098  23.505  26.396  1.00  0.00     0.406 C 
ATOM     19  F   UNL A   1      30.594  24.150  25.326  1.00  0.00    -0.169 F 
ATOM     20  F   UNL A   1      30.064  23.235  27.231  1.00  0.00    -0.169 F 
ATOM     21  F   UNL A   1      31.902  24.373  27.057  1.00  0.00    -0.169 F 
ENDBRANCH  17  18
ENDBRANCH   7  17
ENDBRANCH   6   7
ENDBRANCH   3   6
ENDBRANCH   1   2
BRANCH   1  22
ATOM     22  C   UNL A   1      34.038  27.213  25.299  1.00  0.00     0.023 C 
BRANCH  22  23
ATOM     23  C   UNL A   1      33.091  28.214  25.952  1.00  0.00     0.023 C 
BRANCH  23  24
ATOM     24  C   UNL A   1      33.398  28.531  27.411  1.00  0.00     0.116 C 
BRANCH  24  25
ATOM     25  N   UNL A   1      33.451  29.960  27.679  1.00  0.00    -0.352 N 
ATOM     26  C   UNL A   1      34.474  30.721  28.194  1.00  0.00     0.251 C 
ATOM     27  H   UNL A   1      32.630  30.457  27.459  1.00  0.00     0.163 HD
ATOM     28  O   UNL A   1      34.282  31.887  28.509  1.00  0.00    -0.269 OA
BRANCH  26  29
ATOM     29  C   UNL A   1      35.806  30.111  28.393  1.00  0.00     0.039 A 
ATOM     30  C   UNL A   1      36.716  30.117  27.334  1.00  0.00     0.014 A 
ATOM     31  C   UNL A   1      36.161  29.557  29.624  1.00  0.00     0.014 A 
ATOM     32  C   UNL A   1      38.009  29.633  27.538  1.00  0.00     0.010 A 
ATOM     33  C   UNL A   1      37.476  29.169  29.854  1.00  0.00     0.010 A 
ATOM     34  C   UNL A   1      38.413  29.195  28.812  1.00  0.00    -0.014 A 
BRANCH  34  35
ATOM     35  C   UNL A   1      39.813  28.767  29.061  1.00  0.00     0.031 A 
ATOM     36  C   UNL A   1      40.274  27.394  28.653  1.00  0.00     0.074 A 
ATOM     37  C   UNL A   1      40.660  29.603  29.694  1.00  0.00     0.049 A 
ATOM     38  N   UNL A   1      41.460  26.852  28.778  1.00  0.00    -0.248 NA
ATOM     39  C   UNL A   1      39.268  26.502  28.051  1.00  0.00     0.031 C 
ATOM     40  C   UNL A   1      40.320  30.937  30.195  1.00  0.00     0.029 A 
ATOM     41  N   UNL A   1      41.985  29.455  30.020  1.00  0.00    -0.354 N 
ATOM     42  C   UNL A   1      41.337  25.559  28.284  1.00  0.00     0.074 A 
ATOM     43  C   UNL A   1      39.952  25.375  27.914  1.00  0.00     0.031 C 
ATOM     44  C   UNL A   1      41.417  31.502  30.722  1.00  0.00     0.029 A 
ATOM     45  C   UNL A   1      42.527  30.559  30.633  1.00  0.00     0.049 A 
ATOM     46  H   UNL A   1      42.499  28.637  29.832  1.00  0.00     0.167 HD
ATOM     47  C   UNL A   1      42.297  24.617  28.126  1.00  0.00     0.031 A 
ATOM     48  C   UNL A   1      43.778  30.788  31.073  1.00  0.00     0.031 A 
ATOM     49  C   UNL A   1      43.676  24.802  28.486  1.00  0.00     0.049 A 
ATOM     50  C   UNL A   1      44.825  29.725  30.886  1.00  0.00     0.074 A 
ATOM     51  C   UNL A   1      44.738  23.930  28.311  1.00  0.00     0.029 A 
ATOM     52  N   UNL A   1      44.186  25.934  29.102  1.00  0.00    -0.354 N 
ATOM     53  N   UNL A   1      44.712  28.541  30.334  1.00  0.00    -0.248 NA
ATOM     54  C   UNL A   1      46.177  30.040  31.367  1.00  0.00     0.031 C 
ATOM     55  C   UNL A   1      45.878  24.512  28.874  1.00  0.00     0.029 A 
ATOM     56  C   UNL A   1      45.541  25.773  29.339  1.00  0.00     0.049 A 
ATOM     57  H   UNL A   1      43.662  26.734  29.336  1.00  0.00     0.167 HD
ATOM     58  C   UNL A   1      45.981  27.980  30.378  1.00  0.00     0.074 A 
ATOM     59  C   UNL A   1      46.852  28.965  30.986  1.00  0.00     0.031 C 
ATOM     60  C   UNL A   1      46.392  26.760  29.954  1.00  0.00     0.031 A 
BRANCH  47  61
ATOM     61  C   UNL A   1      41.880  23.294  27.540  1.00  0.00    -0.014 A 
ATOM     62  C   UNL A   1      42.122  22.984  26.191  1.00  0.00     0.009 A 
ATOM     63  C   UNL A   1      41.268  22.331  28.356  1.00  0.00     0.009 A 
ATOM     64  C   UNL A   1      41.726  21.752  25.665  1.00  0.00     0.001 A 
ATOM     65  C   UNL A   1      40.903  21.088  27.836  1.00  0.00     0.001 A 
ATOM     66  C   UNL A   1      41.124  20.803  26.489  1.00  0.00     0.000 A 
ENDBRANCH  47  61
BRANCH  48  67
ATOM     67  C   UNL A   1      44.120  32.086  31.714  1.00  0.00    -0.014 A 
ATOM     68  C   UNL A   1      43.997  32.253  33.103  1.00  0.00     0.009 A 
ATOM     69  C   UNL A   1      44.560  33.171  30.939  1.00  0.00     0.009 A 
ATOM     70  C   UNL A   1      44.272  33.487  33.696  1.00  0.00     0.001 A 
ATOM     71  C   UNL A   1      44.867  34.394  31.539  1.00  0.00     0.001 A 
ATOM     72  C   UNL A   1      44.712  34.555  32.915  1.00  0.00     0.000 A 
ENDBRANCH  48  67
BRANCH  60  73
ATOM     73  C   UNL A   1      47.853  26.438  30.107  1.00  0.00    -0.014 A 
ATOM     74  C   UNL A   1      48.776  26.722  29.088  1.00  0.00     0.009 A 
ATOM     75  C   UNL A   1      48.315  25.858  31.299  1.00  0.00     0.009 A 
ATOM     76  C   UNL A   1      50.123  26.388  29.243  1.00  0.00     0.001 A 
ATOM     77  C   UNL A   1      49.666  25.558  31.465  1.00  0.00     0.001 A 
ATOM     78  C   UNL A   1      50.567  25.811  30.432  1.00  0.00     0.000 A 
ENDBRANCH  60  73
ENDBRANCH  34  35
ENDBRANCH  26  29
ENDBRANCH  24  25
ENDBRANCH  23  24
ENDBRANCH  22  23
ENDBRANCH   1  22
TORSDOF 17
ENDMDL
