MODEL 1
REMARK VINA RESULT:     -10.7      0.000      0.000
REMARK SMILES COCC[C@]1(C(=O)NCCCCNC(=O)c2ccc(-c3c4nc(c(-c5ccccc5)c5ccc([nH]5)c(-c5ccccc5)c5nc(c(-c6ccccc6)c6ccc3[nH]6)C=C5)C=C4)cc2)CCCN(C(=O)c2ccc(=O)[nH]c2)C1
REMARK SMILES IDX 10 1 9 2 8 3 6 4 7 5 5 7 64 8 77 9 65 10 67 11 66 12 4 13
REMARK SMILES IDX 3 14 2 15 1 16 68 17 69 18 70 19 71 20 76 21 72 22 75 23
REMARK SMILES IDX 73 24 74 26 11 27 12 28 13 29 14 30 15 32 16 33 17 34 63 35
REMARK SMILES IDX 18 36 62 37 19 38 20 39 21 40 56 41 22 42 61 43 55 44 57 45
REMARK SMILES IDX 23 46 60 47 54 48 53 49 24 51 46 52 31 53 45 54 32 55 35 56
REMARK SMILES IDX 44 57 58 58 33 59 34 60 43 62 59 63 36 64 25 65 26 66 30 67
REMARK SMILES IDX 27 68 29 69 28 70 47 71 48 72 52 73 49 74 51 75 50 76 37 77
REMARK SMILES IDX 38 78 42 79 39 80 41 81 40 82
REMARK H PARENT 8 6 75 25 13 31 57 50 35 61
REMARK Flexibility Score: inf
ROOT
ATOM      1  C   UNL A   1      34.655  23.051  25.506  1.00  0.00     0.023 C 
ENDROOT
BRANCH   1   2
ATOM      2  C   UNL A   1      33.904  24.273  24.985  1.00  0.00     0.116 C 
BRANCH   2   3
ATOM      3  N   UNL A   1      34.113  25.437  25.827  1.00  0.00    -0.356 N 
ATOM      4  C   UNL A   1      33.770  26.749  25.709  1.00  0.00     0.228 C 
ATOM      5  O   UNL A   1      34.276  27.490  26.555  1.00  0.00    -0.274 OA
ATOM      6  H   UNL A   1      34.607  25.236  26.655  1.00  0.00     0.163 HD
BRANCH   4   7
ATOM      7  C   UNL A   1      32.873  27.284  24.571  1.00  0.00     0.069 C 
ATOM      8  C   UNL A   1      33.630  27.057  23.227  1.00  0.00     0.021 C 
ATOM      9  C   UNL A   1      31.506  26.568  24.572  1.00  0.00     0.136 C 
ATOM     10  C   UNL A   1      32.750  27.218  21.984  1.00  0.00     0.023 C 
ATOM     11  N   UNL A   1      30.741  26.809  23.350  1.00  0.00    -0.338 N 
ATOM     12  C   UNL A   1      31.430  26.468  22.107  1.00  0.00     0.120 C 
BRANCH   7  13
ATOM     13  C   UNL A   1      32.684  28.838  24.728  1.00  0.00     0.047 C 
BRANCH  13  14
ATOM     14  C   UNL A   1      31.537  29.376  25.594  1.00  0.00     0.161 C 
BRANCH  14  15
ATOM     15  O   UNL A   1      31.869  30.541  26.332  1.00  0.00    -0.385 OA
ATOM     16  C   UNL A   1      33.169  30.532  26.898  1.00  0.00     0.194 C 
ENDBRANCH  14  15
ENDBRANCH  13  14
ENDBRANCH   7  13
BRANCH  11  17
ATOM     17  C   UNL A   1      29.423  27.220  23.471  1.00  0.00     0.255 C 
ATOM     18  O   UNL A   1      28.568  26.587  24.089  1.00  0.00    -0.269 OA
BRANCH  17  19
ATOM     19  C   UNL A   1      29.044  28.514  22.858  1.00  0.00     0.056 A 
ATOM     20  C   UNL A   1      30.016  29.407  22.263  1.00  0.00     0.021 A 
ATOM     21  C   UNL A   1      27.737  28.810  22.805  1.00  0.00     0.099 A 
ATOM     22  C   UNL A   1      29.619  30.550  21.684  1.00  0.00     0.072 A 
ATOM     23  N   UNL A   1      27.320  29.980  22.217  1.00  0.00    -0.328 N 
ATOM     24  C   UNL A   1      28.172  30.896  21.644  1.00  0.00     0.247 A 
ATOM     25  H   UNL A   1      26.354  30.174  22.204  1.00  0.00     0.169 HD
ATOM     26  O   UNL A   1      27.781  31.936  21.128  1.00  0.00    -0.270 OA
ENDBRANCH  17  19
ENDBRANCH  11  17
ENDBRANCH   4   7
ENDBRANCH   2   3
ENDBRANCH   1   2
BRANCH   1  27
ATOM     27  C   UNL A   1      36.013  23.349  26.139  1.00  0.00     0.023 C 
BRANCH  27  28
ATOM     28  C   UNL A   1      37.169  23.493  25.157  1.00  0.00     0.116 C 
BRANCH  28  29
ATOM     29  N   UNL A   1      38.300  22.634  25.478  1.00  0.00    -0.352 N 
ATOM     30  C   UNL A   1      39.452  22.930  26.165  1.00  0.00     0.251 C 
ATOM     31  H   UNL A   1      38.228  21.707  25.156  1.00  0.00     0.163 HD
ATOM     32  O   UNL A   1      40.358  22.110  26.232  1.00  0.00    -0.269 OA
BRANCH  30  33
ATOM     33  C   UNL A   1      39.604  24.259  26.795  1.00  0.00     0.039 A 
ATOM     34  C   UNL A   1      39.083  24.459  28.075  1.00  0.00     0.014 A 
ATOM     35  C   UNL A   1      40.280  25.289  26.137  1.00  0.00     0.014 A 
ATOM     36  C   UNL A   1      39.308  25.673  28.727  1.00  0.00     0.010 A 
ATOM     37  C   UNL A   1      40.568  26.468  26.817  1.00  0.00     0.010 A 
ATOM     38  C   UNL A   1      40.086  26.671  28.119  1.00  0.00    -0.014 A 
BRANCH  38  39
ATOM     39  C   UNL A   1      40.417  27.931  28.831  1.00  0.00     0.031 A 
ATOM     40  C   UNL A   1      41.731  28.069  29.549  1.00  0.00     0.074 A 
ATOM     41  C   UNL A   1      39.502  28.919  28.899  1.00  0.00     0.049 A 
ATOM     42  N   UNL A   1      42.168  29.062  30.282  1.00  0.00    -0.248 NA
ATOM     43  C   UNL A   1      42.664  26.935  29.456  1.00  0.00     0.031 C 
ATOM     44  C   UNL A   1      38.168  28.886  28.292  1.00  0.00     0.029 A 
ATOM     45  N   UNL A   1      39.551  30.140  29.523  1.00  0.00    -0.354 N 
ATOM     46  C   UNL A   1      43.410  28.660  30.758  1.00  0.00     0.074 A 
ATOM     47  C   UNL A   1      43.640  27.320  30.265  1.00  0.00     0.031 C 
ATOM     48  C   UNL A   1      37.536  30.040  28.558  1.00  0.00     0.029 A 
ATOM     49  C   UNL A   1      38.399  30.877  29.385  1.00  0.00     0.049 A 
ATOM     50  H   UNL A   1      40.337  30.458  30.024  1.00  0.00     0.167 HD
ATOM     51  C   UNL A   1      44.287  29.350  31.526  1.00  0.00     0.031 A 
ATOM     52  C   UNL A   1      38.071  32.087  29.876  1.00  0.00     0.031 A 
ATOM     53  C   UNL A   1      44.071  30.693  31.992  1.00  0.00     0.049 A 
ATOM     54  C   UNL A   1      39.070  32.837  30.712  1.00  0.00     0.074 A 
ATOM     55  C   UNL A   1      44.937  31.506  32.700  1.00  0.00     0.029 A 
ATOM     56  N   UNL A   1      42.905  31.416  31.801  1.00  0.00    -0.354 N 
ATOM     57  N   UNL A   1      40.280  32.479  31.072  1.00  0.00    -0.248 NA
ATOM     58  C   UNL A   1      38.665  34.164  31.198  1.00  0.00     0.031 C 
ATOM     59  C   UNL A   1      44.277  32.705  32.984  1.00  0.00     0.029 A 
ATOM     60  C   UNL A   1      43.019  32.658  32.404  1.00  0.00     0.049 A 
ATOM     61  H   UNL A   1      42.114  31.097  31.311  1.00  0.00     0.167 HD
ATOM     62  C   UNL A   1      40.787  33.547  31.801  1.00  0.00     0.074 A 
ATOM     63  C   UNL A   1      39.764  34.570  31.817  1.00  0.00     0.031 C 
ATOM     64  C   UNL A   1      41.994  33.667  32.405  1.00  0.00     0.031 A 
BRANCH  51  65
ATOM     65  C   UNL A   1      45.564  28.662  31.917  1.00  0.00    -0.014 A 
ATOM     66  C   UNL A   1      46.723  28.773  31.134  1.00  0.00     0.009 A 
ATOM     67  C   UNL A   1      45.622  27.939  33.119  1.00  0.00     0.009 A 
ATOM     68  C   UNL A   1      47.907  28.150  31.532  1.00  0.00     0.001 A 
ATOM     69  C   UNL A   1      46.815  27.340  33.529  1.00  0.00     0.001 A 
ATOM     70  C   UNL A   1      47.954  27.439  32.732  1.00  0.00     0.000 A 
ENDBRANCH  51  65
BRANCH  52  71
ATOM     71  C   UNL A   1      36.734  32.674  29.593  1.00  0.00    -0.014 A 
ATOM     72  C   UNL A   1      36.492  33.351  28.387  1.00  0.00     0.009 A 
ATOM     73  C   UNL A   1      35.701  32.583  30.538  1.00  0.00     0.009 A 
ATOM     74  C   UNL A   1      35.255  33.956  28.151  1.00  0.00     0.001 A 
ATOM     75  C   UNL A   1      34.455  33.162  30.285  1.00  0.00     0.001 A 
ATOM     76  C   UNL A   1      34.238  33.859  29.098  1.00  0.00     0.000 A 
ENDBRANCH  52  71
BRANCH  64  77
ATOM     77  C   UNL A   1      42.289  34.966  33.101  1.00  0.00    -0.014 A 
ATOM     78  C   UNL A   1      41.795  35.233  34.387  1.00  0.00     0.009 A 
ATOM     79  C   UNL A   1      43.109  35.917  32.474  1.00  0.00     0.009 A 
ATOM     80  C   UNL A   1      42.091  36.443  35.018  1.00  0.00     0.001 A 
ATOM     81  C   UNL A   1      43.427  37.112  33.120  1.00  0.00     0.001 A 
ATOM     82  C   UNL A   1      42.912  37.378  34.387  1.00  0.00     0.000 A 
ENDBRANCH  64  77
ENDBRANCH  38  39
ENDBRANCH  30  33
ENDBRANCH  28  29
ENDBRANCH  27  28
ENDBRANCH   1  27
TORSDOF 16
ENDMDL
MODEL 2
REMARK VINA RESULT:     -10.6      2.064      7.630
REMARK SMILES COCC[C@]1(C(=O)NCCCCNC(=O)c2ccc(-c3c4nc(c(-c5ccccc5)c5ccc([nH]5)c(-c5ccccc5)c5nc(c(-c6ccccc6)c6ccc3[nH]6)C=C5)C=C4)cc2)CCCN(C(=O)c2ccc(=O)[nH]c2)C1
REMARK SMILES IDX 10 1 9 2 8 3 6 4 7 5 5 7 64 8 77 9 65 10 67 11 66 12 4 13
REMARK SMILES IDX 3 14 2 15 1 16 68 17 69 18 70 19 71 20 76 21 72 22 75 23
REMARK SMILES IDX 73 24 74 26 11 27 12 28 13 29 14 30 15 32 16 33 17 34 63 35
REMARK SMILES IDX 18 36 62 37 19 38 20 39 21 40 56 41 22 42 61 43 55 44 57 45
REMARK SMILES IDX 23 46 60 47 54 48 53 49 24 51 46 52 31 53 45 54 32 55 35 56
REMARK SMILES IDX 44 57 58 58 33 59 34 60 43 62 59 63 36 64 25 65 26 66 30 67
REMARK SMILES IDX 27 68 29 69 28 70 47 71 48 72 52 73 49 74 51 75 50 76 37 77
REMARK SMILES IDX 38 78 42 79 39 80 41 81 40 82
REMARK H PARENT 8 6 75 25 13 31 57 50 35 61
REMARK Flexibility Score: inf
ROOT
ATOM      1  C   UNL A   1      31.783  29.555  26.570  1.00  0.00     0.023 C 
ENDROOT
BRANCH   1   2
ATOM      2  C   UNL A   1      33.118  28.899  26.231  1.00  0.00     0.116 C 
BRANCH   2   3
ATOM      3  N   UNL A   1      33.540  29.199  24.874  1.00  0.00    -0.356 N 
ATOM      4  C   UNL A   1      33.612  28.459  23.734  1.00  0.00     0.228 C 
ATOM      5  O   UNL A   1      34.190  29.015  22.797  1.00  0.00    -0.274 OA
ATOM      6  H   UNL A   1      33.835  30.131  24.754  1.00  0.00     0.163 HD
BRANCH   4   7
ATOM      7  C   UNL A   1      33.074  27.014  23.633  1.00  0.00     0.069 C 
ATOM      8  C   UNL A   1      33.189  26.569  22.143  1.00  0.00     0.021 C 
ATOM      9  C   UNL A   1      33.868  26.071  24.562  1.00  0.00     0.136 C 
ATOM     10  C   UNL A   1      33.018  25.062  21.930  1.00  0.00     0.023 C 
ATOM     11  N   UNL A   1      33.611  24.659  24.287  1.00  0.00    -0.338 N 
ATOM     12  C   UNL A   1      33.849  24.241  22.907  1.00  0.00     0.120 C 
BRANCH   7  13
ATOM     13  C   UNL A   1      31.543  26.990  23.996  1.00  0.00     0.047 C 
BRANCH  13  14
ATOM     14  C   UNL A   1      30.551  27.788  23.140  1.00  0.00     0.161 C 
BRANCH  14  15
ATOM     15  O   UNL A   1      30.760  29.190  23.171  1.00  0.00    -0.385 OA
ATOM     16  C   UNL A   1      29.586  29.958  23.380  1.00  0.00     0.194 C 
ENDBRANCH  14  15
ENDBRANCH  13  14
ENDBRANCH   7  13
BRANCH  11  17
ATOM     17  C   UNL A   1      33.284  23.832  25.349  1.00  0.00     0.255 C 
ATOM     18  O   UNL A   1      32.852  24.245  26.425  1.00  0.00    -0.269 OA
BRANCH  17  19
ATOM     19  C   UNL A   1      33.421  22.370  25.153  1.00  0.00     0.056 A 
ATOM     20  C   UNL A   1      32.416  21.579  24.475  1.00  0.00     0.021 A 
ATOM     21  C   UNL A   1      34.561  21.797  25.569  1.00  0.00     0.099 A 
ATOM     22  C   UNL A   1      32.605  20.265  24.285  1.00  0.00     0.072 A 
ATOM     23  N   UNL A   1      34.762  20.451  25.383  1.00  0.00    -0.328 N 
ATOM     24  C   UNL A   1      33.857  19.618  24.766  1.00  0.00     0.247 A 
ATOM     25  H   UNL A   1      35.605  20.059  25.710  1.00  0.00     0.169 HD
ATOM     26  O   UNL A   1      34.052  18.419  24.614  1.00  0.00    -0.270 OA
ENDBRANCH  17  19
ENDBRANCH  11  17
ENDBRANCH   4   7
ENDBRANCH   2   3
ENDBRANCH   1   2
BRANCH   1  27
ATOM     27  C   UNL A   1      31.766  31.079  26.459  1.00  0.00     0.023 C 
BRANCH  27  28
ATOM     28  C   UNL A   1      32.881  31.798  27.208  1.00  0.00     0.116 C 
BRANCH  28  29
ATOM     29  N   UNL A   1      32.534  33.164  27.572  1.00  0.00    -0.352 N 
ATOM     30  C   UNL A   1      33.200  34.043  28.391  1.00  0.00     0.251 C 
ATOM     31  H   UNL A   1      31.702  33.507  27.173  1.00  0.00     0.163 HD
ATOM     32  O   UNL A   1      32.691  35.117  28.685  1.00  0.00    -0.269 OA
BRANCH  30  33
ATOM     33  C   UNL A   1      34.520  33.670  28.942  1.00  0.00     0.039 A 
ATOM     34  C   UNL A   1      34.569  32.886  30.096  1.00  0.00     0.014 A 
ATOM     35  C   UNL A   1      35.698  34.069  28.306  1.00  0.00     0.014 A 
ATOM     36  C   UNL A   1      35.802  32.438  30.571  1.00  0.00     0.010 A 
ATOM     37  C   UNL A   1      36.919  33.559  28.736  1.00  0.00     0.010 A 
ATOM     38  C   UNL A   1      36.983  32.737  29.872  1.00  0.00    -0.014 A 
BRANCH  38  39
ATOM     39  C   UNL A   1      38.294  32.191  30.305  1.00  0.00     0.031 A 
ATOM     40  C   UNL A   1      38.792  30.889  29.744  1.00  0.00     0.074 A 
ATOM     41  C   UNL A   1      38.998  32.829  31.263  1.00  0.00     0.049 A 
ATOM     42  N   UNL A   1      39.876  30.220  30.051  1.00  0.00    -0.248 NA
ATOM     43  C   UNL A   1      37.952  30.236  28.727  1.00  0.00     0.031 C 
ATOM     44  C   UNL A   1      38.598  34.073  31.927  1.00  0.00     0.029 A 
ATOM     45  N   UNL A   1      40.195  32.509  31.854  1.00  0.00    -0.354 N 
ATOM     46  C   UNL A   1      39.830  29.060  29.289  1.00  0.00     0.074 A 
ATOM     47  C   UNL A   1      38.597  29.095  28.534  1.00  0.00     0.031 C 
ATOM     48  C   UNL A   1      39.541  34.418  32.819  1.00  0.00     0.029 A 
ATOM     49  C   UNL A   1      40.590  33.404  32.818  1.00  0.00     0.049 A 
ATOM     50  H   UNL A   1      40.719  31.713  31.610  1.00  0.00     0.167 HD
ATOM     51  C   UNL A   1      40.741  28.061  29.212  1.00  0.00     0.031 A 
ATOM     52  C   UNL A   1      41.672  33.405  33.620  1.00  0.00     0.031 A 
ATOM     53  C   UNL A   1      41.981  28.040  29.939  1.00  0.00     0.049 A 
ATOM     54  C   UNL A   1      42.675  32.291  33.501  1.00  0.00     0.074 A 
ATOM     55  C   UNL A   1      43.008  27.116  29.861  1.00  0.00     0.029 A 
ATOM     56  N   UNL A   1      42.360  28.983  30.881  1.00  0.00    -0.354 N 
ATOM     57  N   UNL A   1      42.663  31.250  32.704  1.00  0.00    -0.248 NA
ATOM     58  C   UNL A   1      43.848  32.359  34.385  1.00  0.00     0.031 C 
ATOM     59  C   UNL A   1      43.986  27.471  30.794  1.00  0.00     0.029 A 
ATOM     60  C   UNL A   1      43.593  28.647  31.413  1.00  0.00     0.049 A 
ATOM     61  H   UNL A   1      41.832  29.774  31.134  1.00  0.00     0.167 HD
ATOM     62  C   UNL A   1      43.837  30.557  32.970  1.00  0.00     0.074 A 
ATOM     63  C   UNL A   1      44.545  31.304  33.987  1.00  0.00     0.031 C 
ATOM     64  C   UNL A   1      44.287  29.404  32.421  1.00  0.00     0.031 A 
BRANCH  51  65
ATOM     65  C   UNL A   1      40.430  26.900  28.311  1.00  0.00    -0.014 A 
ATOM     66  C   UNL A   1      39.639  25.827  28.748  1.00  0.00     0.009 A 
ATOM     67  C   UNL A   1      40.889  26.910  26.983  1.00  0.00     0.009 A 
ATOM     68  C   UNL A   1      39.337  24.773  27.884  1.00  0.00     0.001 A 
ATOM     69  C   UNL A   1      40.563  25.867  26.113  1.00  0.00     0.001 A 
ATOM     70  C   UNL A   1      39.794  24.797  26.566  1.00  0.00     0.000 A 
ENDBRANCH  51  65
BRANCH  52  71
ATOM     71  C   UNL A   1      41.872  34.496  34.610  1.00  0.00    -0.014 A 
ATOM     72  C   UNL A   1      42.576  35.658  34.260  1.00  0.00     0.009 A 
ATOM     73  C   UNL A   1      41.381  34.369  35.919  1.00  0.00     0.009 A 
ATOM     74  C   UNL A   1      42.816  36.654  35.210  1.00  0.00     0.001 A 
ATOM     75  C   UNL A   1      41.595  35.381  36.858  1.00  0.00     0.001 A 
ATOM     76  C   UNL A   1      42.324  36.516  36.506  1.00  0.00     0.000 A 
ENDBRANCH  52  71
BRANCH  64  77
ATOM     77  C   UNL A   1      45.625  28.899  32.880  1.00  0.00    -0.014 A 
ATOM     78  C   UNL A   1      46.813  29.310  32.258  1.00  0.00     0.009 A 
ATOM     79  C   UNL A   1      45.697  28.029  33.980  1.00  0.00     0.009 A 
ATOM     80  C   UNL A   1      48.047  28.835  32.710  1.00  0.00     0.001 A 
ATOM     81  C   UNL A   1      46.932  27.580  34.448  1.00  0.00     0.001 A 
ATOM     82  C   UNL A   1      48.105  27.976  33.807  1.00  0.00     0.000 A 
ENDBRANCH  64  77
ENDBRANCH  38  39
ENDBRANCH  30  33
ENDBRANCH  28  29
ENDBRANCH  27  28
ENDBRANCH   1  27
TORSDOF 16
ENDMDL
MODEL 3
REMARK VINA RESULT:     -10.6      2.871      7.227
REMARK SMILES COCC[C@]1(C(=O)NCCCCNC(=O)c2ccc(-c3c4nc(c(-c5ccccc5)c5ccc([nH]5)c(-c5ccccc5)c5nc(c(-c6ccccc6)c6ccc3[nH]6)C=C5)C=C4)cc2)CCCN(C(=O)c2ccc(=O)[nH]c2)C1
REMARK SMILES IDX 10 1 9 2 8 3 6 4 7 5 5 7 64 8 77 9 65 10 67 11 66 12 4 13
REMARK SMILES IDX 3 14 2 15 1 16 68 17 69 18 70 19 71 20 76 21 72 22 75 23
REMARK SMILES IDX 73 24 74 26 11 27 12 28 13 29 14 30 15 32 16 33 17 34 63 35
REMARK SMILES IDX 18 36 62 37 19 38 20 39 21 40 56 41 22 42 61 43 55 44 57 45
REMARK SMILES IDX 23 46 60 47 54 48 53 49 24 51 46 52 31 53 45 54 32 55 35 56
REMARK SMILES IDX 44 57 58 58 33 59 34 60 43 62 59 63 36 64 25 65 26 66 30 67
REMARK SMILES IDX 27 68 29 69 28 70 47 71 48 72 52 73 49 74 51 75 50 76 37 77
REMARK SMILES IDX 38 78 42 79 39 80 41 81 40 82
REMARK H PARENT 8 6 75 25 13 31 57 50 35 61
REMARK Flexibility Score: inf
ROOT
ATOM      1  C   UNL A   1      36.427  19.239  24.975  1.00  0.00     0.023 C 
ENDROOT
BRANCH   1   2
ATOM      2  C   UNL A   1      35.478  20.432  24.903  1.00  0.00     0.116 C 
BRANCH   2   3
ATOM      3  N   UNL A   1      36.180  21.664  24.589  1.00  0.00    -0.356 N 
ATOM      4  C   UNL A   1      35.766  22.908  24.225  1.00  0.00     0.228 C 
ATOM      5  O   UNL A   1      36.670  23.667  23.868  1.00  0.00    -0.274 OA
ATOM      6  H   UNL A   1      37.160  21.582  24.652  1.00  0.00     0.163 HD
BRANCH   4   7
ATOM      7  C   UNL A   1      34.278  23.324  24.196  1.00  0.00     0.069 C 
ATOM      8  C   UNL A   1      33.543  22.377  23.198  1.00  0.00     0.021 C 
ATOM      9  C   UNL A   1      33.660  23.238  25.607  1.00  0.00     0.136 C 
ATOM     10  C   UNL A   1      32.016  22.430  23.303  1.00  0.00     0.023 C 
ATOM     11  N   UNL A   1      32.202  23.322  25.591  1.00  0.00    -0.338 N 
ATOM     12  C   UNL A   1      31.530  22.338  24.743  1.00  0.00     0.120 C 
BRANCH   7  13
ATOM     13  C   UNL A   1      34.144  24.782  23.620  1.00  0.00     0.047 C 
BRANCH  13  14
ATOM     14  C   UNL A   1      33.403  25.006  22.295  1.00  0.00     0.161 C 
BRANCH  14  15
ATOM     15  O   UNL A   1      33.810  26.171  21.596  1.00  0.00    -0.385 OA
ATOM     16  C   UNL A   1      33.592  27.385  22.296  1.00  0.00     0.194 C 
ENDBRANCH  14  15
ENDBRANCH  13  14
ENDBRANCH   7  13
BRANCH  11  17
ATOM     17  C   UNL A   1      31.586  24.223  26.444  1.00  0.00     0.255 C 
ATOM     18  O   UNL A   1      31.130  23.914  27.545  1.00  0.00    -0.269 OA
BRANCH  17  19
ATOM     19  C   UNL A   1      31.519  25.641  26.020  1.00  0.00     0.056 A 
ATOM     20  C   UNL A   1      32.406  26.654  26.551  1.00  0.00     0.021 A 
ATOM     21  C   UNL A   1      30.640  25.954  25.056  1.00  0.00     0.099 A 
ATOM     22  C   UNL A   1      32.334  27.917  26.105  1.00  0.00     0.072 A 
ATOM     23  N   UNL A   1      30.555  27.245  24.594  1.00  0.00    -0.328 N 
ATOM     24  C   UNL A   1      31.344  28.276  25.052  1.00  0.00     0.247 A 
ATOM     25  H   UNL A   1      29.892  27.445  23.894  1.00  0.00     0.169 HD
ATOM     26  O   UNL A   1      31.250  29.422  24.632  1.00  0.00    -0.270 OA
ENDBRANCH  17  19
ENDBRANCH  11  17
ENDBRANCH   4   7
ENDBRANCH   2   3
ENDBRANCH   1   2
BRANCH   1  27
ATOM     27  C   UNL A   1      37.877  19.544  24.602  1.00  0.00     0.023 C 
BRANCH  27  28
ATOM     28  C   UNL A   1      38.789  19.889  25.773  1.00  0.00     0.116 C 
BRANCH  28  29
ATOM     29  N   UNL A   1      40.027  19.124  25.775  1.00  0.00    -0.352 N 
ATOM     30  C   UNL A   1      41.303  19.529  26.086  1.00  0.00     0.251 C 
ATOM     31  H   UNL A   1      39.938  18.178  25.516  1.00  0.00     0.163 HD
ATOM     32  O   UNL A   1      42.249  18.775  25.910  1.00  0.00    -0.269 OA
BRANCH  30  33
ATOM     33  C   UNL A   1      41.527  20.895  26.604  1.00  0.00     0.039 A 
ATOM     34  C   UNL A   1      41.515  21.101  27.985  1.00  0.00     0.014 A 
ATOM     35  C   UNL A   1      41.775  21.958  25.733  1.00  0.00     0.014 A 
ATOM     36  C   UNL A   1      41.828  22.362  28.496  1.00  0.00     0.010 A 
ATOM     37  C   UNL A   1      42.160  23.193  26.245  1.00  0.00     0.010 A 
ATOM     38  C   UNL A   1      42.192  23.407  27.631  1.00  0.00    -0.014 A 
BRANCH  38  39
ATOM     39  C   UNL A   1      42.620  24.727  28.157  1.00  0.00     0.031 A 
ATOM     40  C   UNL A   1      41.604  25.810  28.397  1.00  0.00     0.074 A 
ATOM     41  C   UNL A   1      43.932  24.978  28.342  1.00  0.00     0.049 A 
ATOM     42  N   UNL A   1      41.794  27.046  28.786  1.00  0.00    -0.248 NA
ATOM     43  C   UNL A   1      40.196  25.470  28.142  1.00  0.00     0.031 C 
ATOM     44  C   UNL A   1      45.022  24.030  28.094  1.00  0.00     0.029 A 
ATOM     45  N   UNL A   1      44.573  26.113  28.770  1.00  0.00    -0.354 N 
ATOM     46  C   UNL A   1      40.537  27.636  28.792  1.00  0.00     0.074 A 
ATOM     47  C   UNL A   1      39.596  26.637  28.333  1.00  0.00     0.031 C 
ATOM     48  C   UNL A   1      46.192  24.618  28.391  1.00  0.00     0.029 A 
ATOM     49  C   UNL A   1      45.941  25.992  28.813  1.00  0.00     0.049 A 
ATOM     50  H   UNL A   1      44.097  26.937  29.022  1.00  0.00     0.167 HD
ATOM     51  C   UNL A   1      40.192  28.892  29.162  1.00  0.00     0.031 A 
ATOM     52  C   UNL A   1      46.888  26.889  29.146  1.00  0.00     0.031 A 
ATOM     53  C   UNL A   1      41.122  29.875  29.647  1.00  0.00     0.049 A 
ATOM     54  C   UNL A   1      46.476  28.272  29.567  1.00  0.00     0.074 A 
ATOM     55  C   UNL A   1      40.857  31.145  30.128  1.00  0.00     0.029 A 
ATOM     56  N   UNL A   1      42.495  29.702  29.706  1.00  0.00    -0.354 N 
ATOM     57  N   UNL A   1      45.271  28.782  29.659  1.00  0.00    -0.248 NA
ATOM     58  C   UNL A   1      47.553  29.199  29.943  1.00  0.00     0.031 C 
ATOM     59  C   UNL A   1      42.075  31.760  30.431  1.00  0.00     0.029 A 
ATOM     60  C   UNL A   1      43.094  30.853  30.190  1.00  0.00     0.049 A 
ATOM     61  H   UNL A   1      42.974  28.882  29.445  1.00  0.00     0.167 HD
ATOM     62  C   UNL A   1      45.445  30.077  30.130  1.00  0.00     0.074 A 
ATOM     63  C   UNL A   1      46.867  30.268  30.321  1.00  0.00     0.031 C 
ATOM     64  C   UNL A   1      44.510  31.024  30.380  1.00  0.00     0.031 A 
BRANCH  51  65
ATOM     65  C   UNL A   1      38.745  29.280  29.052  1.00  0.00    -0.014 A 
ATOM     66  C   UNL A   1      38.209  29.769  27.851  1.00  0.00     0.009 A 
ATOM     67  C   UNL A   1      37.893  29.098  30.153  1.00  0.00     0.009 A 
ATOM     68  C   UNL A   1      36.854  30.095  27.763  1.00  0.00     0.001 A 
ATOM     69  C   UNL A   1      36.533  29.400  30.054  1.00  0.00     0.001 A 
ATOM     70  C   UNL A   1      36.016  29.905  28.863  1.00  0.00     0.000 A 
ENDBRANCH  51  65
BRANCH  52  71
ATOM     71  C   UNL A   1      48.327  26.514  29.097  1.00  0.00    -0.014 A 
ATOM     72  C   UNL A   1      49.078  26.716  27.929  1.00  0.00     0.009 A 
ATOM     73  C   UNL A   1      48.948  25.928  30.211  1.00  0.00     0.009 A 
ATOM     74  C   UNL A   1      50.413  26.305  27.866  1.00  0.00     0.001 A 
ATOM     75  C   UNL A   1      50.291  25.548  30.155  1.00  0.00     0.001 A 
ATOM     76  C   UNL A   1      51.018  25.724  28.978  1.00  0.00     0.000 A 
ENDBRANCH  52  71
BRANCH  64  77
ATOM     77  C   UNL A   1      44.990  32.340  30.925  1.00  0.00    -0.014 A 
ATOM     78  C   UNL A   1      45.109  32.558  32.305  1.00  0.00     0.009 A 
ATOM     79  C   UNL A   1      45.368  33.360  30.038  1.00  0.00     0.009 A 
ATOM     80  C   UNL A   1      45.568  33.786  32.788  1.00  0.00     0.001 A 
ATOM     81  C   UNL A   1      45.853  34.575  30.522  1.00  0.00     0.001 A 
ATOM     82  C   UNL A   1      45.945  34.790  31.896  1.00  0.00     0.000 A 
ENDBRANCH  64  77
ENDBRANCH  38  39
ENDBRANCH  30  33
ENDBRANCH  28  29
ENDBRANCH  27  28
ENDBRANCH   1  27
TORSDOF 16
ENDMDL
