MODEL 1
REMARK VINA RESULT:     -10.8      0.000      0.000
REMARK SMILES O=C(NCCCCNC(=O)[C@H]1C[C@H]2CCCC[C@@H]2[N@@H+]1CC[C@@H]1CCCO1)c1ccc(-c2c3nc(c(-c4ccccc4)c4ccc([nH]4)c(-c4ccccc4)c4nc(c(-c5ccccc5)c5ccc2[nH]5)C=C4)C=C3)cc1
REMARK SMILES IDX 6 1 5 2 4 3 3 4 1 5 2 6 27 8 28 9 74 10 29 11 73 12 30 13
REMARK SMILES IDX 31 14 32 15 67 16 33 17 72 18 66 19 68 20 34 21 71 22 65 23
REMARK SMILES IDX 64 24 35 26 57 27 42 28 56 29 43 30 46 31 55 32 69 33 44 34
REMARK SMILES IDX 45 35 54 37 70 38 47 39 36 40 37 41 41 42 38 43 40 44 39 45
REMARK SMILES IDX 58 46 59 47 63 48 60 49 62 50 61 51 48 52 49 53 53 54 50 55
REMARK SMILES IDX 52 56 51 57 7 58 8 59 9 60 10 62 11 63 12 64 19 65 13 66
REMARK SMILES IDX 18 67 14 69 17 70 15 71 16 72 20 73 21 74 22 75 23 76 26 77
REMARK SMILES IDX 24 78 25 79
REMARK H PARENT 3 7 68 25 46 36 8 61 19 68
REMARK Flexibility Score: inf
ROOT
ATOM      1  C   UNL A   1      34.912  22.826  24.186  1.00  0.00     0.023 C 
ENDROOT
BRANCH   1   2
ATOM      2  C   UNL A   1      36.088  23.753  24.520  1.00  0.00     0.023 C 
BRANCH   2   3
ATOM      3  C   UNL A   1      36.674  23.577  25.914  1.00  0.00     0.116 C 
BRANCH   3   4
ATOM      4  N   UNL A   1      37.755  22.607  25.947  1.00  0.00    -0.352 N 
ATOM      5  O   UNL A   1      39.899  21.915  26.131  1.00  0.00    -0.269 OA
ATOM      6  C   UNL A   1      39.068  22.802  26.305  1.00  0.00     0.251 C 
ATOM      7  H   UNL A   1      37.517  21.690  25.678  1.00  0.00     0.163 HD
BRANCH   6   8
ATOM      8  C   UNL A   1      39.480  24.099  26.883  1.00  0.00     0.039 A 
ATOM      9  C   UNL A   1      39.213  24.393  28.222  1.00  0.00     0.014 A 
ATOM     10  C   UNL A   1      40.138  25.034  26.077  1.00  0.00     0.014 A 
ATOM     11  C   UNL A   1      39.484  25.663  28.716  1.00  0.00     0.010 A 
ATOM     12  C   UNL A   1      40.487  26.282  26.602  1.00  0.00     0.010 A 
ATOM     13  C   UNL A   1      40.142  26.616  27.919  1.00  0.00    -0.014 A 
BRANCH  13  14
ATOM     14  C   UNL A   1      40.527  27.913  28.531  1.00  0.00     0.031 A 
ATOM     15  C   UNL A   1      39.535  29.028  28.710  1.00  0.00     0.074 A 
ATOM     16  C   UNL A   1      41.790  28.053  28.981  1.00  0.00     0.049 A 
ATOM     17  N   UNL A   1      39.704  30.189  29.294  1.00  0.00    -0.248 NA
ATOM     18  C   UNL A   1      38.183  28.822  28.167  1.00  0.00     0.031 C 
ATOM     19  C   UNL A   1      42.847  27.045  28.850  1.00  0.00     0.029 A 
ATOM     20  N   UNL A   1      42.392  29.077  29.666  1.00  0.00    -0.354 N 
ATOM     21  C   UNL A   1      38.490  30.855  29.180  1.00  0.00     0.074 A 
ATOM     22  C   UNL A   1      37.599  29.980  28.448  1.00  0.00     0.031 C 
ATOM     23  C   UNL A   1      43.944  27.473  29.490  1.00  0.00     0.029 A 
ATOM     24  C   UNL A   1      43.691  28.807  30.020  1.00  0.00     0.049 A 
ATOM     25  H   UNL A   1      41.937  29.922  29.883  1.00  0.00     0.167 HD
ATOM     26  C   UNL A   1      38.150  32.080  29.649  1.00  0.00     0.031 A 
ATOM     27  C   UNL A   1      44.590  29.552  30.688  1.00  0.00     0.031 A 
ATOM     28  C   UNL A   1      39.040  32.951  30.373  1.00  0.00     0.049 A 
ATOM     29  C   UNL A   1      44.187  30.913  31.174  1.00  0.00     0.074 A 
ATOM     30  C   UNL A   1      38.780  34.207  30.898  1.00  0.00     0.029 A 
ATOM     31  N   UNL A   1      40.362  32.661  30.673  1.00  0.00    -0.354 N 
ATOM     32  N   UNL A   1      43.026  31.512  31.080  1.00  0.00    -0.248 NA
ATOM     33  C   UNL A   1      45.222  31.697  31.859  1.00  0.00     0.031 C 
ATOM     34  C   UNL A   1      39.958  34.693  31.477  1.00  0.00     0.029 A 
ATOM     35  C   UNL A   1      40.935  33.719  31.359  1.00  0.00     0.049 A 
ATOM     36  H   UNL A   1      40.824  31.825  30.435  1.00  0.00     0.167 HD
ATOM     37  C   UNL A   1      43.188  32.743  31.699  1.00  0.00     0.074 A 
ATOM     38  C   UNL A   1      44.547  32.787  32.197  1.00  0.00     0.031 C 
ATOM     39  C   UNL A   1      42.293  33.752  31.834  1.00  0.00     0.031 A 
BRANCH  26  40
ATOM     40  C   UNL A   1      36.752  32.568  29.383  1.00  0.00    -0.014 A 
ATOM     41  C   UNL A   1      36.433  33.240  28.192  1.00  0.00     0.009 A 
ATOM     42  C   UNL A   1      35.727  32.287  30.300  1.00  0.00     0.009 A 
ATOM     43  C   UNL A   1      35.118  33.636  27.934  1.00  0.00     0.001 A 
ATOM     44  C   UNL A   1      34.410  32.665  30.029  1.00  0.00     0.001 A 
ATOM     45  C   UNL A   1      34.108  33.343  28.849  1.00  0.00     0.000 A 
ENDBRANCH  26  40
BRANCH  27  46
ATOM     46  C   UNL A   1      45.964  29.035  30.913  1.00  0.00    -0.014 A 
ATOM     47  C   UNL A   1      46.971  29.232  29.957  1.00  0.00     0.009 A 
ATOM     48  C   UNL A   1      46.271  28.335  32.089  1.00  0.00     0.009 A 
ATOM     49  C   UNL A   1      48.252  28.714  30.165  1.00  0.00     0.001 A 
ATOM     50  C   UNL A   1      47.560  27.847  32.310  1.00  0.00     0.001 A 
ATOM     51  C   UNL A   1      48.546  28.027  31.342  1.00  0.00     0.000 A 
ENDBRANCH  27  46
BRANCH  39  52
ATOM     52  C   UNL A   1      42.767  34.977  32.562  1.00  0.00    -0.014 A 
ATOM     53  C   UNL A   1      42.552  35.129  33.941  1.00  0.00     0.009 A 
ATOM     54  C   UNL A   1      43.436  35.992  31.860  1.00  0.00     0.009 A 
ATOM     55  C   UNL A   1      42.958  36.294  34.594  1.00  0.00     0.001 A 
ATOM     56  C   UNL A   1      43.866  37.143  32.521  1.00  0.00     0.001 A 
ATOM     57  C   UNL A   1      43.616  37.298  33.884  1.00  0.00     0.000 A 
ENDBRANCH  39  52
ENDBRANCH  13  14
ENDBRANCH   6   8
ENDBRANCH   3   4
ENDBRANCH   2   3
ENDBRANCH   1   2
BRANCH   1  58
ATOM     58  C   UNL A   1      33.653  23.541  23.682  1.00  0.00     0.116 C 
BRANCH  58  59
ATOM     59  N   UNL A   1      34.008  24.812  23.091  1.00  0.00    -0.351 N 
ATOM     60  C   UNL A   1      33.410  26.027  23.215  1.00  0.00     0.278 C 
ATOM     61  H   UNL A   1      34.804  24.794  22.511  1.00  0.00     0.163 HD
ATOM     62  O   UNL A   1      33.663  26.846  22.325  1.00  0.00    -0.268 OA
BRANCH  60  63
ATOM     63  C   UNL A   1      32.534  26.356  24.445  1.00  0.00     0.274 C 
ATOM     64  C   UNL A   1      33.474  26.433  25.677  1.00  0.00     0.085 C 
ATOM     65  N   UNL A   1      31.935  27.701  24.324  1.00  0.00    -0.322 N 
ATOM     66  C   UNL A   1      33.250  27.821  26.238  1.00  0.00     0.054 C 
ATOM     67  C   UNL A   1      32.764  28.646  25.058  1.00  0.00     0.188 C 
ATOM     68  H   UNL A   1      31.952  27.981  23.344  1.00  0.00     0.349 HD
ATOM     69  C   UNL A   1      34.363  28.526  26.990  1.00  0.00     0.010 C 
ATOM     70  C   UNL A   1      32.203  29.991  25.518  1.00  0.00     0.065 C 
ATOM     71  C   UNL A   1      33.790  29.841  27.537  1.00  0.00     0.001 C 
ATOM     72  C   UNL A   1      33.195  30.725  26.432  1.00  0.00     0.006 C 
BRANCH  65  73
ATOM     73  C   UNL A   1      30.507  27.891  24.137  1.00  0.00     0.265 C 
BRANCH  73  74
ATOM     74  C   UNL A   1      29.871  28.176  22.757  1.00  0.00     0.093 C 
BRANCH  74  75
ATOM     75  C   UNL A   1      29.652  29.643  22.373  1.00  0.00     0.123 C 
ATOM     76  C   UNL A   1      29.133  30.531  23.487  1.00  0.00     0.034 C 
ATOM     77  O   UNL A   1      28.645  29.745  21.343  1.00  0.00    -0.378 OA
ATOM     78  C   UNL A   1      28.003  31.344  22.909  1.00  0.00     0.031 C 
ATOM     79  C   UNL A   1      28.107  31.073  21.434  1.00  0.00     0.160 C 
ENDBRANCH  74  75
ENDBRANCH  73  74
ENDBRANCH  65  73
ENDBRANCH  60  63
ENDBRANCH  58  59
ENDBRANCH   1  58
TORSDOF 14
ENDMDL
MODEL 2
REMARK VINA RESULT:     -10.8      2.801      7.341
REMARK SMILES O=C(NCCCCNC(=O)[C@H]1C[C@H]2CCCC[C@@H]2[N@@H+]1CC[C@@H]1CCCO1)c1ccc(-c2c3nc(c(-c4ccccc4)c4ccc([nH]4)c(-c4ccccc4)c4nc(c(-c5ccccc5)c5ccc2[nH]5)C=C4)C=C3)cc1
REMARK SMILES IDX 6 1 5 2 4 3 3 4 1 5 2 6 27 8 28 9 74 10 29 11 73 12 30 13
REMARK SMILES IDX 31 14 32 15 67 16 33 17 72 18 66 19 68 20 34 21 71 22 65 23
REMARK SMILES IDX 64 24 35 26 57 27 42 28 56 29 43 30 46 31 55 32 69 33 44 34
REMARK SMILES IDX 45 35 54 37 70 38 47 39 36 40 37 41 41 42 38 43 40 44 39 45
REMARK SMILES IDX 58 46 59 47 63 48 60 49 62 50 61 51 48 52 49 53 53 54 50 55
REMARK SMILES IDX 52 56 51 57 7 58 8 59 9 60 10 62 11 63 12 64 19 65 13 66
REMARK SMILES IDX 18 67 14 69 17 70 15 71 16 72 20 73 21 74 22 75 23 76 26 77
REMARK SMILES IDX 24 78 25 79
REMARK H PARENT 3 7 68 25 46 36 8 61 19 68
REMARK Flexibility Score: inf
ROOT
ATOM      1  C   UNL A   1      31.613  30.699  26.380  1.00  0.00     0.023 C 
ENDROOT
BRANCH   1   2
ATOM      2  C   UNL A   1      31.403  32.186  26.695  1.00  0.00     0.023 C 
BRANCH   2   3
ATOM      3  C   UNL A   1      32.665  32.952  27.069  1.00  0.00     0.116 C 
BRANCH   3   4
ATOM      4  N   UNL A   1      32.379  34.263  27.626  1.00  0.00    -0.352 N 
ATOM      5  O   UNL A   1      32.528  35.939  29.136  1.00  0.00    -0.269 OA
ATOM      6  C   UNL A   1      32.988  34.893  28.685  1.00  0.00     0.251 C 
ATOM      7  H   UNL A   1      31.654  34.766  27.188  1.00  0.00     0.163 HD
BRANCH   6   8
ATOM      8  C   UNL A   1      34.194  34.292  29.295  1.00  0.00     0.039 A 
ATOM      9  C   UNL A   1      35.460  34.565  28.775  1.00  0.00     0.014 A 
ATOM     10  C   UNL A   1      34.056  33.442  30.397  1.00  0.00     0.014 A 
ATOM     11  C   UNL A   1      36.569  33.890  29.270  1.00  0.00     0.010 A 
ATOM     12  C   UNL A   1      35.185  32.829  30.949  1.00  0.00     0.010 A 
ATOM     13  C   UNL A   1      36.449  33.031  30.376  1.00  0.00    -0.014 A 
BRANCH  13  14
ATOM     14  C   UNL A   1      37.681  32.433  30.952  1.00  0.00     0.031 A 
ATOM     15  C   UNL A   1      38.273  32.932  32.240  1.00  0.00     0.074 A 
ATOM     16  C   UNL A   1      38.234  31.382  30.314  1.00  0.00     0.049 A 
ATOM     17  N   UNL A   1      39.301  32.463  32.904  1.00  0.00    -0.248 NA
ATOM     18  C   UNL A   1      37.640  34.103  32.865  1.00  0.00     0.031 C 
ATOM     19  C   UNL A   1      37.756  30.818  29.048  1.00  0.00     0.029 A 
ATOM     20  N   UNL A   1      39.291  30.579  30.656  1.00  0.00    -0.354 N 
ATOM     21  C   UNL A   1      39.445  33.284  34.016  1.00  0.00     0.074 A 
ATOM     22  C   UNL A   1      38.416  34.297  33.924  1.00  0.00     0.031 C 
ATOM     23  C   UNL A   1      38.475  29.726  28.754  1.00  0.00     0.029 A 
ATOM     24  C   UNL A   1      39.502  29.549  29.772  1.00  0.00     0.049 A 
ATOM     25  H   UNL A   1      39.845  30.727  31.456  1.00  0.00     0.167 HD
ATOM     26  C   UNL A   1      40.349  33.194  35.021  1.00  0.00     0.031 A 
ATOM     27  C   UNL A   1      40.427  28.572  29.771  1.00  0.00     0.031 A 
ATOM     28  C   UNL A   1      41.376  32.187  35.108  1.00  0.00     0.049 A 
ATOM     29  C   UNL A   1      41.426  28.516  30.888  1.00  0.00     0.074 A 
ATOM     30  C   UNL A   1      42.330  32.011  36.097  1.00  0.00     0.029 A 
ATOM     31  N   UNL A   1      41.585  31.188  34.170  1.00  0.00    -0.354 N 
ATOM     32  N   UNL A   1      41.528  29.285  31.944  1.00  0.00    -0.248 NA
ATOM     33  C   UNL A   1      42.437  27.454  30.812  1.00  0.00     0.031 C 
ATOM     34  C   UNL A   1      43.143  30.931  35.734  1.00  0.00     0.029 A 
ATOM     35  C   UNL A   1      42.662  30.403  34.548  1.00  0.00     0.049 A 
ATOM     36  H   UNL A   1      41.046  31.055  33.357  1.00  0.00     0.167 HD
ATOM     37  C   UNL A   1      42.610  28.798  32.661  1.00  0.00     0.074 A 
ATOM     38  C   UNL A   1      43.107  27.644  31.939  1.00  0.00     0.031 C 
ATOM     39  C   UNL A   1      43.152  29.269  33.810  1.00  0.00     0.031 A 
BRANCH  26  40
ATOM     40  C   UNL A   1      40.284  34.226  36.115  1.00  0.00    -0.014 A 
ATOM     41  C   UNL A   1      40.996  35.432  36.017  1.00  0.00     0.009 A 
ATOM     42  C   UNL A   1      39.441  34.022  37.219  1.00  0.00     0.009 A 
ATOM     43  C   UNL A   1      40.880  36.404  37.014  1.00  0.00     0.001 A 
ATOM     44  C   UNL A   1      39.310  35.005  38.202  1.00  0.00     0.001 A 
ATOM     45  C   UNL A   1      40.032  36.193  38.101  1.00  0.00     0.000 A 
ENDBRANCH  26  40
BRANCH  27  46
ATOM     46  C   UNL A   1      40.463  27.585  28.661  1.00  0.00    -0.014 A 
ATOM     47  C   UNL A   1      39.764  26.374  28.754  1.00  0.00     0.009 A 
ATOM     48  C   UNL A   1      41.206  27.855  27.502  1.00  0.00     0.009 A 
ATOM     49  C   UNL A   1      39.831  25.439  27.718  1.00  0.00     0.001 A 
ATOM     50  C   UNL A   1      41.245  26.934  26.454  1.00  0.00     0.001 A 
ATOM     51  C   UNL A   1      40.567  25.722  26.568  1.00  0.00     0.000 A 
ENDBRANCH  27  46
BRANCH  39  52
ATOM     52  C   UNL A   1      44.335  28.519  34.352  1.00  0.00    -0.014 A 
ATOM     53  C   UNL A   1      45.645  28.875  33.994  1.00  0.00     0.009 A 
ATOM     54  C   UNL A   1      44.136  27.443  35.231  1.00  0.00     0.009 A 
ATOM     55  C   UNL A   1      46.731  28.139  34.471  1.00  0.00     0.001 A 
ATOM     56  C   UNL A   1      45.226  26.728  35.729  1.00  0.00     0.001 A 
ATOM     57  C   UNL A   1      46.521  27.069  35.339  1.00  0.00     0.000 A 
ENDBRANCH  39  52
ENDBRANCH  13  14
ENDBRANCH   6   8
ENDBRANCH   3   4
ENDBRANCH   2   3
ENDBRANCH   1   2
BRANCH   1  58
ATOM     58  C   UNL A   1      32.680  30.007  27.234  1.00  0.00     0.116 C 
BRANCH  58  59
ATOM     59  N   UNL A   1      32.272  28.654  27.538  1.00  0.00    -0.351 N 
ATOM     60  C   UNL A   1      31.788  27.686  26.715  1.00  0.00     0.278 C 
ATOM     61  H   UNL A   1      32.359  28.395  28.484  1.00  0.00     0.163 HD
ATOM     62  O   UNL A   1      31.162  26.773  27.265  1.00  0.00    -0.268 OA
BRANCH  60  63
ATOM     63  C   UNL A   1      32.086  27.713  25.198  1.00  0.00     0.274 C 
ATOM     64  C   UNL A   1      33.475  27.054  24.986  1.00  0.00     0.085 C 
ATOM     65  N   UNL A   1      31.131  26.866  24.455  1.00  0.00    -0.322 N 
ATOM     66  C   UNL A   1      33.209  25.913  24.027  1.00  0.00     0.054 C 
ATOM     67  C   UNL A   1      31.743  25.565  24.230  1.00  0.00     0.188 C 
ATOM     68  H   UNL A   1      30.306  26.717  25.034  1.00  0.00     0.349 HD
ATOM     69  C   UNL A   1      34.084  24.675  24.055  1.00  0.00     0.010 C 
ATOM     70  C   UNL A   1      31.237  24.640  23.123  1.00  0.00     0.065 C 
ATOM     71  C   UNL A   1      33.647  23.772  22.893  1.00  0.00     0.001 C 
ATOM     72  C   UNL A   1      32.154  23.421  22.954  1.00  0.00     0.006 C 
BRANCH  65  73
ATOM     73  C   UNL A   1      30.141  27.434  23.556  1.00  0.00     0.265 C 
BRANCH  73  74
ATOM     74  C   UNL A   1      30.518  28.283  22.320  1.00  0.00     0.093 C 
BRANCH  74  75
ATOM     75  C   UNL A   1      29.928  29.694  22.230  1.00  0.00     0.123 C 
ATOM     76  C   UNL A   1      29.279  30.205  23.501  1.00  0.00     0.034 C 
ATOM     77  O   UNL A   1      28.866  29.731  21.252  1.00  0.00    -0.378 OA
ATOM     78  C   UNL A   1      27.953  30.803  23.106  1.00  0.00     0.031 C 
ATOM     79  C   UNL A   1      28.030  30.843  21.605  1.00  0.00     0.160 C 
ENDBRANCH  74  75
ENDBRANCH  73  74
ENDBRANCH  65  73
ENDBRANCH  60  63
ENDBRANCH  58  59
ENDBRANCH   1  58
TORSDOF 14
ENDMDL
MODEL 3
REMARK VINA RESULT:     -10.7      0.360      5.925
REMARK SMILES O=C(NCCCCNC(=O)[C@H]1C[C@H]2CCCC[C@@H]2[N@@H+]1CC[C@@H]1CCCO1)c1ccc(-c2c3nc(c(-c4ccccc4)c4ccc([nH]4)c(-c4ccccc4)c4nc(c(-c5ccccc5)c5ccc2[nH]5)C=C4)C=C3)cc1
REMARK SMILES IDX 6 1 5 2 4 3 3 4 1 5 2 6 27 8 28 9 74 10 29 11 73 12 30 13
REMARK SMILES IDX 31 14 32 15 67 16 33 17 72 18 66 19 68 20 34 21 71 22 65 23
REMARK SMILES IDX 64 24 35 26 57 27 42 28 56 29 43 30 46 31 55 32 69 33 44 34
REMARK SMILES IDX 45 35 54 37 70 38 47 39 36 40 37 41 41 42 38 43 40 44 39 45
REMARK SMILES IDX 58 46 59 47 63 48 60 49 62 50 61 51 48 52 49 53 53 54 50 55
REMARK SMILES IDX 52 56 51 57 7 58 8 59 9 60 10 62 11 63 12 64 19 65 13 66
REMARK SMILES IDX 18 67 14 69 17 70 15 71 16 72 20 73 21 74 22 75 23 76 26 77
REMARK SMILES IDX 24 78 25 79
REMARK H PARENT 3 7 68 25 46 36 8 61 19 68
REMARK Flexibility Score: inf
ROOT
ATOM      1  C   UNL A   1      34.549  23.236  24.258  1.00  0.00     0.023 C 
ENDROOT
BRANCH   1   2
ATOM      2  C   UNL A   1      36.021  23.553  23.961  1.00  0.00     0.023 C 
BRANCH   2   3
ATOM      3  C   UNL A   1      36.897  23.767  25.188  1.00  0.00     0.116 C 
BRANCH   3   4
ATOM      4  N   UNL A   1      37.846  22.685  25.392  1.00  0.00    -0.352 N 
ATOM      5  O   UNL A   1      39.829  21.763  25.962  1.00  0.00    -0.269 OA
ATOM      6  C   UNL A   1      39.074  22.731  26.006  1.00  0.00     0.251 C 
ATOM      7  H   UNL A   1      37.574  21.805  25.043  1.00  0.00     0.163 HD
BRANCH   6   8
ATOM      8  C   UNL A   1      39.493  23.964  26.707  1.00  0.00     0.039 A 
ATOM      9  C   UNL A   1      39.173  24.155  28.052  1.00  0.00     0.014 A 
ATOM     10  C   UNL A   1      40.210  24.942  26.010  1.00  0.00     0.014 A 
ATOM     11  C   UNL A   1      39.453  25.373  28.661  1.00  0.00     0.010 A 
ATOM     12  C   UNL A   1      40.567  26.132  26.651  1.00  0.00     0.010 A 
ATOM     13  C   UNL A   1      40.171  26.367  27.975  1.00  0.00    -0.014 A 
BRANCH  13  14
ATOM     14  C   UNL A   1      40.561  27.599  28.708  1.00  0.00     0.031 A 
ATOM     15  C   UNL A   1      41.955  27.799  29.233  1.00  0.00     0.074 A 
ATOM     16  C   UNL A   1      39.640  28.574  28.846  1.00  0.00     0.049 A 
ATOM     17  N   UNL A   1      42.464  28.850  29.827  1.00  0.00    -0.248 NA
ATOM     18  C   UNL A   1      42.901  26.682  29.079  1.00  0.00     0.031 C 
ATOM     19  C   UNL A   1      38.249  28.488  28.391  1.00  0.00     0.029 A 
ATOM     20  N   UNL A   1      39.739  29.834  29.374  1.00  0.00    -0.354 N 
ATOM     21  C   UNL A   1      43.780  28.521  30.126  1.00  0.00     0.074 A 
ATOM     22  C   UNL A   1      43.986  27.163  29.672  1.00  0.00     0.031 C 
ATOM     23  C   UNL A   1      37.645  29.666  28.599  1.00  0.00     0.029 A 
ATOM     24  C   UNL A   1      38.582  30.566  29.260  1.00  0.00     0.049 A 
ATOM     25  H   UNL A   1      40.558  30.182  29.794  1.00  0.00     0.167 HD
ATOM     26  C   UNL A   1      44.729  29.287  30.717  1.00  0.00     0.031 A 
ATOM     27  C   UNL A   1      38.296  31.820  29.653  1.00  0.00     0.031 A 
ATOM     28  C   UNL A   1      44.521  30.637  31.173  1.00  0.00     0.049 A 
ATOM     29  C   UNL A   1      39.364  32.632  30.325  1.00  0.00     0.074 A 
ATOM     30  C   UNL A   1      45.428  31.495  31.774  1.00  0.00     0.029 A 
ATOM     31  N   UNL A   1      43.322  31.328  31.079  1.00  0.00    -0.354 N 
ATOM     32  N   UNL A   1      40.610  32.312  30.573  1.00  0.00    -0.248 NA
ATOM     33  C   UNL A   1      38.983  33.978  30.769  1.00  0.00     0.031 C 
ATOM     34  C   UNL A   1      44.765  32.688  32.083  1.00  0.00     0.029 A 
ATOM     35  C   UNL A   1      43.461  32.593  31.628  1.00  0.00     0.049 A 
ATOM     36  H   UNL A   1      42.495  30.972  30.681  1.00  0.00     0.167 HD
ATOM     37  C   UNL A   1      41.165  33.419  31.198  1.00  0.00     0.074 A 
ATOM     38  C   UNL A   1      40.130  34.431  31.256  1.00  0.00     0.031 C 
ATOM     39  C   UNL A   1      42.417  33.580  31.690  1.00  0.00     0.031 A 
BRANCH  26  40
ATOM     40  C   UNL A   1      46.089  28.678  30.926  1.00  0.00    -0.014 A 
ATOM     41  C   UNL A   1      47.103  28.820  29.965  1.00  0.00     0.009 A 
ATOM     42  C   UNL A   1      46.384  28.020  32.131  1.00  0.00     0.009 A 
ATOM     43  C   UNL A   1      48.378  28.298  30.199  1.00  0.00     0.001 A 
ATOM     44  C   UNL A   1      47.665  27.520  32.371  1.00  0.00     0.001 A 
ATOM     45  C   UNL A   1      48.659  27.655  31.404  1.00  0.00     0.000 A 
ENDBRANCH  26  40
BRANCH  27  46
ATOM     46  C   UNL A   1      36.934  32.374  29.441  1.00  0.00    -0.014 A 
ATOM     47  C   UNL A   1      36.594  33.003  28.236  1.00  0.00     0.009 A 
ATOM     48  C   UNL A   1      35.968  32.276  30.454  1.00  0.00     0.009 A 
ATOM     49  C   UNL A   1      35.320  33.548  28.059  1.00  0.00     0.001 A 
ATOM     50  C   UNL A   1      34.685  32.792  30.263  1.00  0.00     0.001 A 
ATOM     51  C   UNL A   1      34.366  33.437  29.071  1.00  0.00     0.000 A 
ENDBRANCH  27  46
BRANCH  39  52
ATOM     52  C   UNL A   1      42.725  34.909  32.319  1.00  0.00    -0.014 A 
ATOM     53  C   UNL A   1      42.352  35.188  33.643  1.00  0.00     0.009 A 
ATOM     54  C   UNL A   1      43.398  35.893  31.578  1.00  0.00     0.009 A 
ATOM     55  C   UNL A   1      42.606  36.444  34.198  1.00  0.00     0.001 A 
ATOM     56  C   UNL A   1      43.675  37.137  32.144  1.00  0.00     0.001 A 
ATOM     57  C   UNL A   1      43.269  37.415  33.449  1.00  0.00     0.000 A 
ENDBRANCH  39  52
ENDBRANCH  13  14
ENDBRANCH   6   8
ENDBRANCH   3   4
ENDBRANCH   2   3
ENDBRANCH   1   2
BRANCH   1  58
ATOM     58  C   UNL A   1      33.560  23.719  23.191  1.00  0.00     0.116 C 
BRANCH  58  59
ATOM     59  N   UNL A   1      33.929  25.039  22.733  1.00  0.00    -0.351 N 
ATOM     60  C   UNL A   1      33.393  26.250  23.045  1.00  0.00     0.278 C 
ATOM     61  H   UNL A   1      34.683  25.066  22.101  1.00  0.00     0.163 HD
ATOM     62  O   UNL A   1      33.622  27.163  22.245  1.00  0.00    -0.268 OA
BRANCH  60  63
ATOM     63  C   UNL A   1      32.616  26.455  24.366  1.00  0.00     0.274 C 
ATOM     64  C   UNL A   1      33.662  26.572  25.507  1.00  0.00     0.085 C 
ATOM     65  N   UNL A   1      31.896  27.744  24.361  1.00  0.00    -0.322 N 
ATOM     66  C   UNL A   1      33.376  27.913  26.147  1.00  0.00     0.054 C 
ATOM     67  C   UNL A   1      32.708  28.733  25.055  1.00  0.00     0.188 C 
ATOM     68  H   UNL A   1      31.793  28.059  23.397  1.00  0.00     0.349 HD
ATOM     69  C   UNL A   1      34.492  28.687  26.821  1.00  0.00     0.010 C 
ATOM     70  C   UNL A   1      32.081  30.005  25.625  1.00  0.00     0.065 C 
ATOM     71  C   UNL A   1      33.864  29.926  27.477  1.00  0.00     0.001 C 
ATOM     72  C   UNL A   1      33.091  30.792  26.473  1.00  0.00     0.006 C 
BRANCH  65  73
ATOM     73  C   UNL A   1      30.445  27.812  24.318  1.00  0.00     0.265 C 
BRANCH  73  74
ATOM     74  C   UNL A   1      29.659  28.172  23.036  1.00  0.00     0.093 C 
BRANCH  74  75
ATOM     75  C   UNL A   1      29.697  29.633  22.574  1.00  0.00     0.123 C 
ATOM     76  C   UNL A   1      29.005  30.619  23.495  1.00  0.00     0.034 C 
ATOM     77  O   UNL A   1      29.003  29.778  21.316  1.00  0.00    -0.378 OA
ATOM     78  C   UNL A   1      28.150  31.505  22.625  1.00  0.00     0.031 C 
ATOM     79  C   UNL A   1      28.599  31.153  21.234  1.00  0.00     0.160 C 
ENDBRANCH  74  75
ENDBRANCH  73  74
ENDBRANCH  65  73
ENDBRANCH  60  63
ENDBRANCH  58  59
ENDBRANCH   1  58
TORSDOF 14
ENDMDL
