MODEL 1
REMARK VINA RESULT:     -10.8      0.000      0.000
REMARK SMILES [NH3+][C@H](C(=O)NCCCCNC(=O)c1ccc(-c2c3nc(c(-c4ccccc4)c4ccc([nH]4)c(-c4ccccc4)c4nc(c(-c5ccccc5)c5ccc2[nH]5)C=C4)C=C3)cc1)c1cc2c(cc1Br)OCO2
REMARK SMILES IDX 8 1 7 2 6 3 5 4 3 5 4 6 2 8 1 9 61 13 62 14 66 15 63 16
REMARK SMILES IDX 65 17 67 18 64 19 70 20 68 21 69 22 9 23 10 24 11 25 12 27
REMARK SMILES IDX 13 28 14 29 60 30 15 31 59 32 16 33 17 34 18 35 53 36 19 37
REMARK SMILES IDX 58 38 52 39 54 40 20 41 57 42 51 43 50 44 21 46 43 47 28 48
REMARK SMILES IDX 42 49 29 50 32 51 41 52 55 53 30 54 31 55 40 57 56 58 33 59
REMARK SMILES IDX 22 60 23 61 27 62 24 63 26 64 25 65 44 66 45 67 49 68 46 69
REMARK SMILES IDX 48 70 47 71 34 72 35 73 39 74 36 75 38 76 37 77
REMARK H PARENT 5 7 1 10 1 11 1 12 10 26 54 45 32 56
REMARK Flexibility Score: inf
ROOT
ATOM      1  C   UNL A   1      31.944  28.247  27.626  1.00  0.00     0.023 C 
ENDROOT
BRANCH   1   2
ATOM      2  C   UNL A   1      31.360  27.274  26.604  1.00  0.00     0.023 C 
BRANCH   2   3
ATOM      3  C   UNL A   1      32.373  26.676  25.627  1.00  0.00     0.116 C 
BRANCH   3   4
ATOM      4  N   UNL A   1      31.726  25.934  24.560  1.00  0.00    -0.351 N 
ATOM      5  C   UNL A   1      31.372  24.613  24.484  1.00  0.00     0.283 C 
ATOM      6  O   UNL A   1      30.832  24.228  23.442  1.00  0.00    -0.268 OA
ATOM      7  H   UNL A   1      31.504  26.467  23.763  1.00  0.00     0.163 HD
BRANCH   5   8
ATOM      8  C   UNL A   1      31.592  23.656  25.692  1.00  0.00     0.303 C 
BRANCH   8   9
ATOM      9  N   UNL A   1      30.274  23.295  26.242  1.00  0.00    -0.343 N 
ATOM     10  H   UNL A   1      30.025  23.947  26.985  1.00  0.00     0.345 HD
ATOM     11  H   UNL A   1      30.312  22.348  26.620  1.00  0.00     0.345 HD
ATOM     12  H   UNL A   1      29.574  23.338  25.501  1.00  0.00     0.345 HD
ENDBRANCH   8   9
BRANCH   8  13
ATOM     13  C   UNL A   1      32.519  22.501  25.311  1.00  0.00     0.037 A 
ATOM     14  C   UNL A   1      31.875  21.246  25.168  1.00  0.00     0.062 A 
ATOM     15  C   UNL A   1      33.928  22.531  25.147  1.00  0.00     0.031 A 
ATOM     16  C   UNL A   1      32.618  20.111  24.938  1.00  0.00     0.166 A 
ATOM     17  C   UNL A   1      34.651  21.360  24.843  1.00  0.00     0.066 A 
ATOM     18  Br  UNL A   1      35.010  24.083  25.358  1.00  0.00    -0.050 Br
ATOM     19  C   UNL A   1      33.972  20.166  24.771  1.00  0.00     0.166 A 
ATOM     20  O   UNL A   1      32.131  18.844  24.873  1.00  0.00    -0.454 OA
ATOM     21  O   UNL A   1      34.518  18.939  24.563  1.00  0.00    -0.454 OA
ATOM     22  C   UNL A   1      33.363  18.098  24.767  1.00  0.00     0.468 C 
ENDBRANCH   8  13
ENDBRANCH   5   8
ENDBRANCH   3   4
ENDBRANCH   2   3
ENDBRANCH   1   2
BRANCH   1  23
ATOM     23  C   UNL A   1      33.301  28.834  27.261  1.00  0.00     0.116 C 
BRANCH  23  24
ATOM     24  N   UNL A   1      33.407  30.255  27.559  1.00  0.00    -0.352 N 
ATOM     25  C   UNL A   1      34.457  30.960  28.102  1.00  0.00     0.251 C 
ATOM     26  H   UNL A   1      32.611  30.790  27.339  1.00  0.00     0.163 HD
ATOM     27  O   UNL A   1      34.316  32.137  28.404  1.00  0.00    -0.269 OA
BRANCH  25  28
ATOM     28  C   UNL A   1      35.746  30.280  28.352  1.00  0.00     0.039 A 
ATOM     29  C   UNL A   1      36.702  30.256  27.334  1.00  0.00     0.014 A 
ATOM     30  C   UNL A   1      36.021  29.693  29.590  1.00  0.00     0.014 A 
ATOM     31  C   UNL A   1      37.966  29.718  27.586  1.00  0.00     0.010 A 
ATOM     32  C   UNL A   1      37.304  29.231  29.865  1.00  0.00     0.010 A 
ATOM     33  C   UNL A   1      38.292  29.246  28.868  1.00  0.00    -0.014 A 
BRANCH  33  34
ATOM     34  C   UNL A   1      39.667  28.788  29.194  1.00  0.00     0.031 A 
ATOM     35  C   UNL A   1      40.626  29.708  29.900  1.00  0.00     0.074 A 
ATOM     36  C   UNL A   1      40.075  27.570  28.789  1.00  0.00     0.049 A 
ATOM     37  N   UNL A   1      41.883  29.509  30.206  1.00  0.00    -0.248 NA
ATOM     38  C   UNL A   1      40.114  31.031  30.290  1.00  0.00     0.031 C 
ATOM     39  C   UNL A   1      39.259  26.600  28.055  1.00  0.00     0.029 A 
ATOM     40  N   UNL A   1      41.288  26.941  28.929  1.00  0.00    -0.354 N 
ATOM     41  C   UNL A   1      42.315  30.685  30.806  1.00  0.00     0.074 A 
ATOM     42  C   UNL A   1      41.202  31.608  30.779  1.00  0.00     0.031 C 
ATOM     43  C   UNL A   1      39.984  25.492  27.833  1.00  0.00     0.029 A 
ATOM     44  C   UNL A   1      41.326  25.687  28.370  1.00  0.00     0.049 A 
ATOM     45  H   UNL A   1      42.057  27.351  29.387  1.00  0.00     0.167 HD
ATOM     46  C   UNL A   1      43.525  30.965  31.345  1.00  0.00     0.031 A 
ATOM     47  C   UNL A   1      42.332  24.795  28.290  1.00  0.00     0.031 A 
ATOM     48  C   UNL A   1      44.627  30.043  31.388  1.00  0.00     0.049 A 
ATOM     49  C   UNL A   1      43.666  25.136  28.892  1.00  0.00     0.074 A 
ATOM     50  C   UNL A   1      45.871  30.215  31.971  1.00  0.00     0.029 A 
ATOM     51  N   UNL A   1      44.621  28.779  30.823  1.00  0.00    -0.354 N 
ATOM     52  N   UNL A   1      44.034  26.225  29.520  1.00  0.00    -0.248 NA
ATOM     53  C   UNL A   1      44.721  24.118  28.780  1.00  0.00     0.031 C 
ATOM     54  C   UNL A   1      46.634  29.070  31.717  1.00  0.00     0.029 A 
ATOM     55  C   UNL A   1      45.847  28.167  31.022  1.00  0.00     0.049 A 
ATOM     56  H   UNL A   1      43.858  28.374  30.350  1.00  0.00     0.167 HD
ATOM     57  C   UNL A   1      45.352  26.014  29.903  1.00  0.00     0.074 A 
ATOM     58  C   UNL A   1      45.713  24.685  29.451  1.00  0.00     0.031 C 
ATOM     59  C   UNL A   1      46.190  26.845  30.569  1.00  0.00     0.031 A 
BRANCH  46  60
ATOM     60  C   UNL A   1      43.722  32.333  31.938  1.00  0.00    -0.014 A 
ATOM     61  C   UNL A   1      43.451  32.583  33.292  1.00  0.00     0.009 A 
ATOM     62  C   UNL A   1      44.234  33.371  31.144  1.00  0.00     0.009 A 
ATOM     63  C   UNL A   1      43.662  33.853  33.833  1.00  0.00     0.001 A 
ATOM     64  C   UNL A   1      44.470  34.632  31.694  1.00  0.00     0.001 A 
ATOM     65  C   UNL A   1      44.177  34.874  33.035  1.00  0.00     0.000 A 
ENDBRANCH  46  60
BRANCH  47  66
ATOM     66  C   UNL A   1      42.120  23.485  27.620  1.00  0.00    -0.014 A 
ATOM     67  C   UNL A   1      41.579  22.402  28.330  1.00  0.00     0.009 A 
ATOM     68  C   UNL A   1      42.478  23.303  26.275  1.00  0.00     0.009 A 
ATOM     69  C   UNL A   1      41.432  21.155  27.716  1.00  0.00     0.001 A 
ATOM     70  C   UNL A   1      42.302  22.065  25.656  1.00  0.00     0.001 A 
ATOM     71  C   UNL A   1      41.790  20.989  26.379  1.00  0.00     0.000 A 
ENDBRANCH  47  66
BRANCH  59  72
ATOM     72  C   UNL A   1      47.566  26.329  30.879  1.00  0.00    -0.014 A 
ATOM     73  C   UNL A   1      47.858  25.733  32.116  1.00  0.00     0.009 A 
ATOM     74  C   UNL A   1      48.574  26.408  29.906  1.00  0.00     0.009 A 
ATOM     75  C   UNL A   1      49.143  25.256  32.381  1.00  0.00     0.001 A 
ATOM     76  C   UNL A   1      49.848  25.904  30.163  1.00  0.00     0.001 A 
ATOM     77  C   UNL A   1      50.135  25.337  31.404  1.00  0.00     0.000 A 
ENDBRANCH  59  72
ENDBRANCH  33  34
ENDBRANCH  25  28
ENDBRANCH  23  24
ENDBRANCH   1  23
TORSDOF 13
ENDMDL
MODEL 2
REMARK VINA RESULT:     -10.8      3.178      7.749
REMARK SMILES [NH3+][C@H](C(=O)NCCCCNC(=O)c1ccc(-c2c3nc(c(-c4ccccc4)c4ccc([nH]4)c(-c4ccccc4)c4nc(c(-c5ccccc5)c5ccc2[nH]5)C=C4)C=C3)cc1)c1cc2c(cc1Br)OCO2
REMARK SMILES IDX 8 1 7 2 6 3 5 4 3 5 4 6 2 8 1 9 61 13 62 14 66 15 63 16
REMARK SMILES IDX 65 17 67 18 64 19 70 20 68 21 69 22 9 23 10 24 11 25 12 27
REMARK SMILES IDX 13 28 14 29 60 30 15 31 59 32 16 33 17 34 18 35 53 36 19 37
REMARK SMILES IDX 58 38 52 39 54 40 20 41 57 42 51 43 50 44 21 46 43 47 28 48
REMARK SMILES IDX 42 49 29 50 32 51 41 52 55 53 30 54 31 55 40 57 56 58 33 59
REMARK SMILES IDX 22 60 23 61 27 62 24 63 26 64 25 65 44 66 45 67 49 68 46 69
REMARK SMILES IDX 48 70 47 71 34 72 35 73 39 74 36 75 38 76 37 77
REMARK H PARENT 5 7 1 10 1 11 1 12 10 26 54 45 32 56
REMARK Flexibility Score: inf
ROOT
ATOM      1  C   UNL A   1      31.752  30.322  26.606  1.00  0.00     0.023 C 
ENDROOT
BRANCH   1   2
ATOM      2  C   UNL A   1      31.752  29.032  27.423  1.00  0.00     0.023 C 
BRANCH   2   3
ATOM      3  C   UNL A   1      31.975  27.753  26.616  1.00  0.00     0.116 C 
BRANCH   3   4
ATOM      4  N   UNL A   1      30.917  26.783  26.832  1.00  0.00    -0.351 N 
ATOM      5  C   UNL A   1      30.325  25.905  25.964  1.00  0.00     0.283 C 
ATOM      6  O   UNL A   1      29.426  25.184  26.409  1.00  0.00    -0.268 OA
ATOM      7  H   UNL A   1      30.569  26.750  27.753  1.00  0.00     0.163 HD
BRANCH   5   8
ATOM      8  C   UNL A   1      30.812  25.788  24.490  1.00  0.00     0.303 C 
BRANCH   8   9
ATOM      9  N   UNL A   1      30.199  24.588  23.895  1.00  0.00    -0.343 N 
ATOM     10  H   UNL A   1      30.928  23.916  23.657  1.00  0.00     0.345 HD
ATOM     11  H   UNL A   1      29.691  24.850  23.050  1.00  0.00     0.345 HD
ATOM     12  H   UNL A   1      29.554  24.169  24.564  1.00  0.00     0.345 HD
ENDBRANCH   8   9
BRANCH   8  13
ATOM     13  C   UNL A   1      30.611  27.106  23.742  1.00  0.00     0.037 A 
ATOM     14  C   UNL A   1      29.260  27.518  23.617  1.00  0.00     0.062 A 
ATOM     15  C   UNL A   1      31.597  27.915  23.120  1.00  0.00     0.031 A 
ATOM     16  C   UNL A   1      28.943  28.628  22.869  1.00  0.00     0.166 A 
ATOM     17  C   UNL A   1      31.244  29.085  22.419  1.00  0.00     0.066 A 
ATOM     18  Br  UNL A   1      33.460  27.526  23.097  1.00  0.00    -0.050 Br
ATOM     19  C   UNL A   1      29.911  29.399  22.290  1.00  0.00     0.166 A 
ATOM     20  O   UNL A   1      27.687  29.070  22.599  1.00  0.00    -0.454 OA
ATOM     21  O   UNL A   1      29.391  30.440  21.589  1.00  0.00    -0.454 OA
ATOM     22  C   UNL A   1      27.981  30.143  21.678  1.00  0.00     0.468 C 
ENDBRANCH   8  13
ENDBRANCH   5   8
ENDBRANCH   3   4
ENDBRANCH   2   3
ENDBRANCH   1   2
BRANCH   1  23
ATOM     23  C   UNL A   1      32.905  31.275  26.897  1.00  0.00     0.116 C 
BRANCH  23  24
ATOM     24  N   UNL A   1      32.461  32.610  27.271  1.00  0.00    -0.352 N 
ATOM     25  C   UNL A   1      33.063  33.535  28.092  1.00  0.00     0.251 C 
ATOM     26  H   UNL A   1      31.603  32.892  26.878  1.00  0.00     0.163 HD
ATOM     27  O   UNL A   1      32.474  34.562  28.397  1.00  0.00    -0.269 OA
BRANCH  25  28
ATOM     28  C   UNL A   1      34.413  33.266  28.634  1.00  0.00     0.039 A 
ATOM     29  C   UNL A   1      34.525  32.597  29.855  1.00  0.00     0.014 A 
ATOM     30  C   UNL A   1      35.559  33.646  27.931  1.00  0.00     0.014 A 
ATOM     31  C   UNL A   1      35.787  32.233  30.330  1.00  0.00     0.010 A 
ATOM     32  C   UNL A   1      36.808  33.214  28.364  1.00  0.00     0.010 A 
ATOM     33  C   UNL A   1      36.935  32.497  29.564  1.00  0.00    -0.014 A 
BRANCH  33  34
ATOM     34  C   UNL A   1      38.272  32.008  29.986  1.00  0.00     0.031 A 
ATOM     35  C   UNL A   1      38.805  30.704  29.459  1.00  0.00     0.074 A 
ATOM     36  C   UNL A   1      38.975  32.703  30.902  1.00  0.00     0.049 A 
ATOM     37  N   UNL A   1      39.917  30.085  29.766  1.00  0.00    -0.248 NA
ATOM     38  C   UNL A   1      37.969  29.990  28.481  1.00  0.00     0.031 C 
ATOM     39  C   UNL A   1      38.550  33.958  31.526  1.00  0.00     0.029 A 
ATOM     40  N   UNL A   1      40.195  32.446  31.475  1.00  0.00    -0.354 N 
ATOM     41  C   UNL A   1      39.905  28.904  29.033  1.00  0.00     0.074 A 
ATOM     42  C   UNL A   1      38.657  28.870  28.304  1.00  0.00     0.031 C 
ATOM     43  C   UNL A   1      39.504  34.373  32.375  1.00  0.00     0.029 A 
ATOM     44  C   UNL A   1      40.588  33.397  32.386  1.00  0.00     0.049 A 
ATOM     45  H   UNL A   1      40.738  31.655  31.255  1.00  0.00     0.167 HD
ATOM     46  C   UNL A   1      40.856  27.943  28.962  1.00  0.00     0.031 A 
ATOM     47  C   UNL A   1      41.692  33.471  33.153  1.00  0.00     0.031 A 
ATOM     48  C   UNL A   1      42.105  27.983  29.672  1.00  0.00     0.049 A 
ATOM     49  C   UNL A   1      42.727  32.386  33.058  1.00  0.00     0.074 A 
ATOM     50  C   UNL A   1      43.158  27.085  29.613  1.00  0.00     0.029 A 
ATOM     51  N   UNL A   1      42.469  28.969  30.574  1.00  0.00    -0.354 N 
ATOM     52  N   UNL A   1      42.732  31.313  32.304  1.00  0.00    -0.248 NA
ATOM     53  C   UNL A   1      43.914  32.527  33.913  1.00  0.00     0.031 C 
ATOM     54  C   UNL A   1      44.140  27.505  30.516  1.00  0.00     0.029 A 
ATOM     55  C   UNL A   1      43.720  28.691  31.097  1.00  0.00     0.049 A 
ATOM     56  H   UNL A   1      41.920  29.752  30.809  1.00  0.00     0.167 HD
ATOM     57  C   UNL A   1      43.931  30.668  32.574  1.00  0.00     0.074 A 
ATOM     58  C   UNL A   1      44.636  31.478  33.547  1.00  0.00     0.031 C 
ATOM     59  C   UNL A   1      44.408  29.507  32.062  1.00  0.00     0.031 A 
BRANCH  46  60
ATOM     60  C   UNL A   1      40.581  26.758  28.078  1.00  0.00    -0.014 A 
ATOM     61  C   UNL A   1      41.062  26.708  26.760  1.00  0.00     0.009 A 
ATOM     62  C   UNL A   1      39.877  25.655  28.586  1.00  0.00     0.009 A 
ATOM     63  C   UNL A   1      40.818  25.590  25.960  1.00  0.00     0.001 A 
ATOM     64  C   UNL A   1      39.660  24.528  27.793  1.00  0.00     0.001 A 
ATOM     65  C   UNL A   1      40.122  24.499  26.479  1.00  0.00     0.000 A 
ENDBRANCH  46  60
BRANCH  47  66
ATOM     66  C   UNL A   1      41.887  34.619  34.078  1.00  0.00    -0.014 A 
ATOM     67  C   UNL A   1      41.466  34.535  35.414  1.00  0.00     0.009 A 
ATOM     68  C   UNL A   1      42.474  35.810  33.624  1.00  0.00     0.009 A 
ATOM     69  C   UNL A   1      41.598  35.633  36.268  1.00  0.00     0.001 A 
ATOM     70  C   UNL A   1      42.633  36.895  34.489  1.00  0.00     0.001 A 
ATOM     71  C   UNL A   1      42.185  36.811  35.806  1.00  0.00     0.000 A 
ENDBRANCH  47  66
BRANCH  59  72
ATOM     72  C   UNL A   1      45.769  29.063  32.518  1.00  0.00    -0.014 A 
ATOM     73  C   UNL A   1      46.932  29.480  31.852  1.00  0.00     0.009 A 
ATOM     74  C   UNL A   1      45.889  28.246  33.653  1.00  0.00     0.009 A 
ATOM     75  C   UNL A   1      48.187  29.058  32.296  1.00  0.00     0.001 A 
ATOM     76  C   UNL A   1      47.145  27.850  34.111  1.00  0.00     0.001 A 
ATOM     77  C   UNL A   1      48.293  28.249  33.426  1.00  0.00     0.000 A 
ENDBRANCH  59  72
ENDBRANCH  33  34
ENDBRANCH  25  28
ENDBRANCH  23  24
ENDBRANCH   1  23
TORSDOF 13
ENDMDL
MODEL 3
REMARK VINA RESULT:     -10.8      2.260      7.609
REMARK SMILES [NH3+][C@H](C(=O)NCCCCNC(=O)c1ccc(-c2c3nc(c(-c4ccccc4)c4ccc([nH]4)c(-c4ccccc4)c4nc(c(-c5ccccc5)c5ccc2[nH]5)C=C4)C=C3)cc1)c1cc2c(cc1Br)OCO2
REMARK SMILES IDX 8 1 7 2 6 3 5 4 3 5 4 6 2 8 1 9 61 13 62 14 66 15 63 16
REMARK SMILES IDX 65 17 67 18 64 19 70 20 68 21 69 22 9 23 10 24 11 25 12 27
REMARK SMILES IDX 13 28 14 29 60 30 15 31 59 32 16 33 17 34 18 35 53 36 19 37
REMARK SMILES IDX 58 38 52 39 54 40 20 41 57 42 51 43 50 44 21 46 43 47 28 48
REMARK SMILES IDX 42 49 29 50 32 51 41 52 55 53 30 54 31 55 40 57 56 58 33 59
REMARK SMILES IDX 22 60 23 61 27 62 24 63 26 64 25 65 44 66 45 67 49 68 46 69
REMARK SMILES IDX 48 70 47 71 34 72 35 73 39 74 36 75 38 76 37 77
REMARK H PARENT 5 7 1 10 1 11 1 12 10 26 54 45 32 56
REMARK Flexibility Score: inf
ROOT
ATOM      1  C   UNL A   1      37.807  20.089  24.895  1.00  0.00     0.023 C 
ENDROOT
BRANCH   1   2
ATOM      2  C   UNL A   1      36.711  21.147  24.805  1.00  0.00     0.023 C 
BRANCH   2   3
ATOM      3  C   UNL A   1      35.346  20.714  25.342  1.00  0.00     0.116 C 
BRANCH   3   4
ATOM      4  N   UNL A   1      34.991  21.424  26.558  1.00  0.00    -0.351 N 
ATOM      5  C   UNL A   1      33.841  22.086  26.896  1.00  0.00     0.283 C 
ATOM      6  O   UNL A   1      33.800  22.622  28.009  1.00  0.00    -0.268 OA
ATOM      7  H   UNL A   1      35.690  21.430  27.251  1.00  0.00     0.163 HD
BRANCH   5   8
ATOM      8  C   UNL A   1      32.618  22.106  25.934  1.00  0.00     0.303 C 
BRANCH   8   9
ATOM      9  N   UNL A   1      31.427  22.497  26.708  1.00  0.00    -0.343 N 
ATOM     10  H   UNL A   1      30.717  21.769  26.631  1.00  0.00     0.345 HD
ATOM     11  H   UNL A   1      31.056  23.374  26.340  1.00  0.00     0.345 HD
ATOM     12  H   UNL A   1      31.684  22.621  27.687  1.00  0.00     0.345 HD
ENDBRANCH   8   9
BRANCH   8  13
ATOM     13  C   UNL A   1      32.923  22.926  24.680  1.00  0.00     0.037 A 
ATOM     14  C   UNL A   1      33.316  24.266  24.928  1.00  0.00     0.062 A 
ATOM     15  C   UNL A   1      32.803  22.525  23.325  1.00  0.00     0.031 A 
ATOM     16  C   UNL A   1      33.509  25.134  23.879  1.00  0.00     0.166 A 
ATOM     17  C   UNL A   1      33.075  23.421  22.272  1.00  0.00     0.066 A 
ATOM     18  Br  UNL A   1      32.228  20.803  22.752  1.00  0.00    -0.050 Br
ATOM     19  C   UNL A   1      33.399  24.722  22.581  1.00  0.00     0.166 A 
ATOM     20  O   UNL A   1      33.795  26.459  23.987  1.00  0.00    -0.454 OA
ATOM     21  O   UNL A   1      33.618  25.731  21.698  1.00  0.00    -0.454 OA
ATOM     22  C   UNL A   1      33.732  26.852  22.600  1.00  0.00     0.468 C 
ENDBRANCH   8  13
ENDBRANCH   5   8
ENDBRANCH   3   4
ENDBRANCH   2   3
ENDBRANCH   1   2
BRANCH   1  23
ATOM     23  C   UNL A   1      38.976  20.441  25.806  1.00  0.00     0.116 C 
BRANCH  23  24
ATOM     24  N   UNL A   1      40.035  19.442  25.787  1.00  0.00    -0.352 N 
ATOM     25  C   UNL A   1      41.373  19.579  26.077  1.00  0.00     0.251 C 
ATOM     26  H   UNL A   1      39.752  18.535  25.529  1.00  0.00     0.163 HD
ATOM     27  O   UNL A   1      42.144  18.651  25.878  1.00  0.00    -0.269 OA
BRANCH  25  28
ATOM     28  C   UNL A   1      41.883  20.867  26.596  1.00  0.00     0.039 A 
ATOM     29  C   UNL A   1      42.345  21.823  25.687  1.00  0.00     0.014 A 
ATOM     30  C   UNL A   1      41.880  21.142  27.966  1.00  0.00     0.014 A 
ATOM     31  C   UNL A   1      42.724  23.086  26.147  1.00  0.00     0.010 A 
ATOM     32  C   UNL A   1      42.182  22.424  28.414  1.00  0.00     0.010 A 
ATOM     33  C   UNL A   1      42.600  23.412  27.508  1.00  0.00    -0.014 A 
BRANCH  33  34
ATOM     34  C   UNL A   1      42.876  24.785  27.999  1.00  0.00     0.031 A 
ATOM     35  C   UNL A   1      44.271  25.186  28.392  1.00  0.00     0.074 A 
ATOM     36  C   UNL A   1      41.855  25.650  28.162  1.00  0.00     0.049 A 
ATOM     37  N   UNL A   1      44.691  26.314  28.906  1.00  0.00    -0.248 NA
ATOM     38  C   UNL A   1      45.329  24.179  28.209  1.00  0.00     0.031 C 
ATOM     39  C   UNL A   1      40.449  25.372  27.862  1.00  0.00     0.029 A 
ATOM     40  N   UNL A   1      41.844  26.941  28.629  1.00  0.00    -0.354 N 
ATOM     41  C   UNL A   1      46.053  26.147  29.123  1.00  0.00     0.074 A 
ATOM     42  C   UNL A   1      46.381  24.794  28.729  1.00  0.00     0.031 C 
ATOM     43  C   UNL A   1      39.716  26.465  28.129  1.00  0.00     0.029 A 
ATOM     44  C   UNL A   1      40.591  27.506  28.656  1.00  0.00     0.049 A 
ATOM     45  H   UNL A   1      42.655  27.417  28.919  1.00  0.00     0.167 HD
ATOM     46  C   UNL A   1      46.952  27.044  29.591  1.00  0.00     0.031 A 
ATOM     47  C   UNL A   1      40.190  28.724  29.066  1.00  0.00     0.031 A 
ATOM     48  C   UNL A   1      46.631  28.394  29.966  1.00  0.00     0.049 A 
ATOM     49  C   UNL A   1      41.209  29.697  29.588  1.00  0.00     0.074 A 
ATOM     50  C   UNL A   1      47.487  29.396  30.391  1.00  0.00     0.029 A 
ATOM     51  N   UNL A   1      45.354  28.931  29.965  1.00  0.00    -0.354 N 
ATOM     52  N   UNL A   1      42.505  29.546  29.717  1.00  0.00    -0.248 NA
ATOM     53  C   UNL A   1      40.710  31.013  30.013  1.00  0.00     0.031 C 
ATOM     54  C   UNL A   1      46.720  30.526  30.693  1.00  0.00     0.029 A 
ATOM     55  C   UNL A   1      45.394  30.243  30.405  1.00  0.00     0.049 A 
ATOM     56  H   UNL A   1      44.539  28.452  29.692  1.00  0.00     0.167 HD
ATOM     57  C   UNL A   1      42.979  30.754  30.210  1.00  0.00     0.074 A 
ATOM     58  C   UNL A   1      41.835  31.633  30.341  1.00  0.00     0.031 C 
ATOM     59  C   UNL A   1      44.249  31.105  30.528  1.00  0.00     0.031 A 
BRANCH  46  60
ATOM     60  C   UNL A   1      48.380  26.592  29.724  1.00  0.00    -0.014 A 
ATOM     61  C   UNL A   1      49.311  26.815  28.698  1.00  0.00     0.009 A 
ATOM     62  C   UNL A   1      48.812  25.982  30.912  1.00  0.00     0.009 A 
ATOM     63  C   UNL A   1      50.639  26.411  28.848  1.00  0.00     0.001 A 
ATOM     64  C   UNL A   1      50.145  25.604  31.070  1.00  0.00     0.001 A 
ATOM     65  C   UNL A   1      51.056  25.811  30.035  1.00  0.00     0.000 A 
ENDBRANCH  46  60
BRANCH  47  66
ATOM     66  C   UNL A   1      38.754  29.103  28.996  1.00  0.00    -0.014 A 
ATOM     67  C   UNL A   1      38.213  29.626  27.812  1.00  0.00     0.009 A 
ATOM     68  C   UNL A   1      37.922  28.963  30.119  1.00  0.00     0.009 A 
ATOM     69  C   UNL A   1      36.877  30.034  27.763  1.00  0.00     0.001 A 
ATOM     70  C   UNL A   1      36.580  29.344  30.058  1.00  0.00     0.001 A 
ATOM     71  C   UNL A   1      36.061  29.889  28.884  1.00  0.00     0.000 A 
ENDBRANCH  47  66
BRANCH  59  72
ATOM     72  C   UNL A   1      44.472  32.509  31.013  1.00  0.00    -0.014 A 
ATOM     73  C   UNL A   1      44.443  32.820  32.382  1.00  0.00     0.009 A 
ATOM     74  C   UNL A   1      44.752  33.527  30.089  1.00  0.00     0.009 A 
ATOM     75  C   UNL A   1      44.657  34.131  32.810  1.00  0.00     0.001 A 
ATOM     76  C   UNL A   1      44.995  34.830  30.523  1.00  0.00     0.001 A 
ATOM     77  C   UNL A   1      44.938  35.133  31.882  1.00  0.00     0.000 A 
ENDBRANCH  59  72
ENDBRANCH  33  34
ENDBRANCH  25  28
ENDBRANCH  23  24
ENDBRANCH   1  23
TORSDOF 13
ENDMDL
