MODEL 1
REMARK VINA RESULT:     -11.4      0.000      0.000
REMARK SMILES Cc1nsc(N(C)C(=O)[C@H]2CCOC2)c1C(=O)NCCCCNC(=O)c1ccc(-c2c3nc(c(-c4ccccc4)c4ccc([nH]4)c(-c4ccccc4)c4nc(c(-c5ccccc5)c5ccc2[nH]5)C=C4)C=C3)cc1
REMARK SMILES IDX 20 1 19 2 18 3 16 4 17 5 15 7 1 8 2 9 3 10 4 11 5 12 6 13
REMARK SMILES IDX 7 14 8 15 9 16 10 17 11 18 14 19 12 20 13 21 21 22 22 23
REMARK SMILES IDX 23 24 24 25 25 27 26 28 27 29 73 30 28 31 72 32 29 33 30 34
REMARK SMILES IDX 31 35 66 36 32 37 71 38 65 39 67 40 33 41 70 42 64 43 63 44
REMARK SMILES IDX 34 46 56 47 41 48 55 49 42 50 45 51 54 52 68 53 43 54 44 55
REMARK SMILES IDX 53 57 69 58 46 59 35 60 36 61 40 62 37 63 39 64 38 65 57 66
REMARK SMILES IDX 58 67 62 68 59 69 61 70 60 71 47 72 48 73 52 74 49 75 51 76
REMARK SMILES IDX 50 77
REMARK H PARENT 18 6 23 26 67 45 45 56
REMARK Flexibility Score: inf
ROOT
ATOM      1  C   UNL A   1      32.067  30.189  25.829  1.00  0.00     0.023 C 
ENDROOT
BRANCH   1   2
ATOM      2  C   UNL A   1      32.296  29.018  26.786  1.00  0.00     0.116 C 
BRANCH   2   3
ATOM      3  N   UNL A   1      31.355  27.933  26.607  1.00  0.00    -0.352 N 
ATOM      4  C   UNL A   1      31.600  26.658  26.139  1.00  0.00     0.256 C 
ATOM      5  O   UNL A   1      31.316  25.736  26.911  1.00  0.00    -0.269 OA
ATOM      6  H   UNL A   1      30.422  28.131  26.848  1.00  0.00     0.163 HD
BRANCH   4   7
ATOM      7  C   UNL A   1      32.026  26.380  24.757  1.00  0.00     0.097 A 
ATOM      8  C   UNL A   1      34.371  25.078  24.940  1.00  0.00     0.069 C 
ATOM      9  C   UNL A   1      33.191  25.653  24.242  1.00  0.00     0.066 A 
ATOM     10  N   UNL A   1      33.197  25.402  22.935  1.00  0.00    -0.195 NA
ATOM     11  S   UNL A   1      31.849  25.997  22.253  1.00  0.00    -0.017 S 
ATOM     12  C   UNL A   1      31.204  26.727  23.660  1.00  0.00     0.131 A 
BRANCH  12  13
ATOM     13  N   UNL A   1      30.026  27.509  23.493  1.00  0.00    -0.305 N 
ATOM     14  C   UNL A   1      28.671  26.977  23.683  1.00  0.00     0.154 C 
BRANCH  13  15
ATOM     15  C   UNL A   1      30.176  28.802  22.957  1.00  0.00     0.232 C 
ATOM     16  O   UNL A   1      31.219  29.187  22.421  1.00  0.00    -0.274 OA
BRANCH  15  17
ATOM     17  C   UNL A   1      28.933  29.702  22.928  1.00  0.00     0.107 C 
ATOM     18  C   UNL A   1      29.012  31.001  23.706  1.00  0.00     0.044 C 
ATOM     19  C   UNL A   1      28.669  30.242  21.528  1.00  0.00     0.173 C 
ATOM     20  C   UNL A   1      27.937  31.839  23.047  1.00  0.00     0.161 C 
ATOM     21  O   UNL A   1      27.867  31.425  21.680  1.00  0.00    -0.381 OA
ENDBRANCH  15  17
ENDBRANCH  13  15
ENDBRANCH  12  13
ENDBRANCH   4   7
ENDBRANCH   2   3
ENDBRANCH   1   2
BRANCH   1  22
ATOM     22  C   UNL A   1      31.560  31.482  26.485  1.00  0.00     0.023 C 
BRANCH  22  23
ATOM     23  C   UNL A   1      32.537  32.149  27.452  1.00  0.00     0.116 C 
BRANCH  23  24
ATOM     24  N   UNL A   1      32.346  33.594  27.573  1.00  0.00    -0.352 N 
ATOM     25  C   UNL A   1      32.997  34.443  28.444  1.00  0.00     0.251 C 
ATOM     26  H   UNL A   1      31.684  34.004  26.970  1.00  0.00     0.163 HD
ATOM     27  O   UNL A   1      32.511  35.519  28.784  1.00  0.00    -0.269 OA
BRANCH  25  28
ATOM     28  C   UNL A   1      34.325  34.046  28.934  1.00  0.00     0.039 A 
ATOM     29  C   UNL A   1      34.506  33.459  30.188  1.00  0.00     0.014 A 
ATOM     30  C   UNL A   1      35.394  34.231  28.057  1.00  0.00     0.014 A 
ATOM     31  C   UNL A   1      35.769  32.978  30.526  1.00  0.00     0.010 A 
ATOM     32  C   UNL A   1      36.608  33.661  28.347  1.00  0.00     0.010 A 
ATOM     33  C   UNL A   1      36.812  33.067  29.592  1.00  0.00    -0.014 A 
BRANCH  33  34
ATOM     34  C   UNL A   1      38.085  32.386  29.816  1.00  0.00     0.031 A 
ATOM     35  C   UNL A   1      38.080  30.938  29.455  1.00  0.00     0.074 A 
ATOM     36  C   UNL A   1      39.227  33.073  30.053  1.00  0.00     0.049 A 
ATOM     37  N   UNL A   1      38.306  29.927  30.228  1.00  0.00    -0.248 NA
ATOM     38  C   UNL A   1      37.649  30.557  28.097  1.00  0.00     0.031 C 
ATOM     39  C   UNL A   1      39.398  34.531  30.113  1.00  0.00     0.029 A 
ATOM     40  N   UNL A   1      40.509  32.625  30.141  1.00  0.00    -0.354 N 
ATOM     41  C   UNL A   1      38.255  28.798  29.412  1.00  0.00     0.074 A 
ATOM     42  C   UNL A   1      37.670  29.225  28.169  1.00  0.00     0.031 C 
ATOM     43  C   UNL A   1      40.703  34.842  29.961  1.00  0.00     0.029 A 
ATOM     44  C   UNL A   1      41.475  33.614  29.964  1.00  0.00     0.049 A 
ATOM     45  H   UNL A   1      40.736  31.682  30.313  1.00  0.00     0.167 HD
ATOM     46  C   UNL A   1      38.957  27.670  29.725  1.00  0.00     0.031 A 
ATOM     47  C   UNL A   1      42.811  33.442  29.796  1.00  0.00     0.031 A 
ATOM     48  C   UNL A   1      39.393  27.691  31.098  1.00  0.00     0.049 A 
ATOM     49  C   UNL A   1      43.141  32.081  30.272  1.00  0.00     0.074 A 
ATOM     50  C   UNL A   1      38.767  27.752  32.327  1.00  0.00     0.029 A 
ATOM     51  N   UNL A   1      40.701  28.049  31.320  1.00  0.00    -0.354 N 
ATOM     52  N   UNL A   1      43.050  31.719  31.518  1.00  0.00    -0.248 NA
ATOM     53  C   UNL A   1      43.119  30.999  29.301  1.00  0.00     0.031 C 
ATOM     54  C   UNL A   1      39.602  28.595  33.119  1.00  0.00     0.029 A 
ATOM     55  C   UNL A   1      40.727  28.932  32.363  1.00  0.00     0.049 A 
ATOM     56  H   UNL A   1      41.482  27.725  30.814  1.00  0.00     0.167 HD
ATOM     57  C   UNL A   1      42.493  30.451  31.472  1.00  0.00     0.074 A 
ATOM     58  C   UNL A   1      42.660  30.017  30.084  1.00  0.00     0.031 C 
ATOM     59  C   UNL A   1      41.691  30.002  32.483  1.00  0.00     0.031 A 
BRANCH  46  60
ATOM     60  C   UNL A   1      39.661  26.807  28.696  1.00  0.00    -0.014 A 
ATOM     61  C   UNL A   1      40.528  27.439  27.782  1.00  0.00     0.009 A 
ATOM     62  C   UNL A   1      39.273  25.491  28.384  1.00  0.00     0.009 A 
ATOM     63  C   UNL A   1      40.880  26.833  26.569  1.00  0.00     0.001 A 
ATOM     64  C   UNL A   1      39.658  24.866  27.194  1.00  0.00     0.001 A 
ATOM     65  C   UNL A   1      40.431  25.553  26.268  1.00  0.00     0.000 A 
ENDBRANCH  46  60
BRANCH  47  66
ATOM     66  C   UNL A   1      43.777  34.258  29.026  1.00  0.00    -0.014 A 
ATOM     67  C   UNL A   1      43.799  34.223  27.621  1.00  0.00     0.009 A 
ATOM     68  C   UNL A   1      44.496  35.285  29.662  1.00  0.00     0.009 A 
ATOM     69  C   UNL A   1      44.487  35.199  26.884  1.00  0.00     0.001 A 
ATOM     70  C   UNL A   1      45.183  36.259  28.927  1.00  0.00     0.001 A 
ATOM     71  C   UNL A   1      45.166  36.224  27.537  1.00  0.00     0.000 A 
ENDBRANCH  47  66
BRANCH  59  72
ATOM     72  C   UNL A   1      41.623  30.823  33.747  1.00  0.00    -0.014 A 
ATOM     73  C   UNL A   1      40.746  31.909  33.921  1.00  0.00     0.009 A 
ATOM     74  C   UNL A   1      42.359  30.380  34.855  1.00  0.00     0.009 A 
ATOM     75  C   UNL A   1      40.632  32.546  35.162  1.00  0.00     0.001 A 
ATOM     76  C   UNL A   1      42.229  31.002  36.098  1.00  0.00     0.001 A 
ATOM     77  C   UNL A   1      41.371  32.088  36.251  1.00  0.00     0.000 A 
ENDBRANCH  59  72
ENDBRANCH  33  34
ENDBRANCH  25  28
ENDBRANCH  23  24
ENDBRANCH  22  23
ENDBRANCH   1  22
TORSDOF 14
ENDMDL
MODEL 2
REMARK VINA RESULT:     -11.1      4.848      9.630
REMARK SMILES Cc1nsc(N(C)C(=O)[C@H]2CCOC2)c1C(=O)NCCCCNC(=O)c1ccc(-c2c3nc(c(-c4ccccc4)c4ccc([nH]4)c(-c4ccccc4)c4nc(c(-c5ccccc5)c5ccc2[nH]5)C=C4)C=C3)cc1
REMARK SMILES IDX 20 1 19 2 18 3 16 4 17 5 15 7 1 8 2 9 3 10 4 11 5 12 6 13
REMARK SMILES IDX 7 14 8 15 9 16 10 17 11 18 14 19 12 20 13 21 21 22 22 23
REMARK SMILES IDX 23 24 24 25 25 27 26 28 27 29 73 30 28 31 72 32 29 33 30 34
REMARK SMILES IDX 31 35 66 36 32 37 71 38 65 39 67 40 33 41 70 42 64 43 63 44
REMARK SMILES IDX 34 46 56 47 41 48 55 49 42 50 45 51 54 52 68 53 43 54 44 55
REMARK SMILES IDX 53 57 69 58 46 59 35 60 36 61 40 62 37 63 39 64 38 65 57 66
REMARK SMILES IDX 58 67 62 68 59 69 61 70 60 71 47 72 48 73 52 74 49 75 51 76
REMARK SMILES IDX 50 77
REMARK H PARENT 18 6 23 26 67 45 45 56
REMARK Flexibility Score: inf
ROOT
ATOM      1  C   UNL A   1      38.513  22.240  25.604  1.00  0.00     0.023 C 
ENDROOT
BRANCH   1   2
ATOM      2  C   UNL A   1      37.027  22.603  25.653  1.00  0.00     0.116 C 
BRANCH   2   3
ATOM      3  N   UNL A   1      36.291  22.180  24.480  1.00  0.00    -0.352 N 
ATOM      4  C   UNL A   1      35.309  22.866  23.796  1.00  0.00     0.256 C 
ATOM      5  O   UNL A   1      35.542  23.096  22.604  1.00  0.00    -0.269 OA
ATOM      6  H   UNL A   1      36.520  21.290  24.128  1.00  0.00     0.163 HD
BRANCH   4   7
ATOM      7  C   UNL A   1      33.994  23.180  24.381  1.00  0.00     0.097 A 
ATOM      8  C   UNL A   1      34.211  25.639  25.445  1.00  0.00     0.069 C 
ATOM      9  C   UNL A   1      33.505  24.394  25.043  1.00  0.00     0.066 A 
ATOM     10  N   UNL A   1      32.199  24.442  25.292  1.00  0.00    -0.195 NA
ATOM     11  S   UNL A   1      31.486  23.082  24.766  1.00  0.00    -0.017 S 
ATOM     12  C   UNL A   1      32.909  22.283  24.251  1.00  0.00     0.131 A 
BRANCH  12  13
ATOM     13  N   UNL A   1      32.763  20.938  23.808  1.00  0.00    -0.305 N 
ATOM     14  C   UNL A   1      32.116  20.570  22.543  1.00  0.00     0.154 C 
BRANCH  13  15
ATOM     15  C   UNL A   1      33.106  19.916  24.714  1.00  0.00     0.232 C 
ATOM     16  O   UNL A   1      33.399  20.137  25.893  1.00  0.00    -0.274 OA
BRANCH  15  17
ATOM     17  C   UNL A   1      32.970  18.467  24.227  1.00  0.00     0.107 C 
ATOM     18  C   UNL A   1      34.257  17.727  23.914  1.00  0.00     0.044 C 
ATOM     19  C   UNL A   1      32.399  17.565  25.314  1.00  0.00     0.173 C 
ATOM     20  C   UNL A   1      33.830  16.278  24.014  1.00  0.00     0.161 C 
ATOM     21  O   UNL A   1      32.783  16.219  24.987  1.00  0.00    -0.381 OA
ENDBRANCH  15  17
ENDBRANCH  13  15
ENDBRANCH  12  13
ENDBRANCH   4   7
ENDBRANCH   2   3
ENDBRANCH   1   2
BRANCH   1  22
ATOM     22  C   UNL A   1      38.817  20.762  25.318  1.00  0.00     0.023 C 
BRANCH  22  23
ATOM     23  C   UNL A   1      39.515  20.009  26.449  1.00  0.00     0.116 C 
BRANCH  23  24
ATOM     24  N   UNL A   1      40.685  19.247  26.012  1.00  0.00    -0.352 N 
ATOM     25  C   UNL A   1      41.944  19.746  25.750  1.00  0.00     0.251 C 
ATOM     26  H   UNL A   1      40.560  18.277  25.892  1.00  0.00     0.163 HD
ATOM     27  O   UNL A   1      42.730  19.161  25.008  1.00  0.00    -0.269 OA
BRANCH  25  28
ATOM     28  C   UNL A   1      42.349  20.990  26.420  1.00  0.00     0.039 A 
ATOM     29  C   UNL A   1      42.796  22.103  25.704  1.00  0.00     0.014 A 
ATOM     30  C   UNL A   1      42.208  21.026  27.807  1.00  0.00     0.014 A 
ATOM     31  C   UNL A   1      43.025  23.293  26.393  1.00  0.00     0.010 A 
ATOM     32  C   UNL A   1      42.328  22.224  28.464  1.00  0.00     0.010 A 
ATOM     33  C   UNL A   1      42.772  23.350  27.772  1.00  0.00    -0.014 A 
BRANCH  33  34
ATOM     34  C   UNL A   1      42.788  24.623  28.488  1.00  0.00     0.031 A 
ATOM     35  C   UNL A   1      41.678  25.550  28.120  1.00  0.00     0.074 A 
ATOM     36  C   UNL A   1      43.563  24.814  29.581  1.00  0.00     0.049 A 
ATOM     37  N   UNL A   1      41.769  26.736  27.615  1.00  0.00    -0.248 NA
ATOM     38  C   UNL A   1      40.292  25.052  28.207  1.00  0.00     0.031 C 
ATOM     39  C   UNL A   1      44.465  23.845  30.218  1.00  0.00     0.029 A 
ATOM     40  N   UNL A   1      43.603  25.863  30.447  1.00  0.00    -0.354 N 
ATOM     41  C   UNL A   1      40.465  27.218  27.518  1.00  0.00     0.074 A 
ATOM     42  C   UNL A   1      39.602  26.083  27.717  1.00  0.00     0.031 C 
ATOM     43  C   UNL A   1      44.743  24.244  31.478  1.00  0.00     0.029 A 
ATOM     44  C   UNL A   1      44.185  25.569  31.678  1.00  0.00     0.049 A 
ATOM     45  H   UNL A   1      43.249  26.755  30.223  1.00  0.00     0.167 HD
ATOM     46  C   UNL A   1      40.201  28.555  27.562  1.00  0.00     0.031 A 
ATOM     47  C   UNL A   1      44.183  26.337  32.796  1.00  0.00     0.031 A 
ATOM     48  C   UNL A   1      41.397  29.330  27.344  1.00  0.00     0.049 A 
ATOM     49  C   UNL A   1      43.855  27.718  32.380  1.00  0.00     0.074 A 
ATOM     50  C   UNL A   1      42.315  29.453  26.321  1.00  0.00     0.029 A 
ATOM     51  N   UNL A   1      42.003  29.848  28.463  1.00  0.00    -0.354 N 
ATOM     52  N   UNL A   1      44.641  28.445  31.642  1.00  0.00    -0.248 NA
ATOM     53  C   UNL A   1      42.457  28.116  32.389  1.00  0.00     0.031 C 
ATOM     54  C   UNL A   1      43.574  29.591  26.977  1.00  0.00     0.029 A 
ATOM     55  C   UNL A   1      43.349  29.629  28.355  1.00  0.00     0.049 A 
ATOM     56  H   UNL A   1      41.548  30.297  29.212  1.00  0.00     0.167 HD
ATOM     57  C   UNL A   1      43.792  29.075  30.746  1.00  0.00     0.074 A 
ATOM     58  C   UNL A   1      42.455  28.921  31.322  1.00  0.00     0.031 C 
ATOM     59  C   UNL A   1      44.216  29.394  29.486  1.00  0.00     0.031 A 
BRANCH  46  60
ATOM     60  C   UNL A   1      39.005  29.152  28.278  1.00  0.00    -0.014 A 
ATOM     61  C   UNL A   1      38.839  28.864  29.647  1.00  0.00     0.009 A 
ATOM     62  C   UNL A   1      37.892  29.699  27.614  1.00  0.00     0.009 A 
ATOM     63  C   UNL A   1      37.596  28.998  30.278  1.00  0.00     0.001 A 
ATOM     64  C   UNL A   1      36.660  29.875  28.253  1.00  0.00     0.001 A 
ATOM     65  C   UNL A   1      36.502  29.487  29.575  1.00  0.00     0.000 A 
ENDBRANCH  46  60
BRANCH  47  66
ATOM     66  C   UNL A   1      44.188  25.929  34.220  1.00  0.00    -0.014 A 
ATOM     67  C   UNL A   1      43.106  25.229  34.779  1.00  0.00     0.009 A 
ATOM     68  C   UNL A   1      45.381  25.985  34.964  1.00  0.00     0.009 A 
ATOM     69  C   UNL A   1      43.225  24.581  36.018  1.00  0.00     0.001 A 
ATOM     70  C   UNL A   1      45.501  25.340  36.201  1.00  0.00     0.001 A 
ATOM     71  C   UNL A   1      44.426  24.626  36.721  1.00  0.00     0.000 A 
ENDBRANCH  47  66
BRANCH  59  72
ATOM     72  C   UNL A   1      45.688  29.262  29.183  1.00  0.00    -0.014 A 
ATOM     73  C   UNL A   1      46.611  30.311  29.348  1.00  0.00     0.009 A 
ATOM     74  C   UNL A   1      46.181  27.987  28.873  1.00  0.00     0.009 A 
ATOM     75  C   UNL A   1      47.983  30.091  29.181  1.00  0.00     0.001 A 
ATOM     76  C   UNL A   1      47.550  27.763  28.727  1.00  0.00     0.001 A 
ATOM     77  C   UNL A   1      48.452  28.814  28.876  1.00  0.00     0.000 A 
ENDBRANCH  59  72
ENDBRANCH  33  34
ENDBRANCH  25  28
ENDBRANCH  23  24
ENDBRANCH  22  23
ENDBRANCH   1  22
TORSDOF 14
ENDMDL
MODEL 3
REMARK VINA RESULT:     -11.1      1.840      3.490
REMARK SMILES Cc1nsc(N(C)C(=O)[C@H]2CCOC2)c1C(=O)NCCCCNC(=O)c1ccc(-c2c3nc(c(-c4ccccc4)c4ccc([nH]4)c(-c4ccccc4)c4nc(c(-c5ccccc5)c5ccc2[nH]5)C=C4)C=C3)cc1
REMARK SMILES IDX 20 1 19 2 18 3 16 4 17 5 15 7 1 8 2 9 3 10 4 11 5 12 6 13
REMARK SMILES IDX 7 14 8 15 9 16 10 17 11 18 14 19 12 20 13 21 21 22 22 23
REMARK SMILES IDX 23 24 24 25 25 27 26 28 27 29 73 30 28 31 72 32 29 33 30 34
REMARK SMILES IDX 31 35 66 36 32 37 71 38 65 39 67 40 33 41 70 42 64 43 63 44
REMARK SMILES IDX 34 46 56 47 41 48 55 49 42 50 45 51 54 52 68 53 43 54 44 55
REMARK SMILES IDX 53 57 69 58 46 59 35 60 36 61 40 62 37 63 39 64 38 65 57 66
REMARK SMILES IDX 58 67 62 68 59 69 61 70 60 71 47 72 48 73 52 74 49 75 51 76
REMARK SMILES IDX 50 77
REMARK H PARENT 18 6 23 26 67 45 45 56
REMARK Flexibility Score: inf
ROOT
ATOM      1  C   UNL A   1      32.335  30.118  25.594  1.00  0.00     0.023 C 
ENDROOT
BRANCH   1   2
ATOM      2  C   UNL A   1      31.434  28.907  25.344  1.00  0.00     0.116 C 
BRANCH   2   3
ATOM      3  N   UNL A   1      31.979  27.667  25.854  1.00  0.00    -0.352 N 
ATOM      4  C   UNL A   1      33.083  26.971  25.406  1.00  0.00     0.256 C 
ATOM      5  O   UNL A   1      33.984  26.797  26.233  1.00  0.00    -0.269 OA
ATOM      6  H   UNL A   1      31.500  27.270  26.616  1.00  0.00     0.163 HD
BRANCH   4   7
ATOM      7  C   UNL A   1      33.144  26.333  24.080  1.00  0.00     0.097 A 
ATOM      8  C   UNL A   1      33.833  28.267  22.344  1.00  0.00     0.069 C 
ATOM      9  C   UNL A   1      33.519  26.878  22.771  1.00  0.00     0.066 A 
ATOM     10  N   UNL A   1      33.664  25.995  21.786  1.00  0.00    -0.195 NA
ATOM     11  S   UNL A   1      33.373  24.497  22.341  1.00  0.00    -0.017 S 
ATOM     12  C   UNL A   1      32.932  24.943  23.933  1.00  0.00     0.131 A 
BRANCH  12  13
ATOM     13  N   UNL A   1      32.458  23.903  24.781  1.00  0.00    -0.305 N 
ATOM     14  C   UNL A   1      31.059  23.457  24.807  1.00  0.00     0.154 C 
BRANCH  13  15
ATOM     15  C   UNL A   1      33.345  23.402  25.753  1.00  0.00     0.232 C 
ATOM     16  O   UNL A   1      33.017  23.228  26.931  1.00  0.00    -0.274 OA
BRANCH  15  17
ATOM     17  C   UNL A   1      34.725  22.932  25.274  1.00  0.00     0.107 C 
ATOM     18  C   UNL A   1      35.925  23.710  25.780  1.00  0.00     0.044 C 
ATOM     19  C   UNL A   1      35.057  21.545  25.808  1.00  0.00     0.173 C 
ATOM     20  C   UNL A   1      37.053  22.716  25.602  1.00  0.00     0.161 C 
ATOM     21  O   UNL A   1      36.489  21.412  25.766  1.00  0.00    -0.381 OA
ENDBRANCH  15  17
ENDBRANCH  13  15
ENDBRANCH  12  13
ENDBRANCH   4   7
ENDBRANCH   2   3
ENDBRANCH   1   2
BRANCH   1  22
ATOM     22  C   UNL A   1      31.664  31.297  26.314  1.00  0.00     0.023 C 
BRANCH  22  23
ATOM     23  C   UNL A   1      32.511  31.974  27.389  1.00  0.00     0.116 C 
BRANCH  23  24
ATOM     24  N   UNL A   1      32.312  33.422  27.467  1.00  0.00    -0.352 N 
ATOM     25  C   UNL A   1      32.955  34.299  28.316  1.00  0.00     0.251 C 
ATOM     26  H   UNL A   1      31.652  33.810  26.849  1.00  0.00     0.163 HD
ATOM     27  O   UNL A   1      32.462  35.382  28.622  1.00  0.00    -0.269 OA
BRANCH  25  28
ATOM     28  C   UNL A   1      34.282  33.923  28.824  1.00  0.00     0.039 A 
ATOM     29  C   UNL A   1      34.458  33.367  30.094  1.00  0.00     0.014 A 
ATOM     30  C   UNL A   1      35.356  34.094  27.951  1.00  0.00     0.014 A 
ATOM     31  C   UNL A   1      35.722  32.904  30.452  1.00  0.00     0.010 A 
ATOM     32  C   UNL A   1      36.571  33.539  28.263  1.00  0.00     0.010 A 
ATOM     33  C   UNL A   1      36.771  32.977  29.523  1.00  0.00    -0.014 A 
BRANCH  33  34
ATOM     34  C   UNL A   1      38.047  32.310  29.773  1.00  0.00     0.031 A 
ATOM     35  C   UNL A   1      38.064  30.862  29.414  1.00  0.00     0.074 A 
ATOM     36  C   UNL A   1      39.176  33.010  30.030  1.00  0.00     0.049 A 
ATOM     37  N   UNL A   1      38.286  29.854  30.193  1.00  0.00    -0.248 NA
ATOM     38  C   UNL A   1      37.663  30.474  28.049  1.00  0.00     0.031 C 
ATOM     39  C   UNL A   1      39.330  34.470  30.092  1.00  0.00     0.029 A 
ATOM     40  N   UNL A   1      40.461  32.576  30.143  1.00  0.00    -0.354 N 
ATOM     41  C   UNL A   1      38.264  28.723  29.378  1.00  0.00     0.074 A 
ATOM     42  C   UNL A   1      37.698  29.142  28.123  1.00  0.00     0.031 C 
ATOM     43  C   UNL A   1      40.634  34.795  29.964  1.00  0.00     0.029 A 
ATOM     44  C   UNL A   1      41.420  33.576  29.983  1.00  0.00     0.049 A 
ATOM     45  H   UNL A   1      40.695  31.636  30.322  1.00  0.00     0.167 HD
ATOM     46  C   UNL A   1      38.971  27.604  29.706  1.00  0.00     0.031 A 
ATOM     47  C   UNL A   1      42.760  33.417  29.841  1.00  0.00     0.031 A 
ATOM     48  C   UNL A   1      39.381  27.632  31.088  1.00  0.00     0.049 A 
ATOM     49  C   UNL A   1      43.096  32.061  30.325  1.00  0.00     0.074 A 
ATOM     50  C   UNL A   1      38.731  27.688  32.304  1.00  0.00     0.029 A 
ATOM     51  N   UNL A   1      40.680  28.004  31.333  1.00  0.00    -0.354 N 
ATOM     52  N   UNL A   1      42.985  31.700  31.571  1.00  0.00    -0.248 NA
ATOM     53  C   UNL A   1      43.104  30.977  29.357  1.00  0.00     0.031 C 
ATOM     54  C   UNL A   1      39.542  28.540  33.111  1.00  0.00     0.029 A 
ATOM     55  C   UNL A   1      40.677  28.889  32.376  1.00  0.00     0.049 A 
ATOM     56  H   UNL A   1      41.474  27.688  30.844  1.00  0.00     0.167 HD
ATOM     57  C   UNL A   1      42.443  30.426  31.516  1.00  0.00     0.074 A 
ATOM     58  C   UNL A   1      42.641  29.991  30.131  1.00  0.00     0.031 C 
ATOM     59  C   UNL A   1      41.627  29.969  32.512  1.00  0.00     0.031 A 
BRANCH  46  60
ATOM     60  C   UNL A   1      39.704  26.747  28.692  1.00  0.00    -0.014 A 
ATOM     61  C   UNL A   1      40.619  27.380  27.827  1.00  0.00     0.009 A 
ATOM     62  C   UNL A   1      39.308  25.444  28.341  1.00  0.00     0.009 A 
ATOM     63  C   UNL A   1      41.013  26.789  26.620  1.00  0.00     0.001 A 
ATOM     64  C   UNL A   1      39.734  24.833  27.156  1.00  0.00     0.001 A 
ATOM     65  C   UNL A   1      40.556  25.523  26.277  1.00  0.00     0.000 A 
ENDBRANCH  46  60
BRANCH  47  66
ATOM     66  C   UNL A   1      43.731  34.243  29.088  1.00  0.00    -0.014 A 
ATOM     67  C   UNL A   1      43.399  34.799  27.841  1.00  0.00     0.009 A 
ATOM     68  C   UNL A   1      44.894  34.717  29.722  1.00  0.00     0.009 A 
ATOM     69  C   UNL A   1      44.182  35.814  27.269  1.00  0.00     0.001 A 
ATOM     70  C   UNL A   1      45.676  35.729  29.152  1.00  0.00     0.001 A 
ATOM     71  C   UNL A   1      45.312  36.287  27.932  1.00  0.00     0.000 A 
ENDBRANCH  47  66
BRANCH  59  72
ATOM     72  C   UNL A   1      41.526  30.791  33.773  1.00  0.00    -0.014 A 
ATOM     73  C   UNL A   1      40.629  31.864  33.931  1.00  0.00     0.009 A 
ATOM     74  C   UNL A   1      42.250  30.362  34.894  1.00  0.00     0.009 A 
ATOM     75  C   UNL A   1      40.486  32.502  35.168  1.00  0.00     0.001 A 
ATOM     76  C   UNL A   1      42.091  30.984  36.133  1.00  0.00     0.001 A 
ATOM     77  C   UNL A   1      41.213  32.057  36.270  1.00  0.00     0.000 A 
ENDBRANCH  59  72
ENDBRANCH  33  34
ENDBRANCH  25  28
ENDBRANCH  23  24
ENDBRANCH  22  23
ENDBRANCH   1  22
TORSDOF 14
ENDMDL
