MODEL 1
REMARK VINA RESULT:     -11.1      0.000      0.000
REMARK SMILES Cc1nc(C[C@H](C(=O)NCCCCNC(=O)c2ccc(-c3c4nc(c(-c5ccccc5)c5ccc([nH]5)c(-c5ccccc5)c5nc(c(-c6ccccc6)c6ccc3[nH]6)C=C5)C=C4)cc2)c2ccccc2Br)cs1
REMARK SMILES IDX 11 1 10 2 9 3 7 4 8 5 6 7 5 8 4 9 1 10 2 11 3 12 73 13 72 14
REMARK SMILES IDX 65 15 66 16 70 17 67 18 69 19 71 20 68 21 12 22 13 23 14 24
REMARK SMILES IDX 15 25 16 27 17 28 18 29 64 30 19 31 63 32 20 33 21 34 22 35
REMARK SMILES IDX 57 36 23 37 62 38 56 39 58 40 24 41 61 42 55 43 54 44 25 46
REMARK SMILES IDX 47 47 32 48 46 49 33 50 36 51 45 52 59 53 34 54 35 55 44 57
REMARK SMILES IDX 60 58 37 59 26 60 27 61 31 62 28 63 30 64 29 65 48 66 49 67
REMARK SMILES IDX 53 68 50 69 52 70 51 71 38 72 39 73 43 74 40 75 42 76 41 77
REMARK H PARENT 9 6 14 26 58 45 36 56
REMARK Flexibility Score: inf
ROOT
ATOM      1  C   UNL A   1      31.796  30.159  26.811  1.00  0.00     0.023 C 
ENDROOT
BRANCH   1   2
ATOM      2  C   UNL A   1      33.174  29.581  26.486  1.00  0.00     0.116 C 
BRANCH   2   3
ATOM      3  N   UNL A   1      33.459  29.677  25.071  1.00  0.00    -0.356 N 
ATOM      4  C   UNL A   1      33.028  28.898  24.035  1.00  0.00     0.227 C 
ATOM      5  O   UNL A   1      33.469  29.186  22.919  1.00  0.00    -0.274 OA
ATOM      6  H   UNL A   1      34.055  30.418  24.816  1.00  0.00     0.163 HD
BRANCH   4   7
ATOM      7  C   UNL A   1      31.985  27.778  24.248  1.00  0.00     0.115 C 
BRANCH   7   8
ATOM      8  C   UNL A   1      31.177  27.614  22.942  1.00  0.00     0.075 C 
BRANCH   8   9
ATOM      9  C   UNL A   1      29.849  28.298  22.798  1.00  0.00     0.053 A 
ATOM     10  C   UNL A   1      28.280  31.141  21.106  1.00  0.00     0.079 C 
ATOM     11  C   UNL A   1      28.630  29.936  21.903  1.00  0.00     0.090 A 
ATOM     12  N   UNL A   1      29.840  29.431  21.990  1.00  0.00    -0.247 NA
ATOM     13  S   UNL A   1      27.425  29.106  22.794  1.00  0.00    -0.127 S 
ATOM     14  C   UNL A   1      28.613  27.993  23.333  1.00  0.00     0.090 A 
ENDBRANCH   8   9
ENDBRANCH   7   8
BRANCH   7  15
ATOM     15  C   UNL A   1      32.581  26.489  24.823  1.00  0.00    -0.021 A 
ATOM     16  C   UNL A   1      33.955  26.246  24.572  1.00  0.00     0.006 A 
ATOM     17  C   UNL A   1      31.877  25.510  25.545  1.00  0.00     0.021 A 
ATOM     18  C   UNL A   1      34.590  25.079  24.999  1.00  0.00     0.000 A 
ATOM     19  C   UNL A   1      32.525  24.345  25.985  1.00  0.00     0.016 A 
ATOM     20  Br  UNL A   1      30.022  25.610  25.933  1.00  0.00    -0.051 Br
ATOM     21  C   UNL A   1      33.873  24.126  25.707  1.00  0.00     0.001 A 
ENDBRANCH   7  15
ENDBRANCH   4   7
ENDBRANCH   2   3
ENDBRANCH   1   2
BRANCH   1  22
ATOM     22  C   UNL A   1      31.692  31.675  26.660  1.00  0.00     0.023 C 
BRANCH  22  23
ATOM     23  C   UNL A   1      32.829  32.449  27.313  1.00  0.00     0.116 C 
BRANCH  23  24
ATOM     24  N   UNL A   1      32.469  33.808  27.690  1.00  0.00    -0.352 N 
ATOM     25  C   UNL A   1      33.128  34.653  28.554  1.00  0.00     0.251 C 
ATOM     26  H   UNL A   1      31.650  34.167  27.277  1.00  0.00     0.163 HD
ATOM     27  O   UNL A   1      32.669  35.747  28.838  1.00  0.00    -0.269 OA
BRANCH  25  28
ATOM     28  C   UNL A   1      34.384  34.183  29.176  1.00  0.00     0.039 A 
ATOM     29  C   UNL A   1      34.312  33.488  30.384  1.00  0.00     0.014 A 
ATOM     30  C   UNL A   1      35.608  34.361  28.527  1.00  0.00     0.014 A 
ATOM     31  C   UNL A   1      35.465  32.901  30.906  1.00  0.00     0.010 A 
ATOM     32  C   UNL A   1      36.740  33.717  29.011  1.00  0.00     0.010 A 
ATOM     33  C   UNL A   1      36.677  32.975  30.201  1.00  0.00    -0.014 A 
BRANCH  33  34
ATOM     34  C   UNL A   1      37.892  32.276  30.684  1.00  0.00     0.031 A 
ATOM     35  C   UNL A   1      38.712  32.873  31.792  1.00  0.00     0.074 A 
ATOM     36  C   UNL A   1      38.296  31.143  30.077  1.00  0.00     0.049 A 
ATOM     37  N   UNL A   1      39.840  32.451  32.302  1.00  0.00    -0.248 NA
ATOM     38  C   UNL A   1      38.213  34.124  32.386  1.00  0.00     0.031 C 
ATOM     39  C   UNL A   1      37.613  30.488  28.958  1.00  0.00     0.029 A 
ATOM     40  N   UNL A   1      39.387  30.346  30.312  1.00  0.00    -0.354 N 
ATOM     41  C   UNL A   1      40.196  33.392  33.259  1.00  0.00     0.074 A 
ATOM     42  C   UNL A   1      39.188  34.430  33.228  1.00  0.00     0.031 C 
ATOM     43  C   UNL A   1      38.288  29.376  28.623  1.00  0.00     0.029 A 
ATOM     44  C   UNL A   1      39.465  29.259  29.477  1.00  0.00     0.049 A 
ATOM     45  H   UNL A   1      40.051  30.535  31.013  1.00  0.00     0.167 HD
ATOM     46  C   UNL A   1      41.254  33.384  34.103  1.00  0.00     0.031 A 
ATOM     47  C   UNL A   1      40.385  28.278  29.405  1.00  0.00     0.031 A 
ATOM     48  C   UNL A   1      42.243  32.343  34.150  1.00  0.00     0.049 A 
ATOM     49  C   UNL A   1      41.545  28.289  30.359  1.00  0.00     0.074 A 
ATOM     50  C   UNL A   1      43.321  32.216  35.010  1.00  0.00     0.029 A 
ATOM     51  N   UNL A   1      42.274  31.247  33.303  1.00  0.00    -0.354 N 
ATOM     52  N   UNL A   1      41.831  29.153  31.303  1.00  0.00    -0.248 NA
ATOM     53  C   UNL A   1      42.504  27.180  30.245  1.00  0.00     0.031 C 
ATOM     54  C   UNL A   1      44.024  31.059  34.659  1.00  0.00     0.029 A 
ATOM     55  C   UNL A   1      43.359  30.445  33.610  1.00  0.00     0.049 A 
ATOM     56  H   UNL A   1      41.620  31.065  32.590  1.00  0.00     0.167 HD
ATOM     57  C   UNL A   1      42.986  28.680  31.911  1.00  0.00     0.074 A 
ATOM     58  C   UNL A   1      43.340  27.446  31.239  1.00  0.00     0.031 C 
ATOM     59  C   UNL A   1      43.692  29.220  32.934  1.00  0.00     0.031 A 
BRANCH  46  60
ATOM     60  C   UNL A   1      41.389  34.544  35.048  1.00  0.00    -0.014 A 
ATOM     61  C   UNL A   1      42.123  35.686  34.692  1.00  0.00     0.009 A 
ATOM     62  C   UNL A   1      40.750  34.507  36.297  1.00  0.00     0.009 A 
ATOM     63  C   UNL A   1      42.244  36.755  35.581  1.00  0.00     0.001 A 
ATOM     64  C   UNL A   1      40.851  35.589  37.174  1.00  0.00     0.001 A 
ATOM     65  C   UNL A   1      41.605  36.706  36.820  1.00  0.00     0.000 A 
ENDBRANCH  46  60
BRANCH  47  66
ATOM     66  C   UNL A   1      40.240  27.189  28.406  1.00  0.00    -0.014 A 
ATOM     67  C   UNL A   1      40.815  27.316  27.132  1.00  0.00     0.009 A 
ATOM     68  C   UNL A   1      39.516  26.028  28.713  1.00  0.00     0.009 A 
ATOM     69  C   UNL A   1      40.643  26.313  26.175  1.00  0.00     0.001 A 
ATOM     70  C   UNL A   1      39.367  25.015  27.762  1.00  0.00     0.001 A 
ATOM     71  C   UNL A   1      39.922  25.162  26.491  1.00  0.00     0.000 A 
ENDBRANCH  47  66
BRANCH  59  72
ATOM     72  C   UNL A   1      44.896  28.461  33.410  1.00  0.00    -0.014 A 
ATOM     73  C   UNL A   1      44.778  27.433  34.358  1.00  0.00     0.009 A 
ATOM     74  C   UNL A   1      46.158  28.751  32.869  1.00  0.00     0.009 A 
ATOM     75  C   UNL A   1      45.909  26.731  34.779  1.00  0.00     0.001 A 
ATOM     76  C   UNL A   1      47.282  28.031  33.273  1.00  0.00     0.001 A 
ATOM     77  C   UNL A   1      47.158  27.027  34.233  1.00  0.00     0.000 A 
ENDBRANCH  59  72
ENDBRANCH  33  34
ENDBRANCH  25  28
ENDBRANCH  23  24
ENDBRANCH  22  23
ENDBRANCH   1  22
TORSDOF 14
ENDMDL
MODEL 2
REMARK VINA RESULT:     -11.1      5.503     10.205
REMARK SMILES Cc1nc(C[C@H](C(=O)NCCCCNC(=O)c2ccc(-c3c4nc(c(-c5ccccc5)c5ccc([nH]5)c(-c5ccccc5)c5nc(c(-c6ccccc6)c6ccc3[nH]6)C=C5)C=C4)cc2)c2ccccc2Br)cs1
REMARK SMILES IDX 11 1 10 2 9 3 7 4 8 5 6 7 5 8 4 9 1 10 2 11 3 12 73 13 72 14
REMARK SMILES IDX 65 15 66 16 70 17 67 18 69 19 71 20 68 21 12 22 13 23 14 24
REMARK SMILES IDX 15 25 16 27 17 28 18 29 64 30 19 31 63 32 20 33 21 34 22 35
REMARK SMILES IDX 57 36 23 37 62 38 56 39 58 40 24 41 61 42 55 43 54 44 25 46
REMARK SMILES IDX 47 47 32 48 46 49 33 50 36 51 45 52 59 53 34 54 35 55 44 57
REMARK SMILES IDX 60 58 37 59 26 60 27 61 31 62 28 63 30 64 29 65 48 66 49 67
REMARK SMILES IDX 53 68 50 69 52 70 51 71 38 72 39 73 43 74 40 75 42 76 41 77
REMARK H PARENT 9 6 14 26 58 45 36 56
REMARK Flexibility Score: inf
ROOT
ATOM      1  C   UNL A   1      37.132  21.155  24.910  1.00  0.00     0.023 C 
ENDROOT
BRANCH   1   2
ATOM      2  C   UNL A   1      35.665  20.733  25.001  1.00  0.00     0.116 C 
BRANCH   2   3
ATOM      3  N   UNL A   1      35.103  21.077  26.289  1.00  0.00    -0.356 N 
ATOM      4  C   UNL A   1      33.938  21.722  26.592  1.00  0.00     0.227 C 
ATOM      5  O   UNL A   1      33.726  21.923  27.791  1.00  0.00    -0.274 OA
ATOM      6  H   UNL A   1      35.644  20.805  27.066  1.00  0.00     0.163 HD
BRANCH   4   7
ATOM      7  C   UNL A   1      32.915  22.097  25.496  1.00  0.00     0.115 C 
BRANCH   7   8
ATOM      8  C   UNL A   1      31.892  20.946  25.376  1.00  0.00     0.075 C 
BRANCH   8   9
ATOM      9  C   UNL A   1      32.293  19.660  24.713  1.00  0.00     0.053 A 
ATOM     10  C   UNL A   1      33.010  16.156  25.498  1.00  0.00     0.079 C 
ATOM     11  C   UNL A   1      32.778  17.491  24.887  1.00  0.00     0.090 A 
ATOM     12  N   UNL A   1      32.458  18.571  25.563  1.00  0.00    -0.247 NA
ATOM     13  S   UNL A   1      32.921  17.704  23.193  1.00  0.00    -0.127 S 
ATOM     14  C   UNL A   1      32.528  19.363  23.385  1.00  0.00     0.090 A 
ENDBRANCH   8   9
ENDBRANCH   7   8
BRANCH   7  15
ATOM     15  C   UNL A   1      32.318  23.496  25.671  1.00  0.00    -0.021 A 
ATOM     16  C   UNL A   1      30.941  23.574  25.997  1.00  0.00     0.006 A 
ATOM     17  C   UNL A   1      33.007  24.709  25.501  1.00  0.00     0.021 A 
ATOM     18  C   UNL A   1      30.278  24.795  26.126  1.00  0.00     0.000 A 
ATOM     19  C   UNL A   1      32.339  25.935  25.646  1.00  0.00     0.016 A 
ATOM     20  Br  UNL A   1      34.834  24.828  25.002  1.00  0.00    -0.051 Br
ATOM     21  C   UNL A   1      30.979  25.979  25.949  1.00  0.00     0.001 A 
ENDBRANCH   7  15
ENDBRANCH   4   7
ENDBRANCH   2   3
ENDBRANCH   1   2
BRANCH   1  22
ATOM     22  C   UNL A   1      38.128  19.997  24.924  1.00  0.00     0.023 C 
BRANCH  22  23
ATOM     23  C   UNL A   1      39.297  20.187  25.882  1.00  0.00     0.116 C 
BRANCH  23  24
ATOM     24  N   UNL A   1      40.261  19.097  25.850  1.00  0.00    -0.352 N 
ATOM     25  C   UNL A   1      41.619  19.158  26.066  1.00  0.00     0.251 C 
ATOM     26  H   UNL A   1      39.896  18.205  25.648  1.00  0.00     0.163 HD
ATOM     27  O   UNL A   1      42.322  18.170  25.933  1.00  0.00    -0.269 OA
BRANCH  25  28
ATOM     28  C   UNL A   1      42.218  20.464  26.412  1.00  0.00     0.039 A 
ATOM     29  C   UNL A   1      42.646  21.298  25.377  1.00  0.00     0.014 A 
ATOM     30  C   UNL A   1      42.282  20.886  27.742  1.00  0.00     0.014 A 
ATOM     31  C   UNL A   1      43.067  22.594  25.672  1.00  0.00     0.010 A 
ATOM     32  C   UNL A   1      42.635  22.200  28.027  1.00  0.00     0.010 A 
ATOM     33  C   UNL A   1      43.024  23.067  26.994  1.00  0.00    -0.014 A 
BRANCH  33  34
ATOM     34  C   UNL A   1      43.371  24.471  27.320  1.00  0.00     0.031 A 
ATOM     35  C   UNL A   1      44.805  24.921  27.272  1.00  0.00     0.074 A 
ATOM     36  C   UNL A   1      42.408  25.320  27.729  1.00  0.00     0.049 A 
ATOM     37  N   UNL A   1      45.314  26.083  27.589  1.00  0.00    -0.248 NA
ATOM     38  C   UNL A   1      45.797  23.926  26.837  1.00  0.00     0.031 C 
ATOM     39  C   UNL A   1      40.986  24.992  27.863  1.00  0.00     0.029 A 
ATOM     40  N   UNL A   1      42.483  26.634  28.115  1.00  0.00    -0.354 N 
ATOM     41  C   UNL A   1      46.685  25.952  27.414  1.00  0.00     0.074 A 
ATOM     42  C   UNL A   1      46.933  24.587  27.005  1.00  0.00     0.031 C 
ATOM     43  C   UNL A   1      40.321  26.083  28.276  1.00  0.00     0.029 A 
ATOM     44  C   UNL A   1      41.271  27.174  28.468  1.00  0.00     0.049 A 
ATOM     45  H   UNL A   1      43.326  27.142  28.137  1.00  0.00     0.167 HD
ATOM     46  C   UNL A   1      47.651  26.890  27.558  1.00  0.00     0.031 A 
ATOM     47  C   UNL A   1      40.959  28.410  28.902  1.00  0.00     0.031 A 
ATOM     48  C   UNL A   1      47.405  28.253  27.942  1.00  0.00     0.049 A 
ATOM     49  C   UNL A   1      42.050  29.434  29.045  1.00  0.00     0.074 A 
ATOM     50  C   UNL A   1      48.311  29.292  28.059  1.00  0.00     0.029 A 
ATOM     51  N   UNL A   1      46.161  28.766  28.268  1.00  0.00    -0.354 N 
ATOM     52  N   UNL A   1      43.334  29.312  28.811  1.00  0.00    -0.248 NA
ATOM     53  C   UNL A   1      41.644  30.771  29.502  1.00  0.00     0.031 C 
ATOM     54  C   UNL A   1      47.618  30.428  28.491  1.00  0.00     0.029 A 
ATOM     55  C   UNL A   1      46.275  30.104  28.601  1.00  0.00     0.049 A 
ATOM     56  H   UNL A   1      45.319  28.255  28.264  1.00  0.00     0.167 HD
ATOM     57  C   UNL A   1      43.885  30.560  29.067  1.00  0.00     0.074 A 
ATOM     58  C   UNL A   1      42.794  31.429  29.460  1.00  0.00     0.031 C 
ATOM     59  C   UNL A   1      45.179  30.953  28.985  1.00  0.00     0.031 A 
BRANCH  46  60
ATOM     60  C   UNL A   1      49.067  26.465  27.293  1.00  0.00    -0.014 A 
ATOM     61  C   UNL A   1      49.588  26.455  25.990  1.00  0.00     0.009 A 
ATOM     62  C   UNL A   1      49.899  26.099  28.362  1.00  0.00     0.009 A 
ATOM     63  C   UNL A   1      50.905  26.054  25.758  1.00  0.00     0.001 A 
ATOM     64  C   UNL A   1      51.224  25.722  28.129  1.00  0.00     0.001 A 
ATOM     65  C   UNL A   1      51.722  25.691  26.828  1.00  0.00     0.000 A 
ENDBRANCH  46  60
BRANCH  47  66
ATOM     66  C   UNL A   1      39.551  28.760  29.213  1.00  0.00    -0.014 A 
ATOM     67  C   UNL A   1      38.712  29.278  28.214  1.00  0.00     0.009 A 
ATOM     68  C   UNL A   1      39.041  28.594  30.509  1.00  0.00     0.009 A 
ATOM     69  C   UNL A   1      37.399  29.648  28.514  1.00  0.00     0.001 A 
ATOM     70  C   UNL A   1      37.719  28.942  30.801  1.00  0.00     0.001 A 
ATOM     71  C   UNL A   1      36.903  29.479  29.806  1.00  0.00     0.000 A 
ENDBRANCH  47  66
BRANCH  59  72
ATOM     72  C   UNL A   1      45.479  32.390  29.293  1.00  0.00    -0.014 A 
ATOM     73  C   UNL A   1      45.420  33.375  28.294  1.00  0.00     0.009 A 
ATOM     74  C   UNL A   1      45.784  32.769  30.609  1.00  0.00     0.009 A 
ATOM     75  C   UNL A   1      45.691  34.709  28.604  1.00  0.00     0.001 A 
ATOM     76  C   UNL A   1      46.029  34.106  30.921  1.00  0.00     0.001 A 
ATOM     77  C   UNL A   1      45.990  35.073  29.917  1.00  0.00     0.000 A 
ENDBRANCH  59  72
ENDBRANCH  33  34
ENDBRANCH  25  28
ENDBRANCH  23  24
ENDBRANCH  22  23
ENDBRANCH   1  22
TORSDOF 14
ENDMDL
MODEL 3
REMARK VINA RESULT:     -10.9      2.020      6.831
REMARK SMILES Cc1nc(C[C@H](C(=O)NCCCCNC(=O)c2ccc(-c3c4nc(c(-c5ccccc5)c5ccc([nH]5)c(-c5ccccc5)c5nc(c(-c6ccccc6)c6ccc3[nH]6)C=C5)C=C4)cc2)c2ccccc2Br)cs1
REMARK SMILES IDX 11 1 10 2 9 3 7 4 8 5 6 7 5 8 4 9 1 10 2 11 3 12 73 13 72 14
REMARK SMILES IDX 65 15 66 16 70 17 67 18 69 19 71 20 68 21 12 22 13 23 14 24
REMARK SMILES IDX 15 25 16 27 17 28 18 29 64 30 19 31 63 32 20 33 21 34 22 35
REMARK SMILES IDX 57 36 23 37 62 38 56 39 58 40 24 41 61 42 55 43 54 44 25 46
REMARK SMILES IDX 47 47 32 48 46 49 33 50 36 51 45 52 59 53 34 54 35 55 44 57
REMARK SMILES IDX 60 58 37 59 26 60 27 61 31 62 28 63 30 64 29 65 48 66 49 67
REMARK SMILES IDX 53 68 50 69 52 70 51 71 38 72 39 73 43 74 40 75 42 76 41 77
REMARK H PARENT 9 6 14 26 58 45 36 56
REMARK Flexibility Score: inf
ROOT
ATOM      1  C   UNL A   1      31.638  29.141  27.252  1.00  0.00     0.023 C 
ENDROOT
BRANCH   1   2
ATOM      2  C   UNL A   1      32.277  27.847  26.745  1.00  0.00     0.116 C 
BRANCH   2   3
ATOM      3  N   UNL A   1      31.371  26.728  26.887  1.00  0.00    -0.356 N 
ATOM      4  C   UNL A   1      30.774  25.956  25.931  1.00  0.00     0.227 C 
ATOM      5  O   UNL A   1      30.003  25.084  26.340  1.00  0.00    -0.274 OA
ATOM      6  H   UNL A   1      31.150  26.486  27.816  1.00  0.00     0.163 HD
BRANCH   4   7
ATOM      7  C   UNL A   1      31.117  26.120  24.433  1.00  0.00     0.115 C 
BRANCH   7   8
ATOM      8  C   UNL A   1      30.945  24.748  23.745  1.00  0.00     0.075 C 
BRANCH   8   9
ATOM      9  C   UNL A   1      32.008  23.700  23.897  1.00  0.00     0.053 A 
ATOM     10  C   UNL A   1      35.587  23.174  23.327  1.00  0.00     0.079 C 
ATOM     11  C   UNL A   1      34.143  23.097  23.668  1.00  0.00     0.090 A 
ATOM     12  N   UNL A   1      33.280  24.066  23.464  1.00  0.00    -0.247 NA
ATOM     13  S   UNL A   1      33.494  21.676  24.374  1.00  0.00    -0.127 S 
ATOM     14  C   UNL A   1      31.948  22.417  24.405  1.00  0.00     0.090 A 
ENDBRANCH   8   9
ENDBRANCH   7   8
BRANCH   7  15
ATOM     15  C   UNL A   1      30.391  27.291  23.764  1.00  0.00    -0.021 A 
ATOM     16  C   UNL A   1      28.976  27.222  23.701  1.00  0.00     0.006 A 
ATOM     17  C   UNL A   1      31.006  28.409  23.176  1.00  0.00     0.021 A 
ATOM     18  C   UNL A   1      28.215  28.204  23.068  1.00  0.00     0.000 A 
ATOM     19  C   UNL A   1      30.233  29.402  22.551  1.00  0.00     0.016 A 
ATOM     20  Br  UNL A   1      32.884  28.664  23.094  1.00  0.00    -0.051 Br
ATOM     21  C   UNL A   1      28.845  29.296  22.491  1.00  0.00     0.001 A 
ENDBRANCH   7  15
ENDBRANCH   4   7
ENDBRANCH   2   3
ENDBRANCH   1   2
BRANCH   1  22
ATOM     22  C   UNL A   1      31.937  30.372  26.400  1.00  0.00     0.023 C 
BRANCH  22  23
ATOM     23  C   UNL A   1      32.983  31.307  26.995  1.00  0.00     0.116 C 
BRANCH  23  24
ATOM     24  N   UNL A   1      32.471  32.634  27.305  1.00  0.00    -0.352 N 
ATOM     25  C   UNL A   1      33.058  33.611  28.076  1.00  0.00     0.251 C 
ATOM     26  H   UNL A   1      31.596  32.860  26.914  1.00  0.00     0.163 HD
ATOM     27  O   UNL A   1      32.477  34.657  28.315  1.00  0.00    -0.269 OA
BRANCH  25  28
ATOM     28  C   UNL A   1      34.389  33.343  28.657  1.00  0.00     0.039 A 
ATOM     29  C   UNL A   1      34.463  32.691  29.889  1.00  0.00     0.014 A 
ATOM     30  C   UNL A   1      35.551  33.667  27.951  1.00  0.00     0.014 A 
ATOM     31  C   UNL A   1      35.706  32.289  30.379  1.00  0.00     0.010 A 
ATOM     32  C   UNL A   1      36.780  33.204  28.405  1.00  0.00     0.010 A 
ATOM     33  C   UNL A   1      36.868  32.506  29.619  1.00  0.00    -0.014 A 
BRANCH  33  34
ATOM     34  C   UNL A   1      38.186  32.000  30.071  1.00  0.00     0.031 A 
ATOM     35  C   UNL A   1      38.709  30.692  29.548  1.00  0.00     0.074 A 
ATOM     36  C   UNL A   1      38.878  32.681  31.005  1.00  0.00     0.049 A 
ATOM     37  N   UNL A   1      39.802  30.051  29.874  1.00  0.00    -0.248 NA
ATOM     38  C   UNL A   1      37.880  30.000  28.547  1.00  0.00     0.031 C 
ATOM     39  C   UNL A   1      38.456  33.940  31.627  1.00  0.00     0.029 A 
ATOM     40  N   UNL A   1      40.083  32.404  31.600  1.00  0.00    -0.354 N 
ATOM     41  C   UNL A   1      39.781  28.875  29.137  1.00  0.00     0.074 A 
ATOM     42  C   UNL A   1      38.548  28.869  28.381  1.00  0.00     0.031 C 
ATOM     43  C   UNL A   1      39.399  34.337  32.497  1.00  0.00     0.029 A 
ATOM     44  C   UNL A   1      40.472  33.348  32.519  1.00  0.00     0.049 A 
ATOM     45  H   UNL A   1      40.616  31.605  31.390  1.00  0.00     0.167 HD
ATOM     46  C   UNL A   1      40.715  27.896  29.078  1.00  0.00     0.031 A 
ATOM     47  C   UNL A   1      41.570  33.408  33.296  1.00  0.00     0.031 A 
ATOM     48  C   UNL A   1      41.950  27.911  29.812  1.00  0.00     0.049 A 
ATOM     49  C   UNL A   1      42.595  32.313  33.204  1.00  0.00     0.074 A 
ATOM     50  C   UNL A   1      42.987  26.995  29.774  1.00  0.00     0.029 A 
ATOM     51  N   UNL A   1      42.319  28.896  30.714  1.00  0.00    -0.354 N 
ATOM     52  N   UNL A   1      42.592  31.239  32.452  1.00  0.00    -0.248 NA
ATOM     53  C   UNL A   1      43.782  32.445  34.062  1.00  0.00     0.031 C 
ATOM     54  C   UNL A   1      43.967  27.408  30.681  1.00  0.00     0.029 A 
ATOM     55  C   UNL A   1      43.560  28.604  31.251  1.00  0.00     0.049 A 
ATOM     56  H   UNL A   1      41.777  29.688  30.939  1.00  0.00     0.167 HD
ATOM     57  C   UNL A   1      43.783  30.582  32.726  1.00  0.00     0.074 A 
ATOM     58  C   UNL A   1      44.492  31.385  33.702  1.00  0.00     0.031 C 
ATOM     59  C   UNL A   1      44.250  29.416  32.216  1.00  0.00     0.031 A 
BRANCH  46  60
ATOM     60  C   UNL A   1      40.428  26.726  28.181  1.00  0.00    -0.014 A 
ATOM     61  C   UNL A   1      39.654  25.645  28.628  1.00  0.00     0.009 A 
ATOM     62  C   UNL A   1      40.913  26.719  26.864  1.00  0.00     0.009 A 
ATOM     63  C   UNL A   1      39.399  24.561  27.785  1.00  0.00     0.001 A 
ATOM     64  C   UNL A   1      40.635  25.645  26.015  1.00  0.00     0.001 A 
ATOM     65  C   UNL A   1      39.888  24.565  26.479  1.00  0.00     0.000 A 
ENDBRANCH  46  60
BRANCH  47  66
ATOM     66  C   UNL A   1      41.773  34.555  34.215  1.00  0.00    -0.014 A 
ATOM     67  C   UNL A   1      41.277  34.507  35.528  1.00  0.00     0.009 A 
ATOM     68  C   UNL A   1      42.448  35.708  33.786  1.00  0.00     0.009 A 
ATOM     69  C   UNL A   1      41.428  35.602  36.382  1.00  0.00     0.001 A 
ATOM     70  C   UNL A   1      42.619  36.792  34.651  1.00  0.00     0.001 A 
ATOM     71  C   UNL A   1      42.100  36.742  35.944  1.00  0.00     0.000 A 
ENDBRANCH  47  66
BRANCH  59  72
ATOM     72  C   UNL A   1      45.602  28.960  32.678  1.00  0.00    -0.014 A 
ATOM     73  C   UNL A   1      45.748  28.160  33.822  1.00  0.00     0.009 A 
ATOM     74  C   UNL A   1      46.742  29.303  31.934  1.00  0.00     0.009 A 
ATOM     75  C   UNL A   1      47.014  27.736  34.228  1.00  0.00     0.001 A 
ATOM     76  C   UNL A   1      48.004  28.857  32.329  1.00  0.00     0.001 A 
ATOM     77  C   UNL A   1      48.139  28.081  33.480  1.00  0.00     0.000 A 
ENDBRANCH  59  72
ENDBRANCH  33  34
ENDBRANCH  25  28
ENDBRANCH  23  24
ENDBRANCH  22  23
ENDBRANCH   1  22
TORSDOF 14
ENDMDL
