MODEL 1
REMARK VINA RESULT:     -12.0      0.000      0.000
REMARK SMILES CCN(C(=O)Cc1c(C(=O)NCCCCNC(=O)c2ccc(-c3c4nc(c(-c5ccccc5)c5ccc([nH]5)c(-c5ccccc5)c5nc(c(-c6ccccc6)c6ccc3[nH]6)C=C5)C=C4)cc2)[nH]c2ccc(Cl)cc12)c1ccc(C)c(C)c1
REMARK SMILES IDX 12 1 11 2 9 3 10 4 8 6 7 7 74 8 67 9 68 10 73 11 69 13 71 14
REMARK SMILES IDX 70 15 72 16 6 17 4 18 5 19 3 20 2 21 1 22 75 23 76 24 82 25
REMARK SMILES IDX 77 26 80 27 78 28 81 29 79 30 13 31 14 32 15 33 16 34 17 35
REMARK SMILES IDX 18 37 19 38 20 39 66 40 21 41 65 42 22 43 23 44 24 45 59 46
REMARK SMILES IDX 25 47 64 48 58 49 60 50 26 51 63 52 57 53 56 54 27 56 49 57
REMARK SMILES IDX 34 58 48 59 35 60 38 61 47 62 61 63 36 64 37 65 46 67 62 68
REMARK SMILES IDX 39 69 28 70 29 71 33 72 30 73 32 74 31 75 50 76 51 77 55 78
REMARK SMILES IDX 52 79 54 80 53 81 40 82 41 83 45 84 42 85 44 86 43 87
REMARK H PARENT 11 5 67 12 16 36 60 55 38 66
REMARK Flexibility Score: inf
ROOT
ATOM      1  C   UNL A   1      35.279  20.713  25.701  1.00  0.00     0.116 C 
ENDROOT
BRANCH   1   2
ATOM      2  N   UNL A   1      33.973  20.060  25.562  1.00  0.00    -0.351 N 
ATOM      3  C   UNL A   1      32.788  20.345  24.917  1.00  0.00     0.268 C 
ATOM      4  O   UNL A   1      32.235  19.386  24.372  1.00  0.00    -0.268 OA
ATOM      5  H   UNL A   1      33.933  19.206  26.050  1.00  0.00     0.163 HD
BRANCH   3   6
ATOM      6  C   UNL A   1      32.174  21.653  24.843  1.00  0.00     0.109 A 
ATOM      7  C   UNL A   1      32.244  22.722  23.959  1.00  0.00    -0.000 A 
ATOM      8  C   UNL A   1      31.210  23.646  24.365  1.00  0.00     0.005 A 
ATOM      9  N   UNL A   1      31.629  22.226  25.994  1.00  0.00    -0.350 N 
ATOM     10  C   UNL A   1      31.029  23.432  25.726  1.00  0.00     0.046 A 
ATOM     11  C   UNL A   1      30.539  24.734  23.763  1.00  0.00     0.031 A 
ATOM     12  H   UNL A   1      31.670  21.816  26.888  1.00  0.00     0.167 HD
ATOM     13  C   UNL A   1      30.370  24.350  26.558  1.00  0.00     0.028 A 
ATOM     14  C   UNL A   1      29.758  25.580  24.561  1.00  0.00     0.041 A 
ATOM     15  C   UNL A   1      29.726  25.432  25.945  1.00  0.00     0.022 A 
ATOM     16  Cl  UNL A   1      28.834  26.834  23.822  1.00  0.00    -0.084 Cl
BRANCH   7  17
ATOM     17  C   UNL A   1      33.259  23.061  22.912  1.00  0.00     0.139 C 
BRANCH  17  18
ATOM     18  C   UNL A   1      34.655  23.495  23.352  1.00  0.00     0.231 C 
ATOM     19  O   UNL A   1      35.594  23.188  22.619  1.00  0.00    -0.274 OA
BRANCH  18  20
ATOM     20  N   UNL A   1      34.793  24.473  24.352  1.00  0.00    -0.312 N 
BRANCH  20  21
ATOM     21  C   UNL A   1      35.231  23.922  25.633  1.00  0.00     0.122 C 
ATOM     22  C   UNL A   1      36.726  23.992  25.857  1.00  0.00     0.028 C 
ENDBRANCH  20  21
BRANCH  20  23
ATOM     23  C   UNL A   1      34.003  25.698  24.405  1.00  0.00     0.044 A 
ATOM     24  C   UNL A   1      33.674  26.435  23.272  1.00  0.00     0.026 A 
ATOM     25  C   UNL A   1      33.547  26.245  25.610  1.00  0.00     0.030 A 
ATOM     26  C   UNL A   1      32.873  27.585  23.288  1.00  0.00     0.006 A 
ATOM     27  C   UNL A   1      32.761  27.427  25.671  1.00  0.00    -0.046 A 
ATOM     28  C   UNL A   1      32.371  28.075  24.488  1.00  0.00    -0.048 A 
ATOM     29  C   UNL A   1      32.363  27.962  27.018  1.00  0.00     0.044 C 
ATOM     30  C   UNL A   1      31.440  29.255  24.435  1.00  0.00     0.044 C 
ENDBRANCH  20  23
ENDBRANCH  18  20
ENDBRANCH  17  18
ENDBRANCH   7  17
ENDBRANCH   3   6
ENDBRANCH   1   2
BRANCH   1  31
ATOM     31  C   UNL A   1      36.462  20.498  24.716  1.00  0.00     0.023 C 
BRANCH  31  32
ATOM     32  C   UNL A   1      37.720  19.619  24.945  1.00  0.00     0.023 C 
BRANCH  32  33
ATOM     33  C   UNL A   1      38.900  20.173  25.705  1.00  0.00     0.116 C 
BRANCH  33  34
ATOM     34  N   UNL A   1      40.031  19.277  25.691  1.00  0.00    -0.352 N 
ATOM     35  C   UNL A   1      41.333  19.565  26.035  1.00  0.00     0.251 C 
ATOM     36  H   UNL A   1      39.852  18.354  25.400  1.00  0.00     0.163 HD
ATOM     37  O   UNL A   1      42.223  18.761  25.848  1.00  0.00    -0.269 OA
BRANCH  35  38
ATOM     38  C   UNL A   1      41.638  20.911  26.570  1.00  0.00     0.039 A 
ATOM     39  C   UNL A   1      41.535  21.107  27.949  1.00  0.00     0.014 A 
ATOM     40  C   UNL A   1      42.047  21.953  25.733  1.00  0.00     0.014 A 
ATOM     41  C   UNL A   1      41.861  22.347  28.492  1.00  0.00     0.010 A 
ATOM     42  C   UNL A   1      42.455  23.162  26.284  1.00  0.00     0.010 A 
ATOM     43  C   UNL A   1      42.332  23.379  27.663  1.00  0.00    -0.014 A 
BRANCH  43  44
ATOM     44  C   UNL A   1      42.602  24.717  28.233  1.00  0.00     0.031 A 
ATOM     45  C   UNL A   1      44.016  25.101  28.569  1.00  0.00     0.074 A 
ATOM     46  C   UNL A   1      41.590  25.582  28.423  1.00  0.00     0.049 A 
ATOM     47  N   UNL A   1      44.479  26.245  29.002  1.00  0.00    -0.248 NA
ATOM     48  C   UNL A   1      45.043  24.055  28.424  1.00  0.00     0.031 C 
ATOM     49  C   UNL A   1      40.175  25.301  28.166  1.00  0.00     0.029 A 
ATOM     50  N   UNL A   1      41.598  26.882  28.854  1.00  0.00    -0.354 N 
ATOM     51  C   UNL A   1      45.841  26.050  29.188  1.00  0.00     0.074 A 
ATOM     52  C   UNL A   1      46.121  24.666  28.889  1.00  0.00     0.031 C 
ATOM     53  C   UNL A   1      39.459  26.415  28.394  1.00  0.00     0.029 A 
ATOM     54  C   UNL A   1      40.359  27.474  28.835  1.00  0.00     0.049 A 
ATOM     55  H   UNL A   1      42.414  27.348  29.149  1.00  0.00     0.167 HD
ATOM     56  C   UNL A   1      46.784  26.953  29.543  1.00  0.00     0.031 A 
ATOM     57  C   UNL A   1      39.999  28.739  29.122  1.00  0.00     0.031 A 
ATOM     58  C   UNL A   1      46.504  28.335  29.813  1.00  0.00     0.049 A 
ATOM     59  C   UNL A   1      41.065  29.726  29.512  1.00  0.00     0.074 A 
ATOM     60  C   UNL A   1      47.388  29.350  30.127  1.00  0.00     0.029 A 
ATOM     61  N   UNL A   1      45.234  28.891  29.798  1.00  0.00    -0.354 N 
ATOM     62  N   UNL A   1      42.361  29.547  29.610  1.00  0.00    -0.248 NA
ATOM     63  C   UNL A   1      40.619  31.093  29.815  1.00  0.00     0.031 C 
ATOM     64  C   UNL A   1      46.645  30.515  30.347  1.00  0.00     0.029 A 
ATOM     65  C   UNL A   1      45.306  30.235  30.121  1.00  0.00     0.049 A 
ATOM     66  H   UNL A   1      44.405  28.405  29.589  1.00  0.00     0.167 HD
ATOM     67  C   UNL A   1      42.888  30.782  29.962  1.00  0.00     0.074 A 
ATOM     68  C   UNL A   1      41.772  31.705  30.043  1.00  0.00     0.031 C 
ATOM     69  C   UNL A   1      44.178  31.126  30.195  1.00  0.00     0.031 A 
BRANCH  56  70
ATOM     70  C   UNL A   1      48.198  26.457  29.661  1.00  0.00    -0.014 A 
ATOM     71  C   UNL A   1      48.697  25.963  30.877  1.00  0.00     0.009 A 
ATOM     72  C   UNL A   1      49.044  26.493  28.543  1.00  0.00     0.009 A 
ATOM     73  C   UNL A   1      50.030  25.558  30.983  1.00  0.00     0.001 A 
ATOM     74  C   UNL A   1      50.367  26.060  28.644  1.00  0.00     0.001 A 
ATOM     75  C   UNL A   1      50.863  25.604  29.866  1.00  0.00     0.000 A 
ENDBRANCH  56  70
BRANCH  57  76
ATOM     76  C   UNL A   1      38.577  29.154  29.010  1.00  0.00    -0.014 A 
ATOM     77  C   UNL A   1      38.074  29.653  27.798  1.00  0.00     0.009 A 
ATOM     78  C   UNL A   1      37.715  29.055  30.112  1.00  0.00     0.009 A 
ATOM     79  C   UNL A   1      36.743  30.068  27.701  1.00  0.00     0.001 A 
ATOM     80  C   UNL A   1      36.378  29.447  30.005  1.00  0.00     0.001 A 
ATOM     81  C   UNL A   1      35.896  29.961  28.802  1.00  0.00     0.000 A 
ENDBRANCH  57  76
BRANCH  69  82
ATOM     82  C   UNL A   1      44.452  32.561  30.539  1.00  0.00    -0.014 A 
ATOM     83  C   UNL A   1      44.489  32.994  31.873  1.00  0.00     0.009 A 
ATOM     84  C   UNL A   1      44.729  33.479  29.513  1.00  0.00     0.009 A 
ATOM     85  C   UNL A   1      44.770  34.328  32.172  1.00  0.00     0.001 A 
ATOM     86  C   UNL A   1      45.038  34.805  29.817  1.00  0.00     0.001 A 
ATOM     87  C   UNL A   1      45.049  35.230  31.145  1.00  0.00     0.000 A 
ENDBRANCH  69  82
ENDBRANCH  43  44
ENDBRANCH  35  38
ENDBRANCH  33  34
ENDBRANCH  32  33
ENDBRANCH  31  32
ENDBRANCH   1  31
TORSDOF 16
ENDMDL
MODEL 2
REMARK VINA RESULT:     -11.8      0.582      5.753
REMARK SMILES CCN(C(=O)Cc1c(C(=O)NCCCCNC(=O)c2ccc(-c3c4nc(c(-c5ccccc5)c5ccc([nH]5)c(-c5ccccc5)c5nc(c(-c6ccccc6)c6ccc3[nH]6)C=C5)C=C4)cc2)[nH]c2ccc(Cl)cc12)c1ccc(C)c(C)c1
REMARK SMILES IDX 12 1 11 2 9 3 10 4 8 6 7 7 74 8 67 9 68 10 73 11 69 13 71 14
REMARK SMILES IDX 70 15 72 16 6 17 4 18 5 19 3 20 2 21 1 22 75 23 76 24 82 25
REMARK SMILES IDX 77 26 80 27 78 28 81 29 79 30 13 31 14 32 15 33 16 34 17 35
REMARK SMILES IDX 18 37 19 38 20 39 66 40 21 41 65 42 22 43 23 44 24 45 59 46
REMARK SMILES IDX 25 47 64 48 58 49 60 50 26 51 63 52 57 53 56 54 27 56 49 57
REMARK SMILES IDX 34 58 48 59 35 60 38 61 47 62 61 63 36 64 37 65 46 67 62 68
REMARK SMILES IDX 39 69 28 70 29 71 33 72 30 73 32 74 31 75 50 76 51 77 55 78
REMARK SMILES IDX 52 79 54 80 53 81 40 82 41 83 45 84 42 85 44 86 43 87
REMARK H PARENT 11 5 67 12 16 36 60 55 38 66
REMARK Flexibility Score: inf
ROOT
ATOM      1  C   UNL A   1      35.400  20.694  25.610  1.00  0.00     0.116 C 
ENDROOT
BRANCH   1   2
ATOM      2  N   UNL A   1      34.127  20.014  25.351  1.00  0.00    -0.351 N 
ATOM      3  C   UNL A   1      32.967  20.313  24.669  1.00  0.00     0.268 C 
ATOM      4  O   UNL A   1      32.476  19.383  24.022  1.00  0.00    -0.268 OA
ATOM      5  H   UNL A   1      34.092  19.123  25.769  1.00  0.00     0.163 HD
BRANCH   3   6
ATOM      6  C   UNL A   1      32.312  21.602  24.665  1.00  0.00     0.109 A 
ATOM      7  C   UNL A   1      32.355  22.722  23.844  1.00  0.00    -0.000 A 
ATOM      8  C   UNL A   1      31.288  23.589  24.293  1.00  0.00     0.005 A 
ATOM      9  N   UNL A   1      31.740  22.091  25.841  1.00  0.00    -0.350 N 
ATOM     10  C   UNL A   1      31.104  23.291  25.637  1.00  0.00     0.046 A 
ATOM     11  C   UNL A   1      30.587  24.688  23.749  1.00  0.00     0.031 A 
ATOM     12  H   UNL A   1      31.787  21.631  26.710  1.00  0.00     0.167 HD
ATOM     13  C   UNL A   1      30.409  24.138  26.516  1.00  0.00     0.028 A 
ATOM     14  C   UNL A   1      29.774  25.461  24.587  1.00  0.00     0.041 A 
ATOM     15  C   UNL A   1      29.736  25.233  25.959  1.00  0.00     0.022 A 
ATOM     16  Cl  UNL A   1      28.816  26.726  23.913  1.00  0.00    -0.084 Cl
BRANCH   7  17
ATOM     17  C   UNL A   1      33.366  23.153  22.829  1.00  0.00     0.139 C 
BRANCH  17  18
ATOM     18  C   UNL A   1      34.748  23.592  23.304  1.00  0.00     0.231 C 
ATOM     19  O   UNL A   1      35.705  23.310  22.584  1.00  0.00    -0.274 OA
BRANCH  18  20
ATOM     20  N   UNL A   1      34.857  24.551  24.327  1.00  0.00    -0.312 N 
BRANCH  20  21
ATOM     21  C   UNL A   1      35.316  23.984  25.594  1.00  0.00     0.122 C 
ATOM     22  C   UNL A   1      36.816  24.032  25.785  1.00  0.00     0.028 C 
ENDBRANCH  20  21
BRANCH  20  23
ATOM     23  C   UNL A   1      34.026  25.747  24.411  1.00  0.00     0.044 A 
ATOM     24  C   UNL A   1      33.706  26.524  23.302  1.00  0.00     0.026 A 
ATOM     25  C   UNL A   1      33.520  26.225  25.625  1.00  0.00     0.030 A 
ATOM     26  C   UNL A   1      32.869  27.647  23.345  1.00  0.00     0.006 A 
ATOM     27  C   UNL A   1      32.695  27.378  25.715  1.00  0.00    -0.046 A 
ATOM     28  C   UNL A   1      32.318  28.067  24.550  1.00  0.00    -0.048 A 
ATOM     29  C   UNL A   1      32.243  27.840  27.072  1.00  0.00     0.044 C 
ATOM     30  C   UNL A   1      31.351  29.219  24.522  1.00  0.00     0.044 C 
ENDBRANCH  20  23
ENDBRANCH  18  20
ENDBRANCH  17  18
ENDBRANCH   7  17
ENDBRANCH   3   6
ENDBRANCH   1   2
BRANCH   1  31
ATOM     31  C   UNL A   1      36.657  20.548  24.706  1.00  0.00     0.023 C 
BRANCH  31  32
ATOM     32  C   UNL A   1      37.882  19.629  24.952  1.00  0.00     0.023 C 
BRANCH  32  33
ATOM     33  C   UNL A   1      39.080  20.152  25.705  1.00  0.00     0.116 C 
BRANCH  33  34
ATOM     34  N   UNL A   1      40.132  19.170  25.814  1.00  0.00    -0.352 N 
ATOM     35  C   UNL A   1      41.445  19.383  26.172  1.00  0.00     0.251 C 
ATOM     36  H   UNL A   1      39.883  18.240  25.607  1.00  0.00     0.163 HD
ATOM     37  O   UNL A   1      42.268  18.494  26.092  1.00  0.00    -0.269 OA
BRANCH  35  38
ATOM     38  C   UNL A   1      41.848  20.746  26.585  1.00  0.00     0.039 A 
ATOM     39  C   UNL A   1      42.164  21.667  25.585  1.00  0.00     0.014 A 
ATOM     40  C   UNL A   1      41.886  21.118  27.932  1.00  0.00     0.014 A 
ATOM     41  C   UNL A   1      42.501  22.972  25.936  1.00  0.00     0.010 A 
ATOM     42  C   UNL A   1      42.137  22.440  28.276  1.00  0.00     0.010 A 
ATOM     43  C   UNL A   1      42.480  23.368  27.283  1.00  0.00    -0.014 A 
BRANCH  43  44
ATOM     44  C   UNL A   1      42.914  24.732  27.658  1.00  0.00     0.031 A 
ATOM     45  C   UNL A   1      41.876  25.779  27.953  1.00  0.00     0.074 A 
ATOM     46  C   UNL A   1      44.225  25.016  27.752  1.00  0.00     0.049 A 
ATOM     47  N   UNL A   1      42.040  27.006  28.373  1.00  0.00    -0.248 NA
ATOM     48  C   UNL A   1      40.470  25.405  27.725  1.00  0.00     0.031 C 
ATOM     49  C   UNL A   1      45.318  24.087  27.452  1.00  0.00     0.029 A 
ATOM     50  N   UNL A   1      44.862  26.162  28.151  1.00  0.00    -0.354 N 
ATOM     51  C   UNL A   1      40.764  27.549  28.447  1.00  0.00     0.074 A 
ATOM     52  C   UNL A   1      39.843  26.546  27.966  1.00  0.00     0.031 C 
ATOM     53  C   UNL A   1      46.489  24.685  27.729  1.00  0.00     0.029 A 
ATOM     54  C   UNL A   1      46.230  26.041  28.200  1.00  0.00     0.049 A 
ATOM     55  H   UNL A   1      44.385  26.993  28.380  1.00  0.00     0.167 HD
ATOM     56  C   UNL A   1      40.387  28.764  28.906  1.00  0.00     0.031 A 
ATOM     57  C   UNL A   1      47.163  26.923  28.603  1.00  0.00     0.031 A 
ATOM     58  C   UNL A   1      41.304  29.748  29.408  1.00  0.00     0.049 A 
ATOM     59  C   UNL A   1      46.720  28.266  29.113  1.00  0.00     0.074 A 
ATOM     60  C   UNL A   1      41.029  30.989  29.951  1.00  0.00     0.029 A 
ATOM     61  N   UNL A   1      42.682  29.592  29.427  1.00  0.00    -0.354 N 
ATOM     62  N   UNL A   1      45.503  28.738  29.249  1.00  0.00    -0.248 NA
ATOM     63  C   UNL A   1      47.778  29.192  29.540  1.00  0.00     0.031 C 
ATOM     64  C   UNL A   1      42.247  31.605  30.256  1.00  0.00     0.029 A 
ATOM     65  C   UNL A   1      43.275  30.727  29.950  1.00  0.00     0.049 A 
ATOM     66  H   UNL A   1      43.166  28.794  29.115  1.00  0.00     0.167 HD
ATOM     67  C   UNL A   1      45.648  30.005  29.799  1.00  0.00     0.074 A 
ATOM     68  C   UNL A   1      47.069  30.219  29.986  1.00  0.00     0.031 C 
ATOM     69  C   UNL A   1      44.692  30.911  30.123  1.00  0.00     0.031 A 
BRANCH  56  70
ATOM     70  C   UNL A   1      38.918  29.082  28.876  1.00  0.00    -0.014 A 
ATOM     71  C   UNL A   1      38.324  29.675  27.749  1.00  0.00     0.009 A 
ATOM     72  C   UNL A   1      38.120  28.794  29.993  1.00  0.00     0.009 A 
ATOM     73  C   UNL A   1      36.969  30.015  27.759  1.00  0.00     0.001 A 
ATOM     74  C   UNL A   1      36.759  29.108  29.988  1.00  0.00     0.001 A 
ATOM     75  C   UNL A   1      36.188  29.729  28.878  1.00  0.00     0.000 A 
ENDBRANCH  56  70
BRANCH  57  76
ATOM     76  C   UNL A   1      48.601  26.550  28.581  1.00  0.00    -0.014 A 
ATOM     77  C   UNL A   1      49.213  26.004  29.720  1.00  0.00     0.009 A 
ATOM     78  C   UNL A   1      49.370  26.737  27.423  1.00  0.00     0.009 A 
ATOM     79  C   UNL A   1      50.571  25.679  29.707  1.00  0.00     0.001 A 
ATOM     80  C   UNL A   1      50.722  26.387  27.405  1.00  0.00     0.001 A 
ATOM     81  C   UNL A   1      51.323  25.866  28.549  1.00  0.00     0.000 A 
ENDBRANCH  57  76
BRANCH  69  82
ATOM     82  C   UNL A   1      45.154  32.203  30.731  1.00  0.00    -0.014 A 
ATOM     83  C   UNL A   1      45.245  33.375  29.964  1.00  0.00     0.009 A 
ATOM     84  C   UNL A   1      45.449  32.257  32.103  1.00  0.00     0.009 A 
ATOM     85  C   UNL A   1      45.652  34.572  30.555  1.00  0.00     0.001 A 
ATOM     86  C   UNL A   1      45.828  33.461  32.695  1.00  0.00     0.001 A 
ATOM     87  C   UNL A   1      45.938  34.615  31.921  1.00  0.00     0.000 A 
ENDBRANCH  69  82
ENDBRANCH  43  44
ENDBRANCH  35  38
ENDBRANCH  33  34
ENDBRANCH  32  33
ENDBRANCH  31  32
ENDBRANCH   1  31
TORSDOF 16
ENDMDL
MODEL 3
REMARK VINA RESULT:     -11.8      4.265      9.024
REMARK SMILES CCN(C(=O)Cc1c(C(=O)NCCCCNC(=O)c2ccc(-c3c4nc(c(-c5ccccc5)c5ccc([nH]5)c(-c5ccccc5)c5nc(c(-c6ccccc6)c6ccc3[nH]6)C=C5)C=C4)cc2)[nH]c2ccc(Cl)cc12)c1ccc(C)c(C)c1
REMARK SMILES IDX 12 1 11 2 9 3 10 4 8 6 7 7 74 8 67 9 68 10 73 11 69 13 71 14
REMARK SMILES IDX 70 15 72 16 6 17 4 18 5 19 3 20 2 21 1 22 75 23 76 24 82 25
REMARK SMILES IDX 77 26 80 27 78 28 81 29 79 30 13 31 14 32 15 33 16 34 17 35
REMARK SMILES IDX 18 37 19 38 20 39 66 40 21 41 65 42 22 43 23 44 24 45 59 46
REMARK SMILES IDX 25 47 64 48 58 49 60 50 26 51 63 52 57 53 56 54 27 56 49 57
REMARK SMILES IDX 34 58 48 59 35 60 38 61 47 62 61 63 36 64 37 65 46 67 62 68
REMARK SMILES IDX 39 69 28 70 29 71 33 72 30 73 32 74 31 75 50 76 51 77 55 78
REMARK SMILES IDX 52 79 54 80 53 81 40 82 41 83 45 84 42 85 44 86 43 87
REMARK H PARENT 11 5 67 12 16 36 60 55 38 66
REMARK Flexibility Score: inf
ROOT
ATOM      1  C   UNL A   1      31.584  30.048  24.537  1.00  0.00     0.116 C 
ENDROOT
BRANCH   1   2
ATOM      2  N   UNL A   1      30.568  29.638  23.562  1.00  0.00    -0.351 N 
ATOM      3  C   UNL A   1      29.915  28.465  23.247  1.00  0.00     0.268 C 
ATOM      4  O   UNL A   1      28.713  28.578  22.991  1.00  0.00    -0.268 OA
ATOM      5  H   UNL A   1      30.282  30.387  22.989  1.00  0.00     0.163 HD
BRANCH   3   6
ATOM      6  C   UNL A   1      30.530  27.157  23.199  1.00  0.00     0.109 A 
ATOM      7  C   UNL A   1      30.662  26.102  24.092  1.00  0.00    -0.000 A 
ATOM      8  C   UNL A   1      31.211  25.000  23.333  1.00  0.00     0.005 A 
ATOM      9  N   UNL A   1      31.509  26.888  22.241  1.00  0.00    -0.350 N 
ATOM     10  C   UNL A   1      31.930  25.582  22.296  1.00  0.00     0.046 A 
ATOM     11  C   UNL A   1      31.305  23.602  23.511  1.00  0.00     0.031 A 
ATOM     12  H   UNL A   1      31.854  27.554  21.602  1.00  0.00     0.167 HD
ATOM     13  C   UNL A   1      32.884  24.878  21.545  1.00  0.00     0.028 A 
ATOM     14  C   UNL A   1      32.149  22.863  22.672  1.00  0.00     0.041 A 
ATOM     15  C   UNL A   1      32.976  23.496  21.749  1.00  0.00     0.022 A 
ATOM     16  Cl  UNL A   1      32.178  21.144  22.796  1.00  0.00    -0.084 Cl
BRANCH   7  17
ATOM     17  C   UNL A   1      30.510  26.054  25.580  1.00  0.00     0.139 C 
BRANCH  17  18
ATOM     18  C   UNL A   1      31.550  26.755  26.451  1.00  0.00     0.231 C 
ATOM     19  O   UNL A   1      31.142  27.328  27.460  1.00  0.00    -0.274 OA
BRANCH  18  20
ATOM     20  N   UNL A   1      32.913  26.460  26.274  1.00  0.00    -0.312 N 
BRANCH  20  21
ATOM     21  C   UNL A   1      33.661  27.560  25.667  1.00  0.00     0.122 C 
ATOM     22  C   UNL A   1      34.259  28.526  26.666  1.00  0.00     0.028 C 
ENDBRANCH  20  21
BRANCH  20  23
ATOM     23  C   UNL A   1      33.431  25.115  26.047  1.00  0.00     0.044 A 
ATOM     24  C   UNL A   1      32.968  24.000  26.738  1.00  0.00     0.026 A 
ATOM     25  C   UNL A   1      34.462  24.853  25.138  1.00  0.00     0.030 A 
ATOM     26  C   UNL A   1      33.410  22.691  26.503  1.00  0.00     0.006 A 
ATOM     27  C   UNL A   1      34.960  23.544  24.895  1.00  0.00    -0.046 A 
ATOM     28  C   UNL A   1      34.387  22.440  25.547  1.00  0.00    -0.048 A 
ATOM     29  C   UNL A   1      36.105  23.373  23.937  1.00  0.00     0.044 C 
ATOM     30  C   UNL A   1      34.753  21.008  25.270  1.00  0.00     0.044 C 
ENDBRANCH  20  23
ENDBRANCH  18  20
ENDBRANCH  17  18
ENDBRANCH   7  17
ENDBRANCH   3   6
ENDBRANCH   1   2
BRANCH   1  31
ATOM     31  C   UNL A   1      31.251  30.598  25.952  1.00  0.00     0.023 C 
BRANCH  31  32
ATOM     32  C   UNL A   1      31.273  32.082  26.406  1.00  0.00     0.023 C 
BRANCH  32  33
ATOM     33  C   UNL A   1      32.462  32.623  27.161  1.00  0.00     0.116 C 
BRANCH  33  34
ATOM     34  N   UNL A   1      32.260  33.983  27.602  1.00  0.00    -0.352 N 
ATOM     35  C   UNL A   1      33.022  34.694  28.501  1.00  0.00     0.251 C 
ATOM     36  H   UNL A   1      31.487  34.455  27.215  1.00  0.00     0.163 HD
ATOM     37  O   UNL A   1      32.667  35.787  28.895  1.00  0.00    -0.269 OA
BRANCH  35  38
ATOM     38  C   UNL A   1      34.248  34.064  29.038  1.00  0.00     0.039 A 
ATOM     39  C   UNL A   1      35.468  34.399  28.450  1.00  0.00     0.014 A 
ATOM     40  C   UNL A   1      34.200  33.182  30.122  1.00  0.00     0.014 A 
ATOM     41  C   UNL A   1      36.647  33.861  28.961  1.00  0.00     0.010 A 
ATOM     42  C   UNL A   1      35.381  32.715  30.686  1.00  0.00     0.010 A 
ATOM     43  C   UNL A   1      36.611  33.024  30.088  1.00  0.00    -0.014 A 
BRANCH  43  44
ATOM     44  C   UNL A   1      37.856  32.394  30.580  1.00  0.00     0.031 A 
ATOM     45  C   UNL A   1      38.489  32.906  31.844  1.00  0.00     0.074 A 
ATOM     46  C   UNL A   1      38.395  31.361  29.908  1.00  0.00     0.049 A 
ATOM     47  N   UNL A   1      39.531  32.447  32.487  1.00  0.00    -0.248 NA
ATOM     48  C   UNL A   1      37.886  34.102  32.454  1.00  0.00     0.031 C 
ATOM     49  C   UNL A   1      37.884  30.809  28.651  1.00  0.00     0.029 A 
ATOM     50  N   UNL A   1      39.478  30.576  30.202  1.00  0.00    -0.354 N 
ATOM     51  C   UNL A   1      39.711  33.305  33.564  1.00  0.00     0.074 A 
ATOM     52  C   UNL A   1      38.718  34.347  33.453  1.00  0.00     0.031 C 
ATOM     53  C   UNL A   1      38.624  29.740  28.310  1.00  0.00     0.029 A 
ATOM     54  C   UNL A   1      39.671  29.550  29.309  1.00  0.00     0.049 A 
ATOM     55  H   UNL A   1      40.064  30.732  30.978  1.00  0.00     0.167 HD
ATOM     56  C   UNL A   1      40.603  33.215  34.577  1.00  0.00     0.031 A 
ATOM     57  C   UNL A   1      40.579  28.557  29.313  1.00  0.00     0.031 A 
ATOM     58  C   UNL A   1      41.572  32.161  34.696  1.00  0.00     0.049 A 
ATOM     59  C   UNL A   1      41.559  28.475  30.451  1.00  0.00     0.074 A 
ATOM     60  C   UNL A   1      42.487  31.939  35.708  1.00  0.00     0.029 A 
ATOM     61  N   UNL A   1      41.744  31.150  33.763  1.00  0.00    -0.354 N 
ATOM     62  N   UNL A   1      41.669  29.249  31.504  1.00  0.00    -0.248 NA
ATOM     63  C   UNL A   1      42.529  27.372  30.408  1.00  0.00     0.031 C 
ATOM     64  C   UNL A   1      43.246  30.815  35.364  1.00  0.00     0.029 A 
ATOM     65  C   UNL A   1      42.769  30.312  34.163  1.00  0.00     0.049 A 
ATOM     66  H   UNL A   1      41.216  31.044  32.940  1.00  0.00     0.167 HD
ATOM     67  C   UNL A   1      42.703  28.715  32.261  1.00  0.00     0.074 A 
ATOM     68  C   UNL A   1      43.175  27.541  31.553  1.00  0.00     0.031 C 
ATOM     69  C   UNL A   1      43.216  29.152  33.437  1.00  0.00     0.031 A 
BRANCH  56  70
ATOM     70  C   UNL A   1      40.564  34.293  35.623  1.00  0.00    -0.014 A 
ATOM     71  C   UNL A   1      39.761  34.169  36.768  1.00  0.00     0.009 A 
ATOM     72  C   UNL A   1      41.335  35.454  35.456  1.00  0.00     0.009 A 
ATOM     73  C   UNL A   1      39.695  35.205  37.703  1.00  0.00     0.001 A 
ATOM     74  C   UNL A   1      41.289  36.475  36.407  1.00  0.00     0.001 A 
ATOM     75  C   UNL A   1      40.461  36.356  37.522  1.00  0.00     0.000 A 
ENDBRANCH  56  70
BRANCH  57  76
ATOM     76  C   UNL A   1      40.577  27.539  28.231  1.00  0.00    -0.014 A 
ATOM     77  C   UNL A   1      39.848  26.348  28.375  1.00  0.00     0.009 A 
ATOM     78  C   UNL A   1      41.303  27.751  27.050  1.00  0.00     0.009 A 
ATOM     79  C   UNL A   1      39.868  25.379  27.369  1.00  0.00     0.001 A 
ATOM     80  C   UNL A   1      41.300  26.791  26.034  1.00  0.00     0.001 A 
ATOM     81  C   UNL A   1      40.591  25.603  26.198  1.00  0.00     0.000 A 
ENDBRANCH  57  76
BRANCH  69  82
ATOM     82  C   UNL A   1      44.330  28.345  34.038  1.00  0.00    -0.014 A 
ATOM     83  C   UNL A   1      44.063  27.227  34.844  1.00  0.00     0.009 A 
ATOM     84  C   UNL A   1      45.663  28.678  33.749  1.00  0.00     0.009 A 
ATOM     85  C   UNL A   1      45.113  26.475  35.373  1.00  0.00     0.001 A 
ATOM     86  C   UNL A   1      46.708  27.908  34.256  1.00  0.00     0.001 A 
ATOM     87  C   UNL A   1      46.434  26.813  35.074  1.00  0.00     0.000 A 
ENDBRANCH  69  82
ENDBRANCH  43  44
ENDBRANCH  35  38
ENDBRANCH  33  34
ENDBRANCH  32  33
ENDBRANCH  31  32
ENDBRANCH   1  31
TORSDOF 16
ENDMDL
