MODEL 1
REMARK VINA RESULT:      -9.2      0.000      0.000
REMARK SMILES O=C(CN1C(=O)c2ccccc2[C@@H]1O)NCCCCNC(=O)c1ccc(-c2c3nc(c(-c4ccccc4)c4ccc([nH]4)c(-c4ccccc4)c4nc(c(-c5ccccc5)c5ccc2[nH]5)C=C4)C=C3)cc1
REMARK SMILES IDX 17 1 16 2 15 3 1 4 2 5 3 7 4 8 5 9 13 10 6 11 7 12 12 13
REMARK SMILES IDX 8 14 11 15 9 16 10 17 14 18 18 20 19 21 20 22 21 23 22 25
REMARK SMILES IDX 23 26 24 27 70 28 25 29 69 30 26 31 27 32 28 33 63 34 29 35
REMARK SMILES IDX 68 36 62 37 64 38 30 39 67 40 61 41 60 42 31 44 53 45 38 46
REMARK SMILES IDX 52 47 39 48 42 49 51 50 65 51 40 52 41 53 50 55 66 56 43 57
REMARK SMILES IDX 32 58 33 59 37 60 34 61 36 62 35 63 54 64 55 65 59 66 56 67
REMARK SMILES IDX 58 68 57 69 44 70 45 71 49 72 46 73 48 74 47 75
REMARK H PARENT 15 6 14 19 20 24 64 43 42 54
REMARK Flexibility Score: inf
ROOT
ATOM      1  C   UNL A   1      46.032  20.974  24.714  1.00  0.00     0.023 C 
ENDROOT
BRANCH   1   2
ATOM      2  C   UNL A   1      45.686  22.158  25.617  1.00  0.00     0.116 C 
BRANCH   2   3
ATOM      3  N   UNL A   1      46.071  23.422  25.028  1.00  0.00    -0.355 N 
ATOM      4  O   UNL A   1      47.637  24.024  26.600  1.00  0.00    -0.273 OA
ATOM      5  C   UNL A   1      47.026  24.261  25.562  1.00  0.00     0.239 C 
ATOM      6  H   UNL A   1      45.623  23.699  24.195  1.00  0.00     0.163 HD
BRANCH   5   7
ATOM      7  C   UNL A   1      47.216  25.565  24.778  1.00  0.00     0.222 C 
BRANCH   7   8
ATOM      8  N   UNL A   1      46.407  26.643  25.325  1.00  0.00    -0.299 N 
ATOM      9  C   UNL A   1      45.027  26.640  25.375  1.00  0.00     0.257 C 
ATOM     10  C   UNL A   1      46.982  27.741  26.059  1.00  0.00     0.247 C 
ATOM     11  O   UNL A   1      44.271  25.813  24.895  1.00  0.00    -0.269 OA
ATOM     12  C   UNL A   1      44.624  27.864  26.074  1.00  0.00     0.047 A 
ATOM     13  C   UNL A   1      45.784  28.533  26.465  1.00  0.00     0.014 A 
ATOM     14  C   UNL A   1      43.356  28.359  26.307  1.00  0.00     0.014 A 
ATOM     15  C   UNL A   1      45.696  29.747  27.125  1.00  0.00     0.009 A 
ATOM     16  C   UNL A   1      43.262  29.585  26.968  1.00  0.00     0.001 A 
ATOM     17  C   UNL A   1      44.423  30.273  27.373  1.00  0.00     0.001 A 
BRANCH  10  18
ATOM     18  O   UNL A   1      47.814  28.472  25.201  1.00  0.00    -0.369 OA
ATOM     19  H   UNL A   1      47.274  28.924  24.534  1.00  0.00     0.213 HD
ENDBRANCH  10  18
ENDBRANCH   7   8
ENDBRANCH   5   7
ENDBRANCH   2   3
ENDBRANCH   1   2
BRANCH   1  20
ATOM     20  C   UNL A   1      44.883  19.995  24.454  1.00  0.00     0.023 C 
BRANCH  20  21
ATOM     21  C   UNL A   1      44.290  19.331  25.693  1.00  0.00     0.116 C 
BRANCH  21  22
ATOM     22  N   UNL A   1      42.886  18.978  25.527  1.00  0.00    -0.352 N 
ATOM     23  C   UNL A   1      41.756  19.660  25.909  1.00  0.00     0.251 C 
ATOM     24  H   UNL A   1      42.722  18.122  25.072  1.00  0.00     0.163 HD
ATOM     25  O   UNL A   1      40.655  19.125  25.806  1.00  0.00    -0.269 OA
BRANCH  23  26
ATOM     26  C   UNL A   1      41.853  21.026  26.474  1.00  0.00     0.039 A 
ATOM     27  C   UNL A   1      41.817  21.183  27.863  1.00  0.00     0.014 A 
ATOM     28  C   UNL A   1      41.967  22.148  25.651  1.00  0.00     0.014 A 
ATOM     29  C   UNL A   1      41.972  22.454  28.425  1.00  0.00     0.010 A 
ATOM     30  C   UNL A   1      42.200  23.403  26.213  1.00  0.00     0.010 A 
ATOM     31  C   UNL A   1      42.207  23.570  27.606  1.00  0.00    -0.014 A 
BRANCH  31  32
ATOM     32  C   UNL A   1      42.480  24.911  28.189  1.00  0.00     0.031 A 
ATOM     33  C   UNL A   1      43.848  25.253  28.712  1.00  0.00     0.074 A 
ATOM     34  C   UNL A   1      41.477  25.805  28.304  1.00  0.00     0.049 A 
ATOM     35  N   UNL A   1      44.257  26.348  29.304  1.00  0.00    -0.248 NA
ATOM     36  C   UNL A   1      44.890  24.223  28.572  1.00  0.00     0.031 C 
ATOM     37  C   UNL A   1      40.095  25.589  27.870  1.00  0.00     0.029 A 
ATOM     38  N   UNL A   1      41.466  27.075  28.828  1.00  0.00    -0.354 N 
ATOM     39  C   UNL A   1      45.594  26.135  29.615  1.00  0.00     0.074 A 
ATOM     40  C   UNL A   1      45.914  24.787  29.196  1.00  0.00     0.031 C 
ATOM     41  C   UNL A   1      39.378  26.696  28.121  1.00  0.00     0.029 A 
ATOM     42  C   UNL A   1      40.233  27.680  28.776  1.00  0.00     0.049 A 
ATOM     43  H   UNL A   1      42.265  27.509  29.205  1.00  0.00     0.167 HD
ATOM     44  C   UNL A   1      46.483  26.988  30.177  1.00  0.00     0.031 A 
ATOM     45  C   UNL A   1      39.830  28.888  29.218  1.00  0.00     0.031 A 
ATOM     46  C   UNL A   1      46.167  28.327  30.599  1.00  0.00     0.049 A 
ATOM     47  C   UNL A   1      40.826  29.802  29.876  1.00  0.00     0.074 A 
ATOM     48  C   UNL A   1      47.010  29.282  31.141  1.00  0.00     0.029 A 
ATOM     49  N   UNL A   1      44.906  28.901  30.533  1.00  0.00    -0.354 N 
ATOM     50  N   UNL A   1      42.103  29.608  30.101  1.00  0.00    -0.248 NA
ATOM     51  C   UNL A   1      40.326  31.107  30.329  1.00  0.00     0.031 C 
ATOM     52  C   UNL A   1      46.247  30.410  31.461  1.00  0.00     0.029 A 
ATOM     53  C   UNL A   1      44.943  30.185  31.051  1.00  0.00     0.049 A 
ATOM     54  H   UNL A   1      44.104  28.460  30.171  1.00  0.00     0.167 HD
ATOM     55  C   UNL A   1      42.565  30.777  30.693  1.00  0.00     0.074 A 
ATOM     56  C   UNL A   1      41.436  31.680  30.774  1.00  0.00     0.031 C 
ATOM     57  C   UNL A   1      43.813  31.075  31.129  1.00  0.00     0.031 A 
BRANCH  44  58
ATOM     58  C   UNL A   1      47.889  26.490  30.381  1.00  0.00    -0.014 A 
ATOM     59  C   UNL A   1      48.267  25.845  31.571  1.00  0.00     0.009 A 
ATOM     60  C   UNL A   1      48.838  26.630  29.357  1.00  0.00     0.009 A 
ATOM     61  C   UNL A   1      49.576  25.390  31.745  1.00  0.00     0.001 A 
ATOM     62  C   UNL A   1      50.136  26.144  29.520  1.00  0.00     0.001 A 
ATOM     63  C   UNL A   1      50.508  25.535  30.717  1.00  0.00     0.000 A 
ENDBRANCH  44  58
BRANCH  45  64
ATOM     64  C   UNL A   1      38.411  29.305  29.055  1.00  0.00    -0.014 A 
ATOM     65  C   UNL A   1      37.954  29.827  27.834  1.00  0.00     0.009 A 
ATOM     66  C   UNL A   1      37.508  29.199  30.125  1.00  0.00     0.009 A 
ATOM     67  C   UNL A   1      36.634  30.262  27.699  1.00  0.00     0.001 A 
ATOM     68  C   UNL A   1      36.180  29.602  29.977  1.00  0.00     0.001 A 
ATOM     69  C   UNL A   1      35.747  30.145  28.768  1.00  0.00     0.000 A 
ENDBRANCH  45  64
BRANCH  57  70
ATOM     70  C   UNL A   1      44.037  32.450  31.697  1.00  0.00    -0.014 A 
ATOM     71  C   UNL A   1      44.387  33.536  30.878  1.00  0.00     0.009 A 
ATOM     72  C   UNL A   1      43.857  32.670  33.072  1.00  0.00     0.009 A 
ATOM     73  C   UNL A   1      44.587  34.802  31.431  1.00  0.00     0.001 A 
ATOM     74  C   UNL A   1      44.024  33.944  33.617  1.00  0.00     0.001 A 
ATOM     75  C   UNL A   1      44.400  35.007  32.798  1.00  0.00     0.000 A 
ENDBRANCH  57  70
ENDBRANCH  31  32
ENDBRANCH  23  26
ENDBRANCH  21  22
ENDBRANCH  20  21
ENDBRANCH   1  20
TORSDOF 13
ENDMDL
MODEL 2
REMARK VINA RESULT:      -9.0      0.287      6.137
REMARK SMILES O=C(CN1C(=O)c2ccccc2[C@@H]1O)NCCCCNC(=O)c1ccc(-c2c3nc(c(-c4ccccc4)c4ccc([nH]4)c(-c4ccccc4)c4nc(c(-c5ccccc5)c5ccc2[nH]5)C=C4)C=C3)cc1
REMARK SMILES IDX 17 1 16 2 15 3 1 4 2 5 3 7 4 8 5 9 13 10 6 11 7 12 12 13
REMARK SMILES IDX 8 14 11 15 9 16 10 17 14 18 18 20 19 21 20 22 21 23 22 25
REMARK SMILES IDX 23 26 24 27 70 28 25 29 69 30 26 31 27 32 28 33 63 34 29 35
REMARK SMILES IDX 68 36 62 37 64 38 30 39 67 40 61 41 60 42 31 44 53 45 38 46
REMARK SMILES IDX 52 47 39 48 42 49 51 50 65 51 40 52 41 53 50 55 66 56 43 57
REMARK SMILES IDX 32 58 33 59 37 60 34 61 36 62 35 63 54 64 55 65 59 66 56 67
REMARK SMILES IDX 58 68 57 69 44 70 45 71 49 72 46 73 48 74 47 75
REMARK H PARENT 15 6 14 19 20 24 64 43 42 54
REMARK Flexibility Score: inf
ROOT
ATOM      1  C   UNL A   1      46.010  21.046  24.646  1.00  0.00     0.023 C 
ENDROOT
BRANCH   1   2
ATOM      2  C   UNL A   1      45.692  22.233  25.555  1.00  0.00     0.116 C 
BRANCH   2   3
ATOM      3  N   UNL A   1      46.088  23.491  24.963  1.00  0.00    -0.355 N 
ATOM      4  O   UNL A   1      47.693  24.060  26.509  1.00  0.00    -0.273 OA
ATOM      5  C   UNL A   1      47.067  24.312  25.483  1.00  0.00     0.239 C 
ATOM      6  H   UNL A   1      45.631  23.780  24.140  1.00  0.00     0.163 HD
BRANCH   5   7
ATOM      7  C   UNL A   1      47.266  25.616  24.700  1.00  0.00     0.222 C 
BRANCH   7   8
ATOM      8  N   UNL A   1      46.496  26.708  25.273  1.00  0.00    -0.299 N 
ATOM      9  C   UNL A   1      45.121  26.713  25.407  1.00  0.00     0.257 C 
ATOM     10  C   UNL A   1      47.119  27.818  25.947  1.00  0.00     0.247 C 
ATOM     11  O   UNL A   1      44.335  25.880  24.991  1.00  0.00    -0.269 OA
ATOM     12  C   UNL A   1      44.766  27.952  26.103  1.00  0.00     0.047 A 
ATOM     13  C   UNL A   1      45.950  28.624  26.409  1.00  0.00     0.014 A 
ATOM     14  C   UNL A   1      43.517  28.458  26.403  1.00  0.00     0.014 A 
ATOM     15  C   UNL A   1      45.907  29.852  27.047  1.00  0.00     0.009 A 
ATOM     16  C   UNL A   1      43.468  29.698  27.042  1.00  0.00     0.001 A 
ATOM     17  C   UNL A   1      44.653  30.389  27.361  1.00  0.00     0.001 A 
BRANCH  10  18
ATOM     18  O   UNL A   1      47.899  28.528  25.024  1.00  0.00    -0.369 OA
ATOM     19  H   UNL A   1      48.231  27.920  24.346  1.00  0.00     0.213 HD
ENDBRANCH  10  18
ENDBRANCH   7   8
ENDBRANCH   5   7
ENDBRANCH   2   3
ENDBRANCH   1   2
BRANCH   1  20
ATOM     20  C   UNL A   1      44.832  20.108  24.363  1.00  0.00     0.023 C 
BRANCH  20  21
ATOM     21  C   UNL A   1      44.232  19.415  25.583  1.00  0.00     0.116 C 
BRANCH  21  22
ATOM     22  N   UNL A   1      42.817  19.111  25.420  1.00  0.00    -0.352 N 
ATOM     23  C   UNL A   1      41.711  19.808  25.846  1.00  0.00     0.251 C 
ATOM     24  H   UNL A   1      42.622  18.279  24.932  1.00  0.00     0.163 HD
ATOM     25  O   UNL A   1      40.594  19.310  25.735  1.00  0.00    -0.269 OA
BRANCH  23  26
ATOM     26  C   UNL A   1      41.855  21.146  26.466  1.00  0.00     0.039 A 
ATOM     27  C   UNL A   1      41.812  21.249  27.860  1.00  0.00     0.014 A 
ATOM     28  C   UNL A   1      42.021  22.295  25.690  1.00  0.00     0.014 A 
ATOM     29  C   UNL A   1      42.010  22.490  28.474  1.00  0.00     0.010 A 
ATOM     30  C   UNL A   1      42.296  23.516  26.303  1.00  0.00     0.010 A 
ATOM     31  C   UNL A   1      42.296  23.628  27.702  1.00  0.00    -0.014 A 
BRANCH  31  32
ATOM     32  C   UNL A   1      42.614  24.932  28.341  1.00  0.00     0.031 A 
ATOM     33  C   UNL A   1      41.552  25.985  28.499  1.00  0.00     0.074 A 
ATOM     34  C   UNL A   1      43.879  25.195  28.727  1.00  0.00     0.049 A 
ATOM     35  N   UNL A   1      41.657  27.200  28.979  1.00  0.00    -0.248 NA
ATOM     36  C   UNL A   1      40.197  25.638  28.039  1.00  0.00     0.031 C 
ATOM     37  C   UNL A   1      45.013  24.277  28.598  1.00  0.00     0.029 A 
ATOM     38  N   UNL A   1      44.425  26.318  29.300  1.00  0.00    -0.354 N 
ATOM     39  C   UNL A   1      40.391  27.762  28.869  1.00  0.00     0.074 A 
ATOM     40  C   UNL A   1      39.548  26.777  28.227  1.00  0.00     0.031 C 
ATOM     41  C   UNL A   1      46.111  24.862  29.101  1.00  0.00     0.029 A 
ATOM     42  C   UNL A   1      45.774  26.211  29.543  1.00  0.00     0.049 A 
ATOM     43  H   UNL A   1      43.900  27.122  29.515  1.00  0.00     0.167 HD
ATOM     44  C   UNL A   1      39.962  28.978  29.284  1.00  0.00     0.031 A 
ATOM     45  C   UNL A   1      46.647  27.102  30.052  1.00  0.00     0.031 A 
ATOM     46  C   UNL A   1      40.800  29.962  29.918  1.00  0.00     0.049 A 
ATOM     47  C   UNL A   1      46.154  28.461  30.467  1.00  0.00     0.074 A 
ATOM     48  C   UNL A   1      40.446  31.206  30.410  1.00  0.00     0.029 A 
ATOM     49  N   UNL A   1      42.161  29.816  30.141  1.00  0.00    -0.354 N 
ATOM     50  N   UNL A   1      44.938  28.951  30.416  1.00  0.00    -0.248 NA
ATOM     51  C   UNL A   1      47.153  29.385  31.022  1.00  0.00     0.031 C 
ATOM     52  C   UNL A   1      41.605  31.839  30.875  1.00  0.00     0.029 A 
ATOM     53  C   UNL A   1      42.666  30.960  30.738  1.00  0.00     0.049 A 
ATOM     54  H   UNL A   1      42.688  29.018  29.911  1.00  0.00     0.167 HD
ATOM     55  C   UNL A   1      45.022  30.227  30.960  1.00  0.00     0.074 A 
ATOM     56  C   UNL A   1      46.402  30.427  31.351  1.00  0.00     0.031 C 
ATOM     57  C   UNL A   1      44.042  31.149  31.121  1.00  0.00     0.031 A 
BRANCH  44  58
ATOM     58  C   UNL A   1      38.514  29.319  29.050  1.00  0.00    -0.014 A 
ATOM     59  C   UNL A   1      38.063  29.756  27.794  1.00  0.00     0.009 A 
ATOM     60  C   UNL A   1      37.582  29.164  30.087  1.00  0.00     0.009 A 
ATOM     61  C   UNL A   1      36.716  30.070  27.594  1.00  0.00     0.001 A 
ATOM     62  C   UNL A   1      36.231  29.446  29.875  1.00  0.00     0.001 A 
ATOM     63  C   UNL A   1      35.801  29.909  28.633  1.00  0.00     0.000 A 
ENDBRANCH  44  58
BRANCH  45  64
ATOM     64  C   UNL A   1      48.083  26.740  30.197  1.00  0.00    -0.014 A 
ATOM     65  C   UNL A   1      48.987  26.965  29.146  1.00  0.00     0.009 A 
ATOM     66  C   UNL A   1      48.555  26.154  31.381  1.00  0.00     0.009 A 
ATOM     67  C   UNL A   1      50.324  26.581  29.267  1.00  0.00     0.001 A 
ATOM     68  C   UNL A   1      49.899  25.803  31.513  1.00  0.00     0.001 A 
ATOM     69  C   UNL A   1      50.780  26.005  30.452  1.00  0.00     0.000 A 
ENDBRANCH  45  64
BRANCH  57  70
ATOM     70  C   UNL A   1      44.416  32.446  31.787  1.00  0.00    -0.014 A 
ATOM     71  C   UNL A   1      44.374  32.596  33.182  1.00  0.00     0.009 A 
ATOM     72  C   UNL A   1      44.855  33.525  31.003  1.00  0.00     0.009 A 
ATOM     73  C   UNL A   1      44.727  33.811  33.773  1.00  0.00     0.001 A 
ATOM     74  C   UNL A   1      45.241  34.727  31.599  1.00  0.00     0.001 A 
ATOM     75  C   UNL A   1      45.167  34.872  32.982  1.00  0.00     0.000 A 
ENDBRANCH  57  70
ENDBRANCH  31  32
ENDBRANCH  23  26
ENDBRANCH  21  22
ENDBRANCH  20  21
ENDBRANCH   1  20
TORSDOF 13
ENDMDL
MODEL 3
REMARK VINA RESULT:      -8.7      3.612      6.531
REMARK SMILES O=C(CN1C(=O)c2ccccc2[C@@H]1O)NCCCCNC(=O)c1ccc(-c2c3nc(c(-c4ccccc4)c4ccc([nH]4)c(-c4ccccc4)c4nc(c(-c5ccccc5)c5ccc2[nH]5)C=C4)C=C3)cc1
REMARK SMILES IDX 17 1 16 2 15 3 1 4 2 5 3 7 4 8 5 9 13 10 6 11 7 12 12 13
REMARK SMILES IDX 8 14 11 15 9 16 10 17 14 18 18 20 19 21 20 22 21 23 22 25
REMARK SMILES IDX 23 26 24 27 70 28 25 29 69 30 26 31 27 32 28 33 63 34 29 35
REMARK SMILES IDX 68 36 62 37 64 38 30 39 67 40 61 41 60 42 31 44 53 45 38 46
REMARK SMILES IDX 52 47 39 48 42 49 51 50 65 51 40 52 41 53 50 55 66 56 43 57
REMARK SMILES IDX 32 58 33 59 37 60 34 61 36 62 35 63 54 64 55 65 59 66 56 67
REMARK SMILES IDX 58 68 57 69 44 70 45 71 49 72 46 73 48 74 47 75
REMARK H PARENT 15 6 14 19 20 24 64 43 42 54
REMARK Flexibility Score: inf
ROOT
ATOM      1  C   UNL A   1      36.834  20.950  24.496  1.00  0.00     0.023 C 
ENDROOT
BRANCH   1   2
ATOM      2  C   UNL A   1      35.497  20.804  25.221  1.00  0.00     0.116 C 
BRANCH   2   3
ATOM      3  N   UNL A   1      34.519  21.763  24.756  1.00  0.00    -0.355 N 
ATOM      4  O   UNL A   1      33.289  21.903  26.693  1.00  0.00    -0.273 OA
ATOM      5  C   UNL A   1      33.487  22.248  25.532  1.00  0.00     0.239 C 
ATOM      6  H   UNL A   1      34.595  22.088  23.829  1.00  0.00     0.163 HD
BRANCH   5   7
ATOM      7  C   UNL A   1      32.555  23.216  24.792  1.00  0.00     0.222 C 
BRANCH   7   8
ATOM      8  N   UNL A   1      32.577  24.542  25.389  1.00  0.00    -0.299 N 
ATOM      9  C   UNL A   1      33.566  25.481  25.177  1.00  0.00     0.257 C 
ATOM     10  C   UNL A   1      31.451  25.080  26.109  1.00  0.00     0.247 C 
ATOM     11  O   UNL A   1      34.606  25.333  24.558  1.00  0.00    -0.269 OA
ATOM     12  C   UNL A   1      33.161  26.695  25.890  1.00  0.00     0.047 A 
ATOM     13  C   UNL A   1      31.912  26.455  26.464  1.00  0.00     0.014 A 
ATOM     14  C   UNL A   1      33.845  27.883  26.052  1.00  0.00     0.014 A 
ATOM     15  C   UNL A   1      31.300  27.432  27.230  1.00  0.00     0.009 A 
ATOM     16  C   UNL A   1      33.235  28.871  26.827  1.00  0.00     0.001 A 
ATOM     17  C   UNL A   1      31.973  28.647  27.411  1.00  0.00     0.001 A 
BRANCH  10  18
ATOM     18  O   UNL A   1      31.231  24.301  27.253  1.00  0.00    -0.369 OA
ATOM     19  H   UNL A   1      31.673  23.444  27.150  1.00  0.00     0.213 HD
ENDBRANCH  10  18
ENDBRANCH   7   8
ENDBRANCH   5   7
ENDBRANCH   2   3
ENDBRANCH   1   2
BRANCH   1  20
ATOM     20  C   UNL A   1      37.864  19.857  24.801  1.00  0.00     0.023 C 
BRANCH  20  21
ATOM     21  C   UNL A   1      38.943  20.231  25.812  1.00  0.00     0.116 C 
BRANCH  21  22
ATOM     22  N   UNL A   1      40.068  19.306  25.805  1.00  0.00    -0.352 N 
ATOM     23  C   UNL A   1      41.394  19.528  26.090  1.00  0.00     0.251 C 
ATOM     24  H   UNL A   1      39.845  18.380  25.559  1.00  0.00     0.163 HD
ATOM     25  O   UNL A   1      42.221  18.643  25.888  1.00  0.00    -0.269 OA
BRANCH  23  26
ATOM     26  C   UNL A   1      41.844  20.840  26.612  1.00  0.00     0.039 A 
ATOM     27  C   UNL A   1      42.325  21.794  25.709  1.00  0.00     0.014 A 
ATOM     28  C   UNL A   1      41.805  21.133  27.977  1.00  0.00     0.014 A 
ATOM     29  C   UNL A   1      42.695  23.062  26.166  1.00  0.00     0.010 A 
ATOM     30  C   UNL A   1      42.100  22.421  28.421  1.00  0.00     0.010 A 
ATOM     31  C   UNL A   1      42.546  23.402  27.521  1.00  0.00    -0.014 A 
BRANCH  31  32
ATOM     32  C   UNL A   1      42.833  24.777  28.007  1.00  0.00     0.031 A 
ATOM     33  C   UNL A   1      44.231  25.175  28.393  1.00  0.00     0.074 A 
ATOM     34  C   UNL A   1      41.821  25.656  28.159  1.00  0.00     0.049 A 
ATOM     35  N   UNL A   1      44.660  26.309  28.889  1.00  0.00    -0.248 NA
ATOM     36  C   UNL A   1      45.283  24.161  28.219  1.00  0.00     0.031 C 
ATOM     37  C   UNL A   1      40.414  25.388  27.857  1.00  0.00     0.029 A 
ATOM     38  N   UNL A   1      41.822  26.952  28.614  1.00  0.00    -0.354 N 
ATOM     39  C   UNL A   1      46.024  26.141  29.096  1.00  0.00     0.074 A 
ATOM     40  C   UNL A   1      46.341  24.780  28.724  1.00  0.00     0.031 C 
ATOM     41  C   UNL A   1      39.692  26.492  28.109  1.00  0.00     0.029 A 
ATOM     42  C   UNL A   1      40.574  27.528  28.636  1.00  0.00     0.049 A 
ATOM     43  H   UNL A   1      42.639  27.422  28.899  1.00  0.00     0.167 HD
ATOM     44  C   UNL A   1      46.935  27.042  29.535  1.00  0.00     0.031 A 
ATOM     45  C   UNL A   1      40.179  28.749  29.046  1.00  0.00     0.031 A 
ATOM     46  C   UNL A   1      46.622  28.396  29.911  1.00  0.00     0.049 A 
ATOM     47  C   UNL A   1      41.204  29.718  29.568  1.00  0.00     0.074 A 
ATOM     48  C   UNL A   1      47.484  29.396  30.328  1.00  0.00     0.029 A 
ATOM     49  N   UNL A   1      45.346  28.939  29.922  1.00  0.00    -0.354 N 
ATOM     50  N   UNL A   1      42.500  29.563  29.694  1.00  0.00    -0.248 NA
ATOM     51  C   UNL A   1      40.712  31.036  29.992  1.00  0.00     0.031 C 
ATOM     52  C   UNL A   1      46.722  30.524  30.651  1.00  0.00     0.029 A 
ATOM     53  C   UNL A   1      45.395  30.250  30.367  1.00  0.00     0.049 A 
ATOM     54  H   UNL A   1      44.527  28.463  29.653  1.00  0.00     0.167 HD
ATOM     55  C   UNL A   1      42.980  30.772  30.182  1.00  0.00     0.074 A 
ATOM     56  C   UNL A   1      41.840  31.655  30.310  1.00  0.00     0.031 C 
ATOM     57  C   UNL A   1      44.253  31.119  30.493  1.00  0.00     0.031 A 
BRANCH  44  58
ATOM     58  C   UNL A   1      48.365  26.585  29.644  1.00  0.00    -0.014 A 
ATOM     59  C   UNL A   1      49.277  26.789  28.595  1.00  0.00     0.009 A 
ATOM     60  C   UNL A   1      48.819  25.980  30.826  1.00  0.00     0.009 A 
ATOM     61  C   UNL A   1      50.601  26.359  28.713  1.00  0.00     0.001 A 
ATOM     62  C   UNL A   1      50.151  25.581  30.954  1.00  0.00     0.001 A 
ATOM     63  C   UNL A   1      51.038  25.760  29.893  1.00  0.00     0.000 A 
ENDBRANCH  44  58
BRANCH  45  64
ATOM     64  C   UNL A   1      38.742  29.128  28.983  1.00  0.00    -0.014 A 
ATOM     65  C   UNL A   1      38.187  29.637  27.798  1.00  0.00     0.009 A 
ATOM     66  C   UNL A   1      37.919  28.997  30.113  1.00  0.00     0.009 A 
ATOM     67  C   UNL A   1      36.849  30.036  27.755  1.00  0.00     0.001 A 
ATOM     68  C   UNL A   1      36.574  29.364  30.058  1.00  0.00     0.001 A 
ATOM     69  C   UNL A   1      36.043  29.895  28.883  1.00  0.00     0.000 A 
ENDBRANCH  45  64
BRANCH  57  70
ATOM     70  C   UNL A   1      44.489  32.528  30.966  1.00  0.00    -0.014 A 
ATOM     71  C   UNL A   1      44.471  32.858  32.330  1.00  0.00     0.009 A 
ATOM     72  C   UNL A   1      44.773  33.535  30.029  1.00  0.00     0.009 A 
ATOM     73  C   UNL A   1      44.695  34.174  32.742  1.00  0.00     0.001 A 
ATOM     74  C   UNL A   1      45.030  34.842  30.445  1.00  0.00     0.001 A 
ATOM     75  C   UNL A   1      44.981  35.162  31.800  1.00  0.00     0.000 A 
ENDBRANCH  57  70
ENDBRANCH  31  32
ENDBRANCH  23  26
ENDBRANCH  21  22
ENDBRANCH  20  21
ENDBRANCH   1  20
TORSDOF 13
ENDMDL
