MODEL 1
REMARK VINA RESULT:     -10.3      0.000      0.000
REMARK SMILES CS(=O)(=O)CC(=O)N1CCO[C@@H](CC(=O)NCCCCNC(=O)c2ccc(-c3c4nc(c(-c5ccccc5)c5ccc([nH]5)c(-c5ccccc5)c5nc(c(-c6ccccc6)c6ccc3[nH]6)C=C5)C=C4)cc2)C1
REMARK SMILES IDX 17 1 16 2 14 3 15 4 13 6 12 7 8 8 9 9 72 10 10 11 11 12 6 13
REMARK SMILES IDX 7 14 5 15 2 16 1 17 3 18 4 19 18 20 19 21 20 22 21 23 22 24
REMARK SMILES IDX 23 26 24 27 25 28 71 29 26 30 70 31 27 32 28 33 29 34 64 35
REMARK SMILES IDX 30 36 69 37 63 38 65 39 31 40 68 41 62 42 61 43 32 45 54 46
REMARK SMILES IDX 39 47 53 48 40 49 43 50 52 51 66 52 41 53 42 54 51 56 67 57
REMARK SMILES IDX 44 58 33 59 34 60 38 61 35 62 37 63 36 64 55 65 56 66 60 67
REMARK SMILES IDX 57 68 59 69 58 70 45 71 46 72 50 73 47 74 49 75 48 76
REMARK H PARENT 16 5 21 25 65 44 43 55
REMARK Flexibility Score: inf
ROOT
ATOM      1  C   UNL A   1      35.285  21.305  25.953  1.00  0.00     0.116 C 
ENDROOT
BRANCH   1   2
ATOM      2  N   UNL A   1      34.331  20.333  25.440  1.00  0.00    -0.356 N 
ATOM      3  C   UNL A   1      32.977  20.412  25.292  1.00  0.00     0.222 C 
ATOM      4  O   UNL A   1      32.368  19.398  24.949  1.00  0.00    -0.275 OA
ATOM      5  H   UNL A   1      34.728  19.478  25.155  1.00  0.00     0.163 HD
BRANCH   3   6
ATOM      6  C   UNL A   1      32.237  21.703  25.569  1.00  0.00     0.133 C 
BRANCH   6   7
ATOM      7  C   UNL A   1      32.093  22.592  24.329  1.00  0.00     0.147 C 
ATOM      8  N   UNL A   1      32.384  24.985  23.586  1.00  0.00    -0.337 N 
ATOM      9  C   UNL A   1      33.421  24.524  22.668  1.00  0.00     0.148 C 
ATOM     10  C   UNL A   1      32.196  24.076  24.703  1.00  0.00     0.152 C 
ATOM     11  C   UNL A   1      33.173  23.073  22.263  1.00  0.00     0.182 C 
ATOM     12  O   UNL A   1      33.155  22.225  23.422  1.00  0.00    -0.374 OA
BRANCH   8  13
ATOM     13  C   UNL A   1      32.371  26.338  23.909  1.00  0.00     0.237 C 
ATOM     14  O   UNL A   1      33.381  27.038  23.852  1.00  0.00    -0.274 OA
BRANCH  13  15
ATOM     15  C   UNL A   1      31.088  26.856  24.469  1.00  0.00     0.236 C 
BRANCH  15  16
ATOM     16  S   UNL A   1      30.109  27.662  23.241  1.00  0.00     0.156 S 
ATOM     17  C   UNL A   1      30.219  29.406  23.570  1.00  0.00     0.158 C 
ATOM     18  O   UNL A   1      28.730  27.267  23.471  1.00  0.00    -0.229 OA
ATOM     19  O   UNL A   1      30.717  27.417  21.946  1.00  0.00    -0.229 OA
ENDBRANCH  15  16
ENDBRANCH  13  15
ENDBRANCH   8  13
ENDBRANCH   6   7
ENDBRANCH   3   6
ENDBRANCH   1   2
BRANCH   1  20
ATOM     20  C   UNL A   1      36.449  21.509  24.979  1.00  0.00     0.023 C 
BRANCH  20  21
ATOM     21  C   UNL A   1      37.475  20.390  24.949  1.00  0.00     0.023 C 
BRANCH  21  22
ATOM     22  C   UNL A   1      38.759  20.708  25.688  1.00  0.00     0.116 C 
BRANCH  22  23
ATOM     23  N   UNL A   1      39.736  19.627  25.653  1.00  0.00    -0.352 N 
ATOM     24  C   UNL A   1      41.064  19.650  26.011  1.00  0.00     0.251 C 
ATOM     25  H   UNL A   1      39.399  18.760  25.330  1.00  0.00     0.163 HD
ATOM     26  O   UNL A   1      41.778  18.671  25.843  1.00  0.00    -0.269 OA
BRANCH  24  27
ATOM     27  C   UNL A   1      41.630  20.903  26.553  1.00  0.00     0.039 A 
ATOM     28  C   UNL A   1      42.128  21.858  25.665  1.00  0.00     0.014 A 
ATOM     29  C   UNL A   1      41.573  21.165  27.922  1.00  0.00     0.014 A 
ATOM     30  C   UNL A   1      42.484  23.118  26.147  1.00  0.00     0.010 A 
ATOM     31  C   UNL A   1      41.819  22.451  28.380  1.00  0.00     0.010 A 
ATOM     32  C   UNL A   1      42.282  23.440  27.499  1.00  0.00    -0.014 A 
BRANCH  32  33
ATOM     33  C   UNL A   1      42.555  24.799  28.025  1.00  0.00     0.031 A 
ATOM     34  C   UNL A   1      43.947  25.157  28.469  1.00  0.00     0.074 A 
ATOM     35  C   UNL A   1      41.544  25.675  28.186  1.00  0.00     0.049 A 
ATOM     36  N   UNL A   1      44.373  26.250  29.049  1.00  0.00    -0.248 NA
ATOM     37  C   UNL A   1      44.990  24.136  28.272  1.00  0.00     0.031 C 
ATOM     38  C   UNL A   1      40.138  25.427  27.852  1.00  0.00     0.029 A 
ATOM     39  N   UNL A   1      41.545  26.954  28.681  1.00  0.00    -0.354 N 
ATOM     40  C   UNL A   1      45.718  26.031  29.315  1.00  0.00     0.074 A 
ATOM     41  C   UNL A   1      46.026  24.685  28.886  1.00  0.00     0.031 C 
ATOM     42  C   UNL A   1      39.422  26.532  28.119  1.00  0.00     0.029 A 
ATOM     43  C   UNL A   1      40.306  27.548  28.677  1.00  0.00     0.049 A 
ATOM     44  H   UNL A   1      42.357  27.404  29.010  1.00  0.00     0.167 HD
ATOM     45  C   UNL A   1      46.627  26.882  29.847  1.00  0.00     0.031 A 
ATOM     46  C   UNL A   1      39.928  28.777  29.078  1.00  0.00     0.031 A 
ATOM     47  C   UNL A   1      46.332  28.233  30.231  1.00  0.00     0.049 A 
ATOM     48  C   UNL A   1      40.963  29.716  29.632  1.00  0.00     0.074 A 
ATOM     49  C   UNL A   1      47.196  29.203  30.707  1.00  0.00     0.029 A 
ATOM     50  N   UNL A   1      45.073  28.809  30.174  1.00  0.00    -0.354 N 
ATOM     51  N   UNL A   1      42.245  29.517  29.814  1.00  0.00    -0.248 NA
ATOM     52  C   UNL A   1      40.497  31.054  30.024  1.00  0.00     0.031 C 
ATOM     53  C   UNL A   1      46.452  30.357  30.969  1.00  0.00     0.029 A 
ATOM     54  C   UNL A   1      45.134  30.118  30.617  1.00  0.00     0.049 A 
ATOM     55  H   UNL A   1      44.256  28.355  29.863  1.00  0.00     0.167 HD
ATOM     56  C   UNL A   1      42.744  30.711  30.317  1.00  0.00     0.074 A 
ATOM     57  C   UNL A   1      41.630  31.632  30.397  1.00  0.00     0.031 C 
ATOM     58  C   UNL A   1      44.013  31.017  30.683  1.00  0.00     0.031 A 
BRANCH  45  59
ATOM     59  C   UNL A   1      48.026  26.369  30.030  1.00  0.00    -0.014 A 
ATOM     60  C   UNL A   1      48.428  25.766  31.233  1.00  0.00     0.009 A 
ATOM     61  C   UNL A   1      48.951  26.474  28.981  1.00  0.00     0.009 A 
ATOM     62  C   UNL A   1      49.738  25.314  31.395  1.00  0.00     0.001 A 
ATOM     63  C   UNL A   1      50.253  25.994  29.135  1.00  0.00     0.001 A 
ATOM     64  C   UNL A   1      50.648  25.424  30.345  1.00  0.00     0.000 A 
ENDBRANCH  45  59
BRANCH  46  65
ATOM     65  C   UNL A   1      38.510  29.203  28.948  1.00  0.00    -0.014 A 
ATOM     66  C   UNL A   1      38.042  29.739  27.738  1.00  0.00     0.009 A 
ATOM     67  C   UNL A   1      37.622  29.087  30.027  1.00  0.00     0.009 A 
ATOM     68  C   UNL A   1      36.722  30.177  27.622  1.00  0.00     0.001 A 
ATOM     69  C   UNL A   1      36.295  29.501  29.900  1.00  0.00     0.001 A 
ATOM     70  C   UNL A   1      35.848  30.055  28.701  1.00  0.00     0.000 A 
ENDBRANCH  46  65
BRANCH  58  71
ATOM     71  C   UNL A   1      44.265  32.413  31.170  1.00  0.00    -0.014 A 
ATOM     72  C   UNL A   1      44.193  32.730  32.535  1.00  0.00     0.009 A 
ATOM     73  C   UNL A   1      44.625  33.414  30.254  1.00  0.00     0.009 A 
ATOM     74  C   UNL A   1      44.449  34.031  32.970  1.00  0.00     0.001 A 
ATOM     75  C   UNL A   1      44.906  34.707  30.694  1.00  0.00     0.001 A 
ATOM     76  C   UNL A   1      44.810  35.017  32.051  1.00  0.00     0.000 A 
ENDBRANCH  58  71
ENDBRANCH  32  33
ENDBRANCH  24  27
ENDBRANCH  22  23
ENDBRANCH  21  22
ENDBRANCH  20  21
ENDBRANCH   1  20
TORSDOF 15
ENDMDL
MODEL 2
REMARK VINA RESULT:     -10.2      5.204     10.346
REMARK SMILES CS(=O)(=O)CC(=O)N1CCO[C@@H](CC(=O)NCCCCNC(=O)c2ccc(-c3c4nc(c(-c5ccccc5)c5ccc([nH]5)c(-c5ccccc5)c5nc(c(-c6ccccc6)c6ccc3[nH]6)C=C5)C=C4)cc2)C1
REMARK SMILES IDX 17 1 16 2 14 3 15 4 13 6 12 7 8 8 9 9 72 10 10 11 11 12 6 13
REMARK SMILES IDX 7 14 5 15 2 16 1 17 3 18 4 19 18 20 19 21 20 22 21 23 22 24
REMARK SMILES IDX 23 26 24 27 25 28 71 29 26 30 70 31 27 32 28 33 29 34 64 35
REMARK SMILES IDX 30 36 69 37 63 38 65 39 31 40 68 41 62 42 61 43 32 45 54 46
REMARK SMILES IDX 39 47 53 48 40 49 43 50 52 51 66 52 41 53 42 54 51 56 67 57
REMARK SMILES IDX 44 58 33 59 34 60 38 61 35 62 37 63 36 64 55 65 56 66 60 67
REMARK SMILES IDX 57 68 59 69 58 70 45 71 46 72 50 73 47 74 49 75 48 76
REMARK H PARENT 16 5 21 25 65 44 43 55
REMARK Flexibility Score: inf
ROOT
ATOM      1  C   UNL A   1      34.097  32.104  28.306  1.00  0.00     0.116 C 
ENDROOT
BRANCH   1   2
ATOM      2  N   UNL A   1      35.328  31.474  27.854  1.00  0.00    -0.356 N 
ATOM      3  C   UNL A   1      35.609  30.166  27.584  1.00  0.00     0.222 C 
ATOM      4  O   UNL A   1      36.776  29.860  27.336  1.00  0.00    -0.275 OA
ATOM      5  H   UNL A   1      36.083  32.093  27.723  1.00  0.00     0.163 HD
BRANCH   3   6
ATOM      6  C   UNL A   1      34.522  29.114  27.619  1.00  0.00     0.133 C 
BRANCH   6   7
ATOM      7  C   UNL A   1      33.868  28.880  26.253  1.00  0.00     0.147 C 
ATOM      8  N   UNL A   1      32.711  27.081  24.914  1.00  0.00    -0.337 N 
ATOM      9  C   UNL A   1      31.511  27.914  24.923  1.00  0.00     0.148 C 
ATOM     10  C   UNL A   1      33.598  27.387  26.023  1.00  0.00     0.152 C 
ATOM     11  C   UNL A   1      31.883  29.390  25.041  1.00  0.00     0.182 C 
ATOM     12  O   UNL A   1      32.630  29.623  26.246  1.00  0.00    -0.374 OA
BRANCH   8  13
ATOM     13  C   UNL A   1      32.547  25.728  24.636  1.00  0.00     0.237 C 
ATOM     14  O   UNL A   1      33.305  25.114  23.887  1.00  0.00    -0.274 OA
BRANCH  13  15
ATOM     15  C   UNL A   1      31.311  25.100  25.190  1.00  0.00     0.236 C 
BRANCH  15  16
ATOM     16  S   UNL A   1      31.681  23.780  26.301  1.00  0.00     0.156 S 
ATOM     17  C   UNL A   1      31.649  22.284  25.339  1.00  0.00     0.158 C 
ATOM     18  O   UNL A   1      30.583  23.704  27.250  1.00  0.00    -0.229 OA
ATOM     19  O   UNL A   1      33.036  23.964  26.786  1.00  0.00    -0.229 OA
ENDBRANCH  15  16
ENDBRANCH  13  15
ENDBRANCH   8  13
ENDBRANCH   6   7
ENDBRANCH   3   6
ENDBRANCH   1   2
BRANCH   1  20
ATOM     20  C   UNL A   1      34.376  33.450  28.979  1.00  0.00     0.023 C 
BRANCH  20  21
ATOM     21  C   UNL A   1      33.310  34.513  28.775  1.00  0.00     0.023 C 
BRANCH  21  22
ATOM     22  C   UNL A   1      33.578  35.807  29.517  1.00  0.00     0.116 C 
BRANCH  22  23
ATOM     23  N   UNL A   1      32.562  36.130  30.512  1.00  0.00    -0.352 N 
ATOM     24  C   UNL A   1      32.540  35.829  31.854  1.00  0.00     0.251 C 
ATOM     25  H   UNL A   1      31.784  36.633  30.178  1.00  0.00     0.163 HD
ATOM     26  O   UNL A   1      31.568  36.101  32.544  1.00  0.00    -0.269 OA
BRANCH  24  27
ATOM     27  C   UNL A   1      33.696  35.119  32.440  1.00  0.00     0.039 A 
ATOM     28  C   UNL A   1      33.530  33.803  32.875  1.00  0.00     0.014 A 
ATOM     29  C   UNL A   1      34.954  35.722  32.462  1.00  0.00     0.014 A 
ATOM     30  C   UNL A   1      34.650  33.060  33.247  1.00  0.00     0.010 A 
ATOM     31  C   UNL A   1      36.075  34.950  32.724  1.00  0.00     0.010 A 
ATOM     32  C   UNL A   1      35.936  33.612  33.123  1.00  0.00    -0.014 A 
BRANCH  32  33
ATOM     33  C   UNL A   1      37.155  32.819  33.414  1.00  0.00     0.031 A 
ATOM     34  C   UNL A   1      37.906  33.056  34.696  1.00  0.00     0.074 A 
ATOM     35  C   UNL A   1      37.632  31.956  32.497  1.00  0.00     0.049 A 
ATOM     36  N   UNL A   1      39.043  32.546  35.093  1.00  0.00    -0.248 NA
ATOM     37  C   UNL A   1      37.323  34.029  35.637  1.00  0.00     0.031 C 
ATOM     38  C   UNL A   1      37.030  31.680  31.189  1.00  0.00     0.029 A 
ATOM     39  N   UNL A   1      38.745  31.154  32.523  1.00  0.00    -0.354 N 
ATOM     40  C   UNL A   1      39.324  33.160  36.307  1.00  0.00     0.074 A 
ATOM     41  C   UNL A   1      38.272  34.118  36.555  1.00  0.00     0.031 C 
ATOM     42  C   UNL A   1      37.761  30.747  30.556  1.00  0.00     0.029 A 
ATOM     43  C   UNL A   1      38.900  30.389  31.393  1.00  0.00     0.049 A 
ATOM     44  H   UNL A   1      39.373  31.129  33.282  1.00  0.00     0.167 HD
ATOM     45  C   UNL A   1      40.354  32.928  37.154  1.00  0.00     0.031 A 
ATOM     46  C   UNL A   1      39.856  29.497  31.069  1.00  0.00     0.031 A 
ATOM     47  C   UNL A   1      41.375  31.945  36.929  1.00  0.00     0.049 A 
ATOM     48  C   UNL A   1      40.970  29.232  32.044  1.00  0.00     0.074 A 
ATOM     49  C   UNL A   1      42.418  31.578  37.761  1.00  0.00     0.029 A 
ATOM     50  N   UNL A   1      41.474  31.163  35.789  1.00  0.00    -0.354 N 
ATOM     51  N   UNL A   1      41.184  29.772  33.219  1.00  0.00    -0.248 NA
ATOM     52  C   UNL A   1      41.966  28.226  31.650  1.00  0.00     0.031 C 
ATOM     53  C   UNL A   1      43.169  30.595  37.108  1.00  0.00     0.029 A 
ATOM     54  C   UNL A   1      42.568  30.322  35.889  1.00  0.00     0.049 A 
ATOM     55  H   UNL A   1      40.857  31.199  35.023  1.00  0.00     0.167 HD
ATOM     56  C   UNL A   1      42.323  29.154  33.716  1.00  0.00     0.074 A 
ATOM     57  C   UNL A   1      42.745  28.189  32.722  1.00  0.00     0.031 C 
ATOM     58  C   UNL A   1      42.965  29.367  34.890  1.00  0.00     0.031 A 
BRANCH  45  59
ATOM     59  C   UNL A   1      40.412  33.754  38.408  1.00  0.00    -0.014 A 
ATOM     60  C   UNL A   1      39.766  33.337  39.583  1.00  0.00     0.009 A 
ATOM     61  C   UNL A   1      41.135  34.956  38.420  1.00  0.00     0.009 A 
ATOM     62  C   UNL A   1      39.812  34.125  40.734  1.00  0.00     0.001 A 
ATOM     63  C   UNL A   1      41.204  35.728  39.581  1.00  0.00     0.001 A 
ATOM     64  C   UNL A   1      40.534  35.318  40.733  1.00  0.00     0.000 A 
ENDBRANCH  45  59
BRANCH  46  65
ATOM     65  C   UNL A   1      39.791  28.766  29.777  1.00  0.00    -0.014 A 
ATOM     66  C   UNL A   1      40.268  29.366  28.601  1.00  0.00     0.009 A 
ATOM     67  C   UNL A   1      39.247  27.475  29.708  1.00  0.00     0.009 A 
ATOM     68  C   UNL A   1      40.172  28.699  27.378  1.00  0.00     0.001 A 
ATOM     69  C   UNL A   1      39.178  26.800  28.488  1.00  0.00     0.001 A 
ATOM     70  C   UNL A   1      39.631  27.415  27.322  1.00  0.00     0.000 A 
ENDBRANCH  46  65
BRANCH  58  71
ATOM     71  C   UNL A   1      44.170  28.519  35.174  1.00  0.00    -0.014 A 
ATOM     72  C   UNL A   1      44.042  27.249  35.757  1.00  0.00     0.009 A 
ATOM     73  C   UNL A   1      45.445  28.979  34.810  1.00  0.00     0.009 A 
ATOM     74  C   UNL A   1      45.173  26.468  35.996  1.00  0.00     0.001 A 
ATOM     75  C   UNL A   1      46.571  28.186  35.027  1.00  0.00     0.001 A 
ATOM     76  C   UNL A   1      46.436  26.934  35.627  1.00  0.00     0.000 A 
ENDBRANCH  58  71
ENDBRANCH  32  33
ENDBRANCH  24  27
ENDBRANCH  22  23
ENDBRANCH  21  22
ENDBRANCH  20  21
ENDBRANCH   1  20
TORSDOF 15
ENDMDL
MODEL 3
REMARK VINA RESULT:     -10.2      2.071      7.780
REMARK SMILES CS(=O)(=O)CC(=O)N1CCO[C@@H](CC(=O)NCCCCNC(=O)c2ccc(-c3c4nc(c(-c5ccccc5)c5ccc([nH]5)c(-c5ccccc5)c5nc(c(-c6ccccc6)c6ccc3[nH]6)C=C5)C=C4)cc2)C1
REMARK SMILES IDX 17 1 16 2 14 3 15 4 13 6 12 7 8 8 9 9 72 10 10 11 11 12 6 13
REMARK SMILES IDX 7 14 5 15 2 16 1 17 3 18 4 19 18 20 19 21 20 22 21 23 22 24
REMARK SMILES IDX 23 26 24 27 25 28 71 29 26 30 70 31 27 32 28 33 29 34 64 35
REMARK SMILES IDX 30 36 69 37 63 38 65 39 31 40 68 41 62 42 61 43 32 45 54 46
REMARK SMILES IDX 39 47 53 48 40 49 43 50 52 51 66 52 41 53 42 54 51 56 67 57
REMARK SMILES IDX 44 58 33 59 34 60 38 61 35 62 37 63 36 64 55 65 56 66 60 67
REMARK SMILES IDX 57 68 59 69 58 70 45 71 46 72 50 73 47 74 49 75 48 76
REMARK H PARENT 16 5 21 25 65 44 43 55
REMARK Flexibility Score: inf
ROOT
ATOM      1  C   UNL A   1      31.212  29.746  25.017  1.00  0.00     0.116 C 
ENDROOT
BRANCH   1   2
ATOM      2  N   UNL A   1      30.659  30.053  23.707  1.00  0.00    -0.356 N 
ATOM      3  C   UNL A   1      30.258  29.227  22.698  1.00  0.00     0.222 C 
ATOM      4  O   UNL A   1      29.939  29.734  21.621  1.00  0.00    -0.275 OA
ATOM      5  H   UNL A   1      30.560  31.014  23.517  1.00  0.00     0.163 HD
BRANCH   3   6
ATOM      6  C   UNL A   1      30.233  27.725  22.884  1.00  0.00     0.133 C 
BRANCH   6   7
ATOM      7  C   UNL A   1      31.589  27.064  22.620  1.00  0.00     0.147 C 
ATOM      8  N   UNL A   1      33.025  25.147  23.413  1.00  0.00    -0.337 N 
ATOM      9  C   UNL A   1      32.910  24.571  22.076  1.00  0.00     0.148 C 
ATOM     10  C   UNL A   1      31.927  26.047  23.718  1.00  0.00     0.152 C 
ATOM     11  C   UNL A   1      32.688  25.666  21.036  1.00  0.00     0.182 C 
ATOM     12  O   UNL A   1      31.495  26.407  21.337  1.00  0.00    -0.374 OA
BRANCH   8  13
ATOM     13  C   UNL A   1      33.403  24.295  24.445  1.00  0.00     0.237 C 
ATOM     14  O   UNL A   1      32.636  23.462  24.926  1.00  0.00    -0.274 OA
BRANCH  13  15
ATOM     15  C   UNL A   1      34.751  24.552  25.033  1.00  0.00     0.236 C 
BRANCH  15  16
ATOM     16  S   UNL A   1      35.883  23.243  24.688  1.00  0.00     0.156 S 
ATOM     17  C   UNL A   1      35.620  22.004  25.936  1.00  0.00     0.158 C 
ATOM     18  O   UNL A   1      37.221  23.775  24.884  1.00  0.00    -0.229 OA
ATOM     19  O   UNL A   1      35.525  22.662  23.407  1.00  0.00    -0.229 OA
ENDBRANCH  15  16
ENDBRANCH  13  15
ENDBRANCH   8  13
ENDBRANCH   6   7
ENDBRANCH   3   6
ENDBRANCH   1   2
BRANCH   1  20
ATOM     20  C   UNL A   1      32.743  29.715  24.981  1.00  0.00     0.023 C 
BRANCH  20  21
ATOM     21  C   UNL A   1      33.390  28.593  25.773  1.00  0.00     0.023 C 
BRANCH  21  22
ATOM     22  C   UNL A   1      33.360  28.798  27.274  1.00  0.00     0.116 C 
BRANCH  22  23
ATOM     23  N   UNL A   1      33.448  30.198  27.674  1.00  0.00    -0.352 N 
ATOM     24  C   UNL A   1      34.520  30.881  28.198  1.00  0.00     0.251 C 
ATOM     25  H   UNL A   1      32.626  30.728  27.549  1.00  0.00     0.163 HD
ATOM     26  O   UNL A   1      34.408  32.044  28.562  1.00  0.00    -0.269 OA
BRANCH  24  27
ATOM     27  C   UNL A   1      35.802  30.167  28.367  1.00  0.00     0.039 A 
ATOM     28  C   UNL A   1      36.714  30.158  27.311  1.00  0.00     0.014 A 
ATOM     29  C   UNL A   1      36.133  29.600  29.598  1.00  0.00     0.014 A 
ATOM     30  C   UNL A   1      37.999  29.658  27.522  1.00  0.00     0.010 A 
ATOM     31  C   UNL A   1      37.442  29.208  29.838  1.00  0.00     0.010 A 
ATOM     32  C   UNL A   1      38.388  29.229  28.802  1.00  0.00    -0.014 A 
BRANCH  32  33
ATOM     33  C   UNL A   1      39.774  28.785  29.087  1.00  0.00     0.031 A 
ATOM     34  C   UNL A   1      40.734  29.733  29.754  1.00  0.00     0.074 A 
ATOM     35  C   UNL A   1      40.193  27.574  28.672  1.00  0.00     0.049 A 
ATOM     36  N   UNL A   1      42.010  29.579  29.997  1.00  0.00    -0.248 NA
ATOM     37  C   UNL A   1      40.199  31.043  30.161  1.00  0.00     0.031 C 
ATOM     38  C   UNL A   1      39.376  26.586  27.961  1.00  0.00     0.029 A 
ATOM     39  N   UNL A   1      41.419  26.969  28.784  1.00  0.00    -0.354 N 
ATOM     40  C   UNL A   1      42.432  30.780  30.552  1.00  0.00     0.074 A 
ATOM     41  C   UNL A   1      41.294  31.671  30.558  1.00  0.00     0.031 C 
ATOM     42  C   UNL A   1      40.114  25.487  27.733  1.00  0.00     0.029 A 
ATOM     43  C   UNL A   1      41.463  25.707  28.245  1.00  0.00     0.049 A 
ATOM     44  H   UNL A   1      42.195  27.401  29.211  1.00  0.00     0.167 HD
ATOM     45  C   UNL A   1      43.652  31.107  31.038  1.00  0.00     0.031 A 
ATOM     46  C   UNL A   1      42.478  24.825  28.174  1.00  0.00     0.031 A 
ATOM     47  C   UNL A   1      44.770  30.207  31.073  1.00  0.00     0.049 A 
ATOM     48  C   UNL A   1      43.814  25.199  28.753  1.00  0.00     0.074 A 
ATOM     49  C   UNL A   1      46.027  30.413  31.615  1.00  0.00     0.029 A 
ATOM     50  N   UNL A   1      44.761  28.923  30.553  1.00  0.00    -0.354 N 
ATOM     51  N   UNL A   1      44.177  26.314  29.336  1.00  0.00    -0.248 NA
ATOM     52  C   UNL A   1      44.874  24.184  28.674  1.00  0.00     0.031 C 
ATOM     53  C   UNL A   1      46.790  29.263  31.391  1.00  0.00     0.029 A 
ATOM     54  C   UNL A   1      45.994  28.327  30.749  1.00  0.00     0.049 A 
ATOM     55  H   UNL A   1      43.991  28.497  30.110  1.00  0.00     0.167 HD
ATOM     56  C   UNL A   1      45.500  26.128  29.715  1.00  0.00     0.074 A 
ATOM     57  C   UNL A   1      45.868  24.787  29.311  1.00  0.00     0.031 C 
ATOM     58  C   UNL A   1      46.336  26.991  30.342  1.00  0.00     0.031 A 
BRANCH  45  59
ATOM     59  C   UNL A   1      43.828  32.497  31.579  1.00  0.00    -0.014 A 
ATOM     60  C   UNL A   1      43.596  32.785  32.934  1.00  0.00     0.009 A 
ATOM     61  C   UNL A   1      44.247  33.530  30.728  1.00  0.00     0.009 A 
ATOM     62  C   UNL A   1      43.744  34.086  33.416  1.00  0.00     0.001 A 
ATOM     63  C   UNL A   1      44.422  34.825  31.220  1.00  0.00     0.001 A 
ATOM     64  C   UNL A   1      44.160  35.104  32.560  1.00  0.00     0.000 A 
ENDBRANCH  45  59
BRANCH  46  65
ATOM     65  C   UNL A   1      42.267  23.490  27.554  1.00  0.00    -0.014 A 
ATOM     66  C   UNL A   1      41.723  22.439  28.308  1.00  0.00     0.009 A 
ATOM     67  C   UNL A   1      42.615  23.257  26.216  1.00  0.00     0.009 A 
ATOM     68  C   UNL A   1      41.560  21.173  27.742  1.00  0.00     0.001 A 
ATOM     69  C   UNL A   1      42.426  21.996  25.645  1.00  0.00     0.001 A 
ATOM     70  C   UNL A   1      41.908  20.953  26.410  1.00  0.00     0.000 A 
ENDBRANCH  46  65
BRANCH  58  71
ATOM     71  C   UNL A   1      47.717  26.497  30.655  1.00  0.00    -0.014 A 
ATOM     72  C   UNL A   1      48.001  25.853  31.869  1.00  0.00     0.009 A 
ATOM     73  C   UNL A   1      48.738  26.638  29.702  1.00  0.00     0.009 A 
ATOM     74  C   UNL A   1      49.288  25.385  32.133  1.00  0.00     0.001 A 
ATOM     75  C   UNL A   1      50.017  26.146  29.958  1.00  0.00     0.001 A 
ATOM     76  C   UNL A   1      50.294  25.527  31.177  1.00  0.00     0.000 A 
ENDBRANCH  58  71
ENDBRANCH  32  33
ENDBRANCH  24  27
ENDBRANCH  22  23
ENDBRANCH  21  22
ENDBRANCH  20  21
ENDBRANCH   1  20
TORSDOF 15
ENDMDL
