MODEL 1
REMARK VINA RESULT:     -11.8      0.000      0.000
REMARK SMILES Nc1cc(C(=O)NCCCCNC(=O)c2ccc(-c3c4nc(c(-c5ccccc5)c5ccc([nH]5)c(-c5ccccc5)c5nc(c(-c6ccccc6)c6ccc3[nH]6)C=C5)C=C4)cc2)ccc1N1CC2(CCOCC2)C1
REMARK SMILES IDX 10 1 9 2 8 3 7 4 5 5 6 6 4 8 2 9 3 10 65 11 64 12 63 13 1 14
REMARK SMILES IDX 66 17 67 18 74 19 68 20 69 21 73 22 70 23 72 24 71 25 11 26
REMARK SMILES IDX 12 27 13 28 14 30 15 31 16 32 62 33 17 34 61 35 18 36 19 37
REMARK SMILES IDX 20 38 55 39 21 40 60 41 54 42 56 43 22 44 59 45 53 46 52 47
REMARK SMILES IDX 23 49 45 50 30 51 44 52 31 53 34 54 43 55 57 56 32 57 33 58
REMARK SMILES IDX 42 60 58 61 35 62 24 63 25 64 29 65 26 66 28 67 27 68 46 69
REMARK SMILES IDX 47 70 51 71 48 72 50 73 49 74 36 75 37 76 41 77 38 78 40 79
REMARK SMILES IDX 39 80
REMARK H PARENT 7 7 1 15 1 16 12 29 56 48 34 59
REMARK Flexibility Score: inf
ROOT
ATOM      1  C   UNL A   1      33.129  28.175  25.978  1.00  0.00     0.023 C 
ENDROOT
BRANCH   1   2
ATOM      2  C   UNL A   1      32.254  26.928  25.804  1.00  0.00     0.023 C 
BRANCH   2   3
ATOM      3  C   UNL A   1      31.542  26.852  24.452  1.00  0.00     0.116 C 
BRANCH   3   4
ATOM      4  N   UNL A   1      32.503  26.917  23.376  1.00  0.00    -0.352 N 
ATOM      5  C   UNL A   1      33.376  26.003  22.849  1.00  0.00     0.251 C 
ATOM      6  O   UNL A   1      34.112  26.417  21.948  1.00  0.00    -0.269 OA
ATOM      7  H   UNL A   1      32.538  27.795  22.932  1.00  0.00     0.163 HD
BRANCH   5   8
ATOM      8  C   UNL A   1      33.461  24.565  23.252  1.00  0.00     0.041 A 
ATOM      9  C   UNL A   1      32.718  22.292  22.704  1.00  0.00     0.056 A 
ATOM     10  C   UNL A   1      32.760  23.664  22.432  1.00  0.00     0.041 A 
ATOM     11  C   UNL A   1      33.340  21.797  23.869  1.00  0.00     0.060 A 
ATOM     12  C   UNL A   1      34.059  22.682  24.675  1.00  0.00     0.029 A 
ATOM     13  C   UNL A   1      34.152  24.044  24.347  1.00  0.00     0.016 A 
BRANCH   9  14
ATOM     14  N   UNL A   1      31.905  21.482  21.913  1.00  0.00    -0.397 N 
ATOM     15  H   UNL A   1      30.939  21.423  22.098  1.00  0.00     0.156 HD
ATOM     16  H   UNL A   1      32.295  20.968  21.170  1.00  0.00     0.156 HD
ENDBRANCH   9  14
BRANCH  11  17
ATOM     17  N   UNL A   1      33.204  20.450  24.226  1.00  0.00    -0.369 N 
ATOM     18  C   UNL A   1      34.180  19.494  24.633  1.00  0.00     0.125 C 
ATOM     19  C   UNL A   1      32.106  19.700  24.740  1.00  0.00     0.125 C 
ATOM     20  C   UNL A   1      33.025  18.456  24.589  1.00  0.00     0.010 C 
ATOM     21  C   UNL A   1      32.973  17.433  25.718  1.00  0.00     0.039 C 
ATOM     22  C   UNL A   1      32.877  17.745  23.231  1.00  0.00     0.039 C 
ATOM     23  C   UNL A   1      34.042  16.373  25.467  1.00  0.00     0.161 C 
ATOM     24  C   UNL A   1      33.960  16.679  23.117  1.00  0.00     0.161 C 
ATOM     25  O   UNL A   1      33.846  15.748  24.195  1.00  0.00    -0.381 OA
ENDBRANCH  11  17
ENDBRANCH   5   8
ENDBRANCH   3   4
ENDBRANCH   2   3
ENDBRANCH   1   2
BRANCH   1  26
ATOM     26  C   UNL A   1      33.433  28.550  27.426  1.00  0.00     0.116 C 
BRANCH  26  27
ATOM     27  N   UNL A   1      33.437  29.985  27.661  1.00  0.00    -0.352 N 
ATOM     28  C   UNL A   1      34.466  30.776  28.114  1.00  0.00     0.251 C 
ATOM     29  H   UNL A   1      32.591  30.452  27.472  1.00  0.00     0.163 HD
ATOM     30  O   UNL A   1      34.284  31.959  28.355  1.00  0.00    -0.269 OA
BRANCH  28  31
ATOM     31  C   UNL A   1      35.786  30.159  28.351  1.00  0.00     0.039 A 
ATOM     32  C   UNL A   1      36.716  30.152  27.309  1.00  0.00     0.014 A 
ATOM     33  C   UNL A   1      36.114  29.631  29.601  1.00  0.00     0.014 A 
ATOM     34  C   UNL A   1      38.005  29.674  27.543  1.00  0.00     0.010 A 
ATOM     35  C   UNL A   1      37.417  29.214  29.850  1.00  0.00     0.010 A 
ATOM     36  C   UNL A   1      38.374  29.235  28.825  1.00  0.00    -0.014 A 
BRANCH  36  37
ATOM     37  C   UNL A   1      39.763  28.805  29.117  1.00  0.00     0.031 A 
ATOM     38  C   UNL A   1      40.722  29.751  29.779  1.00  0.00     0.074 A 
ATOM     39  C   UNL A   1      40.177  27.586  28.721  1.00  0.00     0.049 A 
ATOM     40  N   UNL A   1      41.987  29.576  30.066  1.00  0.00    -0.248 NA
ATOM     41  C   UNL A   1      40.198  31.076  30.148  1.00  0.00     0.031 C 
ATOM     42  C   UNL A   1      39.354  26.593  28.027  1.00  0.00     0.029 A 
ATOM     43  N   UNL A   1      41.401  26.978  28.840  1.00  0.00    -0.354 N 
ATOM     44  C   UNL A   1      42.414  30.772  30.627  1.00  0.00     0.074 A 
ATOM     45  C   UNL A   1      41.287  31.680  30.600  1.00  0.00     0.031 C 
ATOM     46  C   UNL A   1      40.089  25.491  27.806  1.00  0.00     0.029 A 
ATOM     47  C   UNL A   1      41.441  25.712  28.310  1.00  0.00     0.049 A 
ATOM     48  H   UNL A   1      42.178  27.409  29.266  1.00  0.00     0.167 HD
ATOM     49  C   UNL A   1      43.629  31.083  31.137  1.00  0.00     0.031 A 
ATOM     50  C   UNL A   1      42.454  24.829  28.234  1.00  0.00     0.031 A 
ATOM     51  C   UNL A   1      44.745  30.177  31.175  1.00  0.00     0.049 A 
ATOM     52  C   UNL A   1      43.793  25.199  28.805  1.00  0.00     0.074 A 
ATOM     53  C   UNL A   1      45.999  30.377  31.726  1.00  0.00     0.029 A 
ATOM     54  N   UNL A   1      44.742  28.900  30.638  1.00  0.00    -0.354 N 
ATOM     55  N   UNL A   1      44.161  26.309  29.398  1.00  0.00    -0.248 NA
ATOM     56  C   UNL A   1      44.855  24.187  28.706  1.00  0.00     0.031 C 
ATOM     57  C   UNL A   1      46.769  29.234  31.484  1.00  0.00     0.029 A 
ATOM     58  C   UNL A   1      45.978  28.306  30.826  1.00  0.00     0.049 A 
ATOM     59  H   UNL A   1      43.974  28.477  30.191  1.00  0.00     0.167 HD
ATOM     60  C   UNL A   1      45.487  26.121  29.763  1.00  0.00     0.074 A 
ATOM     61  C   UNL A   1      45.854  24.784  29.340  1.00  0.00     0.031 C 
ATOM     62  C   UNL A   1      46.326  26.977  30.395  1.00  0.00     0.031 A 
BRANCH  49  63
ATOM     63  C   UNL A   1      43.809  32.469  31.690  1.00  0.00    -0.014 A 
ATOM     64  C   UNL A   1      44.240  33.526  30.873  1.00  0.00     0.009 A 
ATOM     65  C   UNL A   1      43.522  32.726  33.038  1.00  0.00     0.009 A 
ATOM     66  C   UNL A   1      44.420  34.804  31.405  1.00  0.00     0.001 A 
ATOM     67  C   UNL A   1      43.675  34.011  33.563  1.00  0.00     0.001 A 
ATOM     68  C   UNL A   1      44.134  35.046  32.748  1.00  0.00     0.000 A 
ENDBRANCH  49  63
BRANCH  50  69
ATOM     69  C   UNL A   1      42.235  23.498  27.612  1.00  0.00    -0.014 A 
ATOM     70  C   UNL A   1      42.686  23.242  26.309  1.00  0.00     0.009 A 
ATOM     71  C   UNL A   1      41.575  22.479  28.316  1.00  0.00     0.009 A 
ATOM     72  C   UNL A   1      42.460  22.000  25.713  1.00  0.00     0.001 A 
ATOM     73  C   UNL A   1      41.372  21.229  27.726  1.00  0.00     0.001 A 
ATOM     74  C   UNL A   1      41.807  20.993  26.423  1.00  0.00     0.000 A 
ENDBRANCH  50  69
BRANCH  62  75
ATOM     75  C   UNL A   1      47.713  26.483  30.690  1.00  0.00    -0.014 A 
ATOM     76  C   UNL A   1      48.012  25.836  31.898  1.00  0.00     0.009 A 
ATOM     77  C   UNL A   1      48.724  26.635  29.728  1.00  0.00     0.009 A 
ATOM     78  C   UNL A   1      49.306  25.375  32.149  1.00  0.00     0.001 A 
ATOM     79  C   UNL A   1      50.009  26.150  29.971  1.00  0.00     0.001 A 
ATOM     80  C   UNL A   1      50.302  25.529  31.184  1.00  0.00     0.000 A 
ENDBRANCH  62  75
ENDBRANCH  36  37
ENDBRANCH  28  31
ENDBRANCH  26  27
ENDBRANCH   1  26
TORSDOF 13
ENDMDL
MODEL 2
REMARK VINA RESULT:     -11.6      3.199      8.897
REMARK SMILES Nc1cc(C(=O)NCCCCNC(=O)c2ccc(-c3c4nc(c(-c5ccccc5)c5ccc([nH]5)c(-c5ccccc5)c5nc(c(-c6ccccc6)c6ccc3[nH]6)C=C5)C=C4)cc2)ccc1N1CC2(CCOCC2)C1
REMARK SMILES IDX 10 1 9 2 8 3 7 4 5 5 6 6 4 8 2 9 3 10 65 11 64 12 63 13 1 14
REMARK SMILES IDX 66 17 67 18 74 19 68 20 69 21 73 22 70 23 72 24 71 25 11 26
REMARK SMILES IDX 12 27 13 28 14 30 15 31 16 32 62 33 17 34 61 35 18 36 19 37
REMARK SMILES IDX 20 38 55 39 21 40 60 41 54 42 56 43 22 44 59 45 53 46 52 47
REMARK SMILES IDX 23 49 45 50 30 51 44 52 31 53 34 54 43 55 57 56 32 57 33 58
REMARK SMILES IDX 42 60 58 61 35 62 24 63 25 64 29 65 26 66 28 67 27 68 46 69
REMARK SMILES IDX 47 70 51 71 48 72 50 73 49 74 36 75 37 76 41 77 38 78 40 79
REMARK SMILES IDX 39 80
REMARK H PARENT 7 7 1 15 1 16 12 29 56 48 34 59
REMARK Flexibility Score: inf
ROOT
ATOM      1  C   UNL A   1      35.769  22.923  24.825  1.00  0.00     0.023 C 
ENDROOT
BRANCH   1   2
ATOM      2  C   UNL A   1      34.710  23.802  24.149  1.00  0.00     0.023 C 
BRANCH   2   3
ATOM      3  C   UNL A   1      33.287  23.249  24.249  1.00  0.00     0.116 C 
BRANCH   3   4
ATOM      4  N   UNL A   1      32.730  23.532  25.551  1.00  0.00    -0.352 N 
ATOM      5  C   UNL A   1      31.881  24.503  26.012  1.00  0.00     0.251 C 
ATOM      6  O   UNL A   1      31.649  24.485  27.224  1.00  0.00    -0.269 OA
ATOM      7  H   UNL A   1      33.020  22.900  26.249  1.00  0.00     0.163 HD
BRANCH   5   8
ATOM      8  C   UNL A   1      31.201  25.525  25.158  1.00  0.00     0.041 A 
ATOM      9  C   UNL A   1      31.019  27.924  24.679  1.00  0.00     0.056 A 
ATOM     10  C   UNL A   1      31.593  26.855  25.377  1.00  0.00     0.041 A 
ATOM     11  C   UNL A   1      29.968  27.674  23.772  1.00  0.00     0.060 A 
ATOM     12  C   UNL A   1      29.590  26.351  23.530  1.00  0.00     0.029 A 
ATOM     13  C   UNL A   1      30.227  25.287  24.186  1.00  0.00     0.016 A 
BRANCH   9  14
ATOM     14  N   UNL A   1      31.377  29.223  25.038  1.00  0.00    -0.397 N 
ATOM     15  H   UNL A   1      31.412  29.931  24.354  1.00  0.00     0.156 HD
ATOM     16  H   UNL A   1      31.594  29.432  25.975  1.00  0.00     0.156 HD
ENDBRANCH   9  14
BRANCH  11  17
ATOM     17  N   UNL A   1      29.296  28.737  23.157  1.00  0.00    -0.369 N 
ATOM     18  C   UNL A   1      29.783  29.784  22.321  1.00  0.00     0.125 C 
ATOM     19  C   UNL A   1      27.939  28.911  22.760  1.00  0.00     0.125 C 
ATOM     20  C   UNL A   1      28.345  30.367  22.397  1.00  0.00     0.010 C 
ATOM     21  C   UNL A   1      27.761  30.934  21.108  1.00  0.00     0.039 C 
ATOM     22  C   UNL A   1      28.138  31.367  23.550  1.00  0.00     0.039 C 
ATOM     23  C   UNL A   1      28.387  32.301  20.847  1.00  0.00     0.161 C 
ATOM     24  C   UNL A   1      28.755  32.702  23.155  1.00  0.00     0.161 C 
ATOM     25  O   UNL A   1      28.155  33.182  21.950  1.00  0.00    -0.381 OA
ENDBRANCH  11  17
ENDBRANCH   5   8
ENDBRANCH   3   4
ENDBRANCH   2   3
ENDBRANCH   1   2
BRANCH   1  26
ATOM     26  C   UNL A   1      37.074  23.636  25.168  1.00  0.00     0.116 C 
BRANCH  26  27
ATOM     27  N   UNL A   1      38.174  22.726  25.444  1.00  0.00    -0.352 N 
ATOM     28  C   UNL A   1      39.329  22.968  26.149  1.00  0.00     0.251 C 
ATOM     29  H   UNL A   1      38.080  21.818  25.076  1.00  0.00     0.163 HD
ATOM     30  O   UNL A   1      40.209  22.125  26.213  1.00  0.00    -0.269 OA
BRANCH  28  31
ATOM     31  C   UNL A   1      39.508  24.286  26.792  1.00  0.00     0.039 A 
ATOM     32  C   UNL A   1      39.019  24.469  28.087  1.00  0.00     0.014 A 
ATOM     33  C   UNL A   1      40.187  25.314  26.135  1.00  0.00     0.014 A 
ATOM     34  C   UNL A   1      39.272  25.668  28.753  1.00  0.00     0.010 A 
ATOM     35  C   UNL A   1      40.494  26.482  26.822  1.00  0.00     0.010 A 
ATOM     36  C   UNL A   1      40.042  26.669  28.138  1.00  0.00    -0.014 A 
BRANCH  36  37
ATOM     37  C   UNL A   1      40.397  27.914  28.860  1.00  0.00     0.031 A 
ATOM     38  C   UNL A   1      41.729  28.037  29.541  1.00  0.00     0.074 A 
ATOM     39  C   UNL A   1      39.489  28.904  28.961  1.00  0.00     0.049 A 
ATOM     40  N   UNL A   1      42.197  29.023  30.265  1.00  0.00    -0.248 NA
ATOM     41  C   UNL A   1      42.648  26.895  29.411  1.00  0.00     0.031 C 
ATOM     42  C   UNL A   1      38.144  28.885  28.383  1.00  0.00     0.029 A 
ATOM     43  N   UNL A   1      39.562  30.119  29.594  1.00  0.00    -0.354 N 
ATOM     44  C   UNL A   1      43.452  28.611  30.693  1.00  0.00     0.074 A 
ATOM     45  C   UNL A   1      43.655  27.271  30.186  1.00  0.00     0.031 C 
ATOM     46  C   UNL A   1      37.528  30.045  28.666  1.00  0.00     0.029 A 
ATOM     47  C   UNL A   1      38.420  30.872  29.473  1.00  0.00     0.049 A 
ATOM     48  H   UNL A   1      40.358  30.422  30.088  1.00  0.00     0.167 HD
ATOM     49  C   UNL A   1      44.364  29.294  31.425  1.00  0.00     0.031 A 
ATOM     50  C   UNL A   1      38.123  32.090  29.960  1.00  0.00     0.031 A 
ATOM     51  C   UNL A   1      44.168  30.630  31.917  1.00  0.00     0.049 A 
ATOM     52  C   UNL A   1      39.150  32.827  30.772  1.00  0.00     0.074 A 
ATOM     53  C   UNL A   1      45.054  31.430  32.616  1.00  0.00     0.029 A 
ATOM     54  N   UNL A   1      43.001  31.363  31.764  1.00  0.00    -0.354 N 
ATOM     55  N   UNL A   1      40.361  32.453  31.108  1.00  0.00    -0.248 NA
ATOM     56  C   UNL A   1      38.772  34.160  31.263  1.00  0.00     0.031 C 
ATOM     57  C   UNL A   1      44.409  32.633  32.923  1.00  0.00     0.029 A 
ATOM     58  C   UNL A   1      43.137  32.599  32.372  1.00  0.00     0.049 A 
ATOM     59  H   UNL A   1      42.197  31.051  31.291  1.00  0.00     0.167 HD
ATOM     60  C   UNL A   1      40.898  33.511  31.828  1.00  0.00     0.074 A 
ATOM     61  C   UNL A   1      39.887  34.548  31.866  1.00  0.00     0.031 C 
ATOM     62  C   UNL A   1      42.119  33.617  32.404  1.00  0.00     0.031 A 
BRANCH  49  63
ATOM     63  C   UNL A   1      45.656  28.594  31.741  1.00  0.00    -0.014 A 
ATOM     64  C   UNL A   1      46.768  28.705  30.891  1.00  0.00     0.009 A 
ATOM     65  C   UNL A   1      45.770  27.834  32.914  1.00  0.00     0.009 A 
ATOM     66  C   UNL A   1      47.956  28.035  31.189  1.00  0.00     0.001 A 
ATOM     67  C   UNL A   1      46.968  27.187  33.225  1.00  0.00     0.001 A 
ATOM     68  C   UNL A   1      48.056  27.280  32.357  1.00  0.00     0.000 A 
ENDBRANCH  49  63
BRANCH  50  69
ATOM     69  C   UNL A   1      36.801  32.703  29.674  1.00  0.00    -0.014 A 
ATOM     70  C   UNL A   1      35.769  32.640  30.623  1.00  0.00     0.009 A 
ATOM     71  C   UNL A   1      36.562  33.353  28.453  1.00  0.00     0.009 A 
ATOM     72  C   UNL A   1      34.518  33.193  30.347  1.00  0.00     0.001 A 
ATOM     73  C   UNL A   1      35.316  33.928  28.189  1.00  0.00     0.001 A 
ATOM     74  C   UNL A   1      34.293  33.840  29.132  1.00  0.00     0.000 A 
ENDBRANCH  50  69
BRANCH  62  75
ATOM     75  C   UNL A   1      42.439  34.908  33.100  1.00  0.00    -0.014 A 
ATOM     76  C   UNL A   1      42.016  35.149  34.415  1.00  0.00     0.009 A 
ATOM     77  C   UNL A   1      43.208  35.880  32.441  1.00  0.00     0.009 A 
ATOM     78  C   UNL A   1      42.332  36.353  35.048  1.00  0.00     0.001 A 
ATOM     79  C   UNL A   1      43.545  37.071  33.086  1.00  0.00     0.001 A 
ATOM     80  C   UNL A   1      43.100  37.311  34.385  1.00  0.00     0.000 A 
ENDBRANCH  62  75
ENDBRANCH  36  37
ENDBRANCH  28  31
ENDBRANCH  26  27
ENDBRANCH   1  26
TORSDOF 13
ENDMDL
MODEL 3
REMARK VINA RESULT:     -11.6      3.445      8.885
REMARK SMILES Nc1cc(C(=O)NCCCCNC(=O)c2ccc(-c3c4nc(c(-c5ccccc5)c5ccc([nH]5)c(-c5ccccc5)c5nc(c(-c6ccccc6)c6ccc3[nH]6)C=C5)C=C4)cc2)ccc1N1CC2(CCOCC2)C1
REMARK SMILES IDX 10 1 9 2 8 3 7 4 5 5 6 6 4 8 2 9 3 10 65 11 64 12 63 13 1 14
REMARK SMILES IDX 66 17 67 18 74 19 68 20 69 21 73 22 70 23 72 24 71 25 11 26
REMARK SMILES IDX 12 27 13 28 14 30 15 31 16 32 62 33 17 34 61 35 18 36 19 37
REMARK SMILES IDX 20 38 55 39 21 40 60 41 54 42 56 43 22 44 59 45 53 46 52 47
REMARK SMILES IDX 23 49 45 50 30 51 44 52 31 53 34 54 43 55 57 56 32 57 33 58
REMARK SMILES IDX 42 60 58 61 35 62 24 63 25 64 29 65 26 66 28 67 27 68 46 69
REMARK SMILES IDX 47 70 51 71 48 72 50 73 49 74 36 75 37 76 41 77 38 78 40 79
REMARK SMILES IDX 39 80
REMARK H PARENT 7 7 1 15 1 16 12 29 56 48 34 59
REMARK Flexibility Score: inf
ROOT
ATOM      1  C   UNL A   1      36.308  23.697  24.343  1.00  0.00     0.023 C 
ENDROOT
BRANCH   1   2
ATOM      2  C   UNL A   1      34.804  23.991  24.328  1.00  0.00     0.023 C 
BRANCH   2   3
ATOM      3  C   UNL A   1      34.396  25.189  25.188  1.00  0.00     0.116 C 
BRANCH   3   4
ATOM      4  N   UNL A   1      33.352  24.809  26.112  1.00  0.00    -0.352 N 
ATOM      5  C   UNL A   1      32.047  25.197  26.256  1.00  0.00     0.251 C 
ATOM      6  O   UNL A   1      31.439  24.702  27.210  1.00  0.00    -0.269 OA
ATOM      7  H   UNL A   1      33.637  24.136  26.773  1.00  0.00     0.163 HD
BRANCH   5   8
ATOM      8  C   UNL A   1      31.318  26.119  25.331  1.00  0.00     0.041 A 
ATOM      9  C   UNL A   1      31.081  28.455  24.621  1.00  0.00     0.056 A 
ATOM     10  C   UNL A   1      31.698  27.469  25.400  1.00  0.00     0.041 A 
ATOM     11  C   UNL A   1      29.999  28.102  23.786  1.00  0.00     0.060 A 
ATOM     12  C   UNL A   1      29.633  26.757  23.694  1.00  0.00     0.029 A 
ATOM     13  C   UNL A   1      30.311  25.772  24.428  1.00  0.00     0.016 A 
BRANCH   9  14
ATOM     14  N   UNL A   1      31.431  29.787  24.832  1.00  0.00    -0.397 N 
ATOM     15  H   UNL A   1      30.740  30.446  25.076  1.00  0.00     0.156 HD
ATOM     16  H   UNL A   1      32.369  30.071  24.737  1.00  0.00     0.156 HD
ENDBRANCH   9  14
BRANCH  11  17
ATOM     17  N   UNL A   1      29.287  29.089  23.094  1.00  0.00    -0.369 N 
ATOM     18  C   UNL A   1      29.731  30.074  22.164  1.00  0.00     0.125 C 
ATOM     19  C   UNL A   1      27.920  29.191  22.707  1.00  0.00     0.125 C 
ATOM     20  C   UNL A   1      28.277  30.621  22.216  1.00  0.00     0.010 C 
ATOM     21  C   UNL A   1      27.658  31.059  20.893  1.00  0.00     0.039 C 
ATOM     22  C   UNL A   1      28.059  31.710  23.282  1.00  0.00     0.039 C 
ATOM     23  C   UNL A   1      28.240  32.416  20.506  1.00  0.00     0.161 C 
ATOM     24  C   UNL A   1      28.630  33.023  22.764  1.00  0.00     0.161 C 
ATOM     25  O   UNL A   1      27.999  33.381  21.533  1.00  0.00    -0.381 OA
ENDBRANCH  11  17
ENDBRANCH   5   8
ENDBRANCH   3   4
ENDBRANCH   2   3
ENDBRANCH   1   2
BRANCH   1  26
ATOM     26  C   UNL A   1      36.943  23.661  25.731  1.00  0.00     0.116 C 
BRANCH  26  27
ATOM     27  N   UNL A   1      37.838  22.532  25.927  1.00  0.00    -0.352 N 
ATOM     28  C   UNL A   1      39.131  22.536  26.394  1.00  0.00     0.251 C 
ATOM     29  H   UNL A   1      37.471  21.649  25.694  1.00  0.00     0.163 HD
ATOM     30  O   UNL A   1      39.792  21.509  26.411  1.00  0.00    -0.269 OA
BRANCH  28  31
ATOM     31  C   UNL A   1      39.726  23.815  26.832  1.00  0.00     0.039 A 
ATOM     32  C   UNL A   1      40.011  24.784  25.867  1.00  0.00     0.014 A 
ATOM     33  C   UNL A   1      39.962  24.067  28.184  1.00  0.00     0.014 A 
ATOM     34  C   UNL A   1      40.471  26.037  26.268  1.00  0.00     0.010 A 
ATOM     35  C   UNL A   1      40.360  25.336  28.587  1.00  0.00     0.010 A 
ATOM     36  C   UNL A   1      40.614  26.334  27.633  1.00  0.00    -0.014 A 
BRANCH  36  37
ATOM     37  C   UNL A   1      41.017  27.687  28.085  1.00  0.00     0.031 A 
ATOM     38  C   UNL A   1      42.468  28.071  28.116  1.00  0.00     0.074 A 
ATOM     39  C   UNL A   1      40.079  28.544  28.532  1.00  0.00     0.049 A 
ATOM     40  N   UNL A   1      43.018  29.185  28.530  1.00  0.00    -0.248 NA
ATOM     41  C   UNL A   1      43.431  27.063  27.643  1.00  0.00     0.031 C 
ATOM     42  C   UNL A   1      38.641  28.272  28.595  1.00  0.00     0.029 A 
ATOM     43  N   UNL A   1      40.198  29.818  29.027  1.00  0.00    -0.354 N 
ATOM     44  C   UNL A   1      44.387  29.004  28.387  1.00  0.00     0.074 A 
ATOM     45  C   UNL A   1      44.588  27.659  27.891  1.00  0.00     0.031 C 
ATOM     46  C   UNL A   1      38.010  29.356  29.074  1.00  0.00     0.029 A 
ATOM     47  C   UNL A   1      39.000  30.384  29.385  1.00  0.00     0.049 A 
ATOM     48  H   UNL A   1      41.062  30.282  29.116  1.00  0.00     0.167 HD
ATOM     49  C   UNL A   1      45.387  29.884  28.627  1.00  0.00     0.031 A 
ATOM     50  C   UNL A   1      38.728  31.593  29.908  1.00  0.00     0.031 A 
ATOM     51  C   UNL A   1      45.187  31.224  29.106  1.00  0.00     0.049 A 
ATOM     52  C   UNL A   1      39.855  32.551  30.169  1.00  0.00     0.074 A 
ATOM     53  C   UNL A   1      46.131  32.213  29.323  1.00  0.00     0.029 A 
ATOM     54  N   UNL A   1      43.957  31.763  29.447  1.00  0.00    -0.354 N 
ATOM     55  N   UNL A   1      41.140  32.391  29.960  1.00  0.00    -0.248 NA
ATOM     56  C   UNL A   1      39.494  33.862  30.726  1.00  0.00     0.031 C 
ATOM     57  C   UNL A   1      45.476  33.337  29.835  1.00  0.00     0.029 A 
ATOM     58  C   UNL A   1      44.118  33.064  29.891  1.00  0.00     0.049 A 
ATOM     59  H   UNL A   1      43.096  31.292  29.380  1.00  0.00     0.167 HD
ATOM     60  C   UNL A   1      41.736  33.586  30.337  1.00  0.00     0.074 A 
ATOM     61  C   UNL A   1      40.672  34.467  30.772  1.00  0.00     0.031 C 
ATOM     62  C   UNL A   1      43.048  33.925  30.323  1.00  0.00     0.031 A 
BRANCH  49  63
ATOM     63  C   UNL A   1      46.793  29.412  28.377  1.00  0.00    -0.014 A 
ATOM     64  C   UNL A   1      47.531  28.765  29.380  1.00  0.00     0.009 A 
ATOM     65  C   UNL A   1      47.378  29.598  27.115  1.00  0.00     0.009 A 
ATOM     66  C   UNL A   1      48.841  28.349  29.138  1.00  0.00     0.001 A 
ATOM     67  C   UNL A   1      48.678  29.156  26.866  1.00  0.00     0.001 A 
ATOM     68  C   UNL A   1      49.413  28.541  27.880  1.00  0.00     0.000 A 
ENDBRANCH  49  63
BRANCH  50  69
ATOM     69  C   UNL A   1      37.324  31.978  30.201  1.00  0.00    -0.014 A 
ATOM     70  C   UNL A   1      36.527  32.564  29.206  1.00  0.00     0.009 A 
ATOM     71  C   UNL A   1      36.773  31.764  31.474  1.00  0.00     0.009 A 
ATOM     72  C   UNL A   1      35.214  32.949  29.486  1.00  0.00     0.001 A 
ATOM     73  C   UNL A   1      35.452  32.128  31.745  1.00  0.00     0.001 A 
ATOM     74  C   UNL A   1      34.677  32.728  30.754  1.00  0.00     0.000 A 
ENDBRANCH  50  69
BRANCH  62  75
ATOM     75  C   UNL A   1      43.401  35.316  30.765  1.00  0.00    -0.014 A 
ATOM     76  C   UNL A   1      43.668  35.606  32.111  1.00  0.00     0.009 A 
ATOM     77  C   UNL A   1      43.504  36.342  29.812  1.00  0.00     0.009 A 
ATOM     78  C   UNL A   1      44.003  36.904  32.499  1.00  0.00     0.001 A 
ATOM     79  C   UNL A   1      43.866  37.633  30.200  1.00  0.00     0.001 A 
ATOM     80  C   UNL A   1      44.106  37.915  31.543  1.00  0.00     0.000 A 
ENDBRANCH  62  75
ENDBRANCH  36  37
ENDBRANCH  28  31
ENDBRANCH  26  27
ENDBRANCH   1  26
TORSDOF 13
ENDMDL
