MODEL 1
REMARK VINA RESULT:     -12.0      0.000      0.000
REMARK SMILES CS(=O)(=O)c1ccc(/C=C(/C(=O)NCCCCNC(=O)c2ccc(-c3c4nc(c(-c5ccccc5)c5ccc([nH]5)c(-c5ccccc5)c5nc(c(-c6ccccc6)c6ccc3[nH]6)C=C5)C=C4)cc2)c2ccc(O)cc2)cc1
REMARK SMILES IDX 15 1 14 2 13 3 11 4 12 5 10 7 9 8 8 9 5 10 6 11 77 12 7 13
REMARK SMILES IDX 76 14 2 15 1 16 3 17 4 18 69 19 70 20 75 21 71 22 74 23
REMARK SMILES IDX 72 24 73 25 16 27 17 28 18 29 19 30 20 32 21 33 22 34 68 35
REMARK SMILES IDX 23 36 67 37 24 38 25 39 26 40 61 41 27 42 66 43 60 44 62 45
REMARK SMILES IDX 28 46 65 47 59 48 58 49 29 51 51 52 36 53 50 54 37 55 40 56
REMARK SMILES IDX 49 57 63 58 38 59 39 60 48 62 64 63 41 64 30 65 31 66 35 67
REMARK SMILES IDX 32 68 34 69 33 70 52 71 53 72 57 73 54 74 56 75 55 76 42 77
REMARK SMILES IDX 43 78 47 79 44 80 46 81 45 82
REMARK H PARENT 13 6 73 26 18 31 62 50 40 61
REMARK Flexibility Score: inf
ROOT
ATOM      1  C   UNL A   1      35.415  23.001  23.721  1.00  0.00     0.023 C 
ENDROOT
BRANCH   1   2
ATOM      2  C   UNL A   1      34.850  24.171  24.530  1.00  0.00     0.116 C 
BRANCH   2   3
ATOM      3  N   UNL A   1      33.810  23.700  25.421  1.00  0.00    -0.352 N 
ATOM      4  C   UNL A   1      32.648  24.236  25.883  1.00  0.00     0.251 C 
ATOM      5  O   UNL A   1      32.032  23.548  26.701  1.00  0.00    -0.269 OA
ATOM      6  H   UNL A   1      33.980  22.796  25.769  1.00  0.00     0.163 HD
BRANCH   4   7
ATOM      7  C   UNL A   1      32.067  25.543  25.384  1.00  0.00     0.047 C 
ATOM      8  C   UNL A   1      31.457  25.649  24.180  1.00  0.00     0.022 C 
BRANCH   8   9
ATOM      9  C   UNL A   1      30.689  26.769  23.588  1.00  0.00    -0.025 A 
ATOM     10  C   UNL A   1      29.094  28.905  22.713  1.00  0.00     0.067 A 
ATOM     11  C   UNL A   1      30.472  28.937  22.506  1.00  0.00     0.021 A 
ATOM     12  C   UNL A   1      28.492  27.805  23.322  1.00  0.00     0.021 A 
ATOM     13  C   UNL A   1      31.257  27.852  22.908  1.00  0.00     0.009 A 
ATOM     14  C   UNL A   1      29.292  26.744  23.755  1.00  0.00     0.009 A 
BRANCH  10  15
ATOM     15  S   UNL A   1      28.107  30.299  22.229  1.00  0.00     0.175 S 
ATOM     16  C   UNL A   1      29.185  31.672  22.537  1.00  0.00     0.163 C 
ATOM     17  O   UNL A   1      26.988  30.379  23.145  1.00  0.00    -0.224 OA
ATOM     18  O   UNL A   1      27.891  30.208  20.795  1.00  0.00    -0.224 OA
ENDBRANCH  10  15
ENDBRANCH   8   9
BRANCH   7  19
ATOM     19  C   UNL A   1      32.369  26.758  26.183  1.00  0.00    -0.013 A 
ATOM     20  C   UNL A   1      33.640  27.343  26.035  1.00  0.00     0.013 A 
ATOM     21  C   UNL A   1      31.411  27.411  26.971  1.00  0.00     0.013 A 
ATOM     22  C   UNL A   1      33.927  28.583  26.600  1.00  0.00     0.047 A 
ATOM     23  C   UNL A   1      31.691  28.671  27.516  1.00  0.00     0.047 A 
ATOM     24  C   UNL A   1      32.939  29.252  27.306  1.00  0.00     0.115 A 
BRANCH  24  25
ATOM     25  O   UNL A   1      33.228  30.505  27.757  1.00  0.00    -0.508 OA
ATOM     26  H   UNL A   1      33.943  30.637  28.350  1.00  0.00     0.293 HD
ENDBRANCH  24  25
ENDBRANCH   7  19
ENDBRANCH   4   7
ENDBRANCH   2   3
ENDBRANCH   1   2
BRANCH   1  27
ATOM     27  C   UNL A   1      36.938  22.861  23.813  1.00  0.00     0.023 C 
BRANCH  27  28
ATOM     28  C   UNL A   1      37.532  23.264  25.156  1.00  0.00     0.116 C 
BRANCH  28  29
ATOM     29  N   UNL A   1      38.639  22.413  25.571  1.00  0.00    -0.352 N 
ATOM     30  C   UNL A   1      39.741  22.767  26.311  1.00  0.00     0.251 C 
ATOM     31  H   UNL A   1      38.592  21.471  25.286  1.00  0.00     0.163 HD
ATOM     32  O   UNL A   1      40.664  21.982  26.493  1.00  0.00    -0.269 OA
BRANCH  30  33
ATOM     33  C   UNL A   1      39.802  24.136  26.855  1.00  0.00     0.039 A 
ATOM     34  C   UNL A   1      39.274  24.393  28.121  1.00  0.00     0.014 A 
ATOM     35  C   UNL A   1      40.476  25.130  26.142  1.00  0.00     0.014 A 
ATOM     36  C   UNL A   1      39.488  25.641  28.711  1.00  0.00     0.010 A 
ATOM     37  C   UNL A   1      40.754  26.340  26.763  1.00  0.00     0.010 A 
ATOM     38  C   UNL A   1      40.264  26.607  28.053  1.00  0.00    -0.014 A 
BRANCH  38  39
ATOM     39  C   UNL A   1      40.574  27.922  28.663  1.00  0.00     0.031 A 
ATOM     40  C   UNL A   1      41.902  28.122  29.338  1.00  0.00     0.074 A 
ATOM     41  C   UNL A   1      39.635  28.888  28.711  1.00  0.00     0.049 A 
ATOM     42  N   UNL A   1      42.309  29.113  30.087  1.00  0.00    -0.248 NA
ATOM     43  C   UNL A   1      42.891  27.042  29.175  1.00  0.00     0.031 C 
ATOM     44  C   UNL A   1      38.303  28.813  28.108  1.00  0.00     0.029 A 
ATOM     45  N   UNL A   1      39.655  30.119  29.320  1.00  0.00    -0.354 N 
ATOM     46  C   UNL A   1      43.585  28.762  30.509  1.00  0.00     0.074 A 
ATOM     47  C   UNL A   1      43.866  27.448  29.973  1.00  0.00     0.031 C 
ATOM     48  C   UNL A   1      37.640  29.952  28.367  1.00  0.00     0.029 A 
ATOM     49  C   UNL A   1      38.474  30.812  29.200  1.00  0.00     0.049 A 
ATOM     50  H   UNL A   1      40.441  30.471  29.796  1.00  0.00     0.167 HD
ATOM     51  C   UNL A   1      44.452  29.476  31.264  1.00  0.00     0.031 A 
ATOM     52  C   UNL A   1      38.099  31.996  29.723  1.00  0.00     0.031 A 
ATOM     53  C   UNL A   1      44.174  30.786  31.783  1.00  0.00     0.049 A 
ATOM     54  C   UNL A   1      39.066  32.754  30.592  1.00  0.00     0.074 A 
ATOM     55  C   UNL A   1      45.002  31.614  32.518  1.00  0.00     0.029 A 
ATOM     56  N   UNL A   1      42.971  31.457  31.624  1.00  0.00    -0.354 N 
ATOM     57  N   UNL A   1      40.289  32.433  30.943  1.00  0.00    -0.248 NA
ATOM     58  C   UNL A   1      38.605  34.042  31.133  1.00  0.00     0.031 C 
ATOM     59  C   UNL A   1      44.281  32.763  32.854  1.00  0.00     0.029 A 
ATOM     60  C   UNL A   1      43.029  32.681  32.266  1.00  0.00     0.049 A 
ATOM     61  H   UNL A   1      42.193  31.114  31.127  1.00  0.00     0.167 HD
ATOM     62  C   UNL A   1      40.756  33.496  31.706  1.00  0.00     0.074 A 
ATOM     63  C   UNL A   1      39.688  34.471  31.768  1.00  0.00     0.031 C 
ATOM     64  C   UNL A   1      41.965  33.651  32.297  1.00  0.00     0.031 A 
BRANCH  51  65
ATOM     65  C   UNL A   1      45.778  28.844  31.583  1.00  0.00    -0.014 A 
ATOM     66  C   UNL A   1      46.873  28.961  30.712  1.00  0.00     0.009 A 
ATOM     67  C   UNL A   1      45.943  28.147  32.791  1.00  0.00     0.009 A 
ATOM     68  C   UNL A   1      48.093  28.358  31.024  1.00  0.00     0.001 A 
ATOM     69  C   UNL A   1      47.174  27.575  33.116  1.00  0.00     0.001 A 
ATOM     70  C   UNL A   1      48.244  27.672  32.227  1.00  0.00     0.000 A 
ENDBRANCH  51  65
BRANCH  52  71
ATOM     71  C   UNL A   1      36.744  32.542  29.443  1.00  0.00    -0.014 A 
ATOM     72  C   UNL A   1      36.486  33.226  28.244  1.00  0.00     0.009 A 
ATOM     73  C   UNL A   1      35.705  32.397  30.375  1.00  0.00     0.009 A 
ATOM     74  C   UNL A   1      35.226  33.780  27.999  1.00  0.00     0.001 A 
ATOM     75  C   UNL A   1      34.437  32.924  30.114  1.00  0.00     0.001 A 
ATOM     76  C   UNL A   1      34.202  33.624  28.932  1.00  0.00     0.000 A 
ENDBRANCH  52  71
BRANCH  64  77
ATOM     77  C   UNL A   1      42.240  34.948  33.005  1.00  0.00    -0.014 A 
ATOM     78  C   UNL A   1      41.780  35.188  34.307  1.00  0.00     0.009 A 
ATOM     79  C   UNL A   1      43.064  35.903  32.385  1.00  0.00     0.009 A 
ATOM     80  C   UNL A   1      42.127  36.368  34.969  1.00  0.00     0.001 A 
ATOM     81  C   UNL A   1      43.434  37.066  33.061  1.00  0.00     0.001 A 
ATOM     82  C   UNL A   1      42.962  37.299  34.350  1.00  0.00     0.000 A 
ENDBRANCH  64  77
ENDBRANCH  38  39
ENDBRANCH  30  33
ENDBRANCH  28  29
ENDBRANCH  27  28
ENDBRANCH   1  27
TORSDOF 15
ENDMDL
MODEL 2
REMARK VINA RESULT:     -11.9      3.233      8.542
REMARK SMILES CS(=O)(=O)c1ccc(/C=C(/C(=O)NCCCCNC(=O)c2ccc(-c3c4nc(c(-c5ccccc5)c5ccc([nH]5)c(-c5ccccc5)c5nc(c(-c6ccccc6)c6ccc3[nH]6)C=C5)C=C4)cc2)c2ccc(O)cc2)cc1
REMARK SMILES IDX 15 1 14 2 13 3 11 4 12 5 10 7 9 8 8 9 5 10 6 11 77 12 7 13
REMARK SMILES IDX 76 14 2 15 1 16 3 17 4 18 69 19 70 20 75 21 71 22 74 23
REMARK SMILES IDX 72 24 73 25 16 27 17 28 18 29 19 30 20 32 21 33 22 34 68 35
REMARK SMILES IDX 23 36 67 37 24 38 25 39 26 40 61 41 27 42 66 43 60 44 62 45
REMARK SMILES IDX 28 46 65 47 59 48 58 49 29 51 51 52 36 53 50 54 37 55 40 56
REMARK SMILES IDX 49 57 63 58 38 59 39 60 48 62 64 63 41 64 30 65 31 66 35 67
REMARK SMILES IDX 32 68 34 69 33 70 52 71 53 72 57 73 54 74 56 75 55 76 42 77
REMARK SMILES IDX 43 78 47 79 44 80 46 81 45 82
REMARK H PARENT 13 6 73 26 18 31 62 50 40 61
REMARK Flexibility Score: inf
ROOT
ATOM      1  C   UNL A   1      31.773  27.661  25.829  1.00  0.00     0.023 C 
ENDROOT
BRANCH   1   2
ATOM      2  C   UNL A   1      32.332  26.293  25.428  1.00  0.00     0.116 C 
BRANCH   2   3
ATOM      3  N   UNL A   1      32.743  26.314  24.040  1.00  0.00    -0.352 N 
ATOM      4  C   UNL A   1      33.363  25.419  23.225  1.00  0.00     0.251 C 
ATOM      5  O   UNL A   1      33.613  25.819  22.086  1.00  0.00    -0.269 OA
ATOM      6  H   UNL A   1      32.526  27.160  23.586  1.00  0.00     0.163 HD
BRANCH   4   7
ATOM      7  C   UNL A   1      33.661  23.987  23.620  1.00  0.00     0.047 C 
ATOM      8  C   UNL A   1      32.685  23.060  23.766  1.00  0.00     0.022 C 
BRANCH   8   9
ATOM      9  C   UNL A   1      32.774  21.596  23.977  1.00  0.00    -0.025 A 
ATOM     10  C   UNL A   1      33.039  18.806  24.109  1.00  0.00     0.067 A 
ATOM     11  C   UNL A   1      33.525  19.600  25.148  1.00  0.00     0.021 A 
ATOM     12  C   UNL A   1      32.391  19.382  23.018  1.00  0.00     0.021 A 
ATOM     13  C   UNL A   1      33.354  20.987  25.095  1.00  0.00     0.009 A 
ATOM     14  C   UNL A   1      32.261  20.773  22.958  1.00  0.00     0.009 A 
BRANCH  10  15
ATOM     15  S   UNL A   1      33.286  17.049  24.166  1.00  0.00     0.175 S 
ATOM     16  C   UNL A   1      34.936  16.904  24.799  1.00  0.00     0.163 C 
ATOM     17  O   UNL A   1      33.273  16.563  22.802  1.00  0.00    -0.224 OA
ATOM     18  O   UNL A   1      32.373  16.509  25.159  1.00  0.00    -0.224 OA
ENDBRANCH  10  15
ENDBRANCH   8   9
BRANCH   7  19
ATOM     19  C   UNL A   1      35.053  23.684  24.039  1.00  0.00    -0.013 A 
ATOM     20  C   UNL A   1      35.457  24.091  25.323  1.00  0.00     0.013 A 
ATOM     21  C   UNL A   1      35.930  22.908  23.267  1.00  0.00     0.013 A 
ATOM     22  C   UNL A   1      36.676  23.677  25.855  1.00  0.00     0.047 A 
ATOM     23  C   UNL A   1      37.143  22.468  23.813  1.00  0.00     0.047 A 
ATOM     24  C   UNL A   1      37.493  22.840  25.109  1.00  0.00     0.115 A 
BRANCH  24  25
ATOM     25  O   UNL A   1      38.628  22.377  25.704  1.00  0.00    -0.508 OA
ATOM     26  H   UNL A   1      39.122  22.938  26.270  1.00  0.00     0.293 HD
ENDBRANCH  24  25
ENDBRANCH   7  19
ENDBRANCH   4   7
ENDBRANCH   2   3
ENDBRANCH   1   2
BRANCH   1  27
ATOM     27  C   UNL A   1      32.321  28.190  27.159  1.00  0.00     0.023 C 
BRANCH  27  28
ATOM     28  C   UNL A   1      33.668  28.893  27.055  1.00  0.00     0.116 C 
BRANCH  28  29
ATOM     29  N   UNL A   1      33.654  30.240  27.609  1.00  0.00    -0.352 N 
ATOM     30  C   UNL A   1      34.648  30.867  28.322  1.00  0.00     0.251 C 
ATOM     31  H   UNL A   1      32.834  30.764  27.456  1.00  0.00     0.163 HD
ATOM     32  O   UNL A   1      34.467  31.963  28.838  1.00  0.00    -0.269 OA
BRANCH  30  33
ATOM     33  C   UNL A   1      35.936  30.166  28.482  1.00  0.00     0.039 A 
ATOM     34  C   UNL A   1      36.874  30.217  27.450  1.00  0.00     0.014 A 
ATOM     35  C   UNL A   1      36.238  29.551  29.698  1.00  0.00     0.014 A 
ATOM     36  C   UNL A   1      38.157  29.710  27.667  1.00  0.00     0.010 A 
ATOM     37  C   UNL A   1      37.535  29.120  29.937  1.00  0.00     0.010 A 
ATOM     38  C   UNL A   1      38.507  29.195  28.924  1.00  0.00    -0.014 A 
BRANCH  38  39
ATOM     39  C   UNL A   1      39.874  28.703  29.225  1.00  0.00     0.031 A 
ATOM     40  C   UNL A   1      40.875  29.647  29.828  1.00  0.00     0.074 A 
ATOM     41  C   UNL A   1      40.245  27.461  28.858  1.00  0.00     0.049 A 
ATOM     42  N   UNL A   1      42.162  29.488  30.002  1.00  0.00    -0.248 NA
ATOM     43  C   UNL A   1      40.364  30.959  30.262  1.00  0.00     0.031 C 
ATOM     44  C   UNL A   1      39.372  26.454  28.251  1.00  0.00     0.029 A 
ATOM     45  N   UNL A   1      41.470  26.842  28.924  1.00  0.00    -0.354 N 
ATOM     46  C   UNL A   1      42.617  30.688  30.533  1.00  0.00     0.074 A 
ATOM     47  C   UNL A   1      41.481  31.580  30.609  1.00  0.00     0.031 C 
ATOM     48  C   UNL A   1      40.086  25.342  28.011  1.00  0.00     0.029 A 
ATOM     49  C   UNL A   1      41.475  25.574  28.394  1.00  0.00     0.049 A 
ATOM     50  H   UNL A   1      42.267  27.267  29.315  1.00  0.00     0.167 HD
ATOM     51  C   UNL A   1      43.867  31.014  30.935  1.00  0.00     0.031 A 
ATOM     52  C   UNL A   1      42.491  24.707  28.213  1.00  0.00     0.031 A 
ATOM     53  C   UNL A   1      44.990  30.120  30.870  1.00  0.00     0.049 A 
ATOM     54  C   UNL A   1      43.881  25.107  28.633  1.00  0.00     0.074 A 
ATOM     55  C   UNL A   1      46.288  30.337  31.297  1.00  0.00     0.029 A 
ATOM     56  N   UNL A   1      44.948  28.840  30.341  1.00  0.00    -0.354 N 
ATOM     57  N   UNL A   1      44.288  26.227  29.180  1.00  0.00    -0.248 NA
ATOM     58  C   UNL A   1      44.950  24.120  28.416  1.00  0.00     0.031 C 
ATOM     59  C   UNL A   1      47.045  29.208  30.973  1.00  0.00     0.029 A 
ATOM     60  C   UNL A   1      46.203  28.263  30.411  1.00  0.00     0.049 A 
ATOM     61  H   UNL A   1      44.144  28.406  29.971  1.00  0.00     0.167 HD
ATOM     62  C   UNL A   1      45.648  26.062  29.412  1.00  0.00     0.074 A 
ATOM     63  C   UNL A   1      45.997  24.737  28.948  1.00  0.00     0.031 C 
ATOM     64  C   UNL A   1      46.527  26.931  29.967  1.00  0.00     0.031 A 
BRANCH  51  65
ATOM     65  C   UNL A   1      44.085  32.403  31.469  1.00  0.00    -0.014 A 
ATOM     66  C   UNL A   1      43.925  32.696  32.833  1.00  0.00     0.009 A 
ATOM     67  C   UNL A   1      44.488  33.427  30.597  1.00  0.00     0.009 A 
ATOM     68  C   UNL A   1      44.122  33.995  33.305  1.00  0.00     0.001 A 
ATOM     69  C   UNL A   1      44.720  34.717  31.078  1.00  0.00     0.001 A 
ATOM     70  C   UNL A   1      44.526  35.002  32.430  1.00  0.00     0.000 A 
ENDBRANCH  51  65
BRANCH  52  71
ATOM     71  C   UNL A   1      42.237  23.373  27.606  1.00  0.00    -0.014 A 
ATOM     72  C   UNL A   1      42.444  23.166  26.232  1.00  0.00     0.009 A 
ATOM     73  C   UNL A   1      41.772  22.305  28.387  1.00  0.00     0.009 A 
ATOM     74  C   UNL A   1      42.162  21.927  25.650  1.00  0.00     0.001 A 
ATOM     75  C   UNL A   1      41.522  21.057  27.808  1.00  0.00     0.001 A 
ATOM     76  C   UNL A   1      41.706  20.873  26.439  1.00  0.00     0.000 A 
ENDBRANCH  52  71
BRANCH  64  77
ATOM     77  C   UNL A   1      47.941  26.465  30.176  1.00  0.00    -0.014 A 
ATOM     78  C   UNL A   1      48.339  25.832  31.362  1.00  0.00     0.009 A 
ATOM     79  C   UNL A   1      48.860  26.575  29.120  1.00  0.00     0.009 A 
ATOM     80  C   UNL A   1      49.637  25.332  31.490  1.00  0.00     0.001 A 
ATOM     81  C   UNL A   1      50.145  26.047  29.239  1.00  0.00     0.001 A 
ATOM     82  C   UNL A   1      50.534  25.430  30.426  1.00  0.00     0.000 A 
ENDBRANCH  64  77
ENDBRANCH  38  39
ENDBRANCH  30  33
ENDBRANCH  28  29
ENDBRANCH  27  28
ENDBRANCH   1  27
TORSDOF 15
ENDMDL
MODEL 3
REMARK VINA RESULT:     -11.8      2.515      4.364
REMARK SMILES CS(=O)(=O)c1ccc(/C=C(/C(=O)NCCCCNC(=O)c2ccc(-c3c4nc(c(-c5ccccc5)c5ccc([nH]5)c(-c5ccccc5)c5nc(c(-c6ccccc6)c6ccc3[nH]6)C=C5)C=C4)cc2)c2ccc(O)cc2)cc1
REMARK SMILES IDX 15 1 14 2 13 3 11 4 12 5 10 7 9 8 8 9 5 10 6 11 77 12 7 13
REMARK SMILES IDX 76 14 2 15 1 16 3 17 4 18 69 19 70 20 75 21 71 22 74 23
REMARK SMILES IDX 72 24 73 25 16 27 17 28 18 29 19 30 20 32 21 33 22 34 68 35
REMARK SMILES IDX 23 36 67 37 24 38 25 39 26 40 61 41 27 42 66 43 60 44 62 45
REMARK SMILES IDX 28 46 65 47 59 48 58 49 29 51 51 52 36 53 50 54 37 55 40 56
REMARK SMILES IDX 49 57 63 58 38 59 39 60 48 62 64 63 41 64 30 65 31 66 35 67
REMARK SMILES IDX 32 68 34 69 33 70 52 71 53 72 57 73 54 74 56 75 55 76 42 77
REMARK SMILES IDX 43 78 47 79 44 80 46 81 45 82
REMARK H PARENT 13 6 73 26 18 31 62 50 40 61
REMARK Flexibility Score: inf
ROOT
ATOM      1  C   UNL A   1      37.167  21.502  24.396  1.00  0.00     0.023 C 
ENDROOT
BRANCH   1   2
ATOM      2  C   UNL A   1      36.820  22.544  25.462  1.00  0.00     0.116 C 
BRANCH   2   3
ATOM      3  N   UNL A   1      35.945  21.962  26.458  1.00  0.00    -0.352 N 
ATOM      4  C   UNL A   1      34.627  22.110  26.760  1.00  0.00     0.251 C 
ATOM      5  O   UNL A   1      34.232  21.480  27.743  1.00  0.00    -0.269 OA
ATOM      6  H   UNL A   1      36.403  21.318  27.044  1.00  0.00     0.163 HD
BRANCH   4   7
ATOM      7  C   UNL A   1      33.656  22.914  25.920  1.00  0.00     0.047 C 
ATOM      8  C   UNL A   1      33.016  24.005  26.401  1.00  0.00     0.022 C 
BRANCH   8   9
ATOM      9  C   UNL A   1      32.174  25.008  25.709  1.00  0.00    -0.025 A 
ATOM     10  C   UNL A   1      30.760  26.888  24.179  1.00  0.00     0.067 A 
ATOM     11  C   UNL A   1      30.073  25.862  24.826  1.00  0.00     0.021 A 
ATOM     12  C   UNL A   1      32.142  27.011  24.310  1.00  0.00     0.021 A 
ATOM     13  C   UNL A   1      30.779  24.952  25.620  1.00  0.00     0.009 A 
ATOM     14  C   UNL A   1      32.841  26.072  25.075  1.00  0.00     0.009 A 
BRANCH  10  15
ATOM     15  S   UNL A   1      29.864  28.021  23.148  1.00  0.00     0.175 S 
ATOM     16  C   UNL A   1      30.257  29.597  23.860  1.00  0.00     0.163 C 
ATOM     17  O   UNL A   1      28.452  27.767  23.345  1.00  0.00    -0.224 OA
ATOM     18  O   UNL A   1      30.453  27.967  21.820  1.00  0.00    -0.224 OA
ENDBRANCH  10  15
ENDBRANCH   8   9
BRANCH   7  19
ATOM     19  C   UNL A   1      33.277  22.340  24.603  1.00  0.00    -0.013 A 
ATOM     20  C   UNL A   1      32.685  21.065  24.587  1.00  0.00     0.013 A 
ATOM     21  C   UNL A   1      33.367  23.060  23.403  1.00  0.00     0.013 A 
ATOM     22  C   UNL A   1      32.131  20.547  23.419  1.00  0.00     0.047 A 
ATOM     23  C   UNL A   1      32.786  22.551  22.234  1.00  0.00     0.047 A 
ATOM     24  C   UNL A   1      32.155  21.310  22.260  1.00  0.00     0.115 A 
BRANCH  24  25
ATOM     25  O   UNL A   1      31.515  20.810  21.166  1.00  0.00    -0.508 OA
ATOM     26  H   UNL A   1      31.535  19.889  20.992  1.00  0.00     0.293 HD
ENDBRANCH  24  25
ENDBRANCH   7  19
ENDBRANCH   4   7
ENDBRANCH   2   3
ENDBRANCH   1   2
BRANCH   1  27
ATOM     27  C   UNL A   1      37.854  20.250  24.953  1.00  0.00     0.023 C 
BRANCH  27  28
ATOM     28  C   UNL A   1      39.043  20.530  25.862  1.00  0.00     0.116 C 
BRANCH  28  29
ATOM     29  N   UNL A   1      40.041  19.469  25.843  1.00  0.00    -0.352 N 
ATOM     30  C   UNL A   1      41.386  19.573  26.105  1.00  0.00     0.251 C 
ATOM     31  H   UNL A   1      39.713  18.569  25.612  1.00  0.00     0.163 HD
ATOM     32  O   UNL A   1      42.142  18.624  25.938  1.00  0.00    -0.269 OA
BRANCH  30  33
ATOM     33  C   UNL A   1      41.905  20.875  26.564  1.00  0.00     0.039 A 
ATOM     34  C   UNL A   1      42.372  21.794  25.624  1.00  0.00     0.014 A 
ATOM     35  C   UNL A   1      41.827  21.208  27.918  1.00  0.00     0.014 A 
ATOM     36  C   UNL A   1      42.695  23.089  26.036  1.00  0.00     0.010 A 
ATOM     37  C   UNL A   1      42.074  22.516  28.310  1.00  0.00     0.010 A 
ATOM     38  C   UNL A   1      42.509  23.469  27.374  1.00  0.00    -0.014 A 
BRANCH  38  39
ATOM     39  C   UNL A   1      42.777  24.848  27.848  1.00  0.00     0.031 A 
ATOM     40  C   UNL A   1      44.166  25.213  28.291  1.00  0.00     0.074 A 
ATOM     41  C   UNL A   1      41.766  25.728  27.987  1.00  0.00     0.049 A 
ATOM     42  N   UNL A   1      44.583  26.289  28.907  1.00  0.00    -0.248 NA
ATOM     43  C   UNL A   1      45.221  24.215  28.038  1.00  0.00     0.031 C 
ATOM     44  C   UNL A   1      40.372  25.492  27.608  1.00  0.00     0.029 A 
ATOM     45  N   UNL A   1      41.758  26.998  28.511  1.00  0.00    -0.354 N 
ATOM     46  C   UNL A   1      45.936  26.083  29.142  1.00  0.00     0.074 A 
ATOM     47  C   UNL A   1      46.260  24.764  28.647  1.00  0.00     0.031 C 
ATOM     48  C   UNL A   1      39.647  26.584  27.901  1.00  0.00     0.029 A 
ATOM     49  C   UNL A   1      40.510  27.574  28.539  1.00  0.00     0.049 A 
ATOM     50  H   UNL A   1      42.568  27.452  28.836  1.00  0.00     0.167 HD
ATOM     51  C   UNL A   1      46.833  26.924  29.707  1.00  0.00     0.031 A 
ATOM     52  C   UNL A   1      40.103  28.755  29.044  1.00  0.00     0.031 A 
ATOM     53  C   UNL A   1      46.510  28.240  30.185  1.00  0.00     0.049 A 
ATOM     54  C   UNL A   1      41.112  29.657  29.704  1.00  0.00     0.074 A 
ATOM     55  C   UNL A   1      47.355  29.189  30.730  1.00  0.00     0.029 A 
ATOM     56  N   UNL A   1      45.236  28.789  30.179  1.00  0.00    -0.354 N 
ATOM     57  N   UNL A   1      42.399  29.472  29.875  1.00  0.00    -0.248 NA
ATOM     58  C   UNL A   1      40.614  30.935  30.234  1.00  0.00     0.031 C 
ATOM     59  C   UNL A   1      46.584  30.292  31.107  1.00  0.00     0.029 A 
ATOM     60  C   UNL A   1      45.271  30.057  30.731  1.00  0.00     0.049 A 
ATOM     61  H   UNL A   1      44.429  28.343  29.833  1.00  0.00     0.167 HD
ATOM     62  C   UNL A   1      42.870  30.625  30.491  1.00  0.00     0.074 A 
ATOM     63  C   UNL A   1      41.733  31.504  30.663  1.00  0.00     0.031 C 
ATOM     64  C   UNL A   1      44.134  30.929  30.872  1.00  0.00     0.031 A 
BRANCH  51  65
ATOM     65  C   UNL A   1      48.249  26.437  29.848  1.00  0.00    -0.014 A 
ATOM     66  C   UNL A   1      49.211  26.685  28.857  1.00  0.00     0.009 A 
ATOM     67  C   UNL A   1      48.633  25.746  31.009  1.00  0.00     0.009 A 
ATOM     68  C   UNL A   1      50.517  26.214  29.004  1.00  0.00     0.001 A 
ATOM     69  C   UNL A   1      49.948  25.307  31.170  1.00  0.00     0.001 A 
ATOM     70  C   UNL A   1      50.886  25.533  30.163  1.00  0.00     0.000 A 
ENDBRANCH  51  65
BRANCH  52  71
ATOM     71  C   UNL A   1      38.674  29.157  28.951  1.00  0.00    -0.014 A 
ATOM     72  C   UNL A   1      38.172  29.732  27.772  1.00  0.00     0.009 A 
ATOM     73  C   UNL A   1      37.807  28.984  30.040  1.00  0.00     0.009 A 
ATOM     74  C   UNL A   1      36.842  30.153  27.698  1.00  0.00     0.001 A 
ATOM     75  C   UNL A   1      36.468  29.377  29.952  1.00  0.00     0.001 A 
ATOM     76  C   UNL A   1      35.990  29.971  28.786  1.00  0.00     0.000 A 
ENDBRANCH  52  71
BRANCH  64  77
ATOM     77  C   UNL A   1      44.384  32.294  31.450  1.00  0.00    -0.014 A 
ATOM     78  C   UNL A   1      44.661  33.399  30.634  1.00  0.00     0.009 A 
ATOM     79  C   UNL A   1      44.240  32.486  32.834  1.00  0.00     0.009 A 
ATOM     80  C   UNL A   1      44.802  34.670  31.197  1.00  0.00     0.001 A 
ATOM     81  C   UNL A   1      44.350  33.761  33.389  1.00  0.00     0.001 A 
ATOM     82  C   UNL A   1      44.636  34.851  32.570  1.00  0.00     0.000 A 
ENDBRANCH  64  77
ENDBRANCH  38  39
ENDBRANCH  30  33
ENDBRANCH  28  29
ENDBRANCH  27  28
ENDBRANCH   1  27
TORSDOF 15
ENDMDL
