MODEL 1
REMARK VINA RESULT:     -13.6      0.000      0.000
REMARK SMILES Cc1cc(N2CC[NH+]([C@@H](C(=O)NCCCCNC(=O)c3ccc(-c4c5nc(c(-c6ccccc6)c6ccc([nH]6)c(-c6ccccc6)c6nc(c(-c7ccccc7)c7ccc4[nH]7)C=C6)C=C5)cc3)c3c[nH]c4ccccc34)CC2)nc2ccccc12
REMARK SMILES IDX 14 1 13 2 12 3 10 4 11 5 9 7 8 8 5 9 6 10 78 11 7 12 77 13
REMARK SMILES IDX 4 15 1 16 2 17 3 18 85 19 80 20 84 21 79 22 81 23 83 24
REMARK SMILES IDX 82 25 68 26 69 27 76 28 70 29 71 30 75 31 72 33 74 34 73 35
REMARK SMILES IDX 15 36 16 37 17 38 18 39 19 41 20 42 21 43 67 44 22 45 66 46
REMARK SMILES IDX 23 47 24 48 25 49 60 50 26 51 65 52 59 53 61 54 27 55 64 56
REMARK SMILES IDX 58 57 57 58 28 60 50 61 35 62 49 63 36 64 39 65 48 66 62 67
REMARK SMILES IDX 37 68 38 69 47 71 63 72 40 73 29 74 30 75 34 76 31 77 33 78
REMARK SMILES IDX 32 79 51 80 52 81 56 82 53 83 55 84 54 85 41 86 42 87 46 88
REMARK SMILES IDX 43 89 45 90 44 91
REMARK H PARENT 12 6 8 14 70 32 17 40 61 59 39 70
REMARK Flexibility Score: inf
ROOT
ATOM      1  C   UNL A   1      36.759  20.442  24.954  1.00  0.00     0.023 C 
ENDROOT
BRANCH   1   2
ATOM      2  C   UNL A   1      36.813  21.982  24.720  1.00  0.00     0.116 C 
BRANCH   2   3
ATOM      3  N   UNL A   1      35.663  22.782  25.178  1.00  0.00    -0.351 N 
ATOM      4  C   UNL A   1      34.303  22.875  24.944  1.00  0.00     0.283 C 
ATOM      5  O   UNL A   1      33.726  23.634  25.735  1.00  0.00    -0.268 OA
ATOM      6  H   UNL A   1      35.947  23.445  25.847  1.00  0.00     0.163 HD
BRANCH   4   7
ATOM      7  C   UNL A   1      33.514  22.063  23.863  1.00  0.00     0.307 C 
BRANCH   7   8
ATOM      8  N   UNL A   1      32.710  22.805  22.816  1.00  0.00    -0.318 N 
ATOM      9  N   UNL A   1      31.790  25.486  23.573  1.00  0.00    -0.345 N 
ATOM     10  C   UNL A   1      31.126  24.317  24.131  1.00  0.00     0.179 C 
ATOM     11  C   UNL A   1      33.176  25.262  23.168  1.00  0.00     0.179 C 
ATOM     12  C   UNL A   1      31.311  23.213  23.077  1.00  0.00     0.284 C 
ATOM     13  C   UNL A   1      33.344  24.004  22.281  1.00  0.00     0.284 C 
ATOM     14  H   UNL A   1      32.681  22.017  22.168  1.00  0.00     0.349 HD
BRANCH   9  15
ATOM     15  C   UNL A   1      31.623  26.722  24.180  1.00  0.00     0.129 A 
ATOM     16  C   UNL A   1      29.694  29.805  23.225  1.00  0.00     0.045 C 
ATOM     17  C   UNL A   1      30.623  28.906  23.983  1.00  0.00    -0.038 A 
ATOM     18  C   UNL A   1      30.737  27.592  23.557  1.00  0.00     0.051 A 
ATOM     19  C   UNL A   1      31.385  29.312  25.094  1.00  0.00     0.003 A 
ATOM     20  C   UNL A   1      32.269  28.365  25.670  1.00  0.00     0.073 A 
ATOM     21  C   UNL A   1      31.304  30.609  25.643  1.00  0.00     0.010 A 
ATOM     22  N   UNL A   1      32.379  27.099  25.225  1.00  0.00    -0.231 NA
ATOM     23  C   UNL A   1      33.071  28.774  26.729  1.00  0.00     0.029 A 
ATOM     24  C   UNL A   1      32.100  30.981  26.724  1.00  0.00     0.001 A 
ATOM     25  C   UNL A   1      32.997  30.066  27.258  1.00  0.00     0.002 A 
ENDBRANCH   9  15
ENDBRANCH   7   8
BRANCH   7  26
ATOM     26  C   UNL A   1      32.676  20.854  24.405  1.00  0.00     0.044 A 
ATOM     27  C   UNL A   1      32.418  20.683  25.770  1.00  0.00     0.094 A 
ATOM     28  C   UNL A   1      32.643  19.478  23.942  1.00  0.00     0.009 A 
ATOM     29  N   UNL A   1      33.270  19.626  26.066  1.00  0.00    -0.361 N 
ATOM     30  C   UNL A   1      33.257  18.765  24.987  1.00  0.00     0.046 A 
ATOM     31  C   UNL A   1      32.399  18.781  22.742  1.00  0.00     0.011 A 
ATOM     32  H   UNL A   1      33.789  19.512  26.894  1.00  0.00     0.166 HD
ATOM     33  C   UNL A   1      33.865  17.517  24.807  1.00  0.00     0.026 A 
ATOM     34  C   UNL A   1      32.859  17.460  22.604  1.00  0.00     0.001 A 
ATOM     35  C   UNL A   1      33.656  16.874  23.587  1.00  0.00     0.002 A 
ENDBRANCH   7  26
ENDBRANCH   4   7
ENDBRANCH   2   3
ENDBRANCH   1   2
BRANCH   1  36
ATOM     36  C   UNL A   1      38.074  19.660  24.843  1.00  0.00     0.023 C 
BRANCH  36  37
ATOM     37  C   UNL A   1      39.126  20.076  25.849  1.00  0.00     0.116 C 
BRANCH  37  38
ATOM     38  N   UNL A   1      40.299  19.215  25.807  1.00  0.00    -0.352 N 
ATOM     39  C   UNL A   1      41.621  19.541  26.022  1.00  0.00     0.251 C 
ATOM     40  H   UNL A   1      40.124  18.270  25.596  1.00  0.00     0.163 HD
ATOM     41  O   UNL A   1      42.501  18.734  25.772  1.00  0.00    -0.269 OA
BRANCH  39  42
ATOM     42  C   UNL A   1      41.967  20.886  26.538  1.00  0.00     0.039 A 
ATOM     43  C   UNL A   1      42.330  21.889  25.634  1.00  0.00     0.014 A 
ATOM     44  C   UNL A   1      41.934  21.159  27.907  1.00  0.00     0.014 A 
ATOM     45  C   UNL A   1      42.613  23.173  26.104  1.00  0.00     0.010 A 
ATOM     46  C   UNL A   1      42.100  22.459  28.361  1.00  0.00     0.010 A 
ATOM     47  C   UNL A   1      42.471  23.472  27.469  1.00  0.00    -0.014 A 
BRANCH  47  48
ATOM     48  C   UNL A   1      42.753  24.826  28.002  1.00  0.00     0.031 A 
ATOM     49  C   UNL A   1      44.161  25.189  28.398  1.00  0.00     0.074 A 
ATOM     50  C   UNL A   1      41.739  25.694  28.187  1.00  0.00     0.049 A 
ATOM     51  N   UNL A   1      44.605  26.291  28.946  1.00  0.00    -0.248 NA
ATOM     52  C   UNL A   1      45.201  24.168  28.183  1.00  0.00     0.031 C 
ATOM     53  C   UNL A   1      40.329  25.429  27.890  1.00  0.00     0.029 A 
ATOM     54  N   UNL A   1      41.740  26.974  28.677  1.00  0.00    -0.354 N 
ATOM     55  C   UNL A   1      45.962  26.081  29.162  1.00  0.00     0.074 A 
ATOM     56  C   UNL A   1      46.260  24.732  28.743  1.00  0.00     0.031 C 
ATOM     57  C   UNL A   1      39.608  26.527  28.170  1.00  0.00     0.029 A 
ATOM     58  C   UNL A   1      40.493  27.552  28.709  1.00  0.00     0.049 A 
ATOM     59  H   UNL A   1      42.556  27.437  28.975  1.00  0.00     0.167 HD
ATOM     60  C   UNL A   1      46.883  26.946  29.645  1.00  0.00     0.031 A 
ATOM     61  C   UNL A   1      40.111  28.770  29.136  1.00  0.00     0.031 A 
ATOM     62  C   UNL A   1      46.584  28.297  30.033  1.00  0.00     0.049 A 
ATOM     63  C   UNL A   1      41.160  29.712  29.664  1.00  0.00     0.074 A 
ATOM     64  C   UNL A   1      47.453  29.281  30.468  1.00  0.00     0.029 A 
ATOM     65  N   UNL A   1      45.314  28.851  30.028  1.00  0.00    -0.354 N 
ATOM     66  N   UNL A   1      42.453  29.528  29.782  1.00  0.00    -0.248 NA
ATOM     67  C   UNL A   1      40.698  31.035  30.104  1.00  0.00     0.031 C 
ATOM     68  C   UNL A   1      46.699  30.414  30.783  1.00  0.00     0.029 A 
ATOM     69  C   UNL A   1      45.371  30.157  30.479  1.00  0.00     0.049 A 
ATOM     70  H   UNL A   1      44.492  28.385  29.746  1.00  0.00     0.167 HD
ATOM     71  C   UNL A   1      42.962  30.720  30.279  1.00  0.00     0.074 A 
ATOM     72  C   UNL A   1      41.841  31.627  30.417  1.00  0.00     0.031 C 
ATOM     73  C   UNL A   1      44.240  31.040  30.597  1.00  0.00     0.031 A 
BRANCH  60  74
ATOM     74  C   UNL A   1      48.301  26.462  29.781  1.00  0.00    -0.014 A 
ATOM     75  C   UNL A   1      48.740  25.798  30.937  1.00  0.00     0.009 A 
ATOM     76  C   UNL A   1      49.196  26.622  28.711  1.00  0.00     0.009 A 
ATOM     77  C   UNL A   1      50.051  25.327  31.030  1.00  0.00     0.001 A 
ATOM     78  C   UNL A   1      50.497  26.122  28.794  1.00  0.00     0.001 A 
ATOM     79  C   UNL A   1      50.926  25.481  29.955  1.00  0.00     0.000 A 
ENDBRANCH  60  74
BRANCH  61  80
ATOM     80  C   UNL A   1      38.681  29.176  29.084  1.00  0.00    -0.014 A 
ATOM     81  C   UNL A   1      38.140  29.745  27.921  1.00  0.00     0.009 A 
ATOM     82  C   UNL A   1      37.855  29.028  30.209  1.00  0.00     0.009 A 
ATOM     83  C   UNL A   1      36.817  30.197  27.900  1.00  0.00     0.001 A 
ATOM     84  C   UNL A   1      36.524  29.446  30.175  1.00  0.00     0.001 A 
ATOM     85  C   UNL A   1      36.010  30.045  29.025  1.00  0.00     0.000 A 
ENDBRANCH  61  80
BRANCH  73  86
ATOM     86  C   UNL A   1      44.499  32.440  31.079  1.00  0.00    -0.014 A 
ATOM     87  C   UNL A   1      44.481  32.758  32.446  1.00  0.00     0.009 A 
ATOM     88  C   UNL A   1      44.811  33.443  30.148  1.00  0.00     0.009 A 
ATOM     89  C   UNL A   1      44.732  34.064  32.866  1.00  0.00     0.001 A 
ATOM     90  C   UNL A   1      45.097  34.740  30.575  1.00  0.00     0.001 A 
ATOM     91  C   UNL A   1      45.046  35.051  31.932  1.00  0.00     0.000 A 
ENDBRANCH  73  86
ENDBRANCH  47  48
ENDBRANCH  39  42
ENDBRANCH  37  38
ENDBRANCH  36  37
ENDBRANCH   1  36
TORSDOF 14
ENDMDL
MODEL 2
REMARK VINA RESULT:     -13.6      3.105      9.354
REMARK SMILES Cc1cc(N2CC[NH+]([C@@H](C(=O)NCCCCNC(=O)c3ccc(-c4c5nc(c(-c6ccccc6)c6ccc([nH]6)c(-c6ccccc6)c6nc(c(-c7ccccc7)c7ccc4[nH]7)C=C6)C=C5)cc3)c3c[nH]c4ccccc34)CC2)nc2ccccc12
REMARK SMILES IDX 14 1 13 2 12 3 10 4 11 5 9 7 8 8 5 9 6 10 78 11 7 12 77 13
REMARK SMILES IDX 4 15 1 16 2 17 3 18 85 19 80 20 84 21 79 22 81 23 83 24
REMARK SMILES IDX 82 25 68 26 69 27 76 28 70 29 71 30 75 31 72 33 74 34 73 35
REMARK SMILES IDX 15 36 16 37 17 38 18 39 19 41 20 42 21 43 67 44 22 45 66 46
REMARK SMILES IDX 23 47 24 48 25 49 60 50 26 51 65 52 59 53 61 54 27 55 64 56
REMARK SMILES IDX 58 57 57 58 28 60 50 61 35 62 49 63 36 64 39 65 48 66 62 67
REMARK SMILES IDX 37 68 38 69 47 71 63 72 40 73 29 74 30 75 34 76 31 77 33 78
REMARK SMILES IDX 32 79 51 80 52 81 56 82 53 83 55 84 54 85 41 86 42 87 46 88
REMARK SMILES IDX 43 89 45 90 44 91
REMARK H PARENT 12 6 8 14 70 32 17 40 61 59 39 70
REMARK Flexibility Score: inf
ROOT
ATOM      1  C   UNL A   1      31.677  30.456  25.882  1.00  0.00     0.023 C 
ENDROOT
BRANCH   1   2
ATOM      2  C   UNL A   1      32.685  29.490  26.573  1.00  0.00     0.116 C 
BRANCH   2   3
ATOM      3  N   UNL A   1      33.174  28.341  25.791  1.00  0.00    -0.351 N 
ATOM      4  C   UNL A   1      32.665  27.350  24.971  1.00  0.00     0.283 C 
ATOM      5  O   UNL A   1      33.547  26.692  24.401  1.00  0.00    -0.268 OA
ATOM      6  H   UNL A   1      34.150  28.253  25.879  1.00  0.00     0.163 HD
BRANCH   4   7
ATOM      7  C   UNL A   1      31.145  27.101  24.691  1.00  0.00     0.307 C 
BRANCH   7   8
ATOM      8  N   UNL A   1      30.544  25.746  25.004  1.00  0.00    -0.318 N 
ATOM      9  N   UNL A   1      32.373  23.460  24.810  1.00  0.00    -0.345 N 
ATOM     10  C   UNL A   1      31.870  24.080  23.593  1.00  0.00     0.179 C 
ATOM     11  C   UNL A   1      32.409  24.345  25.973  1.00  0.00     0.179 C 
ATOM     12  C   UNL A   1      30.507  24.674  23.983  1.00  0.00     0.284 C 
ATOM     13  C   UNL A   1      31.072  25.093  26.196  1.00  0.00     0.284 C 
ATOM     14  H   UNL A   1      29.594  26.104  25.104  1.00  0.00     0.349 HD
BRANCH   9  15
ATOM     15  C   UNL A   1      33.492  22.642  24.749  1.00  0.00     0.129 A 
ATOM     16  C   UNL A   1      33.933  18.913  24.561  1.00  0.00     0.045 C 
ATOM     17  C   UNL A   1      34.281  20.366  24.683  1.00  0.00    -0.038 A 
ATOM     18  C   UNL A   1      33.247  21.285  24.588  1.00  0.00     0.051 A 
ATOM     19  C   UNL A   1      35.585  20.854  24.888  1.00  0.00     0.003 A 
ATOM     20  C   UNL A   1      35.750  22.252  25.047  1.00  0.00     0.073 A 
ATOM     21  C   UNL A   1      36.715  20.010  24.944  1.00  0.00     0.010 A 
ATOM     22  N   UNL A   1      34.727  23.124  24.973  1.00  0.00    -0.231 NA
ATOM     23  C   UNL A   1      37.025  22.737  25.311  1.00  0.00     0.029 A 
ATOM     24  C   UNL A   1      37.985  20.530  25.182  1.00  0.00     0.001 A 
ATOM     25  C   UNL A   1      38.139  21.894  25.382  1.00  0.00     0.002 A 
ENDBRANCH   9  15
ENDBRANCH   7   8
BRANCH   7  26
ATOM     26  C   UNL A   1      30.626  27.593  23.296  1.00  0.00     0.044 A 
ATOM     27  C   UNL A   1      31.495  28.060  22.304  1.00  0.00     0.094 A 
ATOM     28  C   UNL A   1      29.416  28.327  22.973  1.00  0.00     0.009 A 
ATOM     29  N   UNL A   1      31.244  29.425  22.360  1.00  0.00    -0.361 N 
ATOM     30  C   UNL A   1      29.893  29.592  22.587  1.00  0.00     0.046 A 
ATOM     31  C   UNL A   1      28.025  28.191  23.158  1.00  0.00     0.011 A 
ATOM     32  H   UNL A   1      31.909  30.143  22.256  1.00  0.00     0.166 HD
ATOM     33  C   UNL A   1      29.112  30.753  22.640  1.00  0.00     0.026 A 
ATOM     34  C   UNL A   1      27.199  29.324  23.050  1.00  0.00     0.001 A 
ATOM     35  C   UNL A   1      27.748  30.595  22.884  1.00  0.00     0.002 A 
ENDBRANCH   7  26
ENDBRANCH   4   7
ENDBRANCH   2   3
ENDBRANCH   1   2
BRANCH   1  36
ATOM     36  C   UNL A   1      31.426  31.817  26.546  1.00  0.00     0.023 C 
BRANCH  36  37
ATOM     37  C   UNL A   1      32.628  32.377  27.276  1.00  0.00     0.116 C 
BRANCH  37  38
ATOM     38  N   UNL A   1      32.438  33.767  27.664  1.00  0.00    -0.352 N 
ATOM     39  C   UNL A   1      33.176  34.530  28.543  1.00  0.00     0.251 C 
ATOM     40  H   UNL A   1      31.678  34.226  27.238  1.00  0.00     0.163 HD
ATOM     41  O   UNL A   1      32.773  35.628  28.892  1.00  0.00    -0.269 OA
BRANCH  39  42
ATOM     42  C   UNL A   1      34.449  33.998  29.082  1.00  0.00     0.039 A 
ATOM     43  C   UNL A   1      34.423  33.199  30.230  1.00  0.00     0.014 A 
ATOM     44  C   UNL A   1      35.666  34.283  28.459  1.00  0.00     0.014 A 
ATOM     45  C   UNL A   1      35.612  32.654  30.719  1.00  0.00     0.010 A 
ATOM     46  C   UNL A   1      36.826  33.648  28.874  1.00  0.00     0.010 A 
ATOM     47  C   UNL A   1      36.817  32.852  30.026  1.00  0.00    -0.014 A 
BRANCH  47  48
ATOM     48  C   UNL A   1      38.095  32.280  30.511  1.00  0.00     0.031 A 
ATOM     49  C   UNL A   1      38.611  30.999  29.908  1.00  0.00     0.074 A 
ATOM     50  C   UNL A   1      38.748  32.875  31.527  1.00  0.00     0.049 A 
ATOM     51  N   UNL A   1      39.668  30.301  30.234  1.00  0.00    -0.248 NA
ATOM     52  C   UNL A   1      37.817  30.406  28.817  1.00  0.00     0.031 C 
ATOM     53  C   UNL A   1      38.313  34.089  32.223  1.00  0.00     0.029 A 
ATOM     54  N   UNL A   1      39.917  32.535  32.157  1.00  0.00    -0.354 N 
ATOM     55  C   UNL A   1      39.646  29.180  29.412  1.00  0.00     0.074 A 
ATOM     56  C   UNL A   1      38.447  29.259  28.612  1.00  0.00     0.031 C 
ATOM     57  C   UNL A   1      39.222  34.410  33.159  1.00  0.00     0.029 A 
ATOM     58  C   UNL A   1      40.275  33.402  33.161  1.00  0.00     0.049 A 
ATOM     59  H   UNL A   1      40.451  31.744  31.913  1.00  0.00     0.167 HD
ATOM     60  C   UNL A   1      40.559  28.187  29.315  1.00  0.00     0.031 A 
ATOM     61  C   UNL A   1      41.333  33.379  33.994  1.00  0.00     0.031 A 
ATOM     62  C   UNL A   1      41.765  28.132  30.094  1.00  0.00     0.049 A 
ATOM     63  C   UNL A   1      42.334  32.262  33.858  1.00  0.00     0.074 A 
ATOM     64  C   UNL A   1      42.793  27.210  30.026  1.00  0.00     0.029 A 
ATOM     65  N   UNL A   1      42.102  29.043  31.083  1.00  0.00    -0.354 N 
ATOM     66  N   UNL A   1      42.343  31.257  33.017  1.00  0.00    -0.248 NA
ATOM     67  C   UNL A   1      43.478  32.287  34.779  1.00  0.00     0.031 C 
ATOM     68  C   UNL A   1      43.726  27.529  31.016  1.00  0.00     0.029 A 
ATOM     69  C   UNL A   1      43.312  28.688  31.653  1.00  0.00     0.049 A 
ATOM     70  H   UNL A   1      41.562  29.825  31.341  1.00  0.00     0.167 HD
ATOM     71  C   UNL A   1      43.506  30.548  33.285  1.00  0.00     0.074 A 
ATOM     72  C   UNL A   1      44.188  31.253  34.351  1.00  0.00     0.031 C 
ATOM     73  C   UNL A   1      43.972  29.414  32.706  1.00  0.00     0.031 A 
BRANCH  60  74
ATOM     74  C   UNL A   1      40.293  27.080  28.332  1.00  0.00    -0.014 A 
ATOM     75  C   UNL A   1      40.818  27.116  27.030  1.00  0.00     0.009 A 
ATOM     76  C   UNL A   1      39.556  25.954  28.733  1.00  0.00     0.009 A 
ATOM     77  C   UNL A   1      40.588  26.062  26.143  1.00  0.00     0.001 A 
ATOM     78  C   UNL A   1      39.355  24.888  27.855  1.00  0.00     0.001 A 
ATOM     79  C   UNL A   1      39.865  24.945  26.560  1.00  0.00     0.000 A 
ENDBRANCH  60  74
BRANCH  61  80
ATOM     80  C   UNL A   1      41.507  34.436  35.026  1.00  0.00    -0.014 A 
ATOM     81  C   UNL A   1      40.949  34.286  36.305  1.00  0.00     0.009 A 
ATOM     82  C   UNL A   1      42.203  35.618  34.727  1.00  0.00     0.009 A 
ATOM     83  C   UNL A   1      41.046  35.314  37.247  1.00  0.00     0.001 A 
ATOM     84  C   UNL A   1      42.330  36.629  35.682  1.00  0.00     0.001 A 
ATOM     85  C   UNL A   1      41.738  36.483  36.936  1.00  0.00     0.000 A 
ENDBRANCH  61  80
BRANCH  73  86
ATOM     86  C   UNL A   1      45.299  28.895  33.181  1.00  0.00    -0.014 A 
ATOM     87  C   UNL A   1      46.503  29.328  32.605  1.00  0.00     0.009 A 
ATOM     88  C   UNL A   1      45.342  27.992  34.255  1.00  0.00     0.009 A 
ATOM     89  C   UNL A   1      47.722  28.836  33.071  1.00  0.00     0.001 A 
ATOM     90  C   UNL A   1      46.564  27.530  34.742  1.00  0.00     0.001 A 
ATOM     91  C   UNL A   1      47.752  27.943  34.142  1.00  0.00     0.000 A 
ENDBRANCH  73  86
ENDBRANCH  47  48
ENDBRANCH  39  42
ENDBRANCH  37  38
ENDBRANCH  36  37
ENDBRANCH   1  36
TORSDOF 14
ENDMDL
MODEL 3
REMARK VINA RESULT:     -13.5      0.375      5.568
REMARK SMILES Cc1cc(N2CC[NH+]([C@@H](C(=O)NCCCCNC(=O)c3ccc(-c4c5nc(c(-c6ccccc6)c6ccc([nH]6)c(-c6ccccc6)c6nc(c(-c7ccccc7)c7ccc4[nH]7)C=C6)C=C5)cc3)c3c[nH]c4ccccc34)CC2)nc2ccccc12
REMARK SMILES IDX 14 1 13 2 12 3 10 4 11 5 9 7 8 8 5 9 6 10 78 11 7 12 77 13
REMARK SMILES IDX 4 15 1 16 2 17 3 18 85 19 80 20 84 21 79 22 81 23 83 24
REMARK SMILES IDX 82 25 68 26 69 27 76 28 70 29 71 30 75 31 72 33 74 34 73 35
REMARK SMILES IDX 15 36 16 37 17 38 18 39 19 41 20 42 21 43 67 44 22 45 66 46
REMARK SMILES IDX 23 47 24 48 25 49 60 50 26 51 65 52 59 53 61 54 27 55 64 56
REMARK SMILES IDX 58 57 57 58 28 60 50 61 35 62 49 63 36 64 39 65 48 66 62 67
REMARK SMILES IDX 37 68 38 69 47 71 63 72 40 73 29 74 30 75 34 76 31 77 33 78
REMARK SMILES IDX 32 79 51 80 52 81 56 82 53 83 55 84 54 85 41 86 42 87 46 88
REMARK SMILES IDX 43 89 45 90 44 91
REMARK H PARENT 12 6 8 14 70 32 17 40 61 59 39 70
REMARK Flexibility Score: inf
ROOT
ATOM      1  C   UNL A   1      36.528  20.692  25.076  1.00  0.00     0.023 C 
ENDROOT
BRANCH   1   2
ATOM      2  C   UNL A   1      36.714  22.209  25.379  1.00  0.00     0.116 C 
BRANCH   2   3
ATOM      3  N   UNL A   1      35.509  22.990  25.711  1.00  0.00    -0.351 N 
ATOM      4  C   UNL A   1      34.180  23.061  25.334  1.00  0.00     0.283 C 
ATOM      5  O   UNL A   1      33.510  23.811  26.057  1.00  0.00    -0.268 OA
ATOM      6  H   UNL A   1      35.710  23.659  26.404  1.00  0.00     0.163 HD
BRANCH   4   7
ATOM      7  C   UNL A   1      33.523  22.235  24.177  1.00  0.00     0.307 C 
BRANCH   7   8
ATOM      8  N   UNL A   1      32.810  22.962  23.057  1.00  0.00    -0.318 N 
ATOM      9  N   UNL A   1      31.845  25.659  23.692  1.00  0.00    -0.345 N 
ATOM     10  C   UNL A   1      31.132  24.502  24.213  1.00  0.00     0.179 C 
ATOM     11  C   UNL A   1      33.258  25.423  23.404  1.00  0.00     0.179 C 
ATOM     12  C   UNL A   1      31.397  23.380  23.196  1.00  0.00     0.284 C 
ATOM     13  C   UNL A   1      33.491  24.150  22.555  1.00  0.00     0.284 C 
ATOM     14  H   UNL A   1      32.830  22.164  22.422  1.00  0.00     0.349 HD
BRANCH   9  15
ATOM     15  C   UNL A   1      31.635  26.906  24.262  1.00  0.00     0.129 A 
ATOM     16  C   UNL A   1      29.628  29.904  23.203  1.00  0.00     0.045 C 
ATOM     17  C   UNL A   1      30.575  29.053  23.996  1.00  0.00    -0.038 A 
ATOM     18  C   UNL A   1      30.732  27.732  23.607  1.00  0.00     0.051 A 
ATOM     19  C   UNL A   1      31.312  29.511  25.103  1.00  0.00     0.003 A 
ATOM     20  C   UNL A   1      32.217  28.607  25.714  1.00  0.00     0.073 A 
ATOM     21  C   UNL A   1      31.187  30.820  25.615  1.00  0.00     0.010 A 
ATOM     22  N   UNL A   1      32.368  27.333  25.305  1.00  0.00    -0.231 NA
ATOM     23  C   UNL A   1      32.994  29.068  26.769  1.00  0.00     0.029 A 
ATOM     24  C   UNL A   1      31.960  31.244  26.693  1.00  0.00     0.001 A 
ATOM     25  C   UNL A   1      32.877  30.371  27.262  1.00  0.00     0.002 A 
ENDBRANCH   9  15
ENDBRANCH   7   8
BRANCH   7  26
ATOM     26  C   UNL A   1      32.665  21.004  24.631  1.00  0.00     0.044 A 
ATOM     27  C   UNL A   1      32.454  20.703  25.981  1.00  0.00     0.094 A 
ATOM     28  C   UNL A   1      32.564  19.685  24.034  1.00  0.00     0.009 A 
ATOM     29  N   UNL A   1      33.279  19.596  26.132  1.00  0.00    -0.361 N 
ATOM     30  C   UNL A   1      33.192  18.850  24.974  1.00  0.00     0.046 A 
ATOM     31  C   UNL A   1      32.247  19.121  22.781  1.00  0.00     0.011 A 
ATOM     32  H   UNL A   1      33.826  19.381  26.922  1.00  0.00     0.166 HD
ATOM     33  C   UNL A   1      33.747  17.608  24.643  1.00  0.00     0.026 A 
ATOM     34  C   UNL A   1      32.654  17.807  22.491  1.00  0.00     0.001 A 
ATOM     35  C   UNL A   1      33.468  17.100  23.375  1.00  0.00     0.002 A 
ENDBRANCH   7  26
ENDBRANCH   4   7
ENDBRANCH   2   3
ENDBRANCH   1   2
BRANCH   1  36
ATOM     36  C   UNL A   1      37.793  19.835  24.935  1.00  0.00     0.023 C 
BRANCH  36  37
ATOM     37  C   UNL A   1      38.975  20.345  25.731  1.00  0.00     0.116 C 
BRANCH  37  38
ATOM     38  N   UNL A   1      40.053  19.370  25.803  1.00  0.00    -0.352 N 
ATOM     39  C   UNL A   1      41.381  19.567  26.114  1.00  0.00     0.251 C 
ATOM     40  H   UNL A   1      39.798  18.440  25.603  1.00  0.00     0.163 HD
ATOM     41  O   UNL A   1      42.190  18.668  25.954  1.00  0.00    -0.269 OA
BRANCH  39  42
ATOM     42  C   UNL A   1      41.824  20.887  26.622  1.00  0.00     0.039 A 
ATOM     43  C   UNL A   1      42.246  21.860  25.711  1.00  0.00     0.014 A 
ATOM     44  C   UNL A   1      41.824  21.165  27.990  1.00  0.00     0.014 A 
ATOM     45  C   UNL A   1      42.621  23.123  26.175  1.00  0.00     0.010 A 
ATOM     46  C   UNL A   1      42.083  22.451  28.438  1.00  0.00     0.010 A 
ATOM     47  C   UNL A   1      42.514  23.435  27.539  1.00  0.00    -0.014 A 
BRANCH  47  48
ATOM     48  C   UNL A   1      42.894  24.767  28.065  1.00  0.00     0.031 A 
ATOM     49  C   UNL A   1      41.825  25.801  28.307  1.00  0.00     0.074 A 
ATOM     50  C   UNL A   1      44.194  25.061  28.259  1.00  0.00     0.049 A 
ATOM     51  N   UNL A   1      41.953  27.044  28.697  1.00  0.00    -0.248 NA
ATOM     52  C   UNL A   1      40.432  25.399  28.043  1.00  0.00     0.031 C 
ATOM     53  C   UNL A   1      45.317  24.154  28.006  1.00  0.00     0.029 A 
ATOM     54  N   UNL A   1      44.791  26.209  28.710  1.00  0.00    -0.354 N 
ATOM     55  C   UNL A   1      40.667  27.571  28.697  1.00  0.00     0.074 A 
ATOM     56  C   UNL A   1      39.780  26.539  28.216  1.00  0.00     0.031 C 
ATOM     57  C   UNL A   1      46.463  24.771  28.340  1.00  0.00     0.029 A 
ATOM     58  C   UNL A   1      46.161  26.126  28.783  1.00  0.00     0.049 A 
ATOM     59  H   UNL A   1      44.287  27.017  28.959  1.00  0.00     0.167 HD
ATOM     60  C   UNL A   1      40.259  28.800  29.088  1.00  0.00     0.031 A 
ATOM     61  C   UNL A   1      47.068  27.047  29.158  1.00  0.00     0.031 A 
ATOM     62  C   UNL A   1      41.145  29.811  29.594  1.00  0.00     0.049 A 
ATOM     63  C   UNL A   1      46.583  28.404  29.592  1.00  0.00     0.074 A 
ATOM     64  C   UNL A   1      40.829  31.065  30.085  1.00  0.00     0.029 A 
ATOM     65  N   UNL A   1      42.522  29.680  29.674  1.00  0.00    -0.354 N 
ATOM     66  N   UNL A   1      45.355  28.859  29.667  1.00  0.00    -0.248 NA
ATOM     67  C   UNL A   1      47.609  29.371  30.006  1.00  0.00     0.031 C 
ATOM     68  C   UNL A   1      42.023  31.715  30.408  1.00  0.00     0.029 A 
ATOM     69  C   UNL A   1      43.075  30.841  30.183  1.00  0.00     0.049 A 
ATOM     70  H   UNL A   1      43.031  28.879  29.410  1.00  0.00     0.167 HD
ATOM     71  C   UNL A   1      45.458  30.150  30.167  1.00  0.00     0.074 A 
ATOM     72  C   UNL A   1      46.867  30.397  30.398  1.00  0.00     0.031 C 
ATOM     73  C   UNL A   1      44.480  31.056  30.411  1.00  0.00     0.031 A 
BRANCH  60  74
ATOM     74  C   UNL A   1      38.793  29.120  28.988  1.00  0.00    -0.014 A 
ATOM     75  C   UNL A   1      37.932  28.956  30.085  1.00  0.00     0.009 A 
ATOM     76  C   UNL A   1      38.276  29.651  27.795  1.00  0.00     0.009 A 
ATOM     77  C   UNL A   1      36.580  29.292  29.982  1.00  0.00     0.001 A 
ATOM     78  C   UNL A   1      36.931  30.015  27.704  1.00  0.00     0.001 A 
ATOM     79  C   UNL A   1      36.083  29.830  28.795  1.00  0.00     0.000 A 
ENDBRANCH  60  74
BRANCH  61  80
ATOM     80  C   UNL A   1      48.521  26.727  29.144  1.00  0.00    -0.014 A 
ATOM     81  C   UNL A   1      49.319  27.072  28.042  1.00  0.00     0.009 A 
ATOM     82  C   UNL A   1      49.113  26.044  30.218  1.00  0.00     0.009 A 
ATOM     83  C   UNL A   1      50.666  26.700  27.996  1.00  0.00     0.001 A 
ATOM     84  C   UNL A   1      50.467  25.706  30.187  1.00  0.00     0.001 A 
ATOM     85  C   UNL A   1      51.239  26.020  29.069  1.00  0.00     0.000 A 
ENDBRANCH  61  80
BRANCH  73  86
ATOM     86  C   UNL A   1      44.895  32.375  30.999  1.00  0.00    -0.014 A 
ATOM     87  C   UNL A   1      45.185  33.480  30.184  1.00  0.00     0.009 A 
ATOM     88  C   UNL A   1      44.950  32.521  32.394  1.00  0.00     0.009 A 
ATOM     89  C   UNL A   1      45.560  34.695  30.757  1.00  0.00     0.001 A 
ATOM     90  C   UNL A   1      45.290  33.748  32.963  1.00  0.00     0.001 A 
ATOM     91  C   UNL A   1      45.607  34.830  32.145  1.00  0.00     0.000 A 
ENDBRANCH  73  86
ENDBRANCH  47  48
ENDBRANCH  39  42
ENDBRANCH  37  38
ENDBRANCH  36  37
ENDBRANCH   1  36
TORSDOF 14
ENDMDL
