MODEL 1
REMARK VINA RESULT:     -10.6      0.000      0.000
REMARK SMILES C[C@@H](c1ccccc1)[C@@H]1[NH2+][C@@H](C(=O)NCCCCNC(=O)c2ccc(-c3c4nc(c(-c5ccccc5)c5ccc([nH]5)c(-c5ccccc5)c5nc(c(-c6ccccc6)c6ccc3[nH]6)C=C5)C=C4)cc2)CS1
REMARK SMILES IDX 16 1 15 2 14 3 12 4 13 5 11 7 9 8 10 9 71 10 70 13 2 14 1 15
REMARK SMILES IDX 3 16 4 17 8 18 5 19 7 20 6 21 17 22 18 23 19 24 20 25 21 27
REMARK SMILES IDX 22 28 23 29 69 30 24 31 68 32 25 33 26 34 27 35 62 36 28 37
REMARK SMILES IDX 67 38 61 39 63 40 29 41 66 42 60 43 59 44 30 46 52 47 37 48
REMARK SMILES IDX 51 49 38 50 41 51 50 52 64 53 39 54 40 55 49 57 65 58 42 59
REMARK SMILES IDX 31 60 32 61 36 62 33 63 35 64 34 65 53 66 54 67 58 68 55 69
REMARK SMILES IDX 57 70 56 71 43 72 44 73 48 74 45 75 47 76 46 77
REMARK H PARENT 14 6 10 11 10 12 19 26 63 45 41 56
REMARK Flexibility Score: inf
ROOT
ATOM      1  C   UNL A   1      35.166  22.168  25.970  1.00  0.00     0.023 C 
ENDROOT
BRANCH   1   2
ATOM      2  C   UNL A   1      33.801  22.508  25.371  1.00  0.00     0.116 C 
BRANCH   2   3
ATOM      3  N   UNL A   1      32.758  22.545  26.375  1.00  0.00    -0.351 N 
ATOM      4  C   UNL A   1      31.845  23.526  26.647  1.00  0.00     0.279 C 
ATOM      5  O   UNL A   1      31.044  23.300  27.558  1.00  0.00    -0.268 OA
ATOM      6  H   UNL A   1      32.696  21.746  26.947  1.00  0.00     0.163 HD
BRANCH   4   7
ATOM      7  C   UNL A   1      31.780  24.811  25.789  1.00  0.00     0.283 C 
ATOM      8  C   UNL A   1      30.808  27.005  25.653  1.00  0.00     0.249 C 
ATOM      9  N   UNL A   1      31.288  25.972  26.583  1.00  0.00    -0.324 N 
ATOM     10  S   UNL A   1      29.777  26.045  24.502  1.00  0.00    -0.092 SA
ATOM     11  H   UNL A   1      30.524  25.675  27.191  1.00  0.00     0.347 HD
ATOM     12  H   UNL A   1      32.042  26.345  27.162  1.00  0.00     0.347 HD
ATOM     13  C   UNL A   1      30.878  24.607  24.560  1.00  0.00     0.151 C 
BRANCH   8  14
ATOM     14  C   UNL A   1      31.910  27.844  24.921  1.00  0.00     0.085 C 
ATOM     15  C   UNL A   1      31.320  28.614  23.719  1.00  0.00     0.020 C 
BRANCH  14  16
ATOM     16  C   UNL A   1      32.666  28.778  25.872  1.00  0.00    -0.038 A 
ATOM     17  C   UNL A   1      32.096  30.016  26.212  1.00  0.00     0.004 A 
ATOM     18  C   UNL A   1      33.908  28.452  26.440  1.00  0.00     0.004 A 
ATOM     19  C   UNL A   1      32.748  30.905  27.070  1.00  0.00     0.000 A 
ATOM     20  C   UNL A   1      34.549  29.331  27.319  1.00  0.00     0.000 A 
ATOM     21  C   UNL A   1      33.973  30.560  27.628  1.00  0.00     0.000 A 
ENDBRANCH  14  16
ENDBRANCH   8  14
ENDBRANCH   4   7
ENDBRANCH   2   3
ENDBRANCH   1   2
BRANCH   1  22
ATOM     22  C   UNL A   1      36.106  23.366  26.148  1.00  0.00     0.023 C 
BRANCH  22  23
ATOM     23  C   UNL A   1      37.246  23.459  25.140  1.00  0.00     0.116 C 
BRANCH  23  24
ATOM     24  N   UNL A   1      38.376  22.606  25.474  1.00  0.00    -0.352 N 
ATOM     25  C   UNL A   1      39.512  22.913  26.184  1.00  0.00     0.251 C 
ATOM     26  H   UNL A   1      38.320  21.680  25.146  1.00  0.00     0.163 HD
ATOM     27  O   UNL A   1      40.424  22.096  26.276  1.00  0.00    -0.269 OA
BRANCH  25  28
ATOM     28  C   UNL A   1      39.654  24.248  26.803  1.00  0.00     0.039 A 
ATOM     29  C   UNL A   1      39.116  24.459  28.075  1.00  0.00     0.014 A 
ATOM     30  C   UNL A   1      40.332  25.279  26.147  1.00  0.00     0.014 A 
ATOM     31  C   UNL A   1      39.325  25.678  28.722  1.00  0.00     0.010 A 
ATOM     32  C   UNL A   1      40.596  26.471  26.819  1.00  0.00     0.010 A 
ATOM     33  C   UNL A   1      40.105  26.678  28.117  1.00  0.00    -0.014 A 
BRANCH  33  34
ATOM     34  C   UNL A   1      40.447  27.930  28.841  1.00  0.00     0.031 A 
ATOM     35  C   UNL A   1      41.756  28.057  29.569  1.00  0.00     0.074 A 
ATOM     36  C   UNL A   1      39.538  28.925  28.908  1.00  0.00     0.049 A 
ATOM     37  N   UNL A   1      42.195  29.045  30.307  1.00  0.00    -0.248 NA
ATOM     38  C   UNL A   1      42.685  26.919  29.477  1.00  0.00     0.031 C 
ATOM     39  C   UNL A   1      38.211  28.907  28.287  1.00  0.00     0.029 A 
ATOM     40  N   UNL A   1      39.589  30.141  29.543  1.00  0.00    -0.354 N 
ATOM     41  C   UNL A   1      43.435  28.639  30.785  1.00  0.00     0.074 A 
ATOM     42  C   UNL A   1      43.666  27.303  30.282  1.00  0.00     0.031 C 
ATOM     43  C   UNL A   1      37.582  30.062  28.558  1.00  0.00     0.029 A 
ATOM     44  C   UNL A   1      38.441  30.884  29.404  1.00  0.00     0.049 A 
ATOM     45  H   UNL A   1      40.374  30.451  30.051  1.00  0.00     0.167 HD
ATOM     46  C   UNL A   1      44.305  29.324  31.564  1.00  0.00     0.031 A 
ATOM     47  C   UNL A   1      38.110  32.087  29.911  1.00  0.00     0.031 A 
ATOM     48  C   UNL A   1      44.088  30.663  32.043  1.00  0.00     0.049 A 
ATOM     49  C   UNL A   1      39.100  32.821  30.773  1.00  0.00     0.074 A 
ATOM     50  C   UNL A   1      44.956  31.469  32.760  1.00  0.00     0.029 A 
ATOM     51  N   UNL A   1      42.924  31.388  31.862  1.00  0.00    -0.354 N 
ATOM     52  N   UNL A   1      40.309  32.463  31.129  1.00  0.00    -0.248 NA
ATOM     53  C   UNL A   1      38.681  34.129  31.297  1.00  0.00     0.031 C 
ATOM     54  C   UNL A   1      44.293  32.661  33.064  1.00  0.00     0.029 A 
ATOM     55  C   UNL A   1      43.034  32.619  32.487  1.00  0.00     0.049 A 
ATOM     56  H   UNL A   1      42.133  31.075  31.364  1.00  0.00     0.167 HD
ATOM     57  C   UNL A   1      40.804  33.511  31.894  1.00  0.00     0.074 A 
ATOM     58  C   UNL A   1      39.773  34.527  31.932  1.00  0.00     0.031 C 
ATOM     59  C   UNL A   1      42.003  33.621  32.513  1.00  0.00     0.031 A 
BRANCH  46  60
ATOM     60  C   UNL A   1      45.582  28.638  31.961  1.00  0.00    -0.014 A 
ATOM     61  C   UNL A   1      46.757  28.791  31.208  1.00  0.00     0.009 A 
ATOM     62  C   UNL A   1      45.629  27.895  33.151  1.00  0.00     0.009 A 
ATOM     63  C   UNL A   1      47.948  28.196  31.630  1.00  0.00     0.001 A 
ATOM     64  C   UNL A   1      46.827  27.322  33.583  1.00  0.00     0.001 A 
ATOM     65  C   UNL A   1      47.983  27.469  32.819  1.00  0.00     0.000 A 
ENDBRANCH  46  60
BRANCH  47  66
ATOM     66  C   UNL A   1      36.775  32.682  29.632  1.00  0.00    -0.014 A 
ATOM     67  C   UNL A   1      36.559  33.441  28.471  1.00  0.00     0.009 A 
ATOM     68  C   UNL A   1      35.722  32.528  30.548  1.00  0.00     0.009 A 
ATOM     69  C   UNL A   1      35.329  34.067  28.254  1.00  0.00     0.001 A 
ATOM     70  C   UNL A   1      34.484  33.129  30.311  1.00  0.00     0.001 A 
ATOM     71  C   UNL A   1      34.293  33.909  29.173  1.00  0.00     0.000 A 
ENDBRANCH  47  66
BRANCH  59  72
ATOM     72  C   UNL A   1      42.280  34.897  33.257  1.00  0.00    -0.014 A 
ATOM     73  C   UNL A   1      43.046  35.923  32.684  1.00  0.00     0.009 A 
ATOM     74  C   UNL A   1      41.732  35.088  34.535  1.00  0.00     0.009 A 
ATOM     75  C   UNL A   1      43.284  37.104  33.390  1.00  0.00     0.001 A 
ATOM     76  C   UNL A   1      41.946  36.282  35.226  1.00  0.00     0.001 A 
ATOM     77  C   UNL A   1      42.729  37.284  34.656  1.00  0.00     0.000 A 
ENDBRANCH  59  72
ENDBRANCH  33  34
ENDBRANCH  25  28
ENDBRANCH  23  24
ENDBRANCH  22  23
ENDBRANCH   1  22
TORSDOF 13
ENDMDL
MODEL 2
REMARK VINA RESULT:     -10.5      2.884      7.949
REMARK SMILES C[C@@H](c1ccccc1)[C@@H]1[NH2+][C@@H](C(=O)NCCCCNC(=O)c2ccc(-c3c4nc(c(-c5ccccc5)c5ccc([nH]5)c(-c5ccccc5)c5nc(c(-c6ccccc6)c6ccc3[nH]6)C=C5)C=C4)cc2)CS1
REMARK SMILES IDX 16 1 15 2 14 3 12 4 13 5 11 7 9 8 10 9 71 10 70 13 2 14 1 15
REMARK SMILES IDX 3 16 4 17 8 18 5 19 7 20 6 21 17 22 18 23 19 24 20 25 21 27
REMARK SMILES IDX 22 28 23 29 69 30 24 31 68 32 25 33 26 34 27 35 62 36 28 37
REMARK SMILES IDX 67 38 61 39 63 40 29 41 66 42 60 43 59 44 30 46 52 47 37 48
REMARK SMILES IDX 51 49 38 50 41 51 50 52 64 53 39 54 40 55 49 57 65 58 42 59
REMARK SMILES IDX 31 60 32 61 36 62 33 63 35 64 34 65 53 66 54 67 58 68 55 69
REMARK SMILES IDX 57 70 56 71 43 72 44 73 48 74 45 75 47 76 46 77
REMARK H PARENT 14 6 10 11 10 12 19 26 63 45 41 56
REMARK Flexibility Score: inf
ROOT
ATOM      1  C   UNL A   1      32.982  29.688  25.027  1.00  0.00     0.023 C 
ENDROOT
BRANCH   1   2
ATOM      2  C   UNL A   1      31.456  29.600  25.050  1.00  0.00     0.116 C 
BRANCH   2   3
ATOM      3  N   UNL A   1      30.907  29.285  23.746  1.00  0.00    -0.351 N 
ATOM      4  C   UNL A   1      30.828  28.081  23.103  1.00  0.00     0.279 C 
ATOM      5  O   UNL A   1      30.293  28.083  21.991  1.00  0.00    -0.268 OA
ATOM      6  H   UNL A   1      30.536  30.050  23.250  1.00  0.00     0.163 HD
BRANCH   4   7
ATOM      7  C   UNL A   1      31.311  26.780  23.786  1.00  0.00     0.283 C 
ATOM      8  C   UNL A   1      32.471  24.709  23.412  1.00  0.00     0.249 C 
ATOM      9  N   UNL A   1      32.385  26.116  22.995  1.00  0.00    -0.324 N 
ATOM     10  S   UNL A   1      30.726  24.192  23.401  1.00  0.00    -0.092 SA
ATOM     11  H   UNL A   1      32.162  26.168  22.001  1.00  0.00     0.347 HD
ATOM     12  H   UNL A   1      33.278  26.584  23.156  1.00  0.00     0.347 HD
ATOM     13  C   UNL A   1      30.143  25.802  23.994  1.00  0.00     0.151 C 
BRANCH   8  14
ATOM     14  C   UNL A   1      33.173  24.435  24.786  1.00  0.00     0.085 C 
ATOM     15  C   UNL A   1      32.314  23.512  25.678  1.00  0.00     0.020 C 
BRANCH  14  16
ATOM     16  C   UNL A   1      34.596  23.892  24.620  1.00  0.00    -0.038 A 
ATOM     17  C   UNL A   1      35.452  23.864  25.734  1.00  0.00     0.004 A 
ATOM     18  C   UNL A   1      35.093  23.403  23.401  1.00  0.00     0.004 A 
ATOM     19  C   UNL A   1      36.760  23.384  25.634  1.00  0.00     0.000 A 
ATOM     20  C   UNL A   1      36.394  22.899  23.306  1.00  0.00     0.000 A 
ATOM     21  C   UNL A   1      37.230  22.897  24.419  1.00  0.00     0.000 A 
ENDBRANCH  14  16
ENDBRANCH   8  14
ENDBRANCH   4   7
ENDBRANCH   2   3
ENDBRANCH   1   2
BRANCH   1  22
ATOM     22  C   UNL A   1      33.699  28.650  25.896  1.00  0.00     0.023 C 
BRANCH  22  23
ATOM     23  C   UNL A   1      33.546  28.837  27.401  1.00  0.00     0.116 C 
BRANCH  23  24
ATOM     24  N   UNL A   1      33.620  30.230  27.815  1.00  0.00    -0.352 N 
ATOM     25  C   UNL A   1      34.673  30.912  28.378  1.00  0.00     0.251 C 
ATOM     26  H   UNL A   1      32.803  30.760  27.670  1.00  0.00     0.163 HD
ATOM     27  O   UNL A   1      34.524  32.065  28.771  1.00  0.00    -0.269 OA
BRANCH  25  28
ATOM     28  C   UNL A   1      35.978  30.237  28.548  1.00  0.00     0.039 A 
ATOM     29  C   UNL A   1      36.879  30.240  27.482  1.00  0.00     0.014 A 
ATOM     30  C   UNL A   1      36.321  29.627  29.758  1.00  0.00     0.014 A 
ATOM     31  C   UNL A   1      38.156  29.700  27.653  1.00  0.00     0.010 A 
ATOM     32  C   UNL A   1      37.615  29.147  29.948  1.00  0.00     0.010 A 
ATOM     33  C   UNL A   1      38.549  29.188  28.901  1.00  0.00    -0.014 A 
BRANCH  33  34
ATOM     34  C   UNL A   1      39.941  28.728  29.139  1.00  0.00     0.031 A 
ATOM     35  C   UNL A   1      40.969  29.667  29.706  1.00  0.00     0.074 A 
ATOM     36  C   UNL A   1      40.299  27.481  28.768  1.00  0.00     0.049 A 
ATOM     37  N   UNL A   1      42.244  29.461  29.919  1.00  0.00    -0.248 NA
ATOM     38  C   UNL A   1      40.514  31.022  30.059  1.00  0.00     0.031 C 
ATOM     39  C   UNL A   1      39.409  26.487  28.162  1.00  0.00     0.029 A 
ATOM     40  N   UNL A   1      41.511  26.841  28.835  1.00  0.00    -0.354 N 
ATOM     41  C   UNL A   1      42.746  30.662  30.404  1.00  0.00     0.074 A 
ATOM     42  C   UNL A   1      41.648  31.602  30.426  1.00  0.00     0.031 C 
ATOM     43  C   UNL A   1      40.101  25.361  27.927  1.00  0.00     0.029 A 
ATOM     44  C   UNL A   1      41.489  25.563  28.328  1.00  0.00     0.049 A 
ATOM     45  H   UNL A   1      42.320  27.258  29.211  1.00  0.00     0.167 HD
ATOM     46  C   UNL A   1      44.006  30.949  30.807  1.00  0.00     0.031 A 
ATOM     47  C   UNL A   1      42.479  24.661  28.187  1.00  0.00     0.031 A 
ATOM     48  C   UNL A   1      45.093  30.007  30.812  1.00  0.00     0.049 A 
ATOM     49  C   UNL A   1      43.868  25.013  28.643  1.00  0.00     0.074 A 
ATOM     50  C   UNL A   1      46.381  30.184  31.289  1.00  0.00     0.029 A 
ATOM     51  N   UNL A   1      45.024  28.719  30.311  1.00  0.00    -0.354 N 
ATOM     52  N   UNL A   1      44.300  26.120  29.196  1.00  0.00    -0.248 NA
ATOM     53  C   UNL A   1      44.904  23.985  28.463  1.00  0.00     0.031 C 
ATOM     54  C   UNL A   1      47.108  29.021  31.023  1.00  0.00     0.029 A 
ATOM     55  C   UNL A   1      46.258  28.101  30.432  1.00  0.00     0.049 A 
ATOM     56  H   UNL A   1      44.220  28.303  29.925  1.00  0.00     0.167 HD
ATOM     57  C   UNL A   1      45.649  25.912  29.453  1.00  0.00     0.074 A 
ATOM     58  C   UNL A   1      45.958  24.567  29.017  1.00  0.00     0.031 C 
ATOM     59  C   UNL A   1      46.551  26.762  29.999  1.00  0.00     0.031 A 
BRANCH  46  60
ATOM     60  C   UNL A   1      44.293  32.349  31.275  1.00  0.00    -0.014 A 
ATOM     61  C   UNL A   1      44.177  32.703  32.628  1.00  0.00     0.009 A 
ATOM     62  C   UNL A   1      44.764  33.303  30.360  1.00  0.00     0.009 A 
ATOM     63  C   UNL A   1      44.508  33.993  33.050  1.00  0.00     0.001 A 
ATOM     64  C   UNL A   1      45.119  34.583  30.789  1.00  0.00     0.001 A 
ATOM     65  C   UNL A   1      44.985  34.928  32.133  1.00  0.00     0.000 A 
ENDBRANCH  46  60
BRANCH  47  66
ATOM     66  C   UNL A   1      42.206  23.332  27.575  1.00  0.00    -0.014 A 
ATOM     67  C   UNL A   1      42.468  23.104  26.215  1.00  0.00     0.009 A 
ATOM     68  C   UNL A   1      41.642  22.298  28.340  1.00  0.00     0.009 A 
ATOM     69  C   UNL A   1      42.133  21.882  25.625  1.00  0.00     0.001 A 
ATOM     70  C   UNL A   1      41.339  21.068  27.754  1.00  0.00     0.001 A 
ATOM     71  C   UNL A   1      41.571  20.866  26.395  1.00  0.00     0.000 A 
ENDBRANCH  47  66
BRANCH  59  72
ATOM     72  C   UNL A   1      47.952  26.251  30.185  1.00  0.00    -0.014 A 
ATOM     73  C   UNL A   1      48.889  26.297  29.142  1.00  0.00     0.009 A 
ATOM     74  C   UNL A   1      48.349  25.754  31.436  1.00  0.00     0.009 A 
ATOM     75  C   UNL A   1      50.188  25.824  29.339  1.00  0.00     0.001 A 
ATOM     76  C   UNL A   1      49.657  25.311  31.639  1.00  0.00     0.001 A 
ATOM     77  C   UNL A   1      50.572  25.338  30.588  1.00  0.00     0.000 A 
ENDBRANCH  59  72
ENDBRANCH  33  34
ENDBRANCH  25  28
ENDBRANCH  23  24
ENDBRANCH  22  23
ENDBRANCH   1  22
TORSDOF 13
ENDMDL
MODEL 3
REMARK VINA RESULT:     -10.4      2.540      3.860
REMARK SMILES C[C@@H](c1ccccc1)[C@@H]1[NH2+][C@@H](C(=O)NCCCCNC(=O)c2ccc(-c3c4nc(c(-c5ccccc5)c5ccc([nH]5)c(-c5ccccc5)c5nc(c(-c6ccccc6)c6ccc3[nH]6)C=C5)C=C4)cc2)CS1
REMARK SMILES IDX 16 1 15 2 14 3 12 4 13 5 11 7 9 8 10 9 71 10 70 13 2 14 1 15
REMARK SMILES IDX 3 16 4 17 8 18 5 19 7 20 6 21 17 22 18 23 19 24 20 25 21 27
REMARK SMILES IDX 22 28 23 29 69 30 24 31 68 32 25 33 26 34 27 35 62 36 28 37
REMARK SMILES IDX 67 38 61 39 63 40 29 41 66 42 60 43 59 44 30 46 52 47 37 48
REMARK SMILES IDX 51 49 38 50 41 51 50 52 64 53 39 54 40 55 49 57 65 58 42 59
REMARK SMILES IDX 31 60 32 61 36 62 33 63 35 64 34 65 53 66 54 67 58 68 55 69
REMARK SMILES IDX 57 70 56 71 43 72 44 73 48 74 45 75 47 76 46 77
REMARK H PARENT 14 6 10 11 10 12 19 26 63 45 41 56
REMARK Flexibility Score: inf
ROOT
ATOM      1  C   UNL A   1      36.965  21.672  24.426  1.00  0.00     0.023 C 
ENDROOT
BRANCH   1   2
ATOM      2  C   UNL A   1      35.942  21.962  25.525  1.00  0.00     0.116 C 
BRANCH   2   3
ATOM      3  N   UNL A   1      35.040  20.848  25.740  1.00  0.00    -0.351 N 
ATOM      4  C   UNL A   1      33.675  20.833  25.803  1.00  0.00     0.279 C 
ATOM      5  O   UNL A   1      33.141  19.736  25.983  1.00  0.00    -0.268 OA
ATOM      6  H   UNL A   1      35.475  19.973  25.859  1.00  0.00     0.163 HD
BRANCH   4   7
ATOM      7  C   UNL A   1      32.854  22.123  25.569  1.00  0.00     0.283 C 
ATOM      8  C   UNL A   1      31.926  24.055  26.658  1.00  0.00     0.249 C 
ATOM      9  N   UNL A   1      33.042  23.097  26.682  1.00  0.00    -0.324 N 
ATOM     10  S   UNL A   1      30.479  22.965  26.488  1.00  0.00    -0.092 SA
ATOM     11  H   UNL A   1      33.052  22.603  27.574  1.00  0.00     0.347 HD
ATOM     12  H   UNL A   1      33.929  23.589  26.570  1.00  0.00     0.347 HD
ATOM     13  C   UNL A   1      31.358  21.803  25.411  1.00  0.00     0.151 C 
BRANCH   8  14
ATOM     14  C   UNL A   1      31.985  25.159  25.547  1.00  0.00     0.085 C 
ATOM     15  C   UNL A   1      30.651  25.245  24.774  1.00  0.00     0.020 C 
BRANCH  14  16
ATOM     16  C   UNL A   1      32.406  26.525  26.098  1.00  0.00    -0.038 A 
ATOM     17  C   UNL A   1      31.449  27.327  26.742  1.00  0.00     0.004 A 
ATOM     18  C   UNL A   1      33.717  27.018  26.005  1.00  0.00     0.004 A 
ATOM     19  C   UNL A   1      31.780  28.584  27.256  1.00  0.00     0.000 A 
ATOM     20  C   UNL A   1      34.056  28.264  26.543  1.00  0.00     0.000 A 
ATOM     21  C   UNL A   1      33.087  29.050  27.160  1.00  0.00     0.000 A 
ENDBRANCH  14  16
ENDBRANCH   8  14
ENDBRANCH   4   7
ENDBRANCH   2   3
ENDBRANCH   1   2
BRANCH   1  22
ATOM     22  C   UNL A   1      37.831  20.431  24.666  1.00  0.00     0.023 C 
BRANCH  22  23
ATOM     23  C   UNL A   1      38.782  20.516  25.855  1.00  0.00     0.116 C 
BRANCH  23  24
ATOM     24  N   UNL A   1      39.820  19.496  25.831  1.00  0.00    -0.352 N 
ATOM     25  C   UNL A   1      41.159  19.616  26.119  1.00  0.00     0.251 C 
ATOM     26  H   UNL A   1      39.522  18.594  25.573  1.00  0.00     0.163 HD
ATOM     27  O   UNL A   1      41.918  18.669  25.937  1.00  0.00    -0.269 OA
BRANCH  25  28
ATOM     28  C   UNL A   1      41.692  20.905  26.609  1.00  0.00     0.039 A 
ATOM     29  C   UNL A   1      42.206  21.815  25.683  1.00  0.00     0.014 A 
ATOM     30  C   UNL A   1      41.666  21.225  27.970  1.00  0.00     0.014 A 
ATOM     31  C   UNL A   1      42.620  23.078  26.110  1.00  0.00     0.010 A 
ATOM     32  C   UNL A   1      42.018  22.507  28.385  1.00  0.00     0.010 A 
ATOM     33  C   UNL A   1      42.489  23.450  27.458  1.00  0.00    -0.014 A 
BRANCH  33  34
ATOM     34  C   UNL A   1      42.803  24.830  27.910  1.00  0.00     0.031 A 
ATOM     35  C   UNL A   1      44.217  25.223  28.239  1.00  0.00     0.074 A 
ATOM     36  C   UNL A   1      41.798  25.709  28.100  1.00  0.00     0.049 A 
ATOM     37  N   UNL A   1      44.668  26.358  28.709  1.00  0.00    -0.248 NA
ATOM     38  C   UNL A   1      45.257  24.201  28.036  1.00  0.00     0.031 C 
ATOM     39  C   UNL A   1      40.377  25.440  27.866  1.00  0.00     0.029 A 
ATOM     40  N   UNL A   1      41.818  27.007  28.549  1.00  0.00    -0.354 N 
ATOM     41  C   UNL A   1      46.035  26.180  28.881  1.00  0.00     0.074 A 
ATOM     42  C   UNL A   1      46.337  24.818  28.495  1.00  0.00     0.031 C 
ATOM     43  C   UNL A   1      39.665  26.540  28.157  1.00  0.00     0.029 A 
ATOM     44  C   UNL A   1      40.570  27.579  28.636  1.00  0.00     0.049 A 
ATOM     45  H   UNL A   1      42.646  27.483  28.786  1.00  0.00     0.167 HD
ATOM     46  C   UNL A   1      46.956  27.074  29.309  1.00  0.00     0.031 A 
ATOM     47  C   UNL A   1      40.195  28.799  29.067  1.00  0.00     0.031 A 
ATOM     48  C   UNL A   1      46.662  28.436  29.667  1.00  0.00     0.049 A 
ATOM     49  C   UNL A   1      41.244  29.768  29.538  1.00  0.00     0.074 A 
ATOM     50  C   UNL A   1      47.546  29.440  30.024  1.00  0.00     0.029 A 
ATOM     51  N   UNL A   1      45.391  28.982  29.721  1.00  0.00    -0.354 N 
ATOM     52  N   UNL A   1      42.544  29.615  29.596  1.00  0.00    -0.248 NA
ATOM     53  C   UNL A   1      40.771  31.083  29.997  1.00  0.00     0.031 C 
ATOM     54  C   UNL A   1      46.804  30.578  30.351  1.00  0.00     0.029 A 
ATOM     55  C   UNL A   1      45.463  30.299  30.143  1.00  0.00     0.049 A 
ATOM     56  H   UNL A   1      44.560  28.505  29.495  1.00  0.00     0.167 HD
ATOM     57  C   UNL A   1      43.045  30.820  30.070  1.00  0.00     0.074 A 
ATOM     58  C   UNL A   1      41.913  31.700  30.263  1.00  0.00     0.031 C 
ATOM     59  C   UNL A   1      44.330  31.165  30.326  1.00  0.00     0.031 A 
BRANCH  46  60
ATOM     60  C   UNL A   1      48.382  26.614  29.427  1.00  0.00    -0.014 A 
ATOM     61  C   UNL A   1      49.295  26.790  28.376  1.00  0.00     0.009 A 
ATOM     62  C   UNL A   1      48.837  26.070  30.638  1.00  0.00     0.009 A 
ATOM     63  C   UNL A   1      50.630  26.412  28.530  1.00  0.00     0.001 A 
ATOM     64  C   UNL A   1      50.179  25.716  30.798  1.00  0.00     0.001 A 
ATOM     65  C   UNL A   1      51.072  25.883  29.741  1.00  0.00     0.000 A 
ENDBRANCH  46  60
BRANCH  47  66
ATOM     66  C   UNL A   1      38.757  29.181  29.090  1.00  0.00    -0.014 A 
ATOM     67  C   UNL A   1      38.160  29.782  27.970  1.00  0.00     0.009 A 
ATOM     68  C   UNL A   1      37.986  28.986  30.246  1.00  0.00     0.009 A 
ATOM     69  C   UNL A   1      36.833  30.216  28.023  1.00  0.00     0.001 A 
ATOM     70  C   UNL A   1      36.651  29.392  30.285  1.00  0.00     0.001 A 
ATOM     71  C   UNL A   1      36.080  30.019  29.179  1.00  0.00     0.000 A 
ENDBRANCH  47  66
BRANCH  59  72
ATOM     72  C   UNL A   1      44.583  32.565  30.812  1.00  0.00    -0.014 A 
ATOM     73  C   UNL A   1      44.789  33.621  29.912  1.00  0.00     0.009 A 
ATOM     74  C   UNL A   1      44.576  32.833  32.189  1.00  0.00     0.009 A 
ATOM     75  C   UNL A   1      45.015  34.916  30.385  1.00  0.00     0.001 A 
ATOM     76  C   UNL A   1      44.772  34.133  32.658  1.00  0.00     0.001 A 
ATOM     77  C   UNL A   1      45.000  35.171  31.756  1.00  0.00     0.000 A 
ENDBRANCH  59  72
ENDBRANCH  33  34
ENDBRANCH  25  28
ENDBRANCH  23  24
ENDBRANCH  22  23
ENDBRANCH   1  22
TORSDOF 13
ENDMDL
