MODEL 1
REMARK VINA RESULT:     -11.5      0.000      0.000
REMARK SMILES CCCc1cc2c(cc1Cl)C=C(C(=O)NCCCCNC(=O)c1ccc(-c3c4nc(c(-c5ccccc5)c5ccc([nH]5)c(-c5ccccc5)c5nc(c(-c6ccccc6)c6ccc3[nH]6)C=C5)C=C4)cc1)[C@@H](C(F)(F)F)O2
REMARK SMILES IDX 17 1 16 2 15 3 13 4 14 5 12 7 4 8 5 9 9 10 6 11 8 12 10 13
REMARK SMILES IDX 7 14 76 15 11 16 71 17 3 18 2 19 1 20 72 21 73 22 74 23
REMARK SMILES IDX 75 24 18 25 19 26 20 27 21 28 22 30 23 31 24 32 70 33 25 34
REMARK SMILES IDX 69 35 26 36 27 37 28 38 63 39 29 40 68 41 62 42 64 43 30 44
REMARK SMILES IDX 67 45 61 46 60 47 31 49 53 50 38 51 52 52 39 53 42 54 51 55
REMARK SMILES IDX 65 56 40 57 41 58 50 60 66 61 43 62 32 63 33 64 37 65 34 66
REMARK SMILES IDX 36 67 35 68 54 69 55 70 59 71 56 72 58 73 57 74 44 75 45 76
REMARK SMILES IDX 49 77 46 78 48 79 47 80
REMARK H PARENT 15 6 20 29 64 48 42 59
REMARK Flexibility Score: inf
ROOT
ATOM      1  C   UNL A   1      36.118  20.636  25.056  1.00  0.00     0.023 C 
ENDROOT
BRANCH   1   2
ATOM      2  C   UNL A   1      34.758  21.320  25.177  1.00  0.00     0.116 C 
BRANCH   2   3
ATOM      3  N   UNL A   1      33.768  20.739  24.287  1.00  0.00    -0.352 N 
ATOM      4  C   UNL A   1      32.702  21.176  23.575  1.00  0.00     0.251 C 
ATOM      5  O   UNL A   1      32.112  20.310  22.922  1.00  0.00    -0.270 OA
ATOM      6  H   UNL A   1      33.910  19.771  24.170  1.00  0.00     0.163 HD
BRANCH   4   7
ATOM      7  C   UNL A   1      32.213  22.587  23.541  1.00  0.00     0.067 C 
ATOM      8  C   UNL A   1      31.708  27.565  22.738  1.00  0.00    -0.026 A 
ATOM      9  C   UNL A   1      30.868  26.525  23.153  1.00  0.00     0.052 A 
ATOM     10  C   UNL A   1      33.052  27.236  22.468  1.00  0.00     0.045 A 
ATOM     11  C   UNL A   1      31.322  25.212  23.239  1.00  0.00     0.128 A 
ATOM     12  C   UNL A   1      33.509  25.910  22.563  1.00  0.00     0.032 A 
ATOM     13  Cl  UNL A   1      34.222  28.428  22.015  1.00  0.00    -0.084 Cl
ATOM     14  C   UNL A   1      32.638  24.888  22.941  1.00  0.00     0.019 A 
ATOM     15  O   UNL A   1      30.385  24.284  23.582  1.00  0.00    -0.475 OA
ATOM     16  C   UNL A   1      33.055  23.492  23.003  1.00  0.00     0.025 C 
ATOM     17  C   UNL A   1      30.887  23.025  24.095  1.00  0.00     0.314 C 
BRANCH   8  18
ATOM     18  C   UNL A   1      31.170  28.981  22.668  1.00  0.00     0.037 C 
BRANCH  18  19
ATOM     19  C   UNL A   1      30.543  29.553  23.956  1.00  0.00     0.001 C 
ATOM     20  C   UNL A   1      31.490  29.679  25.144  1.00  0.00     0.004 C 
ENDBRANCH  18  19
ENDBRANCH   8  18
BRANCH  17  21
ATOM     21  C   UNL A   1      30.867  23.072  25.634  1.00  0.00     0.429 C 
ATOM     22  F   UNL A   1      30.305  21.943  26.132  1.00  0.00    -0.167 F 
ATOM     23  F   UNL A   1      32.109  23.148  26.169  1.00  0.00    -0.167 F 
ATOM     24  F   UNL A   1      30.164  24.122  26.115  1.00  0.00    -0.167 F 
ENDBRANCH  17  21
ENDBRANCH   4   7
ENDBRANCH   2   3
ENDBRANCH   1   2
BRANCH   1  25
ATOM     25  C   UNL A   1      37.273  21.593  24.760  1.00  0.00     0.023 C 
BRANCH  25  26
ATOM     26  C   UNL A   1      38.477  21.472  25.692  1.00  0.00     0.116 C 
BRANCH  26  27
ATOM     27  N   UNL A   1      39.217  20.224  25.565  1.00  0.00    -0.352 N 
ATOM     28  C   UNL A   1      40.521  19.982  25.951  1.00  0.00     0.251 C 
ATOM     29  H   UNL A   1      38.734  19.469  25.159  1.00  0.00     0.163 HD
ATOM     30  O   UNL A   1      41.060  18.910  25.739  1.00  0.00    -0.269 OA
BRANCH  28  31
ATOM     31  C   UNL A   1      41.268  21.093  26.576  1.00  0.00     0.039 A 
ATOM     32  C   UNL A   1      41.200  21.283  27.956  1.00  0.00     0.014 A 
ATOM     33  C   UNL A   1      41.906  22.023  25.753  1.00  0.00     0.014 A 
ATOM     34  C   UNL A   1      41.610  22.495  28.493  1.00  0.00     0.010 A 
ATOM     35  C   UNL A   1      42.389  23.209  26.309  1.00  0.00     0.010 A 
ATOM     36  C   UNL A   1      42.187  23.480  27.672  1.00  0.00    -0.014 A 
BRANCH  36  37
ATOM     37  C   UNL A   1      42.536  24.799  28.255  1.00  0.00     0.031 A 
ATOM     38  C   UNL A   1      43.966  25.148  28.565  1.00  0.00     0.074 A 
ATOM     39  C   UNL A   1      41.564  25.713  28.434  1.00  0.00     0.049 A 
ATOM     40  N   UNL A   1      44.452  26.263  29.051  1.00  0.00    -0.248 NA
ATOM     41  C   UNL A   1      44.986  24.120  28.296  1.00  0.00     0.031 C 
ATOM     42  C   UNL A   1      40.146  25.502  28.136  1.00  0.00     0.029 A 
ATOM     43  N   UNL A   1      41.625  27.010  28.874  1.00  0.00    -0.354 N 
ATOM     44  C   UNL A   1      45.823  26.063  29.167  1.00  0.00     0.074 A 
ATOM     45  C   UNL A   1      46.093  24.715  28.719  1.00  0.00     0.031 C 
ATOM     46  C   UNL A   1      39.482  26.649  28.340  1.00  0.00     0.029 A 
ATOM     47  C   UNL A   1      40.412  27.653  28.846  1.00  0.00     0.049 A 
ATOM     48  H   UNL A   1      42.457  27.439  29.180  1.00  0.00     0.167 HD
ATOM     49  C   UNL A   1      46.769  26.929  29.603  1.00  0.00     0.031 A 
ATOM     50  C   UNL A   1      40.078  28.908  29.198  1.00  0.00     0.031 A 
ATOM     51  C   UNL A   1      46.501  28.275  30.032  1.00  0.00     0.049 A 
ATOM     52  C   UNL A   1      41.138  29.831  29.722  1.00  0.00     0.074 A 
ATOM     53  C   UNL A   1      47.400  29.229  30.478  1.00  0.00     0.029 A 
ATOM     54  N   UNL A   1      45.246  28.861  30.064  1.00  0.00    -0.354 N 
ATOM     55  N   UNL A   1      42.425  29.618  29.842  1.00  0.00    -0.248 NA
ATOM     56  C   UNL A   1      40.699  31.160  30.169  1.00  0.00     0.031 C 
ATOM     57  C   UNL A   1      46.682  30.377  30.824  1.00  0.00     0.029 A 
ATOM     58  C   UNL A   1      45.345  30.155  30.543  1.00  0.00     0.049 A 
ATOM     59  H   UNL A   1      44.410  28.421  29.786  1.00  0.00     0.167 HD
ATOM     60  C   UNL A   1      42.953  30.785  30.376  1.00  0.00     0.074 A 
ATOM     61  C   UNL A   1      41.849  31.711  30.535  1.00  0.00     0.031 C 
ATOM     62  C   UNL A   1      44.237  31.060  30.709  1.00  0.00     0.031 A 
BRANCH  49  63
ATOM     63  C   UNL A   1      48.193  26.448  29.658  1.00  0.00    -0.014 A 
ATOM     64  C   UNL A   1      48.672  25.833  30.827  1.00  0.00     0.009 A 
ATOM     65  C   UNL A   1      49.081  26.681  28.597  1.00  0.00     0.009 A 
ATOM     66  C   UNL A   1      50.016  25.470  30.936  1.00  0.00     0.001 A 
ATOM     67  C   UNL A   1      50.420  26.296  28.702  1.00  0.00     0.001 A 
ATOM     68  C   UNL A   1      50.888  25.698  29.872  1.00  0.00     0.000 A 
ENDBRANCH  49  63
BRANCH  50  69
ATOM     69  C   UNL A   1      38.667  29.346  29.062  1.00  0.00    -0.014 A 
ATOM     70  C   UNL A   1      37.786  29.257  30.153  1.00  0.00     0.009 A 
ATOM     71  C   UNL A   1      38.177  29.792  27.827  1.00  0.00     0.009 A 
ATOM     72  C   UNL A   1      36.436  29.576  30.001  1.00  0.00     0.001 A 
ATOM     73  C   UNL A   1      36.830  30.136  27.685  1.00  0.00     0.001 A 
ATOM     74  C   UNL A   1      35.960  30.018  28.768  1.00  0.00     0.000 A 
ENDBRANCH  50  69
BRANCH  62  75
ATOM     75  C   UNL A   1      44.531  32.415  31.280  1.00  0.00    -0.014 A 
ATOM     76  C   UNL A   1      44.436  32.626  32.665  1.00  0.00     0.009 A 
ATOM     77  C   UNL A   1      44.812  33.503  30.440  1.00  0.00     0.009 A 
ATOM     78  C   UNL A   1      44.607  33.905  33.197  1.00  0.00     0.001 A 
ATOM     79  C   UNL A   1      45.005  34.776  30.979  1.00  0.00     0.001 A 
ATOM     80  C   UNL A   1      44.895  34.977  32.355  1.00  0.00     0.000 A 
ENDBRANCH  62  75
ENDBRANCH  36  37
ENDBRANCH  28  31
ENDBRANCH  26  27
ENDBRANCH  25  26
ENDBRANCH   1  25
TORSDOF 14
ENDMDL
MODEL 2
REMARK VINA RESULT:     -11.4      3.445      8.453
REMARK SMILES CCCc1cc2c(cc1Cl)C=C(C(=O)NCCCCNC(=O)c1ccc(-c3c4nc(c(-c5ccccc5)c5ccc([nH]5)c(-c5ccccc5)c5nc(c(-c6ccccc6)c6ccc3[nH]6)C=C5)C=C4)cc1)[C@@H](C(F)(F)F)O2
REMARK SMILES IDX 17 1 16 2 15 3 13 4 14 5 12 7 4 8 5 9 9 10 6 11 8 12 10 13
REMARK SMILES IDX 7 14 76 15 11 16 71 17 3 18 2 19 1 20 72 21 73 22 74 23
REMARK SMILES IDX 75 24 18 25 19 26 20 27 21 28 22 30 23 31 24 32 70 33 25 34
REMARK SMILES IDX 69 35 26 36 27 37 28 38 63 39 29 40 68 41 62 42 64 43 30 44
REMARK SMILES IDX 67 45 61 46 60 47 31 49 53 50 38 51 52 52 39 53 42 54 51 55
REMARK SMILES IDX 65 56 40 57 41 58 50 60 66 61 43 62 32 63 33 64 37 65 34 66
REMARK SMILES IDX 36 67 35 68 54 69 55 70 59 71 56 72 58 73 57 74 44 75 45 76
REMARK SMILES IDX 49 77 46 78 48 79 47 80
REMARK H PARENT 15 6 20 29 64 48 42 59
REMARK Flexibility Score: inf
ROOT
ATOM      1  C   UNL A   1      32.619  28.906  27.499  1.00  0.00     0.023 C 
ENDROOT
BRANCH   1   2
ATOM      2  C   UNL A   1      32.151  27.759  26.607  1.00  0.00     0.116 C 
BRANCH   2   3
ATOM      3  N   UNL A   1      32.885  27.701  25.354  1.00  0.00    -0.352 N 
ATOM      4  C   UNL A   1      33.253  26.743  24.469  1.00  0.00     0.251 C 
ATOM      5  O   UNL A   1      33.897  27.145  23.495  1.00  0.00    -0.270 OA
ATOM      6  H   UNL A   1      33.198  28.592  25.076  1.00  0.00     0.163 HD
BRANCH   4   7
ATOM      7  C   UNL A   1      32.944  25.288  24.601  1.00  0.00     0.067 C 
ATOM      8  C   UNL A   1      33.237  20.264  25.199  1.00  0.00    -0.026 A 
ATOM      9  C   UNL A   1      32.215  21.221  25.229  1.00  0.00     0.052 A 
ATOM     10  C   UNL A   1      34.540  20.727  24.926  1.00  0.00     0.045 A 
ATOM     11  C   UNL A   1      32.480  22.577  25.058  1.00  0.00     0.128 A 
ATOM     12  C   UNL A   1      34.804  22.095  24.745  1.00  0.00     0.032 A 
ATOM     13  Cl  UNL A   1      35.890  19.653  24.787  1.00  0.00    -0.084 Cl
ATOM     14  C   UNL A   1      33.771  23.030  24.821  1.00  0.00     0.019 A 
ATOM     15  O   UNL A   1      31.410  23.409  25.185  1.00  0.00    -0.475 OA
ATOM     16  C   UNL A   1      34.005  24.463  24.692  1.00  0.00     0.025 C 
ATOM     17  C   UNL A   1      31.550  24.728  24.600  1.00  0.00     0.314 C 
BRANCH   8  18
ATOM     18  C   UNL A   1      32.897  18.799  25.383  1.00  0.00     0.037 C 
BRANCH  18  19
ATOM     19  C   UNL A   1      32.514  18.007  24.116  1.00  0.00     0.001 C 
ATOM     20  C   UNL A   1      33.621  17.138  23.529  1.00  0.00     0.004 C 
ENDBRANCH  18  19
ENDBRANCH   8  18
BRANCH  17  21
ATOM     21  C   UNL A   1      30.908  24.722  23.200  1.00  0.00     0.429 C 
ATOM     22  F   UNL A   1      31.867  24.651  22.243  1.00  0.00    -0.167 F 
ATOM     23  F   UNL A   1      30.094  23.657  23.005  1.00  0.00    -0.167 F 
ATOM     24  F   UNL A   1      30.174  25.830  22.958  1.00  0.00    -0.167 F 
ENDBRANCH  17  21
ENDBRANCH   4   7
ENDBRANCH   2   3
ENDBRANCH   1   2
BRANCH   1  25
ATOM     25  C   UNL A   1      32.183  30.290  27.018  1.00  0.00     0.023 C 
BRANCH  25  26
ATOM     26  C   UNL A   1      33.192  31.411  27.252  1.00  0.00     0.116 C 
BRANCH  26  27
ATOM     27  N   UNL A   1      32.599  32.723  27.473  1.00  0.00    -0.352 N 
ATOM     28  C   UNL A   1      33.115  33.759  28.226  1.00  0.00     0.251 C 
ATOM     29  H   UNL A   1      31.733  32.890  27.036  1.00  0.00     0.163 HD
ATOM     30  O   UNL A   1      32.499  34.797  28.391  1.00  0.00    -0.269 OA
BRANCH  28  31
ATOM     31  C   UNL A   1      34.421  33.543  28.884  1.00  0.00     0.039 A 
ATOM     32  C   UNL A   1      35.596  33.916  28.230  1.00  0.00     0.014 A 
ATOM     33  C   UNL A   1      34.461  32.830  30.083  1.00  0.00     0.014 A 
ATOM     34  C   UNL A   1      36.809  33.416  28.682  1.00  0.00     0.010 A 
ATOM     35  C   UNL A   1      35.692  32.396  30.578  1.00  0.00     0.010 A 
ATOM     36  C   UNL A   1      36.868  32.631  29.847  1.00  0.00    -0.014 A 
BRANCH  36  37
ATOM     37  C   UNL A   1      38.163  32.038  30.258  1.00  0.00     0.031 A 
ATOM     38  C   UNL A   1      38.633  30.734  29.671  1.00  0.00     0.074 A 
ATOM     39  C   UNL A   1      38.954  32.718  31.109  1.00  0.00     0.049 A 
ATOM     40  N   UNL A   1      39.749  30.087  29.896  1.00  0.00    -0.248 NA
ATOM     41  C   UNL A   1      37.741  30.069  28.706  1.00  0.00     0.031 C 
ATOM     42  C   UNL A   1      38.622  34.008  31.715  1.00  0.00     0.029 A 
ATOM     43  N   UNL A   1      40.210  32.438  31.581  1.00  0.00    -0.354 N 
ATOM     44  C   UNL A   1      39.683  28.933  29.123  1.00  0.00     0.074 A 
ATOM     45  C   UNL A   1      38.411  28.957  28.435  1.00  0.00     0.031 C 
ATOM     46  C   UNL A   1      39.674  34.439  32.427  1.00  0.00     0.029 A 
ATOM     47  C   UNL A   1      40.725  33.428  32.383  1.00  0.00     0.049 A 
ATOM     48  H   UNL A   1      40.697  31.610  31.367  1.00  0.00     0.167 HD
ATOM     49  C   UNL A   1      40.604  27.948  28.996  1.00  0.00     0.031 A 
ATOM     50  C   UNL A   1      41.905  33.512  33.022  1.00  0.00     0.031 A 
ATOM     51  C   UNL A   1      41.876  27.935  29.667  1.00  0.00     0.049 A 
ATOM     52  C   UNL A   1      42.887  32.385  32.902  1.00  0.00     0.074 A 
ATOM     53  C   UNL A   1      42.879  26.983  29.588  1.00  0.00     0.029 A 
ATOM     54  N   UNL A   1      42.324  28.919  30.534  1.00  0.00    -0.354 N 
ATOM     55  N   UNL A   1      42.800  31.294  32.182  1.00  0.00    -0.248 NA
ATOM     56  C   UNL A   1      44.123  32.495  33.689  1.00  0.00     0.031 C 
ATOM     57  C   UNL A   1      43.914  27.369  30.444  1.00  0.00     0.029 A 
ATOM     58  C   UNL A   1      43.579  28.586  31.013  1.00  0.00     0.049 A 
ATOM     59  H   UNL A   1      41.824  29.733  30.772  1.00  0.00     0.167 HD
ATOM     60  C   UNL A   1      43.968  30.586  32.426  1.00  0.00     0.074 A 
ATOM     61  C   UNL A   1      44.759  31.382  33.343  1.00  0.00     0.031 C 
ATOM     62  C   UNL A   1      44.347  29.381  31.936  1.00  0.00     0.031 A 
BRANCH  49  63
ATOM     63  C   UNL A   1      40.271  26.782  28.108  1.00  0.00    -0.014 A 
ATOM     64  C   UNL A   1      39.509  25.717  28.618  1.00  0.00     0.009 A 
ATOM     65  C   UNL A   1      40.781  26.692  26.804  1.00  0.00     0.009 A 
ATOM     66  C   UNL A   1      39.273  24.581  27.843  1.00  0.00     0.001 A 
ATOM     67  C   UNL A   1      40.523  25.562  26.023  1.00  0.00     0.001 A 
ATOM     68  C   UNL A   1      39.777  24.505  26.545  1.00  0.00     0.000 A 
ENDBRANCH  49  63
BRANCH  50  69
ATOM     69  C   UNL A   1      42.204  34.717  33.835  1.00  0.00    -0.014 A 
ATOM     70  C   UNL A   1      41.826  34.776  35.186  1.00  0.00     0.009 A 
ATOM     71  C   UNL A   1      42.808  35.837  33.248  1.00  0.00     0.009 A 
ATOM     72  C   UNL A   1      42.018  35.944  35.925  1.00  0.00     0.001 A 
ATOM     73  C   UNL A   1      43.024  36.996  33.998  1.00  0.00     0.001 A 
ATOM     74  C   UNL A   1      42.619  37.052  35.331  1.00  0.00     0.000 A 
ENDBRANCH  50  69
BRANCH  62  75
ATOM     75  C   UNL A   1      45.675  28.839  32.376  1.00  0.00    -0.014 A 
ATOM     76  C   UNL A   1      46.826  29.110  31.619  1.00  0.00     0.009 A 
ATOM     77  C   UNL A   1      45.770  27.986  33.485  1.00  0.00     0.009 A 
ATOM     78  C   UNL A   1      48.048  28.528  31.961  1.00  0.00     0.001 A 
ATOM     79  C   UNL A   1      46.999  27.425  33.837  1.00  0.00     0.001 A 
ATOM     80  C   UNL A   1      48.134  27.689  33.071  1.00  0.00     0.000 A 
ENDBRANCH  62  75
ENDBRANCH  36  37
ENDBRANCH  28  31
ENDBRANCH  26  27
ENDBRANCH  25  26
ENDBRANCH   1  25
TORSDOF 14
ENDMDL
MODEL 3
REMARK VINA RESULT:     -11.3      0.811      5.942
REMARK SMILES CCCc1cc2c(cc1Cl)C=C(C(=O)NCCCCNC(=O)c1ccc(-c3c4nc(c(-c5ccccc5)c5ccc([nH]5)c(-c5ccccc5)c5nc(c(-c6ccccc6)c6ccc3[nH]6)C=C5)C=C4)cc1)[C@@H](C(F)(F)F)O2
REMARK SMILES IDX 17 1 16 2 15 3 13 4 14 5 12 7 4 8 5 9 9 10 6 11 8 12 10 13
REMARK SMILES IDX 7 14 76 15 11 16 71 17 3 18 2 19 1 20 72 21 73 22 74 23
REMARK SMILES IDX 75 24 18 25 19 26 20 27 21 28 22 30 23 31 24 32 70 33 25 34
REMARK SMILES IDX 69 35 26 36 27 37 28 38 63 39 29 40 68 41 62 42 64 43 30 44
REMARK SMILES IDX 67 45 61 46 60 47 31 49 53 50 38 51 52 52 39 53 42 54 51 55
REMARK SMILES IDX 65 56 40 57 41 58 50 60 66 61 43 62 32 63 33 64 37 65 34 66
REMARK SMILES IDX 36 67 35 68 54 69 55 70 59 71 56 72 58 73 57 74 44 75 45 76
REMARK SMILES IDX 49 77 46 78 48 79 47 80
REMARK H PARENT 15 6 20 29 64 48 42 59
REMARK Flexibility Score: inf
ROOT
ATOM      1  C   UNL A   1      36.764  20.502  24.782  1.00  0.00     0.023 C 
ENDROOT
BRANCH   1   2
ATOM      2  C   UNL A   1      35.423  20.804  25.446  1.00  0.00     0.116 C 
BRANCH   2   3
ATOM      3  N   UNL A   1      34.296  20.422  24.612  1.00  0.00    -0.352 N 
ATOM      4  C   UNL A   1      33.193  21.024  24.106  1.00  0.00     0.251 C 
ATOM      5  O   UNL A   1      32.468  20.301  23.415  1.00  0.00    -0.270 OA
ATOM      6  H   UNL A   1      34.349  19.475  24.344  1.00  0.00     0.163 HD
BRANCH   4   7
ATOM      7  C   UNL A   1      32.815  22.451  24.330  1.00  0.00     0.067 C 
ATOM      8  C   UNL A   1      32.207  27.466  23.931  1.00  0.00    -0.026 A 
ATOM      9  C   UNL A   1      31.631  26.443  24.694  1.00  0.00     0.052 A 
ATOM     10  C   UNL A   1      33.231  27.099  23.035  1.00  0.00     0.045 A 
ATOM     11  C   UNL A   1      32.009  25.112  24.532  1.00  0.00     0.128 A 
ATOM     12  C   UNL A   1      33.616  25.757  22.879  1.00  0.00     0.032 A 
ATOM     13  Cl  UNL A   1      34.082  28.265  22.079  1.00  0.00    -0.084 Cl
ATOM     14  C   UNL A   1      32.996  24.753  23.624  1.00  0.00     0.019 A 
ATOM     15  O   UNL A   1      31.319  24.207  25.280  1.00  0.00    -0.475 OA
ATOM     16  C   UNL A   1      33.326  23.343  23.459  1.00  0.00     0.025 C 
ATOM     17  C   UNL A   1      31.951  22.916  25.468  1.00  0.00     0.314 C 
BRANCH   8  18
ATOM     18  C   UNL A   1      31.768  28.900  24.150  1.00  0.00     0.037 C 
BRANCH  18  19
ATOM     19  C   UNL A   1      32.295  29.606  25.416  1.00  0.00     0.001 C 
ATOM     20  C   UNL A   1      33.632  29.094  25.941  1.00  0.00     0.004 C 
ENDBRANCH  18  19
ENDBRANCH   8  18
BRANCH  17  21
ATOM     21  C   UNL A   1      32.688  22.915  26.819  1.00  0.00     0.429 C 
ATOM     22  F   UNL A   1      33.924  23.456  26.681  1.00  0.00    -0.167 F 
ATOM     23  F   UNL A   1      32.051  23.651  27.761  1.00  0.00    -0.167 F 
ATOM     24  F   UNL A   1      32.844  21.672  27.328  1.00  0.00    -0.167 F 
ENDBRANCH  17  21
ENDBRANCH   4   7
ENDBRANCH   2   3
ENDBRANCH   1   2
BRANCH   1  25
ATOM     25  C   UNL A   1      37.808  21.606  24.955  1.00  0.00     0.023 C 
BRANCH  25  26
ATOM     26  C   UNL A   1      38.851  21.354  26.041  1.00  0.00     0.116 C 
BRANCH  26  27
ATOM     27  N   UNL A   1      39.650  20.152  25.845  1.00  0.00    -0.352 N 
ATOM     28  C   UNL A   1      41.001  19.995  26.090  1.00  0.00     0.251 C 
ATOM     29  H   UNL A   1      39.175  19.362  25.500  1.00  0.00     0.163 HD
ATOM     30  O   UNL A   1      41.579  18.956  25.830  1.00  0.00    -0.269 OA
BRANCH  28  31
ATOM     31  C   UNL A   1      41.739  21.160  26.621  1.00  0.00     0.039 A 
ATOM     32  C   UNL A   1      41.757  21.400  27.996  1.00  0.00     0.014 A 
ATOM     33  C   UNL A   1      42.279  22.082  25.724  1.00  0.00     0.014 A 
ATOM     34  C   UNL A   1      42.149  22.648  28.459  1.00  0.00     0.010 A 
ATOM     35  C   UNL A   1      42.747  23.307  26.202  1.00  0.00     0.010 A 
ATOM     36  C   UNL A   1      42.626  23.623  27.565  1.00  0.00    -0.014 A 
BRANCH  36  37
ATOM     37  C   UNL A   1      42.956  24.976  28.075  1.00  0.00     0.031 A 
ATOM     38  C   UNL A   1      41.874  25.996  28.306  1.00  0.00     0.074 A 
ATOM     39  C   UNL A   1      44.231  25.259  28.404  1.00  0.00     0.049 A 
ATOM     40  N   UNL A   1      41.980  27.215  28.773  1.00  0.00    -0.248 NA
ATOM     41  C   UNL A   1      40.494  25.602  27.975  1.00  0.00     0.031 C 
ATOM     42  C   UNL A   1      45.360  24.339  28.258  1.00  0.00     0.029 A 
ATOM     43  N   UNL A   1      44.783  26.384  28.959  1.00  0.00    -0.354 N 
ATOM     44  C   UNL A   1      40.693  27.739  28.769  1.00  0.00     0.074 A 
ATOM     45  C   UNL A   1      39.821  26.714  28.237  1.00  0.00     0.031 C 
ATOM     46  C   UNL A   1      46.459  24.912  28.772  1.00  0.00     0.029 A 
ATOM     47  C   UNL A   1      46.126  26.260  29.219  1.00  0.00     0.049 A 
ATOM     48  H   UNL A   1      44.269  27.201  29.152  1.00  0.00     0.167 HD
ATOM     49  C   UNL A   1      40.277  28.961  29.178  1.00  0.00     0.031 A 
ATOM     50  C   UNL A   1      47.000  27.136  29.749  1.00  0.00     0.031 A 
ATOM     51  C   UNL A   1      41.142  29.972  29.722  1.00  0.00     0.049 A 
ATOM     52  C   UNL A   1      46.521  28.499  30.149  1.00  0.00     0.074 A 
ATOM     53  C   UNL A   1      40.807  31.237  30.174  1.00  0.00     0.029 A 
ATOM     54  N   UNL A   1      42.511  29.835  29.894  1.00  0.00    -0.354 N 
ATOM     55  N   UNL A   1      45.304  28.983  30.121  1.00  0.00    -0.248 NA
ATOM     56  C   UNL A   1      47.536  29.440  30.643  1.00  0.00     0.031 C 
ATOM     57  C   UNL A   1      41.979  31.882  30.578  1.00  0.00     0.029 A 
ATOM     58  C   UNL A   1      43.036  31.000  30.426  1.00  0.00     0.049 A 
ATOM     59  H   UNL A   1      43.030  29.028  29.672  1.00  0.00     0.167 HD
ATOM     60  C   UNL A   1      45.403  30.284  30.594  1.00  0.00     0.074 A 
ATOM     61  C   UNL A   1      46.797  30.506  30.924  1.00  0.00     0.031 C 
ATOM     62  C   UNL A   1      44.426  31.211  30.736  1.00  0.00     0.031 A 
BRANCH  49  63
ATOM     63  C   UNL A   1      38.817  29.292  29.038  1.00  0.00    -0.014 A 
ATOM     64  C   UNL A   1      37.956  29.107  30.133  1.00  0.00     0.009 A 
ATOM     65  C   UNL A   1      38.278  29.699  27.809  1.00  0.00     0.009 A 
ATOM     66  C   UNL A   1      36.582  29.313  29.996  1.00  0.00     0.001 A 
ATOM     67  C   UNL A   1      36.905  29.926  27.682  1.00  0.00     0.001 A 
ATOM     68  C   UNL A   1      36.058  29.726  28.772  1.00  0.00     0.000 A 
ENDBRANCH  49  63
BRANCH  50  69
ATOM     69  C   UNL A   1      48.417  26.730  29.920  1.00  0.00    -0.014 A 
ATOM     70  C   UNL A   1      49.355  26.972  28.902  1.00  0.00     0.009 A 
ATOM     71  C   UNL A   1      48.825  26.041  31.070  1.00  0.00     0.009 A 
ATOM     72  C   UNL A   1      50.664  26.505  29.020  1.00  0.00     0.001 A 
ATOM     73  C   UNL A   1      50.144  25.598  31.197  1.00  0.00     0.001 A 
ATOM     74  C   UNL A   1      51.058  25.822  30.168  1.00  0.00     0.000 A 
ENDBRANCH  50  69
BRANCH  62  75
ATOM     75  C   UNL A   1      44.818  32.556  31.271  1.00  0.00    -0.014 A 
ATOM     76  C   UNL A   1      44.766  32.802  32.652  1.00  0.00     0.009 A 
ATOM     77  C   UNL A   1      45.150  33.606  30.401  1.00  0.00     0.009 A 
ATOM     78  C   UNL A   1      45.029  34.078  33.152  1.00  0.00     0.001 A 
ATOM     79  C   UNL A   1      45.435  34.875  30.908  1.00  0.00     0.001 A 
ATOM     80  C   UNL A   1      45.367  35.112  32.281  1.00  0.00     0.000 A 
ENDBRANCH  62  75
ENDBRANCH  36  37
ENDBRANCH  28  31
ENDBRANCH  26  27
ENDBRANCH  25  26
ENDBRANCH   1  25
TORSDOF 14
ENDMDL
