MODEL 1
REMARK VINA RESULT:     -10.8      0.000      0.000
REMARK SMILES C[C@@H]1CC[C@@]1(SC1CCCCC1)C(=O)NCCCCNC(=O)c1ccc(-c2c3nc(c(-c4ccccc4)c4ccc([nH]4)c(-c4ccccc4)c4nc(c(-c5ccccc5)c5ccc2[nH]5)C=C4)C=C3)cc1
REMARK SMILES IDX 17 1 16 2 15 3 13 4 14 5 5 7 1 8 2 9 3 10 4 11 6 12 7 13
REMARK SMILES IDX 8 14 12 15 9 16 11 17 10 18 18 19 19 20 20 21 21 22 22 24
REMARK SMILES IDX 23 25 24 26 70 27 25 28 69 29 26 30 27 31 28 32 63 33 29 34
REMARK SMILES IDX 68 35 62 36 64 37 30 38 67 39 61 40 60 41 31 43 53 44 38 45
REMARK SMILES IDX 52 46 39 47 42 48 51 49 65 50 40 51 41 52 50 54 66 55 43 56
REMARK SMILES IDX 32 57 33 58 37 59 34 60 36 61 35 62 54 63 55 64 59 65 56 66
REMARK SMILES IDX 58 67 57 68 44 69 45 70 49 71 46 72 48 73 47 74
REMARK H PARENT 15 6 20 23 64 42 42 53
REMARK Flexibility Score: inf
ROOT
ATOM      1  C   UNL A   1      36.421  20.160  25.008  1.00  0.00     0.023 C 
ENDROOT
BRANCH   1   2
ATOM      2  C   UNL A   1      36.441  21.616  25.454  1.00  0.00     0.116 C 
BRANCH   2   3
ATOM      3  N   UNL A   1      35.556  21.828  26.577  1.00  0.00    -0.355 N 
ATOM      4  C   UNL A   1      34.200  22.060  26.618  1.00  0.00     0.236 C 
ATOM      5  O   UNL A   1      33.719  22.093  27.762  1.00  0.00    -0.273 OA
ATOM      6  H   UNL A   1      35.994  21.802  27.458  1.00  0.00     0.163 HD
BRANCH   4   7
ATOM      7  C   UNL A   1      33.348  22.292  25.309  1.00  0.00     0.097 C 
ATOM      8  C   UNL A   1      31.249  24.020  25.821  1.00  0.00     0.009 C 
ATOM      9  C   UNL A   1      32.667  23.748  25.347  1.00  0.00     0.012 C 
ATOM     10  C   UNL A   1      32.879  23.849  23.827  1.00  0.00     0.007 C 
ATOM     11  C   UNL A   1      33.958  22.770  23.954  1.00  0.00     0.028 C 
BRANCH   7  12
ATOM     12  S   UNL A   1      32.019  20.987  25.085  1.00  0.00    -0.141 SA
BRANCH  12  13
ATOM     13  C   UNL A   1      32.853  19.444  24.566  1.00  0.00     0.047 C 
ATOM     14  C   UNL A   1      32.867  18.376  25.663  1.00  0.00     0.014 C 
ATOM     15  C   UNL A   1      32.464  18.891  23.192  1.00  0.00     0.014 C 
ATOM     16  C   UNL A   1      33.693  17.158  25.250  1.00  0.00     0.001 C 
ATOM     17  C   UNL A   1      33.241  17.625  22.821  1.00  0.00     0.001 C 
ATOM     18  C   UNL A   1      33.191  16.580  23.932  1.00  0.00     0.000 C 
ENDBRANCH  12  13
ENDBRANCH   7  12
ENDBRANCH   4   7
ENDBRANCH   2   3
ENDBRANCH   1   2
BRANCH   1  19
ATOM     19  C   UNL A   1      37.813  19.578  24.748  1.00  0.00     0.023 C 
BRANCH  19  20
ATOM     20  C   UNL A   1      38.890  20.034  25.726  1.00  0.00     0.116 C 
BRANCH  20  21
ATOM     21  N   UNL A   1      40.052  19.160  25.730  1.00  0.00    -0.352 N 
ATOM     22  C   UNL A   1      41.353  19.467  26.035  1.00  0.00     0.251 C 
ATOM     23  H   UNL A   1      39.882  18.223  25.481  1.00  0.00     0.163 HD
ATOM     24  O   UNL A   1      42.244  18.643  25.837  1.00  0.00    -0.269 OA
BRANCH  22  25
ATOM     25  C   UNL A   1      41.684  20.798  26.580  1.00  0.00     0.039 A 
ATOM     26  C   UNL A   1      42.107  21.799  25.705  1.00  0.00     0.014 A 
ATOM     27  C   UNL A   1      41.579  21.057  27.951  1.00  0.00     0.014 A 
ATOM     28  C   UNL A   1      42.393  23.072  26.199  1.00  0.00     0.010 A 
ATOM     29  C   UNL A   1      41.786  22.348  28.429  1.00  0.00     0.010 A 
ATOM     30  C   UNL A   1      42.217  23.362  27.563  1.00  0.00    -0.014 A 
BRANCH  30  31
ATOM     31  C   UNL A   1      42.520  24.715  28.098  1.00  0.00     0.031 A 
ATOM     32  C   UNL A   1      43.933  25.074  28.477  1.00  0.00     0.074 A 
ATOM     33  C   UNL A   1      41.524  25.606  28.270  1.00  0.00     0.049 A 
ATOM     34  N   UNL A   1      44.395  26.202  28.958  1.00  0.00    -0.248 NA
ATOM     35  C   UNL A   1      44.958  24.028  28.321  1.00  0.00     0.031 C 
ATOM     36  C   UNL A   1      40.107  25.365  27.987  1.00  0.00     0.029 A 
ATOM     37  N   UNL A   1      41.554  26.900  28.725  1.00  0.00    -0.354 N 
ATOM     38  C   UNL A   1      45.751  25.990  29.180  1.00  0.00     0.074 A 
ATOM     39  C   UNL A   1      46.030  24.617  28.829  1.00  0.00     0.031 C 
ATOM     40  C   UNL A   1      39.410  26.485  28.243  1.00  0.00     0.029 A 
ATOM     41  C   UNL A   1      40.322  27.508  28.741  1.00  0.00     0.049 A 
ATOM     42  H   UNL A   1      42.381  27.351  29.013  1.00  0.00     0.167 HD
ATOM     43  C   UNL A   1      46.685  26.866  29.618  1.00  0.00     0.031 A 
ATOM     44  C   UNL A   1      39.968  28.753  29.115  1.00  0.00     0.031 A 
ATOM     45  C   UNL A   1      46.415  28.242  29.940  1.00  0.00     0.049 A 
ATOM     46  C   UNL A   1      41.034  29.708  29.582  1.00  0.00     0.074 A 
ATOM     47  C   UNL A   1      47.308  29.228  30.320  1.00  0.00     0.029 A 
ATOM     48  N   UNL A   1      45.158  28.825  29.919  1.00  0.00    -0.354 N 
ATOM     49  N   UNL A   1      42.326  29.518  29.696  1.00  0.00    -0.248 NA
ATOM     50  C   UNL A   1      40.592  31.061  29.949  1.00  0.00     0.031 C 
ATOM     51  C   UNL A   1      46.585  30.393  30.585  1.00  0.00     0.029 A 
ATOM     52  C   UNL A   1      45.250  30.152  30.302  1.00  0.00     0.049 A 
ATOM     53  H   UNL A   1      44.325  28.365  29.669  1.00  0.00     0.167 HD
ATOM     54  C   UNL A   1      42.853  30.737  30.103  1.00  0.00     0.074 A 
ATOM     55  C   UNL A   1      41.745  31.663  30.196  1.00  0.00     0.031 C 
ATOM     56  C   UNL A   1      44.140  31.064  30.376  1.00  0.00     0.031 A 
BRANCH  43  57
ATOM     57  C   UNL A   1      48.094  26.369  29.782  1.00  0.00    -0.014 A 
ATOM     58  C   UNL A   1      49.039  26.496  28.751  1.00  0.00     0.009 A 
ATOM     59  C   UNL A   1      48.502  25.835  31.014  1.00  0.00     0.009 A 
ATOM     60  C   UNL A   1      50.357  26.077  28.944  1.00  0.00     0.001 A 
ATOM     61  C   UNL A   1      49.828  25.444  31.214  1.00  0.00     0.001 A 
ATOM     62  C   UNL A   1      50.752  25.560  30.177  1.00  0.00     0.000 A 
ENDBRANCH  43  57
BRANCH  44  63
ATOM     63  C   UNL A   1      38.546  29.188  29.060  1.00  0.00    -0.014 A 
ATOM     64  C   UNL A   1      37.996  29.696  27.872  1.00  0.00     0.009 A 
ATOM     65  C   UNL A   1      37.747  29.158  30.214  1.00  0.00     0.009 A 
ATOM     66  C   UNL A   1      36.699  30.216  27.855  1.00  0.00     0.001 A 
ATOM     67  C   UNL A   1      36.438  29.641  30.185  1.00  0.00     0.001 A 
ATOM     68  C   UNL A   1      35.921  30.187  29.011  1.00  0.00     0.000 A 
ENDBRANCH  44  63
BRANCH  56  69
ATOM     69  C   UNL A   1      44.425  32.498  30.730  1.00  0.00    -0.014 A 
ATOM     70  C   UNL A   1      44.720  33.456  29.749  1.00  0.00     0.009 A 
ATOM     71  C   UNL A   1      44.381  32.894  32.076  1.00  0.00     0.009 A 
ATOM     72  C   UNL A   1      45.021  34.770  30.116  1.00  0.00     0.001 A 
ATOM     73  C   UNL A   1      44.645  34.217  32.436  1.00  0.00     0.001 A 
ATOM     74  C   UNL A   1      44.980  35.150  31.457  1.00  0.00     0.000 A 
ENDBRANCH  56  69
ENDBRANCH  30  31
ENDBRANCH  22  25
ENDBRANCH  20  21
ENDBRANCH  19  20
ENDBRANCH   1  19
TORSDOF 13
ENDMDL
MODEL 2
REMARK VINA RESULT:     -10.8      5.048     10.072
REMARK SMILES C[C@@H]1CC[C@@]1(SC1CCCCC1)C(=O)NCCCCNC(=O)c1ccc(-c2c3nc(c(-c4ccccc4)c4ccc([nH]4)c(-c4ccccc4)c4nc(c(-c5ccccc5)c5ccc2[nH]5)C=C4)C=C3)cc1
REMARK SMILES IDX 17 1 16 2 15 3 13 4 14 5 5 7 1 8 2 9 3 10 4 11 6 12 7 13
REMARK SMILES IDX 8 14 12 15 9 16 11 17 10 18 18 19 19 20 20 21 21 22 22 24
REMARK SMILES IDX 23 25 24 26 70 27 25 28 69 29 26 30 27 31 28 32 63 33 29 34
REMARK SMILES IDX 68 35 62 36 64 37 30 38 67 39 61 40 60 41 31 43 53 44 38 45
REMARK SMILES IDX 52 46 39 47 42 48 51 49 65 50 40 51 41 52 50 54 66 55 43 56
REMARK SMILES IDX 32 57 33 58 37 59 34 60 36 61 35 62 54 63 55 64 59 65 56 66
REMARK SMILES IDX 58 67 57 68 44 69 45 70 49 71 46 72 48 73 47 74
REMARK H PARENT 15 6 20 23 64 42 42 53
REMARK Flexibility Score: inf
ROOT
ATOM      1  C   UNL A   1      31.296  30.863  25.890  1.00  0.00     0.023 C 
ENDROOT
BRANCH   1   2
ATOM      2  C   UNL A   1      32.531  30.131  26.399  1.00  0.00     0.116 C 
BRANCH   2   3
ATOM      3  N   UNL A   1      33.376  29.714  25.304  1.00  0.00    -0.355 N 
ATOM      4  C   UNL A   1      33.328  28.588  24.513  1.00  0.00     0.236 C 
ATOM      5  O   UNL A   1      34.145  28.581  23.579  1.00  0.00    -0.273 OA
ATOM      6  H   UNL A   1      34.107  30.336  25.086  1.00  0.00     0.163 HD
BRANCH   4   7
ATOM      7  C   UNL A   1      32.329  27.400  24.803  1.00  0.00     0.097 C 
ATOM      8  C   UNL A   1      33.522  24.974  24.218  1.00  0.00     0.009 C 
ATOM      9  C   UNL A   1      33.150  26.074  25.197  1.00  0.00     0.012 C 
ATOM     10  C   UNL A   1      32.030  25.717  26.187  1.00  0.00     0.007 C 
ATOM     11  C   UNL A   1      31.611  27.189  26.174  1.00  0.00     0.028 C 
BRANCH   7  12
ATOM     12  S   UNL A   1      31.216  27.033  23.339  1.00  0.00    -0.141 SA
BRANCH  12  13
ATOM     13  C   UNL A   1      29.916  28.320  23.307  1.00  0.00     0.047 C 
ATOM     14  C   UNL A   1      30.267  29.499  22.397  1.00  0.00     0.014 C 
ATOM     15  C   UNL A   1      28.478  27.827  23.126  1.00  0.00     0.014 C 
ATOM     16  C   UNL A   1      29.232  30.618  22.502  1.00  0.00     0.001 C 
ATOM     17  C   UNL A   1      27.454  28.966  23.155  1.00  0.00     0.001 C 
ATOM     18  C   UNL A   1      27.832  30.096  22.202  1.00  0.00     0.000 C 
ENDBRANCH  12  13
ENDBRANCH   7  12
ENDBRANCH   4   7
ENDBRANCH   2   3
ENDBRANCH   1   2
BRANCH   1  19
ATOM     19  C   UNL A   1      31.175  32.298  26.409  1.00  0.00     0.023 C 
BRANCH  19  20
ATOM     20  C   UNL A   1      32.393  32.808  27.172  1.00  0.00     0.116 C 
BRANCH  20  21
ATOM     21  N   UNL A   1      32.237  34.181  27.627  1.00  0.00    -0.352 N 
ATOM     22  C   UNL A   1      32.963  34.857  28.572  1.00  0.00     0.251 C 
ATOM     23  H   UNL A   1      31.513  34.693  27.198  1.00  0.00     0.163 HD
ATOM     24  O   UNL A   1      32.599  35.968  28.952  1.00  0.00    -0.269 OA
BRANCH  22  25
ATOM     25  C   UNL A   1      34.170  34.236  29.151  1.00  0.00     0.039 A 
ATOM     26  C   UNL A   1      34.028  33.367  30.234  1.00  0.00     0.014 A 
ATOM     27  C   UNL A   1      35.438  34.513  28.630  1.00  0.00     0.014 A 
ATOM     28  C   UNL A   1      35.156  32.746  30.773  1.00  0.00     0.010 A 
ATOM     29  C   UNL A   1      36.550  33.831  29.116  1.00  0.00     0.010 A 
ATOM     30  C   UNL A   1      36.424  32.959  30.206  1.00  0.00    -0.014 A 
BRANCH  30  31
ATOM     31  C   UNL A   1      37.630  32.303  30.775  1.00  0.00     0.031 A 
ATOM     32  C   UNL A   1      38.215  32.799  32.071  1.00  0.00     0.074 A 
ATOM     33  C   UNL A   1      38.215  31.286  30.112  1.00  0.00     0.049 A 
ATOM     34  N   UNL A   1      39.260  32.357  32.726  1.00  0.00    -0.248 NA
ATOM     35  C   UNL A   1      37.560  33.956  32.706  1.00  0.00     0.031 C 
ATOM     36  C   UNL A   1      37.775  30.744  28.825  1.00  0.00     0.029 A 
ATOM     37  N   UNL A   1      39.309  30.522  30.435  1.00  0.00    -0.354 N 
ATOM     38  C   UNL A   1      39.396  33.193  33.829  1.00  0.00     0.074 A 
ATOM     39  C   UNL A   1      38.361  34.196  33.733  1.00  0.00     0.031 C 
ATOM     40  C   UNL A   1      38.571  29.716  28.484  1.00  0.00     0.029 A 
ATOM     41  C   UNL A   1      39.595  29.549  29.509  1.00  0.00     0.049 A 
ATOM     42  H   UNL A   1      39.838  30.659  31.254  1.00  0.00     0.167 HD
ATOM     43  C   UNL A   1      40.291  33.119  34.842  1.00  0.00     0.031 A 
ATOM     44  C   UNL A   1      40.575  28.625  29.490  1.00  0.00     0.031 A 
ATOM     45  C   UNL A   1      41.303  32.104  34.954  1.00  0.00     0.049 A 
ATOM     46  C   UNL A   1      41.544  28.560  30.640  1.00  0.00     0.074 A 
ATOM     47  C   UNL A   1      42.208  31.902  35.982  1.00  0.00     0.029 A 
ATOM     48  N   UNL A   1      41.545  31.122  34.008  1.00  0.00    -0.354 N 
ATOM     49  N   UNL A   1      41.598  29.300  31.721  1.00  0.00    -0.248 NA
ATOM     50  C   UNL A   1      42.573  27.513  30.577  1.00  0.00     0.031 C 
ATOM     51  C   UNL A   1      43.035  30.831  35.630  1.00  0.00     0.029 A 
ATOM     52  C   UNL A   1      42.600  30.325  34.417  1.00  0.00     0.049 A 
ATOM     53  H   UNL A   1      41.041  31.007  33.170  1.00  0.00     0.167 HD
ATOM     54  C   UNL A   1      42.636  28.778  32.484  1.00  0.00     0.074 A 
ATOM     55  C   UNL A   1      43.168  27.649  31.752  1.00  0.00     0.031 C 
ATOM     56  C   UNL A   1      43.108  29.195  33.685  1.00  0.00     0.031 A 
BRANCH  43  57
ATOM     57  C   UNL A   1      40.224  34.168  35.917  1.00  0.00    -0.014 A 
ATOM     58  C   UNL A   1      40.899  35.393  35.788  1.00  0.00     0.009 A 
ATOM     59  C   UNL A   1      39.411  33.957  37.042  1.00  0.00     0.009 A 
ATOM     60  C   UNL A   1      40.779  36.374  36.774  1.00  0.00     0.001 A 
ATOM     61  C   UNL A   1      39.270  34.952  38.012  1.00  0.00     0.001 A 
ATOM     62  C   UNL A   1      39.958  36.156  37.880  1.00  0.00     0.000 A 
ENDBRANCH  43  57
BRANCH  44  63
ATOM     63  C   UNL A   1      40.698  27.671  28.354  1.00  0.00    -0.014 A 
ATOM     64  C   UNL A   1      41.438  28.009  27.209  1.00  0.00     0.009 A 
ATOM     65  C   UNL A   1      40.021  26.442  28.380  1.00  0.00     0.009 A 
ATOM     66  C   UNL A   1      41.452  27.164  26.097  1.00  0.00     0.001 A 
ATOM     67  C   UNL A   1      40.069  25.580  27.283  1.00  0.00     0.001 A 
ATOM     68  C   UNL A   1      40.768  25.950  26.135  1.00  0.00     0.000 A 
ENDBRANCH  44  63
BRANCH  56  69
ATOM     69  C   UNL A   1      44.208  28.382  34.311  1.00  0.00    -0.014 A 
ATOM     70  C   UNL A   1      45.561  28.659  34.066  1.00  0.00     0.009 A 
ATOM     71  C   UNL A   1      43.875  27.326  35.173  1.00  0.00     0.009 A 
ATOM     72  C   UNL A   1      46.557  27.858  34.630  1.00  0.00     0.001 A 
ATOM     73  C   UNL A   1      44.873  26.551  35.765  1.00  0.00     0.001 A 
ATOM     74  C   UNL A   1      46.213  26.808  35.480  1.00  0.00     0.000 A 
ENDBRANCH  56  69
ENDBRANCH  30  31
ENDBRANCH  22  25
ENDBRANCH  20  21
ENDBRANCH  19  20
ENDBRANCH   1  19
TORSDOF 13
ENDMDL
MODEL 3
REMARK VINA RESULT:     -10.8      4.826      9.582
REMARK SMILES C[C@@H]1CC[C@@]1(SC1CCCCC1)C(=O)NCCCCNC(=O)c1ccc(-c2c3nc(c(-c4ccccc4)c4ccc([nH]4)c(-c4ccccc4)c4nc(c(-c5ccccc5)c5ccc2[nH]5)C=C4)C=C3)cc1
REMARK SMILES IDX 17 1 16 2 15 3 13 4 14 5 5 7 1 8 2 9 3 10 4 11 6 12 7 13
REMARK SMILES IDX 8 14 12 15 9 16 11 17 10 18 18 19 19 20 20 21 21 22 22 24
REMARK SMILES IDX 23 25 24 26 70 27 25 28 69 29 26 30 27 31 28 32 63 33 29 34
REMARK SMILES IDX 68 35 62 36 64 37 30 38 67 39 61 40 60 41 31 43 53 44 38 45
REMARK SMILES IDX 52 46 39 47 42 48 51 49 65 50 40 51 41 52 50 54 66 55 43 56
REMARK SMILES IDX 32 57 33 58 37 59 34 60 36 61 35 62 54 63 55 64 59 65 56 66
REMARK SMILES IDX 58 67 57 68 44 69 45 70 49 71 46 72 48 73 47 74
REMARK H PARENT 15 6 20 23 64 42 42 53
REMARK Flexibility Score: inf
ROOT
ATOM      1  C   UNL A   1      31.513  30.483  25.850  1.00  0.00     0.023 C 
ENDROOT
BRANCH   1   2
ATOM      2  C   UNL A   1      32.882  29.896  26.166  1.00  0.00     0.116 C 
BRANCH   2   3
ATOM      3  N   UNL A   1      33.598  29.565  24.955  1.00  0.00    -0.355 N 
ATOM      4  C   UNL A   1      33.589  28.419  24.193  1.00  0.00     0.236 C 
ATOM      5  O   UNL A   1      34.244  28.496  23.141  1.00  0.00    -0.273 OA
ATOM      6  H   UNL A   1      34.191  30.276  24.619  1.00  0.00     0.163 HD
BRANCH   4   7
ATOM      7  C   UNL A   1      32.825  27.114  24.647  1.00  0.00     0.097 C 
ATOM      8  C   UNL A   1      34.204  24.859  23.833  1.00  0.00     0.009 C 
ATOM      9  C   UNL A   1      33.872  25.915  24.873  1.00  0.00     0.012 C 
ATOM     10  C   UNL A   1      33.007  25.427  26.047  1.00  0.00     0.007 C 
ATOM     11  C   UNL A   1      32.401  26.831  26.123  1.00  0.00     0.028 C 
BRANCH   7  12
ATOM     12  S   UNL A   1      31.524  26.581  23.406  1.00  0.00    -0.141 SA
BRANCH  12  13
ATOM     13  C   UNL A   1      30.248  27.891  23.359  1.00  0.00     0.047 C 
ATOM     14  C   UNL A   1      30.563  28.995  22.346  1.00  0.00     0.014 C 
ATOM     15  C   UNL A   1      28.792  27.418  23.301  1.00  0.00     0.014 C 
ATOM     16  C   UNL A   1      29.555  30.141  22.433  1.00  0.00     0.001 C 
ATOM     17  C   UNL A   1      27.792  28.578  23.309  1.00  0.00     0.001 C 
ATOM     18  C   UNL A   1      28.130  29.629  22.256  1.00  0.00     0.000 C 
ENDBRANCH  12  13
ENDBRANCH   7  12
ENDBRANCH   4   7
ENDBRANCH   2   3
ENDBRANCH   1   2
BRANCH   1  19
ATOM     19  C   UNL A   1      31.323  31.913  26.363  1.00  0.00     0.023 C 
BRANCH  19  20
ATOM     20  C   UNL A   1      32.503  32.471  27.152  1.00  0.00     0.116 C 
BRANCH  20  21
ATOM     21  N   UNL A   1      32.322  33.866  27.522  1.00  0.00    -0.352 N 
ATOM     22  C   UNL A   1      33.034  34.611  28.425  1.00  0.00     0.251 C 
ATOM     23  H   UNL A   1      31.590  34.337  27.063  1.00  0.00     0.163 HD
ATOM     24  O   UNL A   1      32.650  35.737  28.736  1.00  0.00    -0.269 OA
BRANCH  22  25
ATOM     25  C   UNL A   1      34.252  34.049  29.041  1.00  0.00     0.039 A 
ATOM     26  C   UNL A   1      34.125  33.249  30.177  1.00  0.00     0.014 A 
ATOM     27  C   UNL A   1      35.515  34.313  28.501  1.00  0.00     0.014 A 
ATOM     28  C   UNL A   1      35.263  32.682  30.753  1.00  0.00     0.010 A 
ATOM     29  C   UNL A   1      36.638  33.681  29.028  1.00  0.00     0.010 A 
ATOM     30  C   UNL A   1      36.528  32.879  30.172  1.00  0.00    -0.014 A 
BRANCH  30  31
ATOM     31  C   UNL A   1      37.744  32.281  30.780  1.00  0.00     0.031 A 
ATOM     32  C   UNL A   1      38.354  31.042  30.177  1.00  0.00     0.074 A 
ATOM     33  C   UNL A   1      38.281  32.832  31.886  1.00  0.00     0.049 A 
ATOM     34  N   UNL A   1      39.414  30.375  30.562  1.00  0.00    -0.248 NA
ATOM     35  C   UNL A   1      37.676  30.459  29.007  1.00  0.00     0.031 C 
ATOM     36  C   UNL A   1      37.758  34.003  32.594  1.00  0.00     0.029 A 
ATOM     37  N   UNL A   1      39.392  32.478  32.609  1.00  0.00    -0.354 N 
ATOM     38  C   UNL A   1      39.511  29.290  29.698  1.00  0.00     0.074 A 
ATOM     39  C   UNL A   1      38.382  29.358  28.801  1.00  0.00     0.031 C 
ATOM     40  C   UNL A   1      38.566  34.290  33.629  1.00  0.00     0.029 A 
ATOM     41  C   UNL A   1      39.640  33.304  33.679  1.00  0.00     0.049 A 
ATOM     42  H   UNL A   1      39.959  31.705  32.383  1.00  0.00     0.167 HD
ATOM     43  C   UNL A   1      40.468  28.334  29.644  1.00  0.00     0.031 A 
ATOM     44  C   UNL A   1      40.626  33.270  34.597  1.00  0.00     0.031 A 
ATOM     45  C   UNL A   1      41.610  28.282  30.517  1.00  0.00     0.049 A 
ATOM     46  C   UNL A   1      41.683  32.203  34.498  1.00  0.00     0.074 A 
ATOM     47  C   UNL A   1      42.673  27.396  30.492  1.00  0.00     0.029 A 
ATOM     48  N   UNL A   1      41.837  29.152  31.571  1.00  0.00    -0.354 N 
ATOM     49  N   UNL A   1      41.810  31.242  33.616  1.00  0.00    -0.248 NA
ATOM     50  C   UNL A   1      42.748  32.235  35.510  1.00  0.00     0.031 C 
ATOM     51  C   UNL A   1      43.514  27.694  31.567  1.00  0.00     0.029 A 
ATOM     52  C   UNL A   1      43.012  28.808  32.218  1.00  0.00     0.049 A 
ATOM     53  H   UNL A   1      41.252  29.902  31.823  1.00  0.00     0.167 HD
ATOM     54  C   UNL A   1      42.991  30.585  33.942  1.00  0.00     0.074 A 
ATOM     55  C   UNL A   1      43.550  31.270  35.087  1.00  0.00     0.031 C 
ATOM     56  C   UNL A   1      43.563  29.509  33.347  1.00  0.00     0.031 A 
BRANCH  43  57
ATOM     57  C   UNL A   1      40.327  27.256  28.606  1.00  0.00    -0.014 A 
ATOM     58  C   UNL A   1      39.566  26.101  28.849  1.00  0.00     0.009 A 
ATOM     59  C   UNL A   1      40.902  27.434  27.338  1.00  0.00     0.009 A 
ATOM     60  C   UNL A   1      39.404  25.137  27.852  1.00  0.00     0.001 A 
ATOM     61  C   UNL A   1      40.713  26.483  26.332  1.00  0.00     0.001 A 
ATOM     62  C   UNL A   1      39.970  25.334  26.592  1.00  0.00     0.000 A 
ENDBRANCH  43  57
BRANCH  44  63
ATOM     63  C   UNL A   1      40.680  34.278  35.691  1.00  0.00    -0.014 A 
ATOM     64  C   UNL A   1      39.938  34.098  36.870  1.00  0.00     0.009 A 
ATOM     65  C   UNL A   1      41.423  35.458  35.536  1.00  0.00     0.009 A 
ATOM     66  C   UNL A   1      39.895  35.100  37.843  1.00  0.00     0.001 A 
ATOM     67  C   UNL A   1      41.411  36.442  36.527  1.00  0.00     0.001 A 
ATOM     68  C   UNL A   1      40.632  36.271  37.671  1.00  0.00     0.000 A 
ENDBRANCH  44  63
BRANCH  56  69
ATOM     69  C   UNL A   1      44.894  29.056  33.881  1.00  0.00    -0.014 A 
ATOM     70  C   UNL A   1      46.100  29.604  33.418  1.00  0.00     0.009 A 
ATOM     71  C   UNL A   1      44.934  28.068  34.878  1.00  0.00     0.009 A 
ATOM     72  C   UNL A   1      47.321  29.131  33.905  1.00  0.00     0.001 A 
ATOM     73  C   UNL A   1      46.154  27.625  35.389  1.00  0.00     0.001 A 
ATOM     74  C   UNL A   1      47.347  28.145  34.890  1.00  0.00     0.000 A 
ENDBRANCH  56  69
ENDBRANCH  30  31
ENDBRANCH  22  25
ENDBRANCH  20  21
ENDBRANCH  19  20
ENDBRANCH   1  19
TORSDOF 13
ENDMDL
