MODEL 1
REMARK VINA RESULT:     -11.5      0.000      0.000
REMARK SMILES COCC[C@]1(C(=O)NCCCCNC(=O)c2ccc(-c3c4nc(c(-c5ccccc5)c5ccc([nH]5)c(-c5ccccc5)c5nc(c(-c6ccccc6)c6ccc3[nH]6)C=C5)C=C4)cc2)CCCN(C(=O)Cc2c(C)nc(C)[nH]c2=O)C1
REMARK SMILES IDX 10 1 9 2 8 3 6 4 7 5 5 7 64 8 80 9 65 10 67 11 66 12 4 13
REMARK SMILES IDX 3 14 2 15 1 16 68 17 69 18 70 19 71 20 72 21 78 22 73 23
REMARK SMILES IDX 74 24 77 25 79 26 75 27 76 29 11 30 12 31 13 32 14 33 15 35
REMARK SMILES IDX 16 36 17 37 63 38 18 39 62 40 19 41 20 42 21 43 56 44 22 45
REMARK SMILES IDX 61 46 55 47 57 48 23 49 60 50 54 51 53 52 24 54 46 55 31 56
REMARK SMILES IDX 45 57 32 58 35 59 44 60 58 61 33 62 34 63 43 65 59 66 36 67
REMARK SMILES IDX 25 68 26 69 30 70 27 71 29 72 28 73 47 74 48 75 52 76 49 77
REMARK SMILES IDX 51 78 50 79 37 80 38 81 42 82 39 83 41 84 40 85
REMARK H PARENT 8 6 77 28 13 34 57 53 35 64
REMARK Flexibility Score: inf
ROOT
ATOM      1  C   UNL A   1      37.234  21.266  24.632  1.00  0.00     0.023 C 
ENDROOT
BRANCH   1   2
ATOM      2  C   UNL A   1      36.072  21.467  25.602  1.00  0.00     0.116 C 
BRANCH   2   3
ATOM      3  N   UNL A   1      35.029  20.469  25.434  1.00  0.00    -0.356 N 
ATOM      4  C   UNL A   1      33.679  20.562  25.252  1.00  0.00     0.228 C 
ATOM      5  O   UNL A   1      33.078  19.485  25.273  1.00  0.00    -0.274 OA
ATOM      6  H   UNL A   1      35.363  19.544  25.455  1.00  0.00     0.163 HD
BRANCH   4   7
ATOM      7  C   UNL A   1      32.954  21.918  25.099  1.00  0.00     0.069 C 
ATOM      8  C   UNL A   1      31.473  21.687  25.564  1.00  0.00     0.021 C 
ATOM      9  C   UNL A   1      33.684  23.013  25.921  1.00  0.00     0.136 C 
ATOM     10  C   UNL A   1      30.737  22.955  26.004  1.00  0.00     0.023 C 
ATOM     11  N   UNL A   1      32.827  24.155  26.228  1.00  0.00    -0.341 N 
ATOM     12  C   UNL A   1      31.608  23.790  26.926  1.00  0.00     0.119 C 
BRANCH   7  13
ATOM     13  C   UNL A   1      32.874  22.338  23.587  1.00  0.00     0.047 C 
BRANCH  13  14
ATOM     14  C   UNL A   1      34.036  23.111  22.947  1.00  0.00     0.161 C 
BRANCH  14  15
ATOM     15  O   UNL A   1      33.635  23.996  21.909  1.00  0.00    -0.385 OA
ATOM     16  C   UNL A   1      32.568  24.865  22.253  1.00  0.00     0.194 C 
ENDBRANCH  14  15
ENDBRANCH  13  14
ENDBRANCH   7  13
BRANCH  11  17
ATOM     17  C   UNL A   1      33.229  25.431  25.852  1.00  0.00     0.227 C 
ATOM     18  O   UNL A   1      34.297  25.606  25.255  1.00  0.00    -0.275 OA
BRANCH  17  19
ATOM     19  C   UNL A   1      32.415  26.660  26.279  1.00  0.00     0.143 C 
BRANCH  19  20
ATOM     20  C   UNL A   1      31.770  27.448  25.172  1.00  0.00     0.048 A 
ATOM     21  C   UNL A   1      30.583  27.202  24.576  1.00  0.00     0.049 A 
ATOM     22  C   UNL A   1      32.512  28.648  24.707  1.00  0.00     0.254 A 
ATOM     23  C   UNL A   1      29.657  26.067  24.948  1.00  0.00     0.067 C 
ATOM     24  N   UNL A   1      30.096  27.931  23.514  1.00  0.00    -0.240 NA
ATOM     25  N   UNL A   1      31.946  29.336  23.678  1.00  0.00    -0.311 N 
ATOM     26  O   UNL A   1      33.570  29.008  25.209  1.00  0.00    -0.269 OA
ATOM     27  C   UNL A   1      30.773  28.951  23.111  1.00  0.00     0.105 A 
ATOM     28  H   UNL A   1      32.400  30.139  23.335  1.00  0.00     0.171 HD
ATOM     29  C   UNL A   1      30.300  29.752  21.934  1.00  0.00     0.087 C 
ENDBRANCH  19  20
ENDBRANCH  17  19
ENDBRANCH  11  17
ENDBRANCH   4   7
ENDBRANCH   2   3
ENDBRANCH   1   2
BRANCH   1  30
ATOM     30  C   UNL A   1      38.103  20.043  24.916  1.00  0.00     0.023 C 
BRANCH  30  31
ATOM     31  C   UNL A   1      39.281  20.294  25.848  1.00  0.00     0.116 C 
BRANCH  31  32
ATOM     32  N   UNL A   1      40.245  19.203  25.856  1.00  0.00    -0.352 N 
ATOM     33  C   UNL A   1      41.597  19.246  26.096  1.00  0.00     0.251 C 
ATOM     34  H   UNL A   1      39.877  18.311  25.661  1.00  0.00     0.163 HD
ATOM     35  O   UNL A   1      42.289  18.247  25.931  1.00  0.00    -0.269 OA
BRANCH  33  36
ATOM     36  C   UNL A   1      42.217  20.517  26.520  1.00  0.00     0.039 A 
ATOM     37  C   UNL A   1      42.839  21.318  25.561  1.00  0.00     0.014 A 
ATOM     38  C   UNL A   1      42.142  20.934  27.852  1.00  0.00     0.014 A 
ATOM     39  C   UNL A   1      43.323  22.576  25.926  1.00  0.00     0.010 A 
ATOM     40  C   UNL A   1      42.550  22.218  28.194  1.00  0.00     0.010 A 
ATOM     41  C   UNL A   1      43.144  23.053  27.235  1.00  0.00    -0.014 A 
BRANCH  41  42
ATOM     42  C   UNL A   1      43.565  24.424  27.619  1.00  0.00     0.031 A 
ATOM     43  C   UNL A   1      42.532  25.457  27.979  1.00  0.00     0.074 A 
ATOM     44  C   UNL A   1      44.869  24.762  27.567  1.00  0.00     0.049 A 
ATOM     45  N   UNL A   1      42.699  26.721  28.277  1.00  0.00    -0.248 NA
ATOM     46  C   UNL A   1      41.125  25.022  27.976  1.00  0.00     0.031 C 
ATOM     47  C   UNL A   1      45.964  23.868  27.180  1.00  0.00     0.029 A 
ATOM     48  N   UNL A   1      45.494  25.955  27.832  1.00  0.00    -0.354 N 
ATOM     49  C   UNL A   1      41.423  27.234  28.470  1.00  0.00     0.074 A 
ATOM     50  C   UNL A   1      40.489  26.160  28.215  1.00  0.00     0.031 C 
ATOM     51  C   UNL A   1      47.125  24.537  27.253  1.00  0.00     0.029 A 
ATOM     52  C   UNL A   1      46.856  25.915  27.650  1.00  0.00     0.049 A 
ATOM     53  H   UNL A   1      45.013  26.762  28.123  1.00  0.00     0.167 HD
ATOM     54  C   UNL A   1      41.061  28.485  28.841  1.00  0.00     0.031 A 
ATOM     55  C   UNL A   1      47.784  26.884  27.778  1.00  0.00     0.031 A 
ATOM     56  C   UNL A   1      41.991  29.545  29.120  1.00  0.00     0.049 A 
ATOM     57  C   UNL A   1      47.353  28.260  28.203  1.00  0.00     0.074 A 
ATOM     58  C   UNL A   1      41.724  30.820  29.587  1.00  0.00     0.029 A 
ATOM     59  N   UNL A   1      43.363  29.457  28.953  1.00  0.00    -0.354 N 
ATOM     60  N   UNL A   1      46.149  28.702  28.476  1.00  0.00    -0.248 NA
ATOM     61  C   UNL A   1      48.412  29.269  28.349  1.00  0.00     0.031 C 
ATOM     62  C   UNL A   1      42.931  31.523  29.647  1.00  0.00     0.029 A 
ATOM     63  C   UNL A   1      43.954  30.666  29.277  1.00  0.00     0.049 A 
ATOM     64  H   UNL A   1      43.846  28.654  28.650  1.00  0.00     0.167 HD
ATOM     65  C   UNL A   1      46.310  30.029  28.854  1.00  0.00     0.074 A 
ATOM     66  C   UNL A   1      47.729  30.314  28.793  1.00  0.00     0.031 C 
ATOM     67  C   UNL A   1      45.367  30.932  29.217  1.00  0.00     0.031 A 
BRANCH  54  68
ATOM     68  C   UNL A   1      39.592  28.781  28.962  1.00  0.00    -0.014 A 
ATOM     69  C   UNL A   1      38.902  28.579  30.168  1.00  0.00     0.009 A 
ATOM     70  C   UNL A   1      38.903  29.328  27.869  1.00  0.00     0.009 A 
ATOM     71  C   UNL A   1      37.544  28.892  30.266  1.00  0.00     0.001 A 
ATOM     72  C   UNL A   1      37.553  29.667  27.978  1.00  0.00     0.001 A 
ATOM     73  C   UNL A   1      36.874  29.442  29.174  1.00  0.00     0.000 A 
ENDBRANCH  54  68
BRANCH  55  74
ATOM     74  C   UNL A   1      49.216  26.593  27.501  1.00  0.00    -0.014 A 
ATOM     75  C   UNL A   1      49.749  26.781  26.216  1.00  0.00     0.009 A 
ATOM     76  C   UNL A   1      50.051  26.097  28.513  1.00  0.00     0.009 A 
ATOM     77  C   UNL A   1      51.077  26.443  25.943  1.00  0.00     0.001 A 
ATOM     78  C   UNL A   1      51.388  25.790  28.246  1.00  0.00     0.001 A 
ATOM     79  C   UNL A   1      51.895  25.951  26.958  1.00  0.00     0.000 A 
ENDBRANCH  55  74
BRANCH  67  80
ATOM     80  C   UNL A   1      45.841  32.301  29.617  1.00  0.00    -0.014 A 
ATOM     81  C   UNL A   1      46.208  32.590  30.940  1.00  0.00     0.009 A 
ATOM     82  C   UNL A   1      45.964  33.304  28.642  1.00  0.00     0.009 A 
ATOM     83  C   UNL A   1      46.656  33.867  31.284  1.00  0.00     0.001 A 
ATOM     84  C   UNL A   1      46.442  34.569  28.982  1.00  0.00     0.001 A 
ATOM     85  C   UNL A   1      46.778  34.852  30.305  1.00  0.00     0.000 A 
ENDBRANCH  67  80
ENDBRANCH  41  42
ENDBRANCH  33  36
ENDBRANCH  31  32
ENDBRANCH  30  31
ENDBRANCH   1  30
TORSDOF 17
ENDMDL
MODEL 2
REMARK VINA RESULT:     -11.5      1.175      5.820
REMARK SMILES COCC[C@]1(C(=O)NCCCCNC(=O)c2ccc(-c3c4nc(c(-c5ccccc5)c5ccc([nH]5)c(-c5ccccc5)c5nc(c(-c6ccccc6)c6ccc3[nH]6)C=C5)C=C4)cc2)CCCN(C(=O)Cc2c(C)nc(C)[nH]c2=O)C1
REMARK SMILES IDX 10 1 9 2 8 3 6 4 7 5 5 7 64 8 80 9 65 10 67 11 66 12 4 13
REMARK SMILES IDX 3 14 2 15 1 16 68 17 69 18 70 19 71 20 72 21 78 22 73 23
REMARK SMILES IDX 74 24 77 25 79 26 75 27 76 29 11 30 12 31 13 32 14 33 15 35
REMARK SMILES IDX 16 36 17 37 63 38 18 39 62 40 19 41 20 42 21 43 56 44 22 45
REMARK SMILES IDX 61 46 55 47 57 48 23 49 60 50 54 51 53 52 24 54 46 55 31 56
REMARK SMILES IDX 45 57 32 58 35 59 44 60 58 61 33 62 34 63 43 65 59 66 36 67
REMARK SMILES IDX 25 68 26 69 30 70 27 71 29 72 28 73 47 74 48 75 52 76 49 77
REMARK SMILES IDX 51 78 50 79 37 80 38 81 42 82 39 83 41 84 40 85
REMARK H PARENT 8 6 77 28 13 34 57 53 35 64
REMARK Flexibility Score: inf
ROOT
ATOM      1  C   UNL A   1      37.404  21.693  24.482  1.00  0.00     0.023 C 
ENDROOT
BRANCH   1   2
ATOM      2  C   UNL A   1      36.094  22.014  25.198  1.00  0.00     0.116 C 
BRANCH   2   3
ATOM      3  N   UNL A   1      35.135  20.925  25.116  1.00  0.00    -0.356 N 
ATOM      4  C   UNL A   1      33.773  20.894  25.038  1.00  0.00     0.228 C 
ATOM      5  O   UNL A   1      33.274  19.769  25.112  1.00  0.00    -0.274 OA
ATOM      6  H   UNL A   1      35.552  20.033  25.117  1.00  0.00     0.163 HD
BRANCH   4   7
ATOM      7  C   UNL A   1      32.918  22.179  24.934  1.00  0.00     0.069 C 
ATOM      8  C   UNL A   1      31.492  21.810  25.474  1.00  0.00     0.021 C 
ATOM      9  C   UNL A   1      33.587  23.333  25.725  1.00  0.00     0.136 C 
ATOM     10  C   UNL A   1      30.666  23.004  25.962  1.00  0.00     0.023 C 
ATOM     11  N   UNL A   1      32.646  24.390  26.084  1.00  0.00    -0.341 N 
ATOM     12  C   UNL A   1      31.504  23.913  26.843  1.00  0.00     0.119 C 
BRANCH   7  13
ATOM     13  C   UNL A   1      32.720  22.593  23.431  1.00  0.00     0.047 C 
BRANCH  13  14
ATOM     14  C   UNL A   1      33.849  23.316  22.684  1.00  0.00     0.161 C 
BRANCH  14  15
ATOM     15  O   UNL A   1      33.393  24.180  21.651  1.00  0.00    -0.385 OA
ATOM     16  C   UNL A   1      32.390  25.100  22.051  1.00  0.00     0.194 C 
ENDBRANCH  14  15
ENDBRANCH  13  14
ENDBRANCH   7  13
BRANCH  11  17
ATOM     17  C   UNL A   1      32.908  25.699  25.698  1.00  0.00     0.227 C 
ATOM     18  O   UNL A   1      33.947  25.982  25.090  1.00  0.00    -0.275 OA
BRANCH  17  19
ATOM     19  C   UNL A   1      31.973  26.839  26.125  1.00  0.00     0.143 C 
BRANCH  19  20
ATOM     20  C   UNL A   1      31.339  27.630  25.015  1.00  0.00     0.048 A 
ATOM     21  C   UNL A   1      30.283  27.271  24.253  1.00  0.00     0.049 A 
ATOM     22  C   UNL A   1      31.923  28.970  24.752  1.00  0.00     0.254 A 
ATOM     23  C   UNL A   1      29.518  25.977  24.406  1.00  0.00     0.067 C 
ATOM     24  N   UNL A   1      29.807  28.023  23.202  1.00  0.00    -0.240 NA
ATOM     25  N   UNL A   1      31.373  29.668  23.721  1.00  0.00    -0.311 N 
ATOM     26  O   UNL A   1      32.845  29.432  25.415  1.00  0.00    -0.269 OA
ATOM     27  C   UNL A   1      30.351  29.170  22.976  1.00  0.00     0.105 A 
ATOM     28  H   UNL A   1      31.728  30.561  23.507  1.00  0.00     0.171 HD
ATOM     29  C   UNL A   1      29.892  30.008  21.820  1.00  0.00     0.087 C 
ENDBRANCH  19  20
ENDBRANCH  17  19
ENDBRANCH  11  17
ENDBRANCH   4   7
ENDBRANCH   2   3
ENDBRANCH   1   2
BRANCH   1  30
ATOM     30  C   UNL A   1      38.025  20.349  24.854  1.00  0.00     0.023 C 
BRANCH  30  31
ATOM     31  C   UNL A   1      39.016  20.396  26.009  1.00  0.00     0.116 C 
BRANCH  31  32
ATOM     32  N   UNL A   1      40.102  19.437  25.869  1.00  0.00    -0.352 N 
ATOM     33  C   UNL A   1      41.451  19.627  26.050  1.00  0.00     0.251 C 
ATOM     34  H   UNL A   1      39.833  18.527  25.608  1.00  0.00     0.163 HD
ATOM     35  O   UNL A   1      42.247  18.740  25.759  1.00  0.00    -0.269 OA
BRANCH  33  36
ATOM     36  C   UNL A   1      41.938  20.923  26.563  1.00  0.00     0.039 A 
ATOM     37  C   UNL A   1      42.353  21.897  25.653  1.00  0.00     0.014 A 
ATOM     38  C   UNL A   1      41.941  21.187  27.935  1.00  0.00     0.014 A 
ATOM     39  C   UNL A   1      42.701  23.166  26.118  1.00  0.00     0.010 A 
ATOM     40  C   UNL A   1      42.208  22.474  28.387  1.00  0.00     0.010 A 
ATOM     41  C   UNL A   1      42.591  23.478  27.483  1.00  0.00    -0.014 A 
BRANCH  41  42
ATOM     42  C   UNL A   1      42.864  24.847  27.985  1.00  0.00     0.031 A 
ATOM     43  C   UNL A   1      44.256  25.231  28.410  1.00  0.00     0.074 A 
ATOM     44  C   UNL A   1      41.848  25.721  28.132  1.00  0.00     0.049 A 
ATOM     45  N   UNL A   1      44.677  26.356  28.933  1.00  0.00    -0.248 NA
ATOM     46  C   UNL A   1      45.306  24.211  28.255  1.00  0.00     0.031 C 
ATOM     47  C   UNL A   1      40.443  25.453  27.808  1.00  0.00     0.029 A 
ATOM     48  N   UNL A   1      41.837  27.010  28.603  1.00  0.00    -0.354 N 
ATOM     49  C   UNL A   1      46.028  26.167  29.192  1.00  0.00     0.074 A 
ATOM     50  C   UNL A   1      46.350  24.810  28.809  1.00  0.00     0.031 C 
ATOM     51  C   UNL A   1      39.714  26.549  28.070  1.00  0.00     0.029 A 
ATOM     52  C   UNL A   1      40.588  27.581  28.618  1.00  0.00     0.049 A 
ATOM     53  H   UNL A   1      42.649  27.480  28.902  1.00  0.00     0.167 HD
ATOM     54  C   UNL A   1      46.926  27.050  29.690  1.00  0.00     0.031 A 
ATOM     55  C   UNL A   1      40.188  28.797  29.037  1.00  0.00     0.031 A 
ATOM     56  C   UNL A   1      46.612  28.407  30.045  1.00  0.00     0.049 A 
ATOM     57  C   UNL A   1      41.209  29.761  29.575  1.00  0.00     0.074 A 
ATOM     58  C   UNL A   1      47.471  29.403  30.476  1.00  0.00     0.029 A 
ATOM     59  N   UNL A   1      45.341  28.956  30.019  1.00  0.00    -0.354 N 
ATOM     60  N   UNL A   1      42.501  29.598  29.721  1.00  0.00    -0.248 NA
ATOM     61  C   UNL A   1      40.717  31.081  29.995  1.00  0.00     0.031 C 
ATOM     62  C   UNL A   1      46.710  30.539  30.765  1.00  0.00     0.029 A 
ATOM     63  C   UNL A   1      45.387  30.269  30.455  1.00  0.00     0.049 A 
ATOM     64  H   UNL A   1      44.526  28.485  29.730  1.00  0.00     0.167 HD
ATOM     65  C   UNL A   1      42.980  30.803  30.221  1.00  0.00     0.074 A 
ATOM     66  C   UNL A   1      41.842  31.692  30.334  1.00  0.00     0.031 C 
ATOM     67  C   UNL A   1      44.248  31.142  30.557  1.00  0.00     0.031 A 
BRANCH  54  68
ATOM     68  C   UNL A   1      48.338  26.575  29.888  1.00  0.00    -0.014 A 
ATOM     69  C   UNL A   1      48.733  25.930  31.071  1.00  0.00     0.009 A 
ATOM     70  C   UNL A   1      49.272  26.722  28.852  1.00  0.00     0.009 A 
ATOM     71  C   UNL A   1      50.043  25.468  31.222  1.00  0.00     0.001 A 
ATOM     72  C   UNL A   1      50.572  26.234  28.993  1.00  0.00     0.001 A 
ATOM     73  C   UNL A   1      50.958  25.614  30.180  1.00  0.00     0.000 A 
ENDBRANCH  54  68
BRANCH  55  74
ATOM     74  C   UNL A   1      38.751  29.180  28.968  1.00  0.00    -0.014 A 
ATOM     75  C   UNL A   1      37.911  29.007  30.079  1.00  0.00     0.009 A 
ATOM     76  C   UNL A   1      38.206  29.693  27.782  1.00  0.00     0.009 A 
ATOM     77  C   UNL A   1      36.549  29.304  29.991  1.00  0.00     0.001 A 
ATOM     78  C   UNL A   1      36.851  30.020  27.705  1.00  0.00     0.001 A 
ATOM     79  C   UNL A   1      36.021  29.813  28.805  1.00  0.00     0.000 A 
ENDBRANCH  55  74
BRANCH  67  80
ATOM     80  C   UNL A   1      44.481  32.546  31.041  1.00  0.00    -0.014 A 
ATOM     81  C   UNL A   1      44.750  33.593  30.146  1.00  0.00     0.009 A 
ATOM     82  C   UNL A   1      44.384  32.832  32.413  1.00  0.00     0.009 A 
ATOM     83  C   UNL A   1      44.951  34.891  30.619  1.00  0.00     0.001 A 
ATOM     84  C   UNL A   1      44.554  34.135  32.879  1.00  0.00     0.001 A 
ATOM     85  C   UNL A   1      44.847  35.161  31.983  1.00  0.00     0.000 A 
ENDBRANCH  67  80
ENDBRANCH  41  42
ENDBRANCH  33  36
ENDBRANCH  31  32
ENDBRANCH  30  31
ENDBRANCH   1  30
TORSDOF 17
ENDMDL
MODEL 3
REMARK VINA RESULT:     -11.4      1.668      6.074
REMARK SMILES COCC[C@]1(C(=O)NCCCCNC(=O)c2ccc(-c3c4nc(c(-c5ccccc5)c5ccc([nH]5)c(-c5ccccc5)c5nc(c(-c6ccccc6)c6ccc3[nH]6)C=C5)C=C4)cc2)CCCN(C(=O)Cc2c(C)nc(C)[nH]c2=O)C1
REMARK SMILES IDX 10 1 9 2 8 3 6 4 7 5 5 7 64 8 80 9 65 10 67 11 66 12 4 13
REMARK SMILES IDX 3 14 2 15 1 16 68 17 69 18 70 19 71 20 72 21 78 22 73 23
REMARK SMILES IDX 74 24 77 25 79 26 75 27 76 29 11 30 12 31 13 32 14 33 15 35
REMARK SMILES IDX 16 36 17 37 63 38 18 39 62 40 19 41 20 42 21 43 56 44 22 45
REMARK SMILES IDX 61 46 55 47 57 48 23 49 60 50 54 51 53 52 24 54 46 55 31 56
REMARK SMILES IDX 45 57 32 58 35 59 44 60 58 61 33 62 34 63 43 65 59 66 36 67
REMARK SMILES IDX 25 68 26 69 30 70 27 71 29 72 28 73 47 74 48 75 52 76 49 77
REMARK SMILES IDX 51 78 50 79 37 80 38 81 42 82 39 83 41 84 40 85
REMARK H PARENT 8 6 77 28 13 34 57 53 35 64
REMARK Flexibility Score: inf
ROOT
ATOM      1  C   UNL A   1      37.339  21.772  24.257  1.00  0.00     0.023 C 
ENDROOT
BRANCH   1   2
ATOM      2  C   UNL A   1      35.849  22.078  24.396  1.00  0.00     0.116 C 
BRANCH   2   3
ATOM      3  N   UNL A   1      35.306  21.627  25.666  1.00  0.00    -0.356 N 
ATOM      4  C   UNL A   1      34.089  21.788  26.263  1.00  0.00     0.228 C 
ATOM      5  O   UNL A   1      34.018  21.368  27.420  1.00  0.00    -0.274 OA
ATOM      6  H   UNL A   1      35.942  21.101  26.202  1.00  0.00     0.163 HD
BRANCH   4   7
ATOM      7  C   UNL A   1      32.911  22.506  25.564  1.00  0.00     0.069 C 
ATOM      8  C   UNL A   1      31.678  22.380  26.526  1.00  0.00     0.021 C 
ATOM      9  C   UNL A   1      33.288  23.977  25.250  1.00  0.00     0.136 C 
ATOM     10  C   UNL A   1      30.591  23.437  26.312  1.00  0.00     0.023 C 
ATOM     11  N   UNL A   1      32.120  24.831  25.056  1.00  0.00    -0.341 N 
ATOM     12  C   UNL A   1      31.204  24.820  26.182  1.00  0.00     0.119 C 
BRANCH   7  13
ATOM     13  C   UNL A   1      32.509  21.755  24.243  1.00  0.00     0.047 C 
BRANCH  13  14
ATOM     14  C   UNL A   1      32.678  20.231  24.150  1.00  0.00     0.161 C 
BRANCH  14  15
ATOM     15  O   UNL A   1      32.008  19.515  25.179  1.00  0.00    -0.385 OA
ATOM     16  C   UNL A   1      32.602  18.272  25.517  1.00  0.00     0.194 C 
ENDBRANCH  14  15
ENDBRANCH  13  14
ENDBRANCH   7  13
BRANCH  11  17
ATOM     17  C   UNL A   1      31.988  25.551  23.875  1.00  0.00     0.227 C 
ATOM     18  O   UNL A   1      31.226  25.165  22.982  1.00  0.00    -0.275 OA
BRANCH  17  19
ATOM     19  C   UNL A   1      32.877  26.772  23.605  1.00  0.00     0.143 C 
BRANCH  19  20
ATOM     20  C   UNL A   1      32.555  28.016  24.385  1.00  0.00     0.048 A 
ATOM     21  C   UNL A   1      33.053  28.382  25.587  1.00  0.00     0.049 A 
ATOM     22  C   UNL A   1      31.603  28.961  23.746  1.00  0.00     0.254 A 
ATOM     23  C   UNL A   1      34.074  27.586  26.368  1.00  0.00     0.067 C 
ATOM     24  N   UNL A   1      32.648  29.505  26.273  1.00  0.00    -0.240 NA
ATOM     25  N   UNL A   1      31.282  30.066  24.472  1.00  0.00    -0.311 N 
ATOM     26  O   UNL A   1      31.128  28.769  22.632  1.00  0.00    -0.269 OA
ATOM     27  C   UNL A   1      31.799  30.293  25.707  1.00  0.00     0.105 A 
ATOM     28  H   UNL A   1      30.654  30.721  24.090  1.00  0.00     0.171 HD
ATOM     29  C   UNL A   1      31.301  31.509  26.432  1.00  0.00     0.087 C 
ENDBRANCH  19  20
ENDBRANCH  17  19
ENDBRANCH  11  17
ENDBRANCH   4   7
ENDBRANCH   2   3
ENDBRANCH   1   2
BRANCH   1  30
ATOM     30  C   UNL A   1      37.767  20.410  24.797  1.00  0.00     0.023 C 
BRANCH  30  31
ATOM     31  C   UNL A   1      38.766  20.459  25.946  1.00  0.00     0.116 C 
BRANCH  31  32
ATOM     32  N   UNL A   1      39.838  19.483  25.811  1.00  0.00    -0.352 N 
ATOM     33  C   UNL A   1      41.186  19.646  26.024  1.00  0.00     0.251 C 
ATOM     34  H   UNL A   1      39.559  18.583  25.527  1.00  0.00     0.163 HD
ATOM     35  O   UNL A   1      41.972  18.750  25.734  1.00  0.00    -0.269 OA
BRANCH  33  36
ATOM     36  C   UNL A   1      41.683  20.923  26.572  1.00  0.00     0.039 A 
ATOM     37  C   UNL A   1      42.193  21.882  25.695  1.00  0.00     0.014 A 
ATOM     38  C   UNL A   1      41.604  21.187  27.942  1.00  0.00     0.014 A 
ATOM     39  C   UNL A   1      42.555  23.138  26.185  1.00  0.00     0.010 A 
ATOM     40  C   UNL A   1      41.886  22.464  28.413  1.00  0.00     0.010 A 
ATOM     41  C   UNL A   1      42.365  23.453  27.540  1.00  0.00    -0.014 A 
BRANCH  41  42
ATOM     42  C   UNL A   1      42.653  24.812  28.062  1.00  0.00     0.031 A 
ATOM     43  C   UNL A   1      44.039  25.162  28.531  1.00  0.00     0.074 A 
ATOM     44  C   UNL A   1      41.651  25.706  28.188  1.00  0.00     0.049 A 
ATOM     45  N   UNL A   1      44.469  26.272  29.077  1.00  0.00    -0.248 NA
ATOM     46  C   UNL A   1      45.071  24.120  28.397  1.00  0.00     0.031 C 
ATOM     47  C   UNL A   1      40.251  25.472  27.821  1.00  0.00     0.029 A 
ATOM     48  N   UNL A   1      41.655  26.991  28.671  1.00  0.00    -0.354 N 
ATOM     49  C   UNL A   1      45.808  26.052  29.373  1.00  0.00     0.074 A 
ATOM     50  C   UNL A   1      46.111  24.691  28.987  1.00  0.00     0.031 C 
ATOM     51  C   UNL A   1      39.539  26.581  28.072  1.00  0.00     0.029 A 
ATOM     52  C   UNL A   1      40.419  27.590  28.655  1.00  0.00     0.049 A 
ATOM     53  H   UNL A   1      42.467  27.440  28.998  1.00  0.00     0.167 HD
ATOM     54  C   UNL A   1      46.710  26.910  29.905  1.00  0.00     0.031 A 
ATOM     55  C   UNL A   1      40.032  28.810  29.074  1.00  0.00     0.031 A 
ATOM     56  C   UNL A   1      46.415  28.270  30.264  1.00  0.00     0.049 A 
ATOM     57  C   UNL A   1      41.059  29.746  29.650  1.00  0.00     0.074 A 
ATOM     58  C   UNL A   1      47.282  29.244  30.728  1.00  0.00     0.029 A 
ATOM     59  N   UNL A   1      45.157  28.848  30.206  1.00  0.00    -0.354 N 
ATOM     60  N   UNL A   1      42.342  29.554  29.833  1.00  0.00    -0.248 NA
ATOM     61  C   UNL A   1      40.583  31.073  30.068  1.00  0.00     0.031 C 
ATOM     62  C   UNL A   1      46.538  30.394  31.006  1.00  0.00     0.029 A 
ATOM     63  C   UNL A   1      45.219  30.155  30.656  1.00  0.00     0.049 A 
ATOM     64  H   UNL A   1      44.341  28.396  29.890  1.00  0.00     0.167 HD
ATOM     65  C   UNL A   1      42.832  30.744  30.357  1.00  0.00     0.074 A 
ATOM     66  C   UNL A   1      41.711  31.657  30.445  1.00  0.00     0.031 C 
ATOM     67  C   UNL A   1      44.097  31.052  30.733  1.00  0.00     0.031 A 
BRANCH  54  68
ATOM     68  C   UNL A   1      48.105  26.403  30.140  1.00  0.00    -0.014 A 
ATOM     69  C   UNL A   1      48.467  25.794  31.352  1.00  0.00     0.009 A 
ATOM     70  C   UNL A   1      49.054  26.481  29.110  1.00  0.00     0.009 A 
ATOM     71  C   UNL A   1      49.761  25.300  31.537  1.00  0.00     0.001 A 
ATOM     72  C   UNL A   1      50.338  25.962  29.286  1.00  0.00     0.001 A 
ATOM     73  C   UNL A   1      50.692  25.378  30.502  1.00  0.00     0.000 A 
ENDBRANCH  54  68
BRANCH  55  74
ATOM     74  C   UNL A   1      38.608  29.225  28.967  1.00  0.00    -0.014 A 
ATOM     75  C   UNL A   1      37.747  29.120  30.072  1.00  0.00     0.009 A 
ATOM     76  C   UNL A   1      38.093  29.700  27.752  1.00  0.00     0.009 A 
ATOM     77  C   UNL A   1      36.394  29.446  29.950  1.00  0.00     0.001 A 
ATOM     78  C   UNL A   1      36.747  30.057  27.641  1.00  0.00     0.001 A 
ATOM     79  C   UNL A   1      35.897  29.917  28.736  1.00  0.00     0.000 A 
ENDBRANCH  55  74
BRANCH  67  80
ATOM     80  C   UNL A   1      44.345  32.446  31.237  1.00  0.00    -0.014 A 
ATOM     81  C   UNL A   1      44.312  32.746  32.607  1.00  0.00     0.009 A 
ATOM     82  C   UNL A   1      44.662  33.466  30.325  1.00  0.00     0.009 A 
ATOM     83  C   UNL A   1      44.557  34.046  33.051  1.00  0.00     0.001 A 
ATOM     84  C   UNL A   1      44.938  34.758  30.773  1.00  0.00     0.001 A 
ATOM     85  C   UNL A   1      44.875  35.048  32.135  1.00  0.00     0.000 A 
ENDBRANCH  67  80
ENDBRANCH  41  42
ENDBRANCH  33  36
ENDBRANCH  31  32
ENDBRANCH  30  31
ENDBRANCH   1  30
TORSDOF 17
ENDMDL
