MODEL 1
REMARK VINA RESULT:     -11.1      0.000      0.000
REMARK SMILES O=C(NCCCCNC(=O)[C@H](NC(=O)c1ccc(Br)nc1)c1ccccc1)c1ccc(-c2c3nc(c(-c4ccccc4)c4ccc([nH]4)c(-c4ccccc4)c4nc(c(-c5ccccc5)c5ccc2[nH]5)C=C4)C=C3)cc1
REMARK SMILES IDX 5 1 4 2 3 3 1 4 2 5 28 7 29 8 75 9 30 10 74 11 31 12 32 13
REMARK SMILES IDX 33 14 68 15 34 16 73 17 67 18 69 19 35 20 72 21 66 22 65 23
REMARK SMILES IDX 36 25 58 26 43 27 57 28 44 29 47 30 56 31 70 32 45 33 46 34
REMARK SMILES IDX 55 36 71 37 48 38 37 39 38 40 42 41 39 42 41 43 40 44 59 45
REMARK SMILES IDX 60 46 64 47 61 48 63 49 62 50 49 51 50 52 54 53 51 54 53 55
REMARK SMILES IDX 52 56 6 57 7 58 8 59 9 60 10 62 11 63 22 64 23 65 27 66
REMARK SMILES IDX 24 67 26 68 25 69 12 70 13 71 14 73 15 74 16 75 21 76 17 77
REMARK SMILES IDX 20 78 18 79 19 80
REMARK H PARENT 3 6 69 24 47 35 8 61 12 72
REMARK Flexibility Score: inf
ROOT
ATOM      1  C   UNL A   1      36.868  23.054  23.568  1.00  0.00     0.023 C 
ENDROOT
BRANCH   1   2
ATOM      2  C   UNL A   1      37.468  23.423  24.916  1.00  0.00     0.116 C 
BRANCH   2   3
ATOM      3  N   UNL A   1      38.509  22.516  25.370  1.00  0.00    -0.352 N 
ATOM      4  O   UNL A   1      40.413  21.915  26.429  1.00  0.00    -0.269 OA
ATOM      5  C   UNL A   1      39.579  22.777  26.202  1.00  0.00     0.251 C 
ATOM      6  H   UNL A   1      38.443  21.591  25.039  1.00  0.00     0.163 HD
BRANCH   5   7
ATOM      7  C   UNL A   1      39.729  24.132  26.782  1.00  0.00     0.039 A 
ATOM      8  C   UNL A   1      40.429  25.123  26.094  1.00  0.00     0.014 A 
ATOM      9  C   UNL A   1      39.205  24.394  28.052  1.00  0.00     0.014 A 
ATOM     10  C   UNL A   1      40.764  26.301  26.745  1.00  0.00     0.010 A 
ATOM     11  C   UNL A   1      39.454  25.628  28.665  1.00  0.00     0.010 A 
ATOM     12  C   UNL A   1      40.272  26.576  28.033  1.00  0.00    -0.014 A 
BRANCH  12  13
ATOM     13  C   UNL A   1      40.591  27.890  28.649  1.00  0.00     0.031 A 
ATOM     14  C   UNL A   1      39.559  28.975  28.786  1.00  0.00     0.074 A 
ATOM     15  C   UNL A   1      41.824  28.063  29.168  1.00  0.00     0.049 A 
ATOM     16  N   UNL A   1      39.663  30.134  29.389  1.00  0.00    -0.248 NA
ATOM     17  C   UNL A   1      38.247  28.741  28.163  1.00  0.00     0.031 C 
ATOM     18  C   UNL A   1      42.916  27.088  29.085  1.00  0.00     0.029 A 
ATOM     19  N   UNL A   1      42.352  29.091  29.904  1.00  0.00    -0.354 N 
ATOM     20  C   UNL A   1      38.443  30.772  29.207  1.00  0.00     0.074 A 
ATOM     21  C   UNL A   1      37.618  29.882  28.418  1.00  0.00     0.031 C 
ATOM     22  C   UNL A   1      43.953  27.528  29.809  1.00  0.00     0.029 A 
ATOM     23  C   UNL A   1      43.626  28.840  30.352  1.00  0.00     0.049 A 
ATOM     24  H   UNL A   1      41.867  29.926  30.093  1.00  0.00     0.167 HD
ATOM     25  C   UNL A   1      38.045  31.985  29.662  1.00  0.00     0.031 A 
ATOM     26  C   UNL A   1      44.449  29.583  31.114  1.00  0.00     0.031 A 
ATOM     27  C   UNL A   1      38.866  32.870  30.449  1.00  0.00     0.049 A 
ATOM     28  C   UNL A   1      43.978  30.916  31.607  1.00  0.00     0.074 A 
ATOM     29  C   UNL A   1      38.549  34.120  30.955  1.00  0.00     0.029 A 
ATOM     30  N   UNL A   1      40.164  32.597  30.848  1.00  0.00    -0.354 N 
ATOM     31  N   UNL A   1      42.816  31.497  31.429  1.00  0.00    -0.248 NA
ATOM     32  C   UNL A   1      44.933  31.698  32.402  1.00  0.00     0.031 C 
ATOM     33  C   UNL A   1      39.668  34.618  31.631  1.00  0.00     0.029 A 
ATOM     34  C   UNL A   1      40.666  33.659  31.583  1.00  0.00     0.049 A 
ATOM     35  H   UNL A   1      40.657  31.771  30.639  1.00  0.00     0.167 HD
ATOM     36  C   UNL A   1      42.901  32.715  32.088  1.00  0.00     0.074 A 
ATOM     37  C   UNL A   1      44.213  32.770  32.701  1.00  0.00     0.031 C 
ATOM     38  C   UNL A   1      41.981  33.705  32.167  1.00  0.00     0.031 A 
BRANCH  25  39
ATOM     39  C   UNL A   1      36.659  32.444  29.303  1.00  0.00    -0.014 A 
ATOM     40  C   UNL A   1      35.567  32.179  30.146  1.00  0.00     0.009 A 
ATOM     41  C   UNL A   1      36.453  33.207  28.144  1.00  0.00     0.009 A 
ATOM     42  C   UNL A   1      34.293  32.653  29.821  1.00  0.00     0.001 A 
ATOM     43  C   UNL A   1      35.182  33.697  27.834  1.00  0.00     0.001 A 
ATOM     44  C   UNL A   1      34.102  33.415  28.669  1.00  0.00     0.000 A 
ENDBRANCH  25  39
BRANCH  26  45
ATOM     45  C   UNL A   1      45.808  29.080  31.437  1.00  0.00    -0.014 A 
ATOM     46  C   UNL A   1      46.923  29.497  30.697  1.00  0.00     0.009 A 
ATOM     47  C   UNL A   1      45.994  28.191  32.508  1.00  0.00     0.009 A 
ATOM     48  C   UNL A   1      48.197  29.016  31.010  1.00  0.00     0.001 A 
ATOM     49  C   UNL A   1      47.272  27.736  32.837  1.00  0.00     0.001 A 
ATOM     50  C   UNL A   1      48.370  28.142  32.082  1.00  0.00     0.000 A 
ENDBRANCH  26  45
BRANCH  38  51
ATOM     51  C   UNL A   1      42.375  34.926  32.945  1.00  0.00    -0.014 A 
ATOM     52  C   UNL A   1      43.171  35.925  32.364  1.00  0.00     0.009 A 
ATOM     53  C   UNL A   1      41.948  35.078  34.272  1.00  0.00     0.009 A 
ATOM     54  C   UNL A   1      43.569  37.034  33.112  1.00  0.00     0.001 A 
ATOM     55  C   UNL A   1      42.327  36.200  35.010  1.00  0.00     0.001 A 
ATOM     56  C   UNL A   1      43.145  37.170  34.434  1.00  0.00     0.000 A 
ENDBRANCH  38  51
ENDBRANCH  12  13
ENDBRANCH   5   7
ENDBRANCH   2   3
ENDBRANCH   1   2
BRANCH   1  57
ATOM     57  C   UNL A   1      35.353  23.181  23.459  1.00  0.00     0.023 C 
BRANCH  57  58
ATOM     58  C   UNL A   1      34.699  24.167  24.421  1.00  0.00     0.116 C 
BRANCH  58  59
ATOM     59  N   UNL A   1      33.698  25.020  23.808  1.00  0.00    -0.354 N 
ATOM     60  C   UNL A   1      32.892  25.955  24.409  1.00  0.00     0.247 C 
ATOM     61  H   UNL A   1      33.581  24.915  22.836  1.00  0.00     0.163 HD
ATOM     62  O   UNL A   1      32.369  26.809  23.689  1.00  0.00    -0.272 OA
BRANCH  60  63
ATOM     63  C   UNL A   1      32.683  25.899  25.952  1.00  0.00     0.202 C 
BRANCH  63  64
ATOM     64  C   UNL A   1      32.826  27.316  26.502  1.00  0.00    -0.016 A 
ATOM     65  C   UNL A   1      34.067  27.968  26.532  1.00  0.00     0.006 A 
ATOM     66  C   UNL A   1      31.685  28.018  26.934  1.00  0.00     0.006 A 
ATOM     67  C   UNL A   1      34.153  29.308  26.913  1.00  0.00     0.000 A 
ATOM     68  C   UNL A   1      31.778  29.351  27.331  1.00  0.00     0.000 A 
ATOM     69  C   UNL A   1      33.009  30.000  27.304  1.00  0.00     0.000 A 
ENDBRANCH  63  64
BRANCH  63  70
ATOM     70  N   UNL A   1      31.407  25.342  26.411  1.00  0.00    -0.336 N 
ATOM     71  C   UNL A   1      31.032  24.054  26.682  1.00  0.00     0.253 C 
ATOM     72  H   UNL A   1      30.697  26.010  26.547  1.00  0.00     0.165 HD
ATOM     73  O   UNL A   1      30.019  23.834  27.340  1.00  0.00    -0.269 OA
BRANCH  71  74
ATOM     74  C   UNL A   1      31.746  22.915  26.090  1.00  0.00     0.058 A 
ATOM     75  C   UNL A   1      31.491  22.416  24.817  1.00  0.00     0.018 A 
ATOM     76  C   UNL A   1      32.734  22.311  26.858  1.00  0.00     0.126 A 
ATOM     77  C   UNL A   1      32.193  21.287  24.390  1.00  0.00     0.037 A 
ATOM     78  N   UNL A   1      33.440  21.225  26.459  1.00  0.00    -0.249 NA
ATOM     79  C   UNL A   1      33.139  20.724  25.242  1.00  0.00     0.106 A 
ATOM     80  Br  UNL A   1      34.059  19.162  24.686  1.00  0.00    -0.029 Br
ENDBRANCH  71  74
ENDBRANCH  63  70
ENDBRANCH  60  63
ENDBRANCH  58  59
ENDBRANCH  57  58
ENDBRANCH   1  57
TORSDOF 14
ENDMDL
MODEL 2
REMARK VINA RESULT:     -11.0      2.916      7.963
REMARK SMILES O=C(NCCCCNC(=O)[C@H](NC(=O)c1ccc(Br)nc1)c1ccccc1)c1ccc(-c2c3nc(c(-c4ccccc4)c4ccc([nH]4)c(-c4ccccc4)c4nc(c(-c5ccccc5)c5ccc2[nH]5)C=C4)C=C3)cc1
REMARK SMILES IDX 5 1 4 2 3 3 1 4 2 5 28 7 29 8 75 9 30 10 74 11 31 12 32 13
REMARK SMILES IDX 33 14 68 15 34 16 73 17 67 18 69 19 35 20 72 21 66 22 65 23
REMARK SMILES IDX 36 25 58 26 43 27 57 28 44 29 47 30 56 31 70 32 45 33 46 34
REMARK SMILES IDX 55 36 71 37 48 38 37 39 38 40 42 41 39 42 41 43 40 44 59 45
REMARK SMILES IDX 60 46 64 47 61 48 63 49 62 50 49 51 50 52 54 53 51 54 53 55
REMARK SMILES IDX 52 56 6 57 7 58 8 59 9 60 10 62 11 63 22 64 23 65 27 66
REMARK SMILES IDX 24 67 26 68 25 69 12 70 13 71 14 73 15 74 16 75 21 76 17 77
REMARK SMILES IDX 20 78 18 79 19 80
REMARK H PARENT 3 6 69 24 47 35 8 61 12 72
REMARK Flexibility Score: inf
ROOT
ATOM      1  C   UNL A   1      32.617  28.654  26.440  1.00  0.00     0.023 C 
ENDROOT
BRANCH   1   2
ATOM      2  C   UNL A   1      33.858  28.936  27.271  1.00  0.00     0.116 C 
BRANCH   2   3
ATOM      3  N   UNL A   1      33.843  30.225  27.942  1.00  0.00    -0.352 N 
ATOM      4  O   UNL A   1      34.665  31.914  29.198  1.00  0.00    -0.269 OA
ATOM      5  C   UNL A   1      34.865  30.857  28.622  1.00  0.00     0.251 C 
ATOM      6  H   UNL A   1      32.989  30.714  27.907  1.00  0.00     0.163 HD
BRANCH   5   7
ATOM      7  C   UNL A   1      36.197  30.212  28.684  1.00  0.00     0.039 A 
ATOM      8  C   UNL A   1      36.660  29.656  29.876  1.00  0.00     0.014 A 
ATOM      9  C   UNL A   1      37.010  30.212  27.546  1.00  0.00     0.014 A 
ATOM     10  C   UNL A   1      37.989  29.273  29.982  1.00  0.00     0.010 A 
ATOM     11  C   UNL A   1      38.320  29.725  27.628  1.00  0.00     0.010 A 
ATOM     12  C   UNL A   1      38.834  29.290  28.858  1.00  0.00    -0.014 A 
BRANCH  12  13
ATOM     13  C   UNL A   1      40.224  28.789  29.008  1.00  0.00     0.031 A 
ATOM     14  C   UNL A   1      40.615  27.395  28.598  1.00  0.00     0.074 A 
ATOM     15  C   UNL A   1      41.164  29.649  29.451  1.00  0.00     0.049 A 
ATOM     16  N   UNL A   1      41.807  26.851  28.577  1.00  0.00    -0.248 NA
ATOM     17  C   UNL A   1      39.538  26.492  28.164  1.00  0.00     0.031 C 
ATOM     18  C   UNL A   1      40.904  31.023  29.893  1.00  0.00     0.029 A 
ATOM     19  N   UNL A   1      42.524  29.518  29.557  1.00  0.00    -0.354 N 
ATOM     20  C   UNL A   1      41.624  25.544  28.145  1.00  0.00     0.074 A 
ATOM     21  C   UNL A   1      40.204  25.366  27.935  1.00  0.00     0.031 C 
ATOM     22  C   UNL A   1      42.071  31.631  30.145  1.00  0.00     0.029 A 
ATOM     23  C   UNL A   1      43.153  30.675  29.947  1.00  0.00     0.049 A 
ATOM     24  H   UNL A   1      43.002  28.678  29.372  1.00  0.00     0.167 HD
ATOM     25  C   UNL A   1      42.557  24.582  27.937  1.00  0.00     0.031 A 
ATOM     26  C   UNL A   1      44.457  30.943  30.131  1.00  0.00     0.031 A 
ATOM     27  C   UNL A   1      43.971  24.759  28.145  1.00  0.00     0.049 A 
ATOM     28  C   UNL A   1      45.465  29.862  29.886  1.00  0.00     0.074 A 
ATOM     29  C   UNL A   1      44.993  23.842  27.960  1.00  0.00     0.029 A 
ATOM     30  N   UNL A   1      44.565  25.934  28.579  1.00  0.00    -0.354 N 
ATOM     31  N   UNL A   1      45.270  28.634  29.470  1.00  0.00    -0.248 NA
ATOM     32  C   UNL A   1      46.870  30.201  30.141  1.00  0.00     0.031 C 
ATOM     33  C   UNL A   1      46.201  24.451  28.317  1.00  0.00     0.029 A 
ATOM     34  C   UNL A   1      45.936  25.761  28.680  1.00  0.00     0.049 A 
ATOM     35  H   UNL A   1      44.084  26.767  28.785  1.00  0.00     0.167 HD
ATOM     36  C   UNL A   1      46.528  28.053  29.415  1.00  0.00     0.074 A 
ATOM     37  C   UNL A   1      47.480  29.075  29.802  1.00  0.00     0.031 C 
ATOM     38  C   UNL A   1      46.865  26.783  29.087  1.00  0.00     0.031 A 
BRANCH  25  39
ATOM     39  C   UNL A   1      42.077  23.234  27.475  1.00  0.00    -0.014 A 
ATOM     40  C   UNL A   1      42.213  22.836  26.136  1.00  0.00     0.009 A 
ATOM     41  C   UNL A   1      41.543  22.326  28.403  1.00  0.00     0.009 A 
ATOM     42  C   UNL A   1      41.804  21.562  25.733  1.00  0.00     0.001 A 
ATOM     43  C   UNL A   1      41.156  21.046  28.001  1.00  0.00     0.001 A 
ATOM     44  C   UNL A   1      41.281  20.667  26.666  1.00  0.00     0.000 A 
ENDBRANCH  25  39
BRANCH  26  45
ATOM     45  C   UNL A   1      44.875  32.293  30.588  1.00  0.00    -0.014 A 
ATOM     46  C   UNL A   1      44.993  32.584  31.954  1.00  0.00     0.009 A 
ATOM     47  C   UNL A   1      45.178  33.292  29.649  1.00  0.00     0.009 A 
ATOM     48  C   UNL A   1      45.386  33.858  32.372  1.00  0.00     0.001 A 
ATOM     49  C   UNL A   1      45.599  34.554  30.069  1.00  0.00     0.001 A 
ATOM     50  C   UNL A   1      45.694  34.838  31.430  1.00  0.00     0.000 A 
ENDBRANCH  26  45
BRANCH  38  51
ATOM     51  C   UNL A   1      48.325  26.442  29.138  1.00  0.00    -0.014 A 
ATOM     52  C   UNL A   1      49.147  26.623  28.016  1.00  0.00     0.009 A 
ATOM     53  C   UNL A   1      48.883  25.932  30.319  1.00  0.00     0.009 A 
ATOM     54  C   UNL A   1      50.494  26.259  28.062  1.00  0.00     0.001 A 
ATOM     55  C   UNL A   1      50.236  25.592  30.370  1.00  0.00     0.001 A 
ATOM     56  C   UNL A   1      51.037  25.746  29.240  1.00  0.00     0.000 A 
ENDBRANCH  38  51
ENDBRANCH  12  13
ENDBRANCH   5   7
ENDBRANCH   2   3
ENDBRANCH   1   2
BRANCH   1  57
ATOM     57  C   UNL A   1      32.210  27.190  26.329  1.00  0.00     0.023 C 
BRANCH  57  58
ATOM     58  C   UNL A   1      33.312  26.225  25.907  1.00  0.00     0.116 C 
BRANCH  58  59
ATOM     59  N   UNL A   1      33.023  24.832  26.190  1.00  0.00    -0.354 N 
ATOM     60  C   UNL A   1      33.680  23.716  25.734  1.00  0.00     0.247 C 
ATOM     61  H   UNL A   1      32.256  24.664  26.785  1.00  0.00     0.163 HD
ATOM     62  O   UNL A   1      33.513  22.660  26.349  1.00  0.00    -0.272 OA
BRANCH  60  63
ATOM     63  C   UNL A   1      34.599  23.834  24.481  1.00  0.00     0.202 C 
BRANCH  63  64
ATOM     64  C   UNL A   1      35.919  23.130  24.793  1.00  0.00    -0.016 A 
ATOM     65  C   UNL A   1      36.867  23.702  25.653  1.00  0.00     0.006 A 
ATOM     66  C   UNL A   1      36.173  21.852  24.263  1.00  0.00     0.006 A 
ATOM     67  C   UNL A   1      38.004  22.984  26.030  1.00  0.00     0.000 A 
ATOM     68  C   UNL A   1      37.318  21.145  24.627  1.00  0.00     0.000 A 
ATOM     69  C   UNL A   1      38.224  21.705  25.523  1.00  0.00     0.000 A 
ENDBRANCH  63  64
BRANCH  63  70
ATOM     70  N   UNL A   1      34.060  23.290  23.231  1.00  0.00    -0.336 N 
ATOM     71  C   UNL A   1      33.412  23.899  22.191  1.00  0.00     0.253 C 
ATOM     72  H   UNL A   1      34.185  22.321  23.121  1.00  0.00     0.165 HD
ATOM     73  O   UNL A   1      33.312  23.327  21.109  1.00  0.00    -0.269 OA
BRANCH  71  74
ATOM     74  C   UNL A   1      32.713  25.177  22.375  1.00  0.00     0.058 A 
ATOM     75  C   UNL A   1      33.283  26.419  22.111  1.00  0.00     0.018 A 
ATOM     76  C   UNL A   1      31.404  25.129  22.839  1.00  0.00     0.126 A 
ATOM     77  C   UNL A   1      32.537  27.567  22.387  1.00  0.00     0.037 A 
ATOM     78  N   UNL A   1      30.655  26.229  23.098  1.00  0.00    -0.249 NA
ATOM     79  C   UNL A   1      31.245  27.424  22.887  1.00  0.00     0.106 A 
ATOM     80  Br  UNL A   1      30.249  28.981  23.309  1.00  0.00    -0.029 Br
ENDBRANCH  71  74
ENDBRANCH  63  70
ENDBRANCH  60  63
ENDBRANCH  58  59
ENDBRANCH  57  58
ENDBRANCH   1  57
TORSDOF 14
ENDMDL
MODEL 3
REMARK VINA RESULT:     -11.0      2.612      7.597
REMARK SMILES O=C(NCCCCNC(=O)[C@H](NC(=O)c1ccc(Br)nc1)c1ccccc1)c1ccc(-c2c3nc(c(-c4ccccc4)c4ccc([nH]4)c(-c4ccccc4)c4nc(c(-c5ccccc5)c5ccc2[nH]5)C=C4)C=C3)cc1
REMARK SMILES IDX 5 1 4 2 3 3 1 4 2 5 28 7 29 8 75 9 30 10 74 11 31 12 32 13
REMARK SMILES IDX 33 14 68 15 34 16 73 17 67 18 69 19 35 20 72 21 66 22 65 23
REMARK SMILES IDX 36 25 58 26 43 27 57 28 44 29 47 30 56 31 70 32 45 33 46 34
REMARK SMILES IDX 55 36 71 37 48 38 37 39 38 40 42 41 39 42 41 43 40 44 59 45
REMARK SMILES IDX 60 46 64 47 61 48 63 49 62 50 49 51 50 52 54 53 51 54 53 55
REMARK SMILES IDX 52 56 6 57 7 58 8 59 9 60 10 62 11 63 22 64 23 65 27 66
REMARK SMILES IDX 24 67 26 68 25 69 12 70 13 71 14 73 15 74 16 75 21 76 17 77
REMARK SMILES IDX 20 78 18 79 19 80
REMARK H PARENT 3 6 69 24 47 35 8 61 12 72
REMARK Flexibility Score: inf
ROOT
ATOM      1  C   UNL A   1      32.003  27.882  27.466  1.00  0.00     0.023 C 
ENDROOT
BRANCH   1   2
ATOM      2  C   UNL A   1      33.346  28.576  27.299  1.00  0.00     0.116 C 
BRANCH   2   3
ATOM      3  N   UNL A   1      33.308  30.009  27.538  1.00  0.00    -0.352 N 
ATOM      4  O   UNL A   1      34.091  32.015  28.222  1.00  0.00    -0.269 OA
ATOM      5  C   UNL A   1      34.311  30.834  28.005  1.00  0.00     0.251 C 
ATOM      6  H   UNL A   1      32.451  30.451  27.338  1.00  0.00     0.163 HD
BRANCH   5   7
ATOM      7  C   UNL A   1      35.646  30.258  28.287  1.00  0.00     0.039 A 
ATOM      8  C   UNL A   1      35.931  29.705  29.535  1.00  0.00     0.014 A 
ATOM      9  C   UNL A   1      36.638  30.320  27.303  1.00  0.00     0.014 A 
ATOM     10  C   UNL A   1      37.242  29.390  29.861  1.00  0.00     0.010 A 
ATOM     11  C   UNL A   1      37.940  29.899  27.601  1.00  0.00     0.010 A 
ATOM     12  C   UNL A   1      38.262  29.471  28.897  1.00  0.00    -0.014 A 
BRANCH  12  13
ATOM     13  C   UNL A   1      39.632  29.039  29.276  1.00  0.00     0.031 A 
ATOM     14  C   UNL A   1      40.483  29.839  30.223  1.00  0.00     0.074 A 
ATOM     15  C   UNL A   1      40.075  27.854  28.810  1.00  0.00     0.049 A 
ATOM     16  N   UNL A   1      41.657  29.539  30.723  1.00  0.00    -0.248 NA
ATOM     17  C   UNL A   1      39.963  31.143  30.663  1.00  0.00     0.031 C 
ATOM     18  C   UNL A   1      39.345  26.994  27.872  1.00  0.00     0.029 A 
ATOM     19  N   UNL A   1      41.213  27.145  29.093  1.00  0.00    -0.354 N 
ATOM     20  C   UNL A   1      42.022  30.616  31.520  1.00  0.00     0.074 A 
ATOM     21  C   UNL A   1      40.956  31.590  31.422  1.00  0.00     0.031 C 
ATOM     22  C   UNL A   1      40.014  25.843  27.721  1.00  0.00     0.029 A 
ATOM     23  C   UNL A   1      41.246  25.908  28.496  1.00  0.00     0.049 A 
ATOM     24  H   UNL A   1      41.934  27.488  29.668  1.00  0.00     0.167 HD
ATOM     25  C   UNL A   1      43.140  30.776  32.269  1.00  0.00     0.031 A 
ATOM     26  C   UNL A   1      42.167  24.931  28.558  1.00  0.00     0.031 A 
ATOM     27  C   UNL A   1      44.201  29.806  32.368  1.00  0.00     0.049 A 
ATOM     28  C   UNL A   1      43.389  25.133  29.400  1.00  0.00     0.074 A 
ATOM     29  C   UNL A   1      45.373  29.879  33.103  1.00  0.00     0.029 A 
ATOM     30  N   UNL A   1      44.216  28.583  31.716  1.00  0.00    -0.354 N 
ATOM     31  N   UNL A   1      43.709  26.158  30.152  1.00  0.00    -0.248 NA
ATOM     32  C   UNL A   1      44.377  24.048  29.398  1.00  0.00     0.031 C 
ATOM     33  C   UNL A   1      46.114  28.716  32.867  1.00  0.00     0.029 A 
ATOM     34  C   UNL A   1      45.382  27.899  32.021  1.00  0.00     0.049 A 
ATOM     35  H   UNL A   1      43.504  28.249  31.124  1.00  0.00     0.167 HD
ATOM     36  C   UNL A   1      44.939  25.842  30.712  1.00  0.00     0.074 A 
ATOM     37  C   UNL A   1      45.285  24.515  30.243  1.00  0.00     0.031 C 
ATOM     38  C   UNL A   1      45.718  26.589  31.529  1.00  0.00     0.031 A 
BRANCH  25  39
ATOM     39  C   UNL A   1      43.290  32.062  33.034  1.00  0.00    -0.014 A 
ATOM     40  C   UNL A   1      43.885  33.189  32.447  1.00  0.00     0.009 A 
ATOM     41  C   UNL A   1      42.769  32.167  34.333  1.00  0.00     0.009 A 
ATOM     42  C   UNL A   1      43.975  34.391  33.155  1.00  0.00     0.001 A 
ATOM     43  C   UNL A   1      42.841  33.376  35.030  1.00  0.00     0.001 A 
ATOM     44  C   UNL A   1      43.448  34.484  34.443  1.00  0.00     0.000 A 
ENDBRANCH  25  39
BRANCH  26  45
ATOM     45  C   UNL A   1      41.968  23.680  27.782  1.00  0.00    -0.014 A 
ATOM     46  C   UNL A   1      42.408  23.581  26.455  1.00  0.00     0.009 A 
ATOM     47  C   UNL A   1      41.349  22.571  28.380  1.00  0.00     0.009 A 
ATOM     48  C   UNL A   1      42.215  22.400  25.735  1.00  0.00     0.001 A 
ATOM     49  C   UNL A   1      41.184  21.382  27.667  1.00  0.00     0.001 A 
ATOM     50  C   UNL A   1      41.609  21.301  26.343  1.00  0.00     0.000 A 
ENDBRANCH  26  45
BRANCH  38  51
ATOM     51  C   UNL A   1      47.019  25.976  31.960  1.00  0.00    -0.014 A 
ATOM     52  C   UNL A   1      47.119  25.276  33.172  1.00  0.00     0.009 A 
ATOM     53  C   UNL A   1      48.155  26.103  31.147  1.00  0.00     0.009 A 
ATOM     54  C   UNL A   1      48.345  24.750  33.582  1.00  0.00     0.001 A 
ATOM     55  C   UNL A   1      49.373  25.554  31.549  1.00  0.00     0.001 A 
ATOM     56  C   UNL A   1      49.470  24.888  32.769  1.00  0.00     0.000 A 
ENDBRANCH  38  51
ENDBRANCH  12  13
ENDBRANCH   5   7
ENDBRANCH   2   3
ENDBRANCH   1   2
BRANCH   1  57
ATOM     57  C   UNL A   1      31.714  26.751  26.487  1.00  0.00     0.023 C 
BRANCH  57  58
ATOM     58  C   UNL A   1      32.906  25.878  26.110  1.00  0.00     0.116 C 
BRANCH  58  59
ATOM     59  N   UNL A   1      32.657  24.453  26.222  1.00  0.00    -0.354 N 
ATOM     60  C   UNL A   1      33.403  23.416  25.718  1.00  0.00     0.247 C 
ATOM     61  H   UNL A   1      31.848  24.195  26.721  1.00  0.00     0.163 HD
ATOM     62  O   UNL A   1      33.230  22.297  26.205  1.00  0.00    -0.272 OA
BRANCH  60  63
ATOM     63  C   UNL A   1      34.425  23.700  24.577  1.00  0.00     0.202 C 
BRANCH  63  64
ATOM     64  C   UNL A   1      35.761  23.073  24.969  1.00  0.00    -0.016 A 
ATOM     65  C   UNL A   1      36.132  21.798  24.518  1.00  0.00     0.006 A 
ATOM     66  C   UNL A   1      36.677  23.805  25.748  1.00  0.00     0.006 A 
ATOM     67  C   UNL A   1      37.411  21.300  24.776  1.00  0.00     0.000 A 
ATOM     68  C   UNL A   1      37.947  23.297  26.019  1.00  0.00     0.000 A 
ATOM     69  C   UNL A   1      38.319  22.052  25.519  1.00  0.00     0.000 A 
ENDBRANCH  63  64
BRANCH  63  70
ATOM     70  N   UNL A   1      34.054  23.218  23.243  1.00  0.00    -0.336 N 
ATOM     71  C   UNL A   1      33.328  23.806  22.243  1.00  0.00     0.253 C 
ATOM     72  H   UNL A   1      34.382  22.315  23.030  1.00  0.00     0.165 HD
ATOM     73  O   UNL A   1      33.386  23.365  21.099  1.00  0.00    -0.269 OA
BRANCH  71  74
ATOM     74  C   UNL A   1      32.372  24.883  22.532  1.00  0.00     0.058 A 
ATOM     75  C   UNL A   1      31.104  24.673  23.066  1.00  0.00     0.018 A 
ATOM     76  C   UNL A   1      32.771  26.185  22.253  1.00  0.00     0.126 A 
ATOM     77  C   UNL A   1      30.261  25.774  23.236  1.00  0.00     0.037 A 
ATOM     78  N   UNL A   1      31.977  27.270  22.426  1.00  0.00    -0.249 NA
ATOM     79  C   UNL A   1      30.733  27.038  22.894  1.00  0.00     0.106 A 
ATOM     80  Br  UNL A   1      29.575  28.528  23.077  1.00  0.00    -0.029 Br
ENDBRANCH  71  74
ENDBRANCH  63  70
ENDBRANCH  60  63
ENDBRANCH  58  59
ENDBRANCH  57  58
ENDBRANCH   1  57
TORSDOF 14
ENDMDL
