MODEL 1
REMARK VINA RESULT:     -11.4      0.000      0.000
REMARK SMILES CC(C)C[C@@H](CNC1=[NH+]S(=O)(=O)c2ccccc21)C(=O)NCCCCNC(=O)c1ccc(-c2c3nc(c(-c4ccccc4)c4ccc([nH]4)c(-c4ccccc4)c4nc(c(-c5ccccc5)c5ccc2[nH]5)C=C4)C=C3)cc1
REMARK SMILES IDX 23 1 22 2 21 3 19 4 20 5 5 7 4 8 2 9 1 10 3 11 6 12 7 13
REMARK SMILES IDX 8 14 9 16 18 17 10 18 13 20 17 21 11 22 12 23 14 24 16 25
REMARK SMILES IDX 15 26 24 27 25 28 26 29 27 30 28 32 29 33 30 34 76 35 31 36
REMARK SMILES IDX 75 37 32 38 33 39 34 40 69 41 35 42 74 43 68 44 70 45 36 46
REMARK SMILES IDX 73 47 67 48 66 49 37 51 59 52 44 53 58 54 45 55 48 56 57 57
REMARK SMILES IDX 71 58 46 59 47 60 56 62 72 63 49 64 38 65 39 66 43 67 40 68
REMARK SMILES IDX 42 69 41 70 60 71 61 72 65 73 62 74 64 75 63 76 50 77 51 78
REMARK SMILES IDX 55 79 52 80 54 81 53 82
REMARK H PARENT 21 6 7 15 9 19 26 31 70 50 48 61
REMARK Flexibility Score: inf
ROOT
ATOM      1  C   UNL A   1      36.341  22.241  24.309  1.00  0.00     0.023 C 
ENDROOT
BRANCH   1   2
ATOM      2  C   UNL A   1      35.737  23.292  25.233  1.00  0.00     0.116 C 
BRANCH   2   3
ATOM      3  N   UNL A   1      35.180  22.759  26.454  1.00  0.00    -0.356 N 
ATOM      4  C   UNL A   1      33.913  22.351  26.743  1.00  0.00     0.227 C 
ATOM      5  O   UNL A   1      33.759  21.724  27.796  1.00  0.00    -0.275 OA
ATOM      6  H   UNL A   1      35.820  22.678  27.197  1.00  0.00     0.163 HD
BRANCH   4   7
ATOM      7  C   UNL A   1      32.703  22.668  25.859  1.00  0.00     0.120 C 
BRANCH   7   8
ATOM      8  C   UNL A   1      32.588  21.721  24.649  1.00  0.00     0.020 C 
BRANCH   8   9
ATOM      9  C   UNL A   1      32.115  22.351  23.326  1.00  0.00    -0.016 C 
ATOM     10  C   UNL A   1      33.034  23.464  22.825  1.00  0.00     0.007 C 
ATOM     11  C   UNL A   1      32.018  21.253  22.259  1.00  0.00     0.007 C 
ENDBRANCH   8   9
ENDBRANCH   7   8
BRANCH   7  12
ATOM     12  C   UNL A   1      31.423  23.005  26.640  1.00  0.00     0.247 C 
BRANCH  12  13
ATOM     13  N   UNL A   1      31.211  24.419  26.932  1.00  0.00    -0.272 N 
ATOM     14  C   UNL A   1      30.816  25.317  25.966  1.00  0.00     0.292 C 
ATOM     15  H   UNL A   1      31.356  24.742  27.850  1.00  0.00     0.305 HD
ATOM     16  N   UNL A   1      30.243  24.958  24.853  1.00  0.00    -0.162 N 
ATOM     17  C   UNL A   1      31.111  26.769  26.082  1.00  0.00     0.087 A 
ATOM     18  S   UNL A   1      29.993  26.244  23.870  1.00  0.00     0.329 S 
ATOM     19  H   UNL A   1      29.992  24.033  24.631  1.00  0.00     0.327 HD
ATOM     20  C   UNL A   1      30.817  27.389  24.882  1.00  0.00     0.124 A 
ATOM     21  C   UNL A   1      31.698  27.494  27.101  1.00  0.00     0.018 A 
ATOM     22  O   UNL A   1      28.596  26.620  23.876  1.00  0.00    -0.179 OA
ATOM     23  O   UNL A   1      30.764  26.113  22.653  1.00  0.00    -0.179 OA
ATOM     24  C   UNL A   1      31.184  28.686  24.576  1.00  0.00     0.025 A 
ATOM     25  C   UNL A   1      32.047  28.828  26.841  1.00  0.00     0.001 A 
ATOM     26  C   UNL A   1      31.827  29.408  25.578  1.00  0.00     0.002 A 
ENDBRANCH  12  13
ENDBRANCH   7  12
ENDBRANCH   4   7
ENDBRANCH   2   3
ENDBRANCH   1   2
BRANCH   1  27
ATOM     27  C   UNL A   1      36.998  21.056  25.021  1.00  0.00     0.023 C 
BRANCH  27  28
ATOM     28  C   UNL A   1      38.408  21.302  25.561  1.00  0.00     0.116 C 
BRANCH  28  29
ATOM     29  N   UNL A   1      39.268  20.128  25.546  1.00  0.00    -0.352 N 
ATOM     30  C   UNL A   1      40.567  20.003  25.982  1.00  0.00     0.251 C 
ATOM     31  H   UNL A   1      38.865  19.312  25.170  1.00  0.00     0.163 HD
ATOM     32  O   UNL A   1      41.154  18.934  25.845  1.00  0.00    -0.269 OA
BRANCH  30  33
ATOM     33  C   UNL A   1      41.271  21.157  26.584  1.00  0.00     0.039 A 
ATOM     34  C   UNL A   1      41.953  22.034  25.734  1.00  0.00     0.014 A 
ATOM     35  C   UNL A   1      41.243  21.400  27.961  1.00  0.00     0.014 A 
ATOM     36  C   UNL A   1      42.501  23.211  26.245  1.00  0.00     0.010 A 
ATOM     37  C   UNL A   1      41.746  22.595  28.465  1.00  0.00     0.010 A 
ATOM     38  C   UNL A   1      42.345  23.524  27.604  1.00  0.00    -0.014 A 
BRANCH  38  39
ATOM     39  C   UNL A   1      42.677  24.873  28.116  1.00  0.00     0.031 A 
ATOM     40  C   UNL A   1      44.057  25.205  28.593  1.00  0.00     0.074 A 
ATOM     41  C   UNL A   1      41.675  25.765  28.243  1.00  0.00     0.049 A 
ATOM     42  N   UNL A   1      44.504  26.327  29.094  1.00  0.00    -0.248 NA
ATOM     43  C   UNL A   1      45.061  24.132  28.520  1.00  0.00     0.031 C 
ATOM     44  C   UNL A   1      40.277  25.522  27.876  1.00  0.00     0.029 A 
ATOM     45  N   UNL A   1      41.671  27.046  28.730  1.00  0.00    -0.354 N 
ATOM     46  C   UNL A   1      45.841  26.101  29.390  1.00  0.00     0.074 A 
ATOM     47  C   UNL A   1      46.119  24.719  29.059  1.00  0.00     0.031 C 
ATOM     48  C   UNL A   1      39.555  26.622  28.140  1.00  0.00     0.029 A 
ATOM     49  C   UNL A   1      40.430  27.634  28.719  1.00  0.00     0.049 A 
ATOM     50  H   UNL A   1      42.481  27.502  29.056  1.00  0.00     0.167 HD
ATOM     51  C   UNL A   1      46.754  26.975  29.879  1.00  0.00     0.031 A 
ATOM     52  C   UNL A   1      40.039  28.853  29.131  1.00  0.00     0.031 A 
ATOM     53  C   UNL A   1      46.458  28.340  30.230  1.00  0.00     0.049 A 
ATOM     54  C   UNL A   1      41.069  29.798  29.679  1.00  0.00     0.074 A 
ATOM     55  C   UNL A   1      47.321  29.322  30.682  1.00  0.00     0.029 A 
ATOM     56  N   UNL A   1      45.194  28.910  30.182  1.00  0.00    -0.354 N 
ATOM     57  N   UNL A   1      42.354  29.604  29.854  1.00  0.00    -0.248 NA
ATOM     58  C   UNL A   1      40.600  31.135  30.064  1.00  0.00     0.031 C 
ATOM     59  C   UNL A   1      46.570  30.470  30.957  1.00  0.00     0.029 A 
ATOM     60  C   UNL A   1      45.249  30.222  30.621  1.00  0.00     0.049 A 
ATOM     61  H   UNL A   1      44.378  28.448  29.881  1.00  0.00     0.167 HD
ATOM     62  C   UNL A   1      42.852  30.803  30.344  1.00  0.00     0.074 A 
ATOM     63  C   UNL A   1      41.734  31.721  30.420  1.00  0.00     0.031 C 
ATOM     64  C   UNL A   1      44.123  31.117  30.696  1.00  0.00     0.031 A 
BRANCH  51  65
ATOM     65  C   UNL A   1      48.161  26.476  30.065  1.00  0.00    -0.014 A 
ATOM     66  C   UNL A   1      48.561  25.872  31.268  1.00  0.00     0.009 A 
ATOM     67  C   UNL A   1      49.086  26.569  29.014  1.00  0.00     0.009 A 
ATOM     68  C   UNL A   1      49.868  25.403  31.425  1.00  0.00     0.001 A 
ATOM     69  C   UNL A   1      50.384  26.074  29.164  1.00  0.00     0.001 A 
ATOM     70  C   UNL A   1      50.776  25.500  30.373  1.00  0.00     0.000 A 
ENDBRANCH  51  65
BRANCH  52  71
ATOM     71  C   UNL A   1      38.614  29.255  29.010  1.00  0.00    -0.014 A 
ATOM     72  C   UNL A   1      38.110  29.729  27.790  1.00  0.00     0.009 A 
ATOM     73  C   UNL A   1      37.747  29.153  30.110  1.00  0.00     0.009 A 
ATOM     74  C   UNL A   1      36.773  30.120  27.680  1.00  0.00     0.001 A 
ATOM     75  C   UNL A   1      36.404  29.517  29.989  1.00  0.00     0.001 A 
ATOM     76  C   UNL A   1      35.921  30.008  28.777  1.00  0.00     0.000 A 
ENDBRANCH  52  71
BRANCH  64  77
ATOM     77  C   UNL A   1      44.371  32.523  31.166  1.00  0.00    -0.014 A 
ATOM     78  C   UNL A   1      44.296  32.861  32.526  1.00  0.00     0.009 A 
ATOM     79  C   UNL A   1      44.714  33.514  30.234  1.00  0.00     0.009 A 
ATOM     80  C   UNL A   1      44.525  34.175  32.938  1.00  0.00     0.001 A 
ATOM     81  C   UNL A   1      44.973  34.820  30.652  1.00  0.00     0.001 A 
ATOM     82  C   UNL A   1      44.868  35.151  32.003  1.00  0.00     0.000 A 
ENDBRANCH  64  77
ENDBRANCH  38  39
ENDBRANCH  30  33
ENDBRANCH  28  29
ENDBRANCH  27  28
ENDBRANCH   1  27
TORSDOF 15
ENDMDL
MODEL 2
REMARK VINA RESULT:     -11.3      0.489      5.889
REMARK SMILES CC(C)C[C@@H](CNC1=[NH+]S(=O)(=O)c2ccccc21)C(=O)NCCCCNC(=O)c1ccc(-c2c3nc(c(-c4ccccc4)c4ccc([nH]4)c(-c4ccccc4)c4nc(c(-c5ccccc5)c5ccc2[nH]5)C=C4)C=C3)cc1
REMARK SMILES IDX 23 1 22 2 21 3 19 4 20 5 5 7 4 8 2 9 1 10 3 11 6 12 7 13
REMARK SMILES IDX 8 14 9 16 18 17 10 18 13 20 17 21 11 22 12 23 14 24 16 25
REMARK SMILES IDX 15 26 24 27 25 28 26 29 27 30 28 32 29 33 30 34 76 35 31 36
REMARK SMILES IDX 75 37 32 38 33 39 34 40 69 41 35 42 74 43 68 44 70 45 36 46
REMARK SMILES IDX 73 47 67 48 66 49 37 51 59 52 44 53 58 54 45 55 48 56 57 57
REMARK SMILES IDX 71 58 46 59 47 60 56 62 72 63 49 64 38 65 39 66 43 67 40 68
REMARK SMILES IDX 42 69 41 70 60 71 61 72 65 73 62 74 64 75 63 76 50 77 51 78
REMARK SMILES IDX 55 79 52 80 54 81 53 82
REMARK H PARENT 21 6 7 15 9 19 26 31 70 50 48 61
REMARK Flexibility Score: inf
ROOT
ATOM      1  C   UNL A   1      36.092  22.132  24.226  1.00  0.00     0.023 C 
ENDROOT
BRANCH   1   2
ATOM      2  C   UNL A   1      35.530  23.425  24.802  1.00  0.00     0.116 C 
BRANCH   2   3
ATOM      3  N   UNL A   1      35.160  23.343  26.194  1.00  0.00    -0.356 N 
ATOM      4  C   UNL A   1      34.045  22.826  26.783  1.00  0.00     0.227 C 
ATOM      5  O   UNL A   1      34.083  22.679  28.009  1.00  0.00    -0.275 OA
ATOM      6  H   UNL A   1      35.818  23.722  26.820  1.00  0.00     0.163 HD
BRANCH   4   7
ATOM      7  C   UNL A   1      32.771  22.470  26.011  1.00  0.00     0.120 C 
BRANCH   7   8
ATOM      8  C   UNL A   1      32.847  21.083  25.347  1.00  0.00     0.020 C 
BRANCH   8   9
ATOM      9  C   UNL A   1      32.170  20.939  23.972  1.00  0.00    -0.016 C 
ATOM     10  C   UNL A   1      32.594  22.018  22.975  1.00  0.00     0.007 C 
ATOM     11  C   UNL A   1      32.500  19.557  23.396  1.00  0.00     0.007 C 
ENDBRANCH   8   9
ENDBRANCH   7   8
BRANCH   7  12
ATOM     12  C   UNL A   1      31.469  22.861  26.729  1.00  0.00     0.247 C 
BRANCH  12  13
ATOM     13  N   UNL A   1      31.295  24.285  26.996  1.00  0.00    -0.272 N 
ATOM     14  C   UNL A   1      30.891  25.171  26.024  1.00  0.00     0.292 C 
ATOM     15  H   UNL A   1      31.473  24.624  27.903  1.00  0.00     0.305 HD
ATOM     16  N   UNL A   1      30.279  24.802  24.935  1.00  0.00    -0.162 N 
ATOM     17  C   UNL A   1      31.218  26.619  26.100  1.00  0.00     0.087 A 
ATOM     18  S   UNL A   1      30.026  26.072  23.932  1.00  0.00     0.329 S 
ATOM     19  H   UNL A   1      30.003  23.877  24.739  1.00  0.00     0.327 HD
ATOM     20  C   UNL A   1      30.902  27.220  24.896  1.00  0.00     0.124 A 
ATOM     21  C   UNL A   1      31.849  27.352  27.087  1.00  0.00     0.018 A 
ATOM     22  O   UNL A   1      28.638  26.477  23.970  1.00  0.00    -0.179 OA
ATOM     23  O   UNL A   1      30.759  25.900  22.697  1.00  0.00    -0.179 OA
ATOM     24  C   UNL A   1      31.286  28.502  24.553  1.00  0.00     0.025 A 
ATOM     25  C   UNL A   1      32.217  28.673  26.789  1.00  0.00     0.001 A 
ATOM     26  C   UNL A   1      31.972  29.231  25.521  1.00  0.00     0.002 A 
ENDBRANCH  12  13
ENDBRANCH   7  12
ENDBRANCH   4   7
ENDBRANCH   2   3
ENDBRANCH   1   2
BRANCH   1  27
ATOM     27  C   UNL A   1      36.723  21.187  25.252  1.00  0.00     0.023 C 
BRANCH  27  28
ATOM     28  C   UNL A   1      38.201  21.433  25.565  1.00  0.00     0.116 C 
BRANCH  28  29
ATOM     29  N   UNL A   1      39.028  20.237  25.520  1.00  0.00    -0.352 N 
ATOM     30  C   UNL A   1      40.323  20.066  25.953  1.00  0.00     0.251 C 
ATOM     31  H   UNL A   1      38.604  19.442  25.124  1.00  0.00     0.163 HD
ATOM     32  O   UNL A   1      40.881  18.985  25.790  1.00  0.00    -0.269 OA
BRANCH  30  33
ATOM     33  C   UNL A   1      41.057  21.185  26.584  1.00  0.00     0.039 A 
ATOM     34  C   UNL A   1      41.725  22.091  25.753  1.00  0.00     0.014 A 
ATOM     35  C   UNL A   1      41.071  21.368  27.971  1.00  0.00     0.014 A 
ATOM     36  C   UNL A   1      42.302  23.238  26.300  1.00  0.00     0.010 A 
ATOM     37  C   UNL A   1      41.602  22.535  28.511  1.00  0.00     0.010 A 
ATOM     38  C   UNL A   1      42.188  23.494  27.674  1.00  0.00    -0.014 A 
BRANCH  38  39
ATOM     39  C   UNL A   1      42.550  24.815  28.235  1.00  0.00     0.031 A 
ATOM     40  C   UNL A   1      41.526  25.894  28.404  1.00  0.00     0.074 A 
ATOM     41  C   UNL A   1      43.850  25.058  28.492  1.00  0.00     0.049 A 
ATOM     42  N   UNL A   1      41.684  27.112  28.855  1.00  0.00    -0.248 NA
ATOM     43  C   UNL A   1      40.150  25.574  27.994  1.00  0.00     0.031 C 
ATOM     44  C   UNL A   1      44.942  24.100  28.295  1.00  0.00     0.029 A 
ATOM     45  N   UNL A   1      44.478  26.185  28.954  1.00  0.00    -0.354 N 
ATOM     46  C   UNL A   1      40.430  27.703  28.789  1.00  0.00     0.074 A 
ATOM     47  C   UNL A   1      39.532  26.727  28.209  1.00  0.00     0.031 C 
ATOM     48  C   UNL A   1      46.102  24.677  28.645  1.00  0.00     0.029 A 
ATOM     49  C   UNL A   1      45.840  26.050  29.063  1.00  0.00     0.049 A 
ATOM     50  H   UNL A   1      43.997  27.013  29.186  1.00  0.00     0.167 HD
ATOM     51  C   UNL A   1      40.062  28.944  29.193  1.00  0.00     0.031 A 
ATOM     52  C   UNL A   1      46.776  26.933  29.455  1.00  0.00     0.031 A 
ATOM     53  C   UNL A   1      40.971  29.915  29.744  1.00  0.00     0.049 A 
ATOM     54  C   UNL A   1      46.342  28.304  29.886  1.00  0.00     0.074 A 
ATOM     55  C   UNL A   1      40.691  31.180  30.233  1.00  0.00     0.029 A 
ATOM     56  N   UNL A   1      42.341  29.735  29.864  1.00  0.00    -0.354 N 
ATOM     57  N   UNL A   1      45.135  28.814  29.919  1.00  0.00    -0.248 NA
ATOM     58  C   UNL A   1      47.396  29.212  30.356  1.00  0.00     0.031 C 
ATOM     59  C   UNL A   1      41.899  31.783  30.600  1.00  0.00     0.029 A 
ATOM     60  C   UNL A   1      42.924  30.873  30.394  1.00  0.00     0.049 A 
ATOM     61  H   UNL A   1      42.827  28.917  29.608  1.00  0.00     0.167 HD
ATOM     62  C   UNL A   1      45.280  30.093  30.438  1.00  0.00     0.074 A 
ATOM     63  C   UNL A   1      46.689  30.272  30.721  1.00  0.00     0.031 C 
ATOM     64  C   UNL A   1      44.330  31.034  30.663  1.00  0.00     0.031 A 
BRANCH  51  65
ATOM     65  C   UNL A   1      38.612  29.318  29.049  1.00  0.00    -0.014 A 
ATOM     66  C   UNL A   1      37.728  29.217  30.135  1.00  0.00     0.009 A 
ATOM     67  C   UNL A   1      38.132  29.820  27.829  1.00  0.00     0.009 A 
ATOM     68  C   UNL A   1      36.386  29.577  29.992  1.00  0.00     0.001 A 
ATOM     69  C   UNL A   1      36.796  30.206  27.697  1.00  0.00     0.001 A 
ATOM     70  C   UNL A   1      35.922  30.076  28.776  1.00  0.00     0.000 A 
ENDBRANCH  51  65
BRANCH  52  71
ATOM     71  C   UNL A   1      48.206  26.533  29.484  1.00  0.00    -0.014 A 
ATOM     72  C   UNL A   1      49.039  26.792  28.385  1.00  0.00     0.009 A 
ATOM     73  C   UNL A   1      48.749  25.904  30.615  1.00  0.00     0.009 A 
ATOM     74  C   UNL A   1      50.381  26.404  28.408  1.00  0.00     0.001 A 
ATOM     75  C   UNL A   1      50.098  25.543  30.647  1.00  0.00     0.001 A 
ATOM     76  C   UNL A   1      50.910  25.785  29.539  1.00  0.00     0.000 A 
ENDBRANCH  52  71
BRANCH  64  77
ATOM     77  C   UNL A   1      44.787  32.329  31.273  1.00  0.00    -0.014 A 
ATOM     78  C   UNL A   1      45.169  33.418  30.474  1.00  0.00     0.009 A 
ATOM     79  C   UNL A   1      44.806  32.468  32.669  1.00  0.00     0.009 A 
ATOM     80  C   UNL A   1      45.595  34.609  31.064  1.00  0.00     0.001 A 
ATOM     81  C   UNL A   1      45.203  33.669  33.256  1.00  0.00     0.001 A 
ATOM     82  C   UNL A   1      45.607  34.736  32.453  1.00  0.00     0.000 A 
ENDBRANCH  64  77
ENDBRANCH  38  39
ENDBRANCH  30  33
ENDBRANCH  28  29
ENDBRANCH  27  28
ENDBRANCH   1  27
TORSDOF 15
ENDMDL
MODEL 3
REMARK VINA RESULT:     -11.3      1.202      6.032
REMARK SMILES CC(C)C[C@@H](CNC1=[NH+]S(=O)(=O)c2ccccc21)C(=O)NCCCCNC(=O)c1ccc(-c2c3nc(c(-c4ccccc4)c4ccc([nH]4)c(-c4ccccc4)c4nc(c(-c5ccccc5)c5ccc2[nH]5)C=C4)C=C3)cc1
REMARK SMILES IDX 23 1 22 2 21 3 19 4 20 5 5 7 4 8 2 9 1 10 3 11 6 12 7 13
REMARK SMILES IDX 8 14 9 16 18 17 10 18 13 20 17 21 11 22 12 23 14 24 16 25
REMARK SMILES IDX 15 26 24 27 25 28 26 29 27 30 28 32 29 33 30 34 76 35 31 36
REMARK SMILES IDX 75 37 32 38 33 39 34 40 69 41 35 42 74 43 68 44 70 45 36 46
REMARK SMILES IDX 73 47 67 48 66 49 37 51 59 52 44 53 58 54 45 55 48 56 57 57
REMARK SMILES IDX 71 58 46 59 47 60 56 62 72 63 49 64 38 65 39 66 43 67 40 68
REMARK SMILES IDX 42 69 41 70 60 71 61 72 65 73 62 74 64 75 63 76 50 77 51 78
REMARK SMILES IDX 55 79 52 80 54 81 53 82
REMARK H PARENT 21 6 7 15 9 19 26 31 70 50 48 61
REMARK Flexibility Score: inf
ROOT
ATOM      1  C   UNL A   1      36.866  22.401  24.326  1.00  0.00     0.023 C 
ENDROOT
BRANCH   1   2
ATOM      2  C   UNL A   1      36.316  23.333  25.398  1.00  0.00     0.116 C 
BRANCH   2   3
ATOM      3  N   UNL A   1      35.529  22.671  26.411  1.00  0.00    -0.356 N 
ATOM      4  C   UNL A   1      34.429  21.876  26.296  1.00  0.00     0.227 C 
ATOM      5  O   UNL A   1      34.085  21.254  27.307  1.00  0.00    -0.275 OA
ATOM      6  H   UNL A   1      35.837  22.818  27.334  1.00  0.00     0.163 HD
BRANCH   4   7
ATOM      7  C   UNL A   1      33.601  21.762  25.012  1.00  0.00     0.120 C 
BRANCH   7   8
ATOM      8  C   UNL A   1      33.758  20.392  24.326  1.00  0.00     0.020 C 
BRANCH   8   9
ATOM      9  C   UNL A   1      32.558  19.431  24.425  1.00  0.00    -0.016 C 
ATOM     10  C   UNL A   1      32.342  18.604  23.158  1.00  0.00     0.007 C 
ATOM     11  C   UNL A   1      32.771  18.490  25.617  1.00  0.00     0.007 C 
ENDBRANCH   8   9
ENDBRANCH   7   8
BRANCH   7  12
ATOM     12  C   UNL A   1      32.191  22.365  25.115  1.00  0.00     0.247 C 
BRANCH  12  13
ATOM     13  N   UNL A   1      32.128  23.769  25.505  1.00  0.00    -0.272 N 
ATOM     14  C   UNL A   1      32.323  24.791  24.604  1.00  0.00     0.292 C 
ATOM     15  H   UNL A   1      31.940  23.994  26.445  1.00  0.00     0.305 HD
ATOM     16  N   UNL A   1      32.200  24.637  23.316  1.00  0.00    -0.162 N 
ATOM     17  C   UNL A   1      32.792  26.134  25.034  1.00  0.00     0.087 A 
ATOM     18  S   UNL A   1      32.598  26.007  22.511  1.00  0.00     0.329 S 
ATOM     19  H   UNL A   1      31.905  23.804  22.882  1.00  0.00     0.327 HD
ATOM     20  C   UNL A   1      33.125  26.878  23.918  1.00  0.00     0.124 A 
ATOM     21  C   UNL A   1      33.030  26.647  26.295  1.00  0.00     0.018 A 
ATOM     22  O   UNL A   1      31.409  26.676  22.033  1.00  0.00    -0.179 OA
ATOM     23  O   UNL A   1      33.763  25.789  21.680  1.00  0.00    -0.179 OA
ATOM     24  C   UNL A   1      33.803  28.081  23.969  1.00  0.00     0.025 A 
ATOM     25  C   UNL A   1      33.680  27.887  26.386  1.00  0.00     0.001 A 
ATOM     26  C   UNL A   1      34.097  28.580  25.235  1.00  0.00     0.002 A 
ENDBRANCH  12  13
ENDBRANCH   7  12
ENDBRANCH   4   7
ENDBRANCH   2   3
ENDBRANCH   1   2
BRANCH   1  27
ATOM     27  C   UNL A   1      37.438  21.080  24.847  1.00  0.00     0.023 C 
BRANCH  27  28
ATOM     28  C   UNL A   1      38.680  21.195  25.733  1.00  0.00     0.116 C 
BRANCH  28  29
ATOM     29  N   UNL A   1      39.578  20.053  25.654  1.00  0.00    -0.352 N 
ATOM     30  C   UNL A   1      40.899  19.967  26.030  1.00  0.00     0.251 C 
ATOM     31  H   UNL A   1      39.188  19.231  25.279  1.00  0.00     0.163 HD
ATOM     32  O   UNL A   1      41.517  18.922  25.843  1.00  0.00    -0.269 OA
BRANCH  30  33
ATOM     33  C   UNL A   1      41.588  21.133  26.626  1.00  0.00     0.039 A 
ATOM     34  C   UNL A   1      42.185  22.060  25.765  1.00  0.00     0.014 A 
ATOM     35  C   UNL A   1      41.629  21.336  28.009  1.00  0.00     0.014 A 
ATOM     36  C   UNL A   1      42.712  23.245  26.280  1.00  0.00     0.010 A 
ATOM     37  C   UNL A   1      42.111  22.537  28.519  1.00  0.00     0.010 A 
ATOM     38  C   UNL A   1      42.621  23.514  27.654  1.00  0.00    -0.014 A 
BRANCH  38  39
ATOM     39  C   UNL A   1      42.926  24.861  28.187  1.00  0.00     0.031 A 
ATOM     40  C   UNL A   1      41.855  25.894  28.347  1.00  0.00     0.074 A 
ATOM     41  C   UNL A   1      44.216  25.169  28.426  1.00  0.00     0.049 A 
ATOM     42  N   UNL A   1      41.960  27.126  28.774  1.00  0.00    -0.248 NA
ATOM     43  C   UNL A   1      40.492  25.503  27.956  1.00  0.00     0.031 C 
ATOM     44  C   UNL A   1      45.350  24.259  28.236  1.00  0.00     0.029 A 
ATOM     45  N   UNL A   1      44.795  26.332  28.862  1.00  0.00    -0.354 N 
ATOM     46  C   UNL A   1      40.679  27.657  28.710  1.00  0.00     0.074 A 
ATOM     47  C   UNL A   1      39.823  26.629  28.156  1.00  0.00     0.031 C 
ATOM     48  C   UNL A   1      46.485  24.896  28.564  1.00  0.00     0.029 A 
ATOM     49  C   UNL A   1      46.163  26.262  28.959  1.00  0.00     0.049 A 
ATOM     50  H   UNL A   1      44.279  27.141  29.083  1.00  0.00     0.167 HD
ATOM     51  C   UNL A   1      40.258  28.886  29.095  1.00  0.00     0.031 A 
ATOM     52  C   UNL A   1      47.060  27.195  29.326  1.00  0.00     0.031 A 
ATOM     53  C   UNL A   1      41.125  29.909  29.619  1.00  0.00     0.049 A 
ATOM     54  C   UNL A   1      46.567  28.552  29.737  1.00  0.00     0.074 A 
ATOM     55  C   UNL A   1      40.791  31.168  30.087  1.00  0.00     0.029 A 
ATOM     56  N   UNL A   1      42.503  29.795  29.728  1.00  0.00    -0.354 N 
ATOM     57  N   UNL A   1      45.337  29.006  29.772  1.00  0.00    -0.248 NA
ATOM     58  C   UNL A   1      47.582  29.517  30.180  1.00  0.00     0.031 C 
ATOM     59  C   UNL A   1      41.973  31.833  30.432  1.00  0.00     0.029 A 
ATOM     60  C   UNL A   1      43.037  30.969  30.232  1.00  0.00     0.049 A 
ATOM     61  H   UNL A   1      43.025  28.996  29.482  1.00  0.00     0.167 HD
ATOM     62  C   UNL A   1      45.427  30.300  30.267  1.00  0.00     0.074 A 
ATOM     63  C   UNL A   1      46.829  30.549  30.533  1.00  0.00     0.031 C 
ATOM     64  C   UNL A   1      44.437  31.200  30.484  1.00  0.00     0.031 A 
BRANCH  51  65
ATOM     65  C   UNL A   1      38.791  29.190  28.958  1.00  0.00    -0.014 A 
ATOM     66  C   UNL A   1      37.916  29.038  30.046  1.00  0.00     0.009 A 
ATOM     67  C   UNL A   1      38.282  29.676  27.744  1.00  0.00     0.009 A 
ATOM     68  C   UNL A   1      36.558  29.333  29.911  1.00  0.00     0.001 A 
ATOM     69  C   UNL A   1      36.928  29.997  27.619  1.00  0.00     0.001 A 
ATOM     70  C   UNL A   1      36.066  29.817  28.700  1.00  0.00     0.000 A 
ENDBRANCH  51  65
BRANCH  52  71
ATOM     71  C   UNL A   1      48.508  26.863  29.349  1.00  0.00    -0.014 A 
ATOM     72  C   UNL A   1      49.322  27.160  28.246  1.00  0.00     0.009 A 
ATOM     73  C   UNL A   1      49.086  26.260  30.477  1.00  0.00     0.009 A 
ATOM     74  C   UNL A   1      50.681  26.836  28.261  1.00  0.00     0.001 A 
ATOM     75  C   UNL A   1      50.450  25.963  30.502  1.00  0.00     0.001 A 
ATOM     76  C   UNL A   1      51.244  26.242  29.390  1.00  0.00     0.000 A 
ENDBRANCH  52  71
BRANCH  64  77
ATOM     77  C   UNL A   1      44.839  32.525  31.066  1.00  0.00    -0.014 A 
ATOM     78  C   UNL A   1      45.162  33.616  30.244  1.00  0.00     0.009 A 
ATOM     79  C   UNL A   1      44.863  32.691  32.459  1.00  0.00     0.009 A 
ATOM     80  C   UNL A   1      45.538  34.836  30.808  1.00  0.00     0.001 A 
ATOM     81  C   UNL A   1      45.209  33.921  33.020  1.00  0.00     0.001 A 
ATOM     82  C   UNL A   1      45.556  34.989  32.194  1.00  0.00     0.000 A 
ENDBRANCH  64  77
ENDBRANCH  38  39
ENDBRANCH  30  33
ENDBRANCH  28  29
ENDBRANCH  27  28
ENDBRANCH   1  27
TORSDOF 15
ENDMDL
