MODEL 1
REMARK VINA RESULT:     -10.8      0.000      0.000
REMARK SMILES COCC[N@H+]1C[C@@H]2CN(c3nc(CO)cs3)C[C@@]2(C(=O)NCCCCNC(=O)c2ccc(-c3c4nc(c(-c5ccccc5)c5ccc([nH]5)c(-c5ccccc5)c5nc(c(-c6ccccc6)c6ccc3[nH]6)C=C5)C=C4)cc2)C1
REMARK SMILES IDX 23 1 22 2 21 3 19 4 20 5 18 7 5 8 6 9 77 10 7 12 8 13 17 14
REMARK SMILES IDX 9 15 4 16 3 17 2 18 1 19 10 20 11 21 16 22 12 23 15 24 13 25
REMARK SMILES IDX 14 26 24 28 25 29 26 30 27 31 28 33 29 34 30 35 76 36 31 37
REMARK SMILES IDX 75 38 32 39 33 40 34 41 69 42 35 43 74 44 68 45 70 46 36 47
REMARK SMILES IDX 73 48 67 49 66 50 37 52 59 53 44 54 58 55 45 56 48 57 57 58
REMARK SMILES IDX 71 59 46 60 47 61 56 63 72 64 49 65 38 66 39 67 43 68 40 69
REMARK SMILES IDX 42 70 41 71 60 72 61 73 65 74 62 75 64 76 63 77 50 78 51 79
REMARK SMILES IDX 55 80 52 81 54 82 53 83
REMARK H PARENT 21 6 5 11 14 27 26 32 70 51 48 62
REMARK Flexibility Score: inf
ROOT
ATOM      1  C   UNL A   1      37.371  21.474  24.471  1.00  0.00     0.023 C 
ENDROOT
BRANCH   1   2
ATOM      2  C   UNL A   1      35.850  21.576  24.544  1.00  0.00     0.116 C 
BRANCH   2   3
ATOM      3  N   UNL A   1      35.361  22.651  23.731  1.00  0.00    -0.355 N 
ATOM      4  C   UNL A   1      34.133  22.911  23.241  1.00  0.00     0.234 C 
ATOM      5  O   UNL A   1      34.182  23.439  22.117  1.00  0.00    -0.274 OA
ATOM      6  H   UNL A   1      36.044  23.318  23.487  1.00  0.00     0.163 HD
BRANCH   4   7
ATOM      7  C   UNL A   1      32.759  22.544  23.857  1.00  0.00     0.125 C 
ATOM      8  N   UNL A   1      32.459  24.471  25.154  1.00  0.00    -0.332 N 
ATOM      9  C   UNL A   1      32.825  23.418  26.109  1.00  0.00     0.269 C 
ATOM     10  C   UNL A   1      32.012  23.901  23.856  1.00  0.00     0.281 C 
ATOM     11  H   UNL A   1      33.308  24.964  24.878  1.00  0.00     0.348 HD
ATOM     12  C   UNL A   1      32.406  22.232  25.309  1.00  0.00     0.087 C 
ATOM     13  C   UNL A   1      32.690  20.794  25.584  1.00  0.00     0.129 C 
ATOM     14  C   UNL A   1      32.216  21.259  23.213  1.00  0.00     0.142 C 
ATOM     15  N   UNL A   1      32.439  20.218  24.262  1.00  0.00    -0.346 N 
BRANCH   8  16
ATOM     16  C   UNL A   1      31.878  25.692  25.691  1.00  0.00     0.291 C 
BRANCH  16  17
ATOM     17  C   UNL A   1      31.829  26.954  24.811  1.00  0.00     0.221 C 
BRANCH  17  18
ATOM     18  O   UNL A   1      30.519  27.488  24.616  1.00  0.00    -0.379 OA
ATOM     19  C   UNL A   1      29.612  26.601  23.985  1.00  0.00     0.195 C 
ENDBRANCH  17  18
ENDBRANCH  16  17
ENDBRANCH   8  16
BRANCH  15  20
ATOM     20  C   UNL A   1      32.832  18.945  24.014  1.00  0.00     0.185 A 
ATOM     21  N   UNL A   1      33.518  18.240  24.891  1.00  0.00    -0.223 NA
ATOM     22  S   UNL A   1      32.520  18.112  22.538  1.00  0.00    -0.105 S 
ATOM     23  C   UNL A   1      33.974  17.055  24.335  1.00  0.00     0.079 A 
ATOM     24  C   UNL A   1      33.436  16.772  23.096  1.00  0.00     0.095 A 
BRANCH  23  25
ATOM     25  C   UNL A   1      35.017  16.270  25.065  1.00  0.00     0.213 C 
BRANCH  25  26
ATOM     26  O   UNL A   1      34.604  14.942  25.342  1.00  0.00    -0.390 OA
ATOM     27  H   UNL A   1      35.368  14.420  25.636  1.00  0.00     0.211 HD
ENDBRANCH  25  26
ENDBRANCH  23  25
ENDBRANCH  15  20
ENDBRANCH   4   7
ENDBRANCH   2   3
ENDBRANCH   1   2
BRANCH   1  28
ATOM     28  C   UNL A   1      37.971  20.167  24.961  1.00  0.00     0.023 C 
BRANCH  28  29
ATOM     29  C   UNL A   1      39.064  20.340  25.998  1.00  0.00     0.116 C 
BRANCH  29  30
ATOM     30  N   UNL A   1      40.167  19.395  25.848  1.00  0.00    -0.352 N 
ATOM     31  C   UNL A   1      41.507  19.604  26.047  1.00  0.00     0.251 C 
ATOM     32  H   UNL A   1      39.914  18.487  25.568  1.00  0.00     0.163 HD
ATOM     33  O   UNL A   1      42.325  18.728  25.785  1.00  0.00    -0.269 OA
BRANCH  31  34
ATOM     34  C   UNL A   1      41.945  20.917  26.550  1.00  0.00     0.039 A 
ATOM     35  C   UNL A   1      42.317  21.905  25.639  1.00  0.00     0.014 A 
ATOM     36  C   UNL A   1      41.906  21.183  27.920  1.00  0.00     0.014 A 
ATOM     37  C   UNL A   1      42.589  23.191  26.104  1.00  0.00     0.010 A 
ATOM     38  C   UNL A   1      42.070  22.482  28.367  1.00  0.00     0.010 A 
ATOM     39  C   UNL A   1      42.433  23.493  27.467  1.00  0.00    -0.014 A 
BRANCH  39  40
ATOM     40  C   UNL A   1      42.695  24.850  27.997  1.00  0.00     0.031 A 
ATOM     41  C   UNL A   1      44.093  25.215  28.415  1.00  0.00     0.074 A 
ATOM     42  C   UNL A   1      41.677  25.712  28.177  1.00  0.00     0.049 A 
ATOM     43  N   UNL A   1      44.524  26.305  28.996  1.00  0.00    -0.248 NA
ATOM     44  C   UNL A   1      45.138  24.201  28.188  1.00  0.00     0.031 C 
ATOM     45  C   UNL A   1      40.272  25.452  27.857  1.00  0.00     0.029 A 
ATOM     46  N   UNL A   1      41.672  26.986  28.683  1.00  0.00    -0.354 N 
ATOM     47  C   UNL A   1      45.876  26.090  29.234  1.00  0.00     0.074 A 
ATOM     48  C   UNL A   1      46.180  24.748  28.792  1.00  0.00     0.031 C 
ATOM     49  C   UNL A   1      39.547  26.545  28.141  1.00  0.00     0.029 A 
ATOM     50  C   UNL A   1      40.429  27.568  28.696  1.00  0.00     0.049 A 
ATOM     51  H   UNL A   1      42.483  27.440  29.006  1.00  0.00     0.167 HD
ATOM     52  C   UNL A   1      46.792  26.944  29.746  1.00  0.00     0.031 A 
ATOM     53  C   UNL A   1      40.048  28.790  29.108  1.00  0.00     0.031 A 
ATOM     54  C   UNL A   1      46.491  28.289  30.150  1.00  0.00     0.049 A 
ATOM     55  C   UNL A   1      41.088  29.734  29.645  1.00  0.00     0.074 A 
ATOM     56  C   UNL A   1      47.351  29.260  30.629  1.00  0.00     0.029 A 
ATOM     57  N   UNL A   1      45.226  28.855  30.107  1.00  0.00    -0.354 N 
ATOM     58  N   UNL A   1      42.374  29.539  29.810  1.00  0.00    -0.248 NA
ATOM     59  C   UNL A   1      40.625  31.073  30.032  1.00  0.00     0.031 C 
ATOM     60  C   UNL A   1      46.598  30.406  30.906  1.00  0.00     0.029 A 
ATOM     61  C   UNL A   1      45.280  30.163  30.555  1.00  0.00     0.049 A 
ATOM     62  H   UNL A   1      44.410  28.394  29.804  1.00  0.00     0.167 HD
ATOM     63  C   UNL A   1      42.880  30.741  30.287  1.00  0.00     0.074 A 
ATOM     64  C   UNL A   1      41.764  31.660  30.373  1.00  0.00     0.031 C 
ATOM     65  C   UNL A   1      44.155  31.059  30.619  1.00  0.00     0.031 A 
BRANCH  52  66
ATOM     66  C   UNL A   1      48.199  26.437  29.888  1.00  0.00    -0.014 A 
ATOM     67  C   UNL A   1      48.635  25.825  31.075  1.00  0.00     0.009 A 
ATOM     68  C   UNL A   1      49.103  26.575  28.824  1.00  0.00     0.009 A 
ATOM     69  C   UNL A   1      49.960  25.404  31.210  1.00  0.00     0.001 A 
ATOM     70  C   UNL A   1      50.418  26.122  28.949  1.00  0.00     0.001 A 
ATOM     71  C   UNL A   1      50.848  25.549  30.146  1.00  0.00     0.000 A 
ENDBRANCH  52  66
BRANCH  53  72
ATOM     72  C   UNL A   1      38.629  29.212  28.985  1.00  0.00    -0.014 A 
ATOM     73  C   UNL A   1      37.767  29.122  30.088  1.00  0.00     0.009 A 
ATOM     74  C   UNL A   1      38.127  29.705  27.771  1.00  0.00     0.009 A 
ATOM     75  C   UNL A   1      36.424  29.487  29.971  1.00  0.00     0.001 A 
ATOM     76  C   UNL A   1      36.790  30.094  27.663  1.00  0.00     0.001 A 
ATOM     77  C   UNL A   1      35.937  29.976  28.760  1.00  0.00     0.000 A 
ENDBRANCH  53  72
BRANCH  65  78
ATOM     78  C   UNL A   1      44.417  32.472  31.053  1.00  0.00    -0.014 A 
ATOM     79  C   UNL A   1      44.745  33.473  30.126  1.00  0.00     0.009 A 
ATOM     80  C   UNL A   1      44.292  32.810  32.409  1.00  0.00     0.009 A 
ATOM     81  C   UNL A   1      44.977  34.780  30.556  1.00  0.00     0.001 A 
ATOM     82  C   UNL A   1      44.495  34.123  32.832  1.00  0.00     0.001 A 
ATOM     83  C   UNL A   1      44.847  35.105  31.907  1.00  0.00     0.000 A 
ENDBRANCH  65  78
ENDBRANCH  39  40
ENDBRANCH  31  34
ENDBRANCH  29  30
ENDBRANCH  28  29
ENDBRANCH   1  28
TORSDOF 17
ENDMDL
MODEL 2
REMARK VINA RESULT:     -10.7      4.406      9.920
REMARK SMILES COCC[N@H+]1C[C@@H]2CN(c3nc(CO)cs3)C[C@@]2(C(=O)NCCCCNC(=O)c2ccc(-c3c4nc(c(-c5ccccc5)c5ccc([nH]5)c(-c5ccccc5)c5nc(c(-c6ccccc6)c6ccc3[nH]6)C=C5)C=C4)cc2)C1
REMARK SMILES IDX 23 1 22 2 21 3 19 4 20 5 18 7 5 8 6 9 77 10 7 12 8 13 17 14
REMARK SMILES IDX 9 15 4 16 3 17 2 18 1 19 10 20 11 21 16 22 12 23 15 24 13 25
REMARK SMILES IDX 14 26 24 28 25 29 26 30 27 31 28 33 29 34 30 35 76 36 31 37
REMARK SMILES IDX 75 38 32 39 33 40 34 41 69 42 35 43 74 44 68 45 70 46 36 47
REMARK SMILES IDX 73 48 67 49 66 50 37 52 59 53 44 54 58 55 45 56 48 57 57 58
REMARK SMILES IDX 71 59 46 60 47 61 56 63 72 64 49 65 38 66 39 67 43 68 40 69
REMARK SMILES IDX 42 70 41 71 60 72 61 73 65 74 62 75 64 76 63 77 50 78 51 79
REMARK SMILES IDX 55 80 52 81 54 82 53 83
REMARK H PARENT 21 6 5 11 14 27 26 32 70 51 48 62
REMARK Flexibility Score: inf
ROOT
ATOM      1  C   UNL A   1      32.123  30.433  26.899  1.00  0.00     0.023 C 
ENDROOT
BRANCH   1   2
ATOM      2  C   UNL A   1      31.715  29.647  25.656  1.00  0.00     0.116 C 
BRANCH   2   3
ATOM      3  N   UNL A   1      31.481  28.266  25.966  1.00  0.00    -0.355 N 
ATOM      4  C   UNL A   1      30.987  27.257  25.223  1.00  0.00     0.234 C 
ATOM      5  O   UNL A   1      30.307  26.468  25.902  1.00  0.00    -0.274 OA
ATOM      6  H   UNL A   1      31.726  28.010  26.886  1.00  0.00     0.163 HD
BRANCH   4   7
ATOM      7  C   UNL A   1      31.091  27.057  23.690  1.00  0.00     0.125 C 
ATOM      8  N   UNL A   1      33.108  25.865  23.654  1.00  0.00    -0.332 N 
ATOM      9  C   UNL A   1      33.450  27.216  23.192  1.00  0.00     0.269 C 
ATOM     10  C   UNL A   1      31.644  25.614  23.572  1.00  0.00     0.281 C 
ATOM     11  H   UNL A   1      33.266  25.819  24.660  1.00  0.00     0.348 HD
ATOM     12  C   UNL A   1      32.105  27.638  22.708  1.00  0.00     0.087 C 
ATOM     13  C   UNL A   1      31.665  29.003  22.300  1.00  0.00     0.129 C 
ATOM     14  C   UNL A   1      29.807  27.548  23.003  1.00  0.00     0.142 C 
ATOM     15  N   UNL A   1      30.211  28.849  22.390  1.00  0.00    -0.346 N 
BRANCH   8  16
ATOM     16  C   UNL A   1      34.077  24.808  23.413  1.00  0.00     0.291 C 
BRANCH  16  17
ATOM     17  C   UNL A   1      33.641  23.547  22.643  1.00  0.00     0.221 C 
BRANCH  17  18
ATOM     18  O   UNL A   1      33.835  22.324  23.355  1.00  0.00    -0.379 OA
ATOM     19  C   UNL A   1      33.180  22.265  24.609  1.00  0.00     0.195 C 
ENDBRANCH  17  18
ENDBRANCH  16  17
ENDBRANCH   8  16
BRANCH  15  20
ATOM     20  C   UNL A   1      29.428  29.954  22.340  1.00  0.00     0.185 A 
ATOM     21  N   UNL A   1      28.920  30.402  21.209  1.00  0.00    -0.223 NA
ATOM     22  S   UNL A   1      29.030  30.914  23.714  1.00  0.00    -0.105 S 
ATOM     23  C   UNL A   1      28.331  31.645  21.382  1.00  0.00     0.079 A 
ATOM     24  C   UNL A   1      28.206  32.028  22.701  1.00  0.00     0.095 A 
BRANCH  23  25
ATOM     25  C   UNL A   1      27.975  32.448  20.172  1.00  0.00     0.213 C 
BRANCH  25  26
ATOM     26  O   UNL A   1      27.306  33.655  20.497  1.00  0.00    -0.390 OA
ATOM     27  H   UNL A   1      27.486  34.321  19.814  1.00  0.00     0.211 HD
ENDBRANCH  25  26
ENDBRANCH  23  25
ENDBRANCH  15  20
ENDBRANCH   4   7
ENDBRANCH   2   3
ENDBRANCH   1   2
BRANCH   1  28
ATOM     28  C   UNL A   1      31.597  31.855  26.985  1.00  0.00     0.023 C 
BRANCH  28  29
ATOM     29  C   UNL A   1      32.668  32.919  26.835  1.00  0.00     0.116 C 
BRANCH  29  30
ATOM     30  N   UNL A   1      32.383  34.144  27.575  1.00  0.00    -0.352 N 
ATOM     31  C   UNL A   1      33.066  34.684  28.634  1.00  0.00     0.251 C 
ATOM     32  H   UNL A   1      31.594  34.650  27.274  1.00  0.00     0.163 HD
ATOM     33  O   UNL A   1      32.640  35.679  29.214  1.00  0.00    -0.269 OA
BRANCH  31  34
ATOM     34  C   UNL A   1      34.303  34.024  29.081  1.00  0.00     0.039 A 
ATOM     35  C   UNL A   1      35.526  34.448  28.562  1.00  0.00     0.014 A 
ATOM     36  C   UNL A   1      34.246  33.043  30.073  1.00  0.00     0.014 A 
ATOM     37  C   UNL A   1      36.706  33.928  29.091  1.00  0.00     0.010 A 
ATOM     38  C   UNL A   1      35.417  32.609  30.669  1.00  0.00     0.010 A 
ATOM     39  C   UNL A   1      36.657  33.031  30.171  1.00  0.00    -0.014 A 
BRANCH  39  40
ATOM     40  C   UNL A   1      37.888  32.469  30.772  1.00  0.00     0.031 A 
ATOM     41  C   UNL A   1      38.504  31.240  30.164  1.00  0.00     0.074 A 
ATOM     42  C   UNL A   1      38.396  33.009  31.896  1.00  0.00     0.049 A 
ATOM     43  N   UNL A   1      39.516  30.527  30.586  1.00  0.00    -0.248 NA
ATOM     44  C   UNL A   1      37.870  30.717  28.940  1.00  0.00     0.031 C 
ATOM     45  C   UNL A   1      37.855  34.170  32.605  1.00  0.00     0.029 A 
ATOM     46  N   UNL A   1      39.485  32.640  32.642  1.00  0.00    -0.354 N 
ATOM     47  C   UNL A   1      39.613  29.459  29.703  1.00  0.00     0.074 A 
ATOM     48  C   UNL A   1      38.524  29.582  28.760  1.00  0.00     0.031 C 
ATOM     49  C   UNL A   1      38.635  34.440  33.664  1.00  0.00     0.029 A 
ATOM     50  C   UNL A   1      39.707  33.450  33.728  1.00  0.00     0.049 A 
ATOM     51  H   UNL A   1      40.053  31.867  32.422  1.00  0.00     0.167 HD
ATOM     52  C   UNL A   1      40.544  28.478  29.660  1.00  0.00     0.031 A 
ATOM     53  C   UNL A   1      40.670  33.399  34.666  1.00  0.00     0.031 A 
ATOM     54  C   UNL A   1      41.645  28.381  30.577  1.00  0.00     0.049 A 
ATOM     55  C   UNL A   1      41.712  32.319  34.580  1.00  0.00     0.074 A 
ATOM     56  C   UNL A   1      42.679  27.463  30.593  1.00  0.00     0.029 A 
ATOM     57  N   UNL A   1      41.858  29.248  31.638  1.00  0.00    -0.354 N 
ATOM     58  N   UNL A   1      41.827  31.349  33.706  1.00  0.00    -0.248 NA
ATOM     59  C   UNL A   1      42.768  32.340  35.600  1.00  0.00     0.031 C 
ATOM     60  C   UNL A   1      43.502  27.756  31.685  1.00  0.00     0.029 A 
ATOM     61  C   UNL A   1      43.007  28.884  32.319  1.00  0.00     0.049 A 
ATOM     62  H   UNL A   1      41.278  30.009  31.872  1.00  0.00     0.167 HD
ATOM     63  C   UNL A   1      42.986  30.666  34.048  1.00  0.00     0.074 A 
ATOM     64  C   UNL A   1      43.543  31.341  35.203  1.00  0.00     0.031 C 
ATOM     65  C   UNL A   1      43.545  29.581  33.458  1.00  0.00     0.031 A 
BRANCH  52  66
ATOM     66  C   UNL A   1      40.402  27.443  28.579  1.00  0.00    -0.014 A 
ATOM     67  C   UNL A   1      39.694  26.251  28.804  1.00  0.00     0.009 A 
ATOM     68  C   UNL A   1      40.984  27.660  27.322  1.00  0.00     0.009 A 
ATOM     69  C   UNL A   1      39.612  25.277  27.806  1.00  0.00     0.001 A 
ATOM     70  C   UNL A   1      40.872  26.700  26.315  1.00  0.00     0.001 A 
ATOM     71  C   UNL A   1      40.198  25.504  26.562  1.00  0.00     0.000 A 
ENDBRANCH  52  66
BRANCH  53  72
ATOM     72  C   UNL A   1      40.725  34.426  35.738  1.00  0.00    -0.014 A 
ATOM     73  C   UNL A   1      41.461  35.606  35.549  1.00  0.00     0.009 A 
ATOM     74  C   UNL A   1      40.046  34.237  36.951  1.00  0.00     0.009 A 
ATOM     75  C   UNL A   1      41.542  36.561  36.564  1.00  0.00     0.001 A 
ATOM     76  C   UNL A   1      40.107  35.207  37.955  1.00  0.00     0.001 A 
ATOM     77  C   UNL A   1      40.863  36.363  37.765  1.00  0.00     0.000 A 
ENDBRANCH  53  72
BRANCH  65  78
ATOM     78  C   UNL A   1      44.849  29.093  34.019  1.00  0.00    -0.014 A 
ATOM     79  C   UNL A   1      46.073  29.635  33.600  1.00  0.00     0.009 A 
ATOM     80  C   UNL A   1      44.843  28.102  35.012  1.00  0.00     0.009 A 
ATOM     81  C   UNL A   1      47.271  29.167  34.143  1.00  0.00     0.001 A 
ATOM     82  C   UNL A   1      46.040  27.657  35.573  1.00  0.00     0.001 A 
ATOM     83  C   UNL A   1      47.253  28.183  35.132  1.00  0.00     0.000 A 
ENDBRANCH  65  78
ENDBRANCH  39  40
ENDBRANCH  31  34
ENDBRANCH  29  30
ENDBRANCH  28  29
ENDBRANCH   1  28
TORSDOF 17
ENDMDL
MODEL 3
REMARK VINA RESULT:     -10.7      1.675      6.047
REMARK SMILES COCC[N@H+]1C[C@@H]2CN(c3nc(CO)cs3)C[C@@]2(C(=O)NCCCCNC(=O)c2ccc(-c3c4nc(c(-c5ccccc5)c5ccc([nH]5)c(-c5ccccc5)c5nc(c(-c6ccccc6)c6ccc3[nH]6)C=C5)C=C4)cc2)C1
REMARK SMILES IDX 23 1 22 2 21 3 19 4 20 5 18 7 5 8 6 9 77 10 7 12 8 13 17 14
REMARK SMILES IDX 9 15 4 16 3 17 2 18 1 19 10 20 11 21 16 22 12 23 15 24 13 25
REMARK SMILES IDX 14 26 24 28 25 29 26 30 27 31 28 33 29 34 30 35 76 36 31 37
REMARK SMILES IDX 75 38 32 39 33 40 34 41 69 42 35 43 74 44 68 45 70 46 36 47
REMARK SMILES IDX 73 48 67 49 66 50 37 52 59 53 44 54 58 55 45 56 48 57 57 58
REMARK SMILES IDX 71 59 46 60 47 61 56 63 72 64 49 65 38 66 39 67 43 68 40 69
REMARK SMILES IDX 42 70 41 71 60 72 61 73 65 74 62 75 64 76 63 77 50 78 51 79
REMARK SMILES IDX 55 80 52 81 54 82 53 83
REMARK H PARENT 21 6 5 11 14 27 26 32 70 51 48 62
REMARK Flexibility Score: inf
ROOT
ATOM      1  C   UNL A   1      37.414  21.476  24.637  1.00  0.00     0.023 C 
ENDROOT
BRANCH   1   2
ATOM      2  C   UNL A   1      35.908  21.535  24.872  1.00  0.00     0.116 C 
BRANCH   2   3
ATOM      3  N   UNL A   1      35.276  22.459  23.976  1.00  0.00    -0.355 N 
ATOM      4  C   UNL A   1      33.993  22.587  23.585  1.00  0.00     0.234 C 
ATOM      5  O   UNL A   1      33.902  22.953  22.400  1.00  0.00    -0.274 OA
ATOM      6  H   UNL A   1      35.889  23.118  23.575  1.00  0.00     0.163 HD
BRANCH   4   7
ATOM      7  C   UNL A   1      32.710  22.242  24.382  1.00  0.00     0.125 C 
ATOM      8  N   UNL A   1      32.475  24.280  25.515  1.00  0.00    -0.332 N 
ATOM      9  C   UNL A   1      32.984  23.338  26.519  1.00  0.00     0.269 C 
ATOM     10  C   UNL A   1      31.913  23.570  24.335  1.00  0.00     0.281 C 
ATOM     11  H   UNL A   1      33.269  24.767  25.100  1.00  0.00     0.348 HD
ATOM     12  C   UNL A   1      32.530  22.066  25.888  1.00  0.00     0.087 C 
ATOM     13  C   UNL A   1      32.899  20.672  26.266  1.00  0.00     0.129 C 
ATOM     14  C   UNL A   1      32.153  20.884  23.929  1.00  0.00     0.142 C 
ATOM     15  N   UNL A   1      32.530  19.960  25.041  1.00  0.00    -0.346 N 
BRANCH   8  16
ATOM     16  C   UNL A   1      31.907  25.529  25.994  1.00  0.00     0.291 C 
BRANCH  16  17
ATOM     17  C   UNL A   1      31.883  26.754  25.060  1.00  0.00     0.221 C 
BRANCH  17  18
ATOM     18  O   UNL A   1      32.707  27.839  25.488  1.00  0.00    -0.379 OA
ATOM     19  C   UNL A   1      32.313  29.105  24.991  1.00  0.00     0.195 C 
ENDBRANCH  17  18
ENDBRANCH  16  17
ENDBRANCH   8  16
BRANCH  15  20
ATOM     20  C   UNL A   1      32.944  18.680  24.873  1.00  0.00     0.185 A 
ATOM     21  N   UNL A   1      32.190  17.650  25.202  1.00  0.00    -0.223 NA
ATOM     22  S   UNL A   1      34.491  18.244  24.251  1.00  0.00    -0.105 S 
ATOM     23  C   UNL A   1      32.903  16.464  25.129  1.00  0.00     0.079 A 
ATOM     24  C   UNL A   1      34.139  16.587  24.528  1.00  0.00     0.095 A 
BRANCH  23  25
ATOM     25  C   UNL A   1      32.321  15.234  25.751  1.00  0.00     0.213 C 
BRANCH  25  26
ATOM     26  O   UNL A   1      33.142  14.092  25.569  1.00  0.00    -0.390 OA
ATOM     27  H   UNL A   1      32.937  13.678  24.715  1.00  0.00     0.211 HD
ENDBRANCH  25  26
ENDBRANCH  23  25
ENDBRANCH  15  20
ENDBRANCH   4   7
ENDBRANCH   2   3
ENDBRANCH   1   2
BRANCH   1  28
ATOM     28  C   UNL A   1      38.090  20.165  25.001  1.00  0.00     0.023 C 
BRANCH  28  29
ATOM     29  C   UNL A   1      39.235  20.315  25.985  1.00  0.00     0.116 C 
BRANCH  29  30
ATOM     30  N   UNL A   1      40.166  19.189  25.974  1.00  0.00    -0.352 N 
ATOM     31  C   UNL A   1      41.528  19.203  26.126  1.00  0.00     0.251 C 
ATOM     32  H   UNL A   1      39.760  18.303  25.841  1.00  0.00     0.163 HD
ATOM     33  O   UNL A   1      42.184  18.174  25.996  1.00  0.00    -0.269 OA
BRANCH  31  34
ATOM     34  C   UNL A   1      42.189  20.486  26.415  1.00  0.00     0.039 A 
ATOM     35  C   UNL A   1      42.612  21.287  25.354  1.00  0.00     0.014 A 
ATOM     36  C   UNL A   1      42.310  20.922  27.735  1.00  0.00     0.014 A 
ATOM     37  C   UNL A   1      43.102  22.565  25.621  1.00  0.00     0.010 A 
ATOM     38  C   UNL A   1      42.694  22.227  27.989  1.00  0.00     0.010 A 
ATOM     39  C   UNL A   1      43.113  23.053  26.937  1.00  0.00    -0.014 A 
BRANCH  39  40
ATOM     40  C   UNL A   1      43.610  24.410  27.259  1.00  0.00     0.031 A 
ATOM     41  C   UNL A   1      42.635  25.454  27.729  1.00  0.00     0.074 A 
ATOM     42  C   UNL A   1      44.904  24.720  27.054  1.00  0.00     0.049 A 
ATOM     43  N   UNL A   1      42.835  26.724  27.967  1.00  0.00    -0.248 NA
ATOM     44  C   UNL A   1      41.238  25.020  27.914  1.00  0.00     0.031 C 
ATOM     45  C   UNL A   1      45.932  23.807  26.553  1.00  0.00     0.029 A 
ATOM     46  N   UNL A   1      45.571  25.904  27.239  1.00  0.00    -0.354 N 
ATOM     47  C   UNL A   1      41.587  27.242  28.293  1.00  0.00     0.074 A 
ATOM     48  C   UNL A   1      40.630  26.168  28.163  1.00  0.00     0.031 C 
ATOM     49  C   UNL A   1      47.108  24.453  26.504  1.00  0.00     0.029 A 
ATOM     50  C   UNL A   1      46.908  25.833  26.934  1.00  0.00     0.049 A 
ATOM     51  H   UNL A   1      45.134  26.725  27.559  1.00  0.00     0.167 HD
ATOM     52  C   UNL A   1      41.269  28.494  28.695  1.00  0.00     0.031 A 
ATOM     53  C   UNL A   1      47.863  26.779  26.999  1.00  0.00     0.031 A 
ATOM     54  C   UNL A   1      42.231  29.549  28.858  1.00  0.00     0.049 A 
ATOM     55  C   UNL A   1      47.493  28.155  27.479  1.00  0.00     0.074 A 
ATOM     56  C   UNL A   1      42.030  30.839  29.314  1.00  0.00     0.029 A 
ATOM     57  N   UNL A   1      43.584  29.425  28.580  1.00  0.00    -0.354 N 
ATOM     58  N   UNL A   1      46.320  28.616  27.840  1.00  0.00    -0.248 NA
ATOM     59  C   UNL A   1      48.584  29.133  27.578  1.00  0.00     0.031 C 
ATOM     60  C   UNL A   1      43.259  31.506  29.280  1.00  0.00     0.029 A 
ATOM     61  C   UNL A   1      44.231  30.617  28.850  1.00  0.00     0.049 A 
ATOM     62  H   UNL A   1      44.018  28.609  28.239  1.00  0.00     0.167 HD
ATOM     63  C   UNL A   1      46.538  29.927  28.243  1.00  0.00     0.074 A 
ATOM     64  C   UNL A   1      47.956  30.181  28.092  1.00  0.00     0.031 C 
ATOM     65  C   UNL A   1      45.646  30.839  28.702  1.00  0.00     0.031 A 
BRANCH  52  66
ATOM     66  C   UNL A   1      39.822  28.775  28.988  1.00  0.00    -0.014 A 
ATOM     67  C   UNL A   1      38.969  29.296  28.001  1.00  0.00     0.009 A 
ATOM     68  C   UNL A   1      39.304  28.520  30.266  1.00  0.00     0.009 A 
ATOM     69  C   UNL A   1      37.639  29.597  28.301  1.00  0.00     0.001 A 
ATOM     70  C   UNL A   1      37.966  28.791  30.554  1.00  0.00     0.001 A 
ATOM     71  C   UNL A   1      37.138  29.341  29.576  1.00  0.00     0.000 A 
ENDBRANCH  52  66
BRANCH  53  72
ATOM     72  C   UNL A   1      49.268  26.447  26.648  1.00  0.00    -0.014 A 
ATOM     73  C   UNL A   1      49.744  26.672  25.348  1.00  0.00     0.009 A 
ATOM     74  C   UNL A   1      50.140  25.906  27.605  1.00  0.00     0.009 A 
ATOM     75  C   UNL A   1      51.053  26.334  25.003  1.00  0.00     0.001 A 
ATOM     76  C   UNL A   1      51.458  25.593  27.265  1.00  0.00     0.001 A 
ATOM     77  C   UNL A   1      51.911  25.798  25.962  1.00  0.00     0.000 A 
ENDBRANCH  53  72
BRANCH  65  78
ATOM     78  C   UNL A   1      46.188  32.174  29.124  1.00  0.00    -0.014 A 
ATOM     79  C   UNL A   1      46.261  33.250  28.227  1.00  0.00     0.009 A 
ATOM     80  C   UNL A   1      46.593  32.363  30.454  1.00  0.00     0.009 A 
ATOM     81  C   UNL A   1      46.764  34.482  28.648  1.00  0.00     0.001 A 
ATOM     82  C   UNL A   1      47.067  33.603  30.879  1.00  0.00     0.001 A 
ATOM     83  C   UNL A   1      47.161  34.659  29.973  1.00  0.00     0.000 A 
ENDBRANCH  65  78
ENDBRANCH  39  40
ENDBRANCH  31  34
ENDBRANCH  29  30
ENDBRANCH  28  29
ENDBRANCH   1  28
TORSDOF 17
ENDMDL
