MODEL 1
REMARK VINA RESULT:     -12.5      0.000      0.000
REMARK SMILES O=C(NCCCCNC(=O)c1cc(Cl)cc(Cl)c1NC(=S)NC(=O)c1cccc2ccccc12)c1ccc(-c2c3nc(c(-c4ccccc4)c4ccc([nH]4)c(-c4ccccc4)c4nc(c(-c5ccccc5)c5ccc2[nH]5)C=C4)C=C3)cc1
REMARK SMILES IDX 6 1 5 2 4 3 3 4 1 5 2 6 35 8 36 9 82 10 37 11 81 12 38 13
REMARK SMILES IDX 39 14 40 15 75 16 41 17 80 18 74 19 76 20 42 21 79 22 73 23
REMARK SMILES IDX 72 24 43 26 65 27 50 28 64 29 51 30 54 31 63 32 77 33 52 34
REMARK SMILES IDX 53 35 62 37 78 38 55 39 44 40 45 41 49 42 46 43 48 44 47 45
REMARK SMILES IDX 66 46 67 47 71 48 68 49 70 50 69 51 56 52 57 53 61 54 58 55
REMARK SMILES IDX 60 56 59 57 7 58 8 59 9 60 10 62 11 63 12 64 18 65 13 66
REMARK SMILES IDX 16 67 14 68 15 69 17 70 19 71 20 73 21 74 22 75 23 76 24 78
REMARK SMILES IDX 25 79 26 80 34 81 27 82 29 83 33 84 28 85 30 86 32 87 31 88
REMARK H PARENT 3 7 76 25 54 36 8 61 19 72 22 77
REMARK Flexibility Score: inf
ROOT
ATOM      1  C   UNL A   1      36.791  21.444  24.368  1.00  0.00     0.023 C 
ENDROOT
BRANCH   1   2
ATOM      2  C   UNL A   1      37.568  20.274  24.972  1.00  0.00     0.023 C 
BRANCH   2   3
ATOM      3  C   UNL A   1      38.842  20.634  25.728  1.00  0.00     0.116 C 
BRANCH   3   4
ATOM      4  N   UNL A   1      39.901  19.645  25.603  1.00  0.00    -0.352 N 
ATOM      5  O   UNL A   1      41.993  18.811  25.734  1.00  0.00    -0.269 OA
ATOM      6  C   UNL A   1      41.224  19.738  25.966  1.00  0.00     0.251 C 
ATOM      7  H   UNL A   1      39.632  18.786  25.203  1.00  0.00     0.163 HD
BRANCH   6   8
ATOM      8  C   UNL A   1      41.733  20.980  26.588  1.00  0.00     0.039 A 
ATOM      9  C   UNL A   1      41.802  21.115  27.976  1.00  0.00     0.014 A 
ATOM     10  C   UNL A   1      42.126  22.036  25.758  1.00  0.00     0.014 A 
ATOM     11  C   UNL A   1      42.123  22.351  28.531  1.00  0.00     0.010 A 
ATOM     12  C   UNL A   1      42.503  23.260  26.317  1.00  0.00     0.010 A 
ATOM     13  C   UNL A   1      42.457  23.438  27.707  1.00  0.00    -0.014 A 
BRANCH  13  14
ATOM     14  C   UNL A   1      42.737  24.752  28.334  1.00  0.00     0.031 A 
ATOM     15  C   UNL A   1      44.149  25.191  28.602  1.00  0.00     0.074 A 
ATOM     16  C   UNL A   1      41.714  25.594  28.573  1.00  0.00     0.049 A 
ATOM     17  N   UNL A   1      44.581  26.353  29.023  1.00  0.00    -0.248 NA
ATOM     18  C   UNL A   1      45.214  24.201  28.373  1.00  0.00     0.031 C 
ATOM     19  C   UNL A   1      40.299  25.285  28.359  1.00  0.00     0.029 A 
ATOM     20  N   UNL A   1      41.715  26.897  28.996  1.00  0.00    -0.354 N 
ATOM     21  C   UNL A   1      45.960  26.228  29.135  1.00  0.00     0.074 A 
ATOM     22  C   UNL A   1      46.295  24.876  28.738  1.00  0.00     0.031 C 
ATOM     23  C   UNL A   1      39.575  26.394  28.577  1.00  0.00     0.029 A 
ATOM     24  C   UNL A   1      40.472  27.478  28.965  1.00  0.00     0.049 A 
ATOM     25  H   UNL A   1      42.526  27.370  29.293  1.00  0.00     0.167 HD
ATOM     26  C   UNL A   1      46.866  27.152  29.532  1.00  0.00     0.031 A 
ATOM     27  C   UNL A   1      40.098  28.749  29.191  1.00  0.00     0.031 A 
ATOM     28  C   UNL A   1      46.548  28.503  29.908  1.00  0.00     0.049 A 
ATOM     29  C   UNL A   1      41.127  29.773  29.558  1.00  0.00     0.074 A 
ATOM     30  C   UNL A   1      47.401  29.503  30.345  1.00  0.00     0.029 A 
ATOM     31  N   UNL A   1      45.276  29.047  29.872  1.00  0.00    -0.354 N 
ATOM     32  N   UNL A   1      42.423  29.630  29.678  1.00  0.00    -0.248 NA
ATOM     33  C   UNL A   1      40.638  31.134  29.824  1.00  0.00     0.031 C 
ATOM     34  C   UNL A   1      46.640  30.654  30.578  1.00  0.00     0.029 A 
ATOM     35  C   UNL A   1      45.319  30.371  30.272  1.00  0.00     0.049 A 
ATOM     36  H   UNL A   1      44.462  28.565  29.602  1.00  0.00     0.167 HD
ATOM     37  C   UNL A   1      42.906  30.877  30.047  1.00  0.00     0.074 A 
ATOM     38  C   UNL A   1      41.768  31.772  30.103  1.00  0.00     0.031 C 
ATOM     39  C   UNL A   1      44.178  31.242  30.331  1.00  0.00     0.031 A 
BRANCH  26  40
ATOM     40  C   UNL A   1      48.298  26.717  29.599  1.00  0.00    -0.014 A 
ATOM     41  C   UNL A   1      48.802  26.077  30.740  1.00  0.00     0.009 A 
ATOM     42  C   UNL A   1      49.143  26.922  28.497  1.00  0.00     0.009 A 
ATOM     43  C   UNL A   1      50.136  25.667  30.783  1.00  0.00     0.001 A 
ATOM     44  C   UNL A   1      50.473  26.501  28.540  1.00  0.00     0.001 A 
ATOM     45  C   UNL A   1      50.969  25.877  29.684  1.00  0.00     0.000 A 
ENDBRANCH  26  40
BRANCH  27  46
ATOM     46  C   UNL A   1      38.676  29.127  29.030  1.00  0.00    -0.014 A 
ATOM     47  C   UNL A   1      37.805  29.064  30.127  1.00  0.00     0.009 A 
ATOM     48  C   UNL A   1      38.195  29.582  27.795  1.00  0.00     0.009 A 
ATOM     49  C   UNL A   1      36.469  29.445  29.988  1.00  0.00     0.001 A 
ATOM     50  C   UNL A   1      36.861  29.973  27.662  1.00  0.00     0.001 A 
ATOM     51  C   UNL A   1      35.999  29.901  28.757  1.00  0.00     0.000 A 
ENDBRANCH  27  46
BRANCH  39  52
ATOM     52  C   UNL A   1      44.393  32.665  30.744  1.00  0.00    -0.014 A 
ATOM     53  C   UNL A   1      44.380  33.017  32.102  1.00  0.00     0.009 A 
ATOM     54  C   UNL A   1      44.628  33.653  29.779  1.00  0.00     0.009 A 
ATOM     55  C   UNL A   1      44.578  34.344  32.486  1.00  0.00     0.001 A 
ATOM     56  C   UNL A   1      44.834  34.978  30.167  1.00  0.00     0.001 A 
ATOM     57  C   UNL A   1      44.805  35.322  31.518  1.00  0.00     0.000 A 
ENDBRANCH  39  52
ENDBRANCH  13  14
ENDBRANCH   6   8
ENDBRANCH   3   4
ENDBRANCH   2   3
ENDBRANCH   1   2
BRANCH   1  58
ATOM     58  C   UNL A   1      36.961  22.788  25.069  1.00  0.00     0.116 C 
BRANCH  58  59
ATOM     59  N   UNL A   1      36.117  22.931  26.239  1.00  0.00    -0.352 N 
ATOM     60  C   UNL A   1      34.805  22.608  26.524  1.00  0.00     0.253 C 
ATOM     61  H   UNL A   1      36.582  23.353  26.998  1.00  0.00     0.163 HD
ATOM     62  O   UNL A   1      34.403  22.944  27.644  1.00  0.00    -0.269 OA
BRANCH  60  63
ATOM     63  C   UNL A   1      33.674  21.954  25.313  1.00  0.00     0.066 A 
ATOM     64  C   UNL A   1      33.221  19.997  24.899  1.00  0.00     0.036 A 
ATOM     65  C   UNL A   1      33.269  23.160  25.074  1.00  0.00     0.072 A 
ATOM     66  C   UNL A   1      32.421  19.154  24.340  1.00  0.00     0.043 A 
ATOM     67  C   UNL A   1      33.385  22.184  24.242  1.00  0.00     0.066 A 
ATOM     68  Cl  UNL A   1      32.615  17.534  23.921  1.00  0.00    -0.084 Cl
ATOM     69  C   UNL A   1      32.977  20.213  23.881  1.00  0.00     0.043 A 
ATOM     70  Cl  UNL A   1      34.153  23.641  22.888  1.00  0.00    -0.082 Cl
BRANCH  65  71
ATOM     71  N   UNL A   1      32.263  23.804  25.820  1.00  0.00    -0.330 N 
ATOM     72  H   UNL A   1      32.631  24.477  26.436  1.00  0.00     0.169 HD
BRANCH  71  73
ATOM     73  C   UNL A   1      30.915  23.723  25.900  1.00  0.00     0.177 C 
ATOM     74  S   UNL A   1      30.273  22.605  26.972  1.00  0.00    -0.040 S 
BRANCH  73  75
ATOM     75  N   UNL A   1      30.034  24.482  25.190  1.00  0.00    -0.299 N 
ATOM     76  C   UNL A   1      29.932  25.824  24.896  1.00  0.00     0.258 C 
ATOM     77  H   UNL A   1      29.305  23.950  24.796  1.00  0.00     0.172 HD
ATOM     78  O   UNL A   1      28.935  26.351  24.426  1.00  0.00    -0.269 OA
BRANCH  76  79
ATOM     79  C   UNL A   1      31.099  26.609  25.247  1.00  0.00     0.048 A 
ATOM     80  C   UNL A   1      31.118  27.440  27.025  1.00  0.00     0.014 A 
ATOM     81  C   UNL A   1      32.248  27.124  23.709  1.00  0.00    -0.006 A 
ATOM     82  C   UNL A   1      32.313  28.934  27.500  1.00  0.00     0.001 A 
ATOM     83  C   UNL A   1      33.449  28.649  24.174  1.00  0.00    -0.018 A 
ATOM     84  C   UNL A   1      32.432  26.575  22.424  1.00  0.00     0.009 A 
ATOM     85  C   UNL A   1      33.451  29.490  25.957  1.00  0.00     0.009 A 
ATOM     86  C   UNL A   1      34.338  28.964  23.149  1.00  0.00     0.009 A 
ATOM     87  C   UNL A   1      33.441  27.122  21.603  1.00  0.00     0.001 A 
ATOM     88  C   UNL A   1      34.317  28.222  21.939  1.00  0.00     0.001 A 
ENDBRANCH  76  79
ENDBRANCH  73  75
ENDBRANCH  71  73
ENDBRANCH  65  71
ENDBRANCH  60  63
ENDBRANCH  58  59
ENDBRANCH   1  58
TORSDOF 15
ENDMDL
MODEL 2
REMARK VINA RESULT:     -12.4      0.543      5.652
REMARK SMILES O=C(NCCCCNC(=O)c1cc(Cl)cc(Cl)c1NC(=S)NC(=O)c1cccc2ccccc12)c1ccc(-c2c3nc(c(-c4ccccc4)c4ccc([nH]4)c(-c4ccccc4)c4nc(c(-c5ccccc5)c5ccc2[nH]5)C=C4)C=C3)cc1
REMARK SMILES IDX 6 1 5 2 4 3 3 4 1 5 2 6 35 8 36 9 82 10 37 11 81 12 38 13
REMARK SMILES IDX 39 14 40 15 75 16 41 17 80 18 74 19 76 20 42 21 79 22 73 23
REMARK SMILES IDX 72 24 43 26 65 27 50 28 64 29 51 30 54 31 63 32 77 33 52 34
REMARK SMILES IDX 53 35 62 37 78 38 55 39 44 40 45 41 49 42 46 43 48 44 47 45
REMARK SMILES IDX 66 46 67 47 71 48 68 49 70 50 69 51 56 52 57 53 61 54 58 55
REMARK SMILES IDX 60 56 59 57 7 58 8 59 9 60 10 62 11 63 12 64 18 65 13 66
REMARK SMILES IDX 16 67 14 68 15 69 17 70 19 71 20 73 21 74 22 75 23 76 24 78
REMARK SMILES IDX 25 79 26 80 34 81 27 82 29 83 33 84 28 85 30 86 32 87 31 88
REMARK H PARENT 3 7 76 25 54 36 8 61 19 72 22 77
REMARK Flexibility Score: inf
ROOT
ATOM      1  C   UNL A   1      36.805  21.563  24.349  1.00  0.00     0.023 C 
ENDROOT
BRANCH   1   2
ATOM      2  C   UNL A   1      37.568  20.396  24.975  1.00  0.00     0.023 C 
BRANCH   2   3
ATOM      3  C   UNL A   1      38.837  20.757  25.739  1.00  0.00     0.116 C 
BRANCH   3   4
ATOM      4  N   UNL A   1      39.856  19.718  25.712  1.00  0.00    -0.352 N 
ATOM      5  O   UNL A   1      41.910  18.815  25.941  1.00  0.00    -0.269 OA
ATOM      6  C   UNL A   1      41.179  19.789  26.082  1.00  0.00     0.251 C 
ATOM      7  H   UNL A   1      39.556  18.840  25.383  1.00  0.00     0.163 HD
BRANCH   6   8
ATOM      8  C   UNL A   1      41.732  21.059  26.603  1.00  0.00     0.039 A 
ATOM      9  C   UNL A   1      41.756  21.326  27.973  1.00  0.00     0.014 A 
ATOM     10  C   UNL A   1      42.215  22.005  25.692  1.00  0.00     0.014 A 
ATOM     11  C   UNL A   1      42.125  22.593  28.419  1.00  0.00     0.010 A 
ATOM     12  C   UNL A   1      42.638  23.257  26.146  1.00  0.00     0.010 A 
ATOM     13  C   UNL A   1      42.550  23.574  27.509  1.00  0.00    -0.014 A 
BRANCH  13  14
ATOM     14  C   UNL A   1      42.879  24.928  28.017  1.00  0.00     0.031 A 
ATOM     15  C   UNL A   1      41.795  25.934  28.281  1.00  0.00     0.074 A 
ATOM     16  C   UNL A   1      44.155  25.215  28.335  1.00  0.00     0.049 A 
ATOM     17  N   UNL A   1      41.888  27.113  28.845  1.00  0.00    -0.248 NA
ATOM     18  C   UNL A   1      40.431  25.578  27.858  1.00  0.00     0.031 C 
ATOM     19  C   UNL A   1      45.298  24.325  28.122  1.00  0.00     0.029 A 
ATOM     20  N   UNL A   1      44.692  26.315  28.950  1.00  0.00    -0.354 N 
ATOM     21  C   UNL A   1      40.607  27.649  28.820  1.00  0.00     0.074 A 
ATOM     22  C   UNL A   1      39.751  26.668  28.186  1.00  0.00     0.031 C 
ATOM     23  C   UNL A   1      46.389  24.881  28.672  1.00  0.00     0.029 A 
ATOM     24  C   UNL A   1      46.023  26.170  29.252  1.00  0.00     0.049 A 
ATOM     25  H   UNL A   1      44.176  27.127  29.156  1.00  0.00     0.167 HD
ATOM     26  C   UNL A   1      40.181  28.847  29.282  1.00  0.00     0.031 A 
ATOM     27  C   UNL A   1      46.852  26.969  29.946  1.00  0.00     0.031 A 
ATOM     28  C   UNL A   1      41.016  29.820  29.932  1.00  0.00     0.049 A 
ATOM     29  C   UNL A   1      46.341  28.258  30.511  1.00  0.00     0.074 A 
ATOM     30  C   UNL A   1      40.673  31.073  30.412  1.00  0.00     0.029 A 
ATOM     31  N   UNL A   1      42.360  29.638  30.208  1.00  0.00    -0.354 N 
ATOM     32  N   UNL A   1      45.131  28.757  30.460  1.00  0.00    -0.248 NA
ATOM     33  C   UNL A   1      47.313  29.096  31.228  1.00  0.00     0.031 C 
ATOM     34  C   UNL A   1      41.815  31.651  30.978  1.00  0.00     0.029 A 
ATOM     35  C   UNL A   1      42.862  30.752  30.859  1.00  0.00     0.049 A 
ATOM     36  H   UNL A   1      42.882  28.837  29.975  1.00  0.00     0.167 HD
ATOM     37  C   UNL A   1      45.197  29.973  31.124  1.00  0.00     0.074 A 
ATOM     38  C   UNL A   1      46.558  30.123  31.596  1.00  0.00     0.031 C 
ATOM     39  C   UNL A   1      44.218  30.889  31.312  1.00  0.00     0.031 A 
BRANCH  26  40
ATOM     40  C   UNL A   1      38.734  29.181  29.077  1.00  0.00    -0.014 A 
ATOM     41  C   UNL A   1      37.815  29.068  30.130  1.00  0.00     0.009 A 
ATOM     42  C   UNL A   1      38.294  29.642  27.827  1.00  0.00     0.009 A 
ATOM     43  C   UNL A   1      36.472  29.393  29.927  1.00  0.00     0.001 A 
ATOM     44  C   UNL A   1      36.953  29.977  27.631  1.00  0.00     0.001 A 
ATOM     45  C   UNL A   1      36.043  29.849  28.681  1.00  0.00     0.000 A 
ENDBRANCH  26  40
BRANCH  27  46
ATOM     46  C   UNL A   1      48.249  26.541  30.178  1.00  0.00    -0.014 A 
ATOM     47  C   UNL A   1      48.569  25.774  31.307  1.00  0.00     0.009 A 
ATOM     48  C   UNL A   1      49.257  26.867  29.259  1.00  0.00     0.009 A 
ATOM     49  C   UNL A   1      49.882  25.345  31.517  1.00  0.00     0.001 A 
ATOM     50  C   UNL A   1      50.565  26.427  29.467  1.00  0.00     0.001 A 
ATOM     51  C   UNL A   1      50.877  25.669  30.596  1.00  0.00     0.000 A 
ENDBRANCH  27  46
BRANCH  39  52
ATOM     52  C   UNL A   1      44.599  32.140  32.040  1.00  0.00    -0.014 A 
ATOM     53  C   UNL A   1      45.078  33.253  31.333  1.00  0.00     0.009 A 
ATOM     54  C   UNL A   1      44.463  32.215  33.433  1.00  0.00     0.009 A 
ATOM     55  C   UNL A   1      45.435  34.418  32.014  1.00  0.00     0.001 A 
ATOM     56  C   UNL A   1      44.813  33.385  34.110  1.00  0.00     0.001 A 
ATOM     57  C   UNL A   1      45.302  34.482  33.401  1.00  0.00     0.000 A 
ENDBRANCH  39  52
ENDBRANCH  13  14
ENDBRANCH   6   8
ENDBRANCH   3   4
ENDBRANCH   2   3
ENDBRANCH   1   2
BRANCH   1  58
ATOM     58  C   UNL A   1      36.921  22.900  25.076  1.00  0.00     0.116 C 
BRANCH  58  59
ATOM     59  N   UNL A   1      36.071  22.987  26.247  1.00  0.00    -0.352 N 
ATOM     60  C   UNL A   1      34.767  22.624  26.519  1.00  0.00     0.253 C 
ATOM     61  H   UNL A   1      36.525  23.396  27.019  1.00  0.00     0.163 HD
ATOM     62  O   UNL A   1      34.356  22.916  27.647  1.00  0.00    -0.269 OA
BRANCH  60  63
ATOM     63  C   UNL A   1      33.655  21.981  25.286  1.00  0.00     0.066 A 
ATOM     64  C   UNL A   1      33.200  20.028  24.855  1.00  0.00     0.036 A 
ATOM     65  C   UNL A   1      33.260  23.190  25.045  1.00  0.00     0.072 A 
ATOM     66  C   UNL A   1      32.405  19.191  24.279  1.00  0.00     0.043 A 
ATOM     67  C   UNL A   1      33.385  22.217  24.211  1.00  0.00     0.066 A 
ATOM     68  Cl  UNL A   1      32.599  17.572  23.856  1.00  0.00    -0.084 Cl
ATOM     69  C   UNL A   1      32.974  20.250  23.834  1.00  0.00     0.043 A 
ATOM     70  Cl  UNL A   1      34.184  23.675  22.877  1.00  0.00    -0.082 Cl
BRANCH  65  71
ATOM     71  N   UNL A   1      32.243  23.835  25.777  1.00  0.00    -0.330 N 
ATOM     72  H   UNL A   1      32.601  24.530  26.374  1.00  0.00     0.169 HD
BRANCH  71  73
ATOM     73  C   UNL A   1      30.898  23.734  25.861  1.00  0.00     0.177 C 
ATOM     74  S   UNL A   1      30.277  22.566  26.892  1.00  0.00    -0.040 S 
BRANCH  73  75
ATOM     75  N   UNL A   1      30.002  24.507  25.186  1.00  0.00    -0.299 N 
ATOM     76  C   UNL A   1      29.895  25.855  24.922  1.00  0.00     0.258 C 
ATOM     77  H   UNL A   1      29.263  23.984  24.798  1.00  0.00     0.172 HD
ATOM     78  O   UNL A   1      28.889  26.391  24.485  1.00  0.00    -0.269 OA
BRANCH  76  79
ATOM     79  C   UNL A   1      31.070  26.632  25.262  1.00  0.00     0.048 A 
ATOM     80  C   UNL A   1      31.107  27.470  27.036  1.00  0.00     0.014 A 
ATOM     81  C   UNL A   1      32.215  27.129  23.714  1.00  0.00    -0.006 A 
ATOM     82  C   UNL A   1      32.318  28.956  27.497  1.00  0.00     0.001 A 
ATOM     83  C   UNL A   1      33.431  28.647  24.166  1.00  0.00    -0.018 A 
ATOM     84  C   UNL A   1      32.386  26.572  22.431  1.00  0.00     0.009 A 
ATOM     85  C   UNL A   1      33.452  29.496  25.944  1.00  0.00     0.009 A 
ATOM     86  C   UNL A   1      34.317  28.949  23.133  1.00  0.00     0.009 A 
ATOM     87  C   UNL A   1      33.395  27.107  21.602  1.00  0.00     0.001 A 
ATOM     88  C   UNL A   1      34.283  28.201  21.927  1.00  0.00     0.001 A 
ENDBRANCH  76  79
ENDBRANCH  73  75
ENDBRANCH  71  73
ENDBRANCH  65  71
ENDBRANCH  60  63
ENDBRANCH  58  59
ENDBRANCH   1  58
TORSDOF 15
ENDMDL
MODEL 3
REMARK VINA RESULT:     -12.0      3.722      8.776
REMARK SMILES O=C(NCCCCNC(=O)c1cc(Cl)cc(Cl)c1NC(=S)NC(=O)c1cccc2ccccc12)c1ccc(-c2c3nc(c(-c4ccccc4)c4ccc([nH]4)c(-c4ccccc4)c4nc(c(-c5ccccc5)c5ccc2[nH]5)C=C4)C=C3)cc1
REMARK SMILES IDX 6 1 5 2 4 3 3 4 1 5 2 6 35 8 36 9 82 10 37 11 81 12 38 13
REMARK SMILES IDX 39 14 40 15 75 16 41 17 80 18 74 19 76 20 42 21 79 22 73 23
REMARK SMILES IDX 72 24 43 26 65 27 50 28 64 29 51 30 54 31 63 32 77 33 52 34
REMARK SMILES IDX 53 35 62 37 78 38 55 39 44 40 45 41 49 42 46 43 48 44 47 45
REMARK SMILES IDX 66 46 67 47 71 48 68 49 70 50 69 51 56 52 57 53 61 54 58 55
REMARK SMILES IDX 60 56 59 57 7 58 8 59 9 60 10 62 11 63 12 64 18 65 13 66
REMARK SMILES IDX 16 67 14 68 15 69 17 70 19 71 20 73 21 74 22 75 23 76 24 78
REMARK SMILES IDX 25 79 26 80 34 81 27 82 29 83 33 84 28 85 30 86 32 87 31 88
REMARK H PARENT 3 7 76 25 54 36 8 61 19 72 22 77
REMARK Flexibility Score: inf
ROOT
ATOM      1  C   UNL A   1      31.670  30.487  25.531  1.00  0.00     0.023 C 
ENDROOT
BRANCH   1   2
ATOM      2  C   UNL A   1      31.786  31.147  26.905  1.00  0.00     0.023 C 
BRANCH   2   3
ATOM      3  C   UNL A   1      32.924  32.147  27.075  1.00  0.00     0.116 C 
BRANCH   3   4
ATOM      4  N   UNL A   1      32.500  33.443  27.581  1.00  0.00    -0.352 N 
ATOM      5  O   UNL A   1      32.597  35.323  28.824  1.00  0.00    -0.269 OA
ATOM      6  C   UNL A   1      33.136  34.280  28.468  1.00  0.00     0.251 C 
ATOM      7  H   UNL A   1      31.635  33.767  27.240  1.00  0.00     0.163 HD
BRANCH   6   8
ATOM      8  C   UNL A   1      34.448  33.896  29.033  1.00  0.00     0.039 A 
ATOM      9  C   UNL A   1      35.638  34.371  28.479  1.00  0.00     0.014 A 
ATOM     10  C   UNL A   1      34.479  33.026  30.128  1.00  0.00     0.014 A 
ATOM     11  C   UNL A   1      36.854  33.860  28.924  1.00  0.00     0.010 A 
ATOM     12  C   UNL A   1      35.703  32.557  30.612  1.00  0.00     0.010 A 
ATOM     13  C   UNL A   1      36.897  32.935  29.980  1.00  0.00    -0.014 A 
BRANCH  13  14
ATOM     14  C   UNL A   1      38.206  32.372  30.386  1.00  0.00     0.031 A 
ATOM     15  C   UNL A   1      38.946  32.924  31.572  1.00  0.00     0.074 A 
ATOM     16  C   UNL A   1      38.684  31.292  29.740  1.00  0.00     0.049 A 
ATOM     17  N   UNL A   1      40.034  32.472  32.144  1.00  0.00    -0.248 NA
ATOM     18  C   UNL A   1      38.399  34.139  32.198  1.00  0.00     0.031 C 
ATOM     19  C   UNL A   1      38.062  30.665  28.572  1.00  0.00     0.029 A 
ATOM     20  N   UNL A   1      39.772  30.504  30.007  1.00  0.00    -0.354 N 
ATOM     21  C   UNL A   1      40.318  33.358  33.175  1.00  0.00     0.074 A 
ATOM     22  C   UNL A   1      39.288  34.376  33.153  1.00  0.00     0.031 C 
ATOM     23  C   UNL A   1      38.734  29.543  28.272  1.00  0.00     0.029 A 
ATOM     24  C   UNL A   1      39.841  29.388  29.211  1.00  0.00     0.049 A 
ATOM     25  H   UNL A   1      40.437  30.716  30.701  1.00  0.00     0.167 HD
ATOM     26  C   UNL A   1      41.341  33.330  34.060  1.00  0.00     0.031 A 
ATOM     27  C   UNL A   1      40.681  28.340  29.251  1.00  0.00     0.031 A 
ATOM     28  C   UNL A   1      42.357  32.314  34.106  1.00  0.00     0.049 A 
ATOM     29  C   UNL A   1      41.763  28.292  30.285  1.00  0.00     0.074 A 
ATOM     30  C   UNL A   1      43.446  32.216  34.956  1.00  0.00     0.029 A 
ATOM     31  N   UNL A   1      42.396  31.207  33.276  1.00  0.00    -0.354 N 
ATOM     32  N   UNL A   1      42.027  29.150  31.239  1.00  0.00    -0.248 NA
ATOM     33  C   UNL A   1      42.664  27.131  30.245  1.00  0.00     0.031 C 
ATOM     34  C   UNL A   1      44.148  31.049  34.635  1.00  0.00     0.029 A 
ATOM     35  C   UNL A   1      43.486  30.416  33.595  1.00  0.00     0.049 A 
ATOM     36  H   UNL A   1      41.747  31.012  32.563  1.00  0.00     0.167 HD
ATOM     37  C   UNL A   1      43.132  28.643  31.905  1.00  0.00     0.074 A 
ATOM     38  C   UNL A   1      43.472  27.388  31.266  1.00  0.00     0.031 C 
ATOM     39  C   UNL A   1      43.814  29.179  32.944  1.00  0.00     0.031 A 
BRANCH  26  40
ATOM     40  C   UNL A   1      41.421  34.455  35.047  1.00  0.00    -0.014 A 
ATOM     41  C   UNL A   1      40.798  34.358  36.299  1.00  0.00     0.009 A 
ATOM     42  C   UNL A   1      42.152  35.610  34.731  1.00  0.00     0.009 A 
ATOM     43  C   UNL A   1      40.890  35.410  37.213  1.00  0.00     0.001 A 
ATOM     44  C   UNL A   1      42.251  36.655  35.651  1.00  0.00     0.001 A 
ATOM     45  C   UNL A   1      41.617  36.555  36.890  1.00  0.00     0.000 A 
ENDBRANCH  26  40
BRANCH  27  46
ATOM     46  C   UNL A   1      40.497  27.224  28.296  1.00  0.00    -0.014 A 
ATOM     47  C   UNL A   1      39.674  26.140  28.634  1.00  0.00     0.009 A 
ATOM     48  C   UNL A   1      41.111  27.254  27.036  1.00  0.00     0.009 A 
ATOM     49  C   UNL A   1      39.475  25.097  27.727  1.00  0.00     0.001 A 
ATOM     50  C   UNL A   1      40.901  26.216  26.127  1.00  0.00     0.001 A 
ATOM     51  C   UNL A   1      40.086  25.138  26.474  1.00  0.00     0.000 A 
ENDBRANCH  27  46
BRANCH  39  52
ATOM     52  C   UNL A   1      45.005  28.414  33.433  1.00  0.00    -0.014 A 
ATOM     53  C   UNL A   1      46.266  28.622  32.855  1.00  0.00     0.009 A 
ATOM     54  C   UNL A   1      44.872  27.498  34.486  1.00  0.00     0.009 A 
ATOM     55  C   UNL A   1      47.374  27.907  33.311  1.00  0.00     0.001 A 
ATOM     56  C   UNL A   1      45.985  26.791  34.944  1.00  0.00     0.001 A 
ATOM     57  C   UNL A   1      47.232  26.993  34.354  1.00  0.00     0.000 A 
ENDBRANCH  39  52
ENDBRANCH  13  14
ENDBRANCH   6   8
ENDBRANCH   3   4
ENDBRANCH   2   3
ENDBRANCH   1   2
BRANCH   1  58
ATOM     58  C   UNL A   1      32.898  29.715  25.059  1.00  0.00     0.116 C 
BRANCH  58  59
ATOM     59  N   UNL A   1      33.084  28.457  25.755  1.00  0.00    -0.352 N 
ATOM     60  C   UNL A   1      32.474  27.220  25.686  1.00  0.00     0.253 C 
ATOM     61  H   UNL A   1      33.804  28.493  26.425  1.00  0.00     0.163 HD
ATOM     62  O   UNL A   1      32.874  26.381  26.501  1.00  0.00    -0.269 OA
BRANCH  60  63
ATOM     63  C   UNL A   1      31.055  26.886  24.663  1.00  0.00     0.066 A 
ATOM     64  C   UNL A   1      29.872  28.205  23.631  1.00  0.00     0.036 A 
ATOM     65  C   UNL A   1      31.302  25.620  24.774  1.00  0.00     0.072 A 
ATOM     66  C   UNL A   1      28.988  28.393  22.710  1.00  0.00     0.043 A 
ATOM     67  C   UNL A   1      30.154  26.199  24.696  1.00  0.00     0.066 A 
ATOM     68  Cl  UNL A   1      27.963  29.691  22.390  1.00  0.00    -0.084 Cl
ATOM     69  C   UNL A   1      29.016  27.567  23.689  1.00  0.00     0.043 A 
ATOM     70  Cl  UNL A   1      29.532  24.811  26.190  1.00  0.00    -0.082 Cl
BRANCH  65  71
ATOM     71  N   UNL A   1      32.200  24.928  23.938  1.00  0.00    -0.330 N 
ATOM     72  H   UNL A   1      33.047  24.722  24.394  1.00  0.00     0.169 HD
BRANCH  71  73
ATOM     73  C   UNL A   1      32.184  24.476  22.664  1.00  0.00     0.177 C 
ATOM     74  S   UNL A   1      32.572  25.572  21.455  1.00  0.00    -0.040 S 
BRANCH  73  75
ATOM     75  N   UNL A   1      31.889  23.204  22.278  1.00  0.00    -0.299 N 
ATOM     76  C   UNL A   1      32.185  21.952  22.771  1.00  0.00     0.258 C 
ATOM     77  H   UNL A   1      31.338  23.171  21.463  1.00  0.00     0.172 HD
ATOM     78  O   UNL A   1      32.016  20.912  22.152  1.00  0.00    -0.269 OA
BRANCH  76  79
ATOM     79  C   UNL A   1      32.785  21.948  24.090  1.00  0.00     0.048 A 
ATOM     80  C   UNL A   1      31.572  21.808  25.626  1.00  0.00     0.014 A 
ATOM     81  C   UNL A   1      34.670  22.579  24.148  1.00  0.00    -0.006 A 
ATOM     82  C   UNL A   1      32.099  22.303  27.460  1.00  0.00     0.001 A 
ATOM     83  C   UNL A   1      35.207  23.102  25.998  1.00  0.00    -0.018 A 
ATOM     84  C   UNL A   1      35.690  22.641  23.177  1.00  0.00     0.009 A 
ATOM     85  C   UNL A   1      33.978  22.975  27.534  1.00  0.00     0.009 A 
ATOM     86  C   UNL A   1      36.553  23.450  26.088  1.00  0.00     0.009 A 
ATOM     87  C   UNL A   1      36.980  23.035  23.591  1.00  0.00     0.001 A 
ATOM     88  C   UNL A   1      37.375  23.407  24.931  1.00  0.00     0.001 A 
ENDBRANCH  76  79
ENDBRANCH  73  75
ENDBRANCH  71  73
ENDBRANCH  65  71
ENDBRANCH  60  63
ENDBRANCH  58  59
ENDBRANCH   1  58
TORSDOF 15
ENDMDL
