MODEL 1
REMARK VINA RESULT:     -10.9      0.000      0.000
REMARK SMILES COc1ccc(-c2sc(N)nc2C(=O)NCCCCNC(=O)c2ccc(-c3c4nc(c(-c5ccccc5)c5ccc([nH]5)c(-c5ccccc5)c5nc(c(-c6ccccc6)c6ccc3[nH]6)C=C5)C=C4)cc2)cc1OC
REMARK SMILES IDX 17 1 16 2 15 3 13 4 14 5 12 7 7 8 8 9 9 10 11 11 6 12 3 13
REMARK SMILES IDX 4 14 72 15 5 16 71 17 2 18 1 19 73 20 74 21 10 22 18 25
REMARK SMILES IDX 19 26 20 27 21 28 22 30 23 31 24 32 70 33 25 34 69 35 26 36
REMARK SMILES IDX 27 37 28 38 63 39 29 40 68 41 62 42 64 43 30 44 67 45 61 46
REMARK SMILES IDX 60 47 31 49 53 50 38 51 52 52 39 53 42 54 51 55 65 56 40 57
REMARK SMILES IDX 41 58 50 60 66 61 43 62 32 63 33 64 37 65 34 66 36 67 35 68
REMARK SMILES IDX 54 69 55 70 59 71 56 72 58 73 57 74 44 75 45 76 49 77 46 78
REMARK SMILES IDX 48 79 47 80
REMARK H PARENT 15 6 10 23 10 24 20 29 64 48 42 59
REMARK Flexibility Score: inf
ROOT
ATOM      1  C   UNL A   1      36.287  20.844  25.323  1.00  0.00     0.023 C 
ENDROOT
BRANCH   1   2
ATOM      2  C   UNL A   1      36.129  22.362  25.356  1.00  0.00     0.116 C 
BRANCH   2   3
ATOM      3  N   UNL A   1      35.654  22.885  24.088  1.00  0.00    -0.351 N 
ATOM      4  C   UNL A   1      34.423  23.342  23.679  1.00  0.00     0.271 C 
ATOM      5  O   UNL A   1      34.370  23.751  22.514  1.00  0.00    -0.267 OA
ATOM      6  H   UNL A   1      36.345  22.918  23.387  1.00  0.00     0.163 HD
BRANCH   4   7
ATOM      7  C   UNL A   1      33.254  23.351  24.578  1.00  0.00     0.149 A 
ATOM      8  C   UNL A   1      32.383  22.275  24.758  1.00  0.00     0.069 A 
ATOM      9  S   UNL A   1      31.119  22.722  25.840  1.00  0.00    -0.096 S 
ATOM     10  C   UNL A   1      31.823  24.265  26.028  1.00  0.00     0.181 A 
ATOM     11  N   UNL A   1      32.904  24.472  25.330  1.00  0.00    -0.215 NA
BRANCH   8  12
ATOM     12  C   UNL A   1      32.422  20.906  24.234  1.00  0.00    -0.002 A 
ATOM     13  C   UNL A   1      32.653  18.266  23.285  1.00  0.00     0.160 A 
ATOM     14  C   UNL A   1      32.331  19.312  22.408  1.00  0.00     0.051 A 
ATOM     15  C   UNL A   1      32.854  18.528  24.644  1.00  0.00     0.161 A 
ATOM     16  C   UNL A   1      32.211  20.625  22.880  1.00  0.00     0.014 A 
ATOM     17  C   UNL A   1      32.721  19.847  25.102  1.00  0.00     0.060 A 
BRANCH  13  18
ATOM     18  O   UNL A   1      32.900  17.033  22.743  1.00  0.00    -0.493 OA
ATOM     19  C   UNL A   1      34.283  16.687  22.801  1.00  0.00     0.278 C 
ENDBRANCH  13  18
BRANCH  15  20
ATOM     20  O   UNL A   1      33.214  17.669  25.646  1.00  0.00    -0.493 OA
ATOM     21  C   UNL A   1      32.393  16.546  25.911  1.00  0.00     0.278 C 
ENDBRANCH  15  20
ENDBRANCH   8  12
BRANCH  10  22
ATOM     22  N   UNL A   1      31.306  25.196  26.836  1.00  0.00    -0.375 N 
ATOM     23  H   UNL A   1      31.863  25.946  27.142  1.00  0.00     0.159 HD
ATOM     24  H   UNL A   1      30.367  25.129  27.125  1.00  0.00     0.159 HD
ENDBRANCH  10  22
ENDBRANCH   4   7
ENDBRANCH   2   3
ENDBRANCH   1   2
BRANCH   1  25
ATOM     25  C   UNL A   1      37.639  20.353  24.801  1.00  0.00     0.023 C 
BRANCH  25  26
ATOM     26  C   UNL A   1      38.833  20.641  25.706  1.00  0.00     0.116 C 
BRANCH  26  27
ATOM     27  N   UNL A   1      39.801  19.553  25.745  1.00  0.00    -0.352 N 
ATOM     28  C   UNL A   1      41.130  19.586  26.093  1.00  0.00     0.251 C 
ATOM     29  H   UNL A   1      39.454  18.670  25.486  1.00  0.00     0.163 HD
ATOM     30  O   UNL A   1      41.837  18.593  25.951  1.00  0.00    -0.269 OA
BRANCH  28  31
ATOM     31  C   UNL A   1      41.717  20.843  26.602  1.00  0.00     0.039 A 
ATOM     32  C   UNL A   1      42.254  21.754  25.688  1.00  0.00     0.014 A 
ATOM     33  C   UNL A   1      41.689  21.143  27.966  1.00  0.00     0.014 A 
ATOM     34  C   UNL A   1      42.672  23.010  26.134  1.00  0.00     0.010 A 
ATOM     35  C   UNL A   1      42.041  22.419  28.397  1.00  0.00     0.010 A 
ATOM     36  C   UNL A   1      42.516  23.372  27.483  1.00  0.00    -0.014 A 
BRANCH  36  37
ATOM     37  C   UNL A   1      42.793  24.756  27.946  1.00  0.00     0.031 A 
ATOM     38  C   UNL A   1      44.185  25.161  28.344  1.00  0.00     0.074 A 
ATOM     39  C   UNL A   1      41.772  25.628  28.077  1.00  0.00     0.049 A 
ATOM     40  N   UNL A   1      44.598  26.294  28.855  1.00  0.00    -0.248 NA
ATOM     41  C   UNL A   1      45.248  24.162  28.160  1.00  0.00     0.031 C 
ATOM     42  C   UNL A   1      40.370  25.350  27.751  1.00  0.00     0.029 A 
ATOM     43  N   UNL A   1      41.754  26.924  28.529  1.00  0.00    -0.354 N 
ATOM     44  C   UNL A   1      45.963  26.142  29.054  1.00  0.00     0.074 A 
ATOM     45  C   UNL A   1      46.302  24.791  28.659  1.00  0.00     0.031 C 
ATOM     46  C   UNL A   1      39.636  26.449  27.992  1.00  0.00     0.029 A 
ATOM     47  C   UNL A   1      40.501  27.488  28.538  1.00  0.00     0.049 A 
ATOM     48  H   UNL A   1      42.563  27.404  28.820  1.00  0.00     0.167 HD
ATOM     49  C   UNL A   1      46.859  27.051  29.505  1.00  0.00     0.031 A 
ATOM     50  C   UNL A   1      40.088  28.700  28.959  1.00  0.00     0.031 A 
ATOM     51  C   UNL A   1      46.525  28.392  29.904  1.00  0.00     0.049 A 
ATOM     52  C   UNL A   1      41.098  29.662  29.523  1.00  0.00     0.074 A 
ATOM     53  C   UNL A   1      47.372  29.396  30.343  1.00  0.00     0.029 A 
ATOM     54  N   UNL A   1      45.243  28.917  29.913  1.00  0.00    -0.354 N 
ATOM     55  N   UNL A   1      42.396  29.524  29.642  1.00  0.00    -0.248 NA
ATOM     56  C   UNL A   1      40.583  30.951  30.011  1.00  0.00     0.031 C 
ATOM     57  C   UNL A   1      46.594  30.509  30.675  1.00  0.00     0.029 A 
ATOM     58  C   UNL A   1      45.272  30.220  30.383  1.00  0.00     0.049 A 
ATOM     59  H   UNL A   1      44.432  28.435  29.631  1.00  0.00     0.167 HD
ATOM     60  C   UNL A   1      42.854  30.715  30.191  1.00  0.00     0.074 A 
ATOM     61  C   UNL A   1      41.700  31.574  30.356  1.00  0.00     0.031 C 
ATOM     62  C   UNL A   1      44.117  31.065  30.533  1.00  0.00     0.031 A 
BRANCH  49  63
ATOM     63  C   UNL A   1      48.300  26.630  29.589  1.00  0.00    -0.014 A 
ATOM     64  C   UNL A   1      48.792  25.965  30.724  1.00  0.00     0.009 A 
ATOM     65  C   UNL A   1      49.156  26.829  28.495  1.00  0.00     0.009 A 
ATOM     66  C   UNL A   1      50.118  25.529  30.770  1.00  0.00     0.001 A 
ATOM     67  C   UNL A   1      50.473  26.367  28.533  1.00  0.00     0.001 A 
ATOM     68  C   UNL A   1      50.954  25.723  29.671  1.00  0.00     0.000 A 
ENDBRANCH  49  63
BRANCH  50  69
ATOM     69  C   UNL A   1      38.650  29.079  28.891  1.00  0.00    -0.014 A 
ATOM     70  C   UNL A   1      38.115  29.645  27.722  1.00  0.00     0.009 A 
ATOM     71  C   UNL A   1      37.817  28.928  30.010  1.00  0.00     0.009 A 
ATOM     72  C   UNL A   1      36.792  30.092  27.692  1.00  0.00     0.001 A 
ATOM     73  C   UNL A   1      36.484  29.343  29.966  1.00  0.00     0.001 A 
ATOM     74  C   UNL A   1      35.977  29.939  28.812  1.00  0.00     0.000 A 
ENDBRANCH  50  69
BRANCH  62  75
ATOM     75  C   UNL A   1      44.324  32.445  31.090  1.00  0.00    -0.014 A 
ATOM     76  C   UNL A   1      44.556  33.543  30.247  1.00  0.00     0.009 A 
ATOM     77  C   UNL A   1      44.234  32.657  32.475  1.00  0.00     0.009 A 
ATOM     78  C   UNL A   1      44.725  34.821  30.784  1.00  0.00     0.001 A 
ATOM     79  C   UNL A   1      44.371  33.941  33.005  1.00  0.00     0.001 A 
ATOM     80  C   UNL A   1      44.624  35.020  32.160  1.00  0.00     0.000 A 
ENDBRANCH  62  75
ENDBRANCH  36  37
ENDBRANCH  28  31
ENDBRANCH  26  27
ENDBRANCH  25  26
ENDBRANCH   1  25
TORSDOF 15
ENDMDL
MODEL 2
REMARK VINA RESULT:     -10.8      3.402      5.215
REMARK SMILES COc1ccc(-c2sc(N)nc2C(=O)NCCCCNC(=O)c2ccc(-c3c4nc(c(-c5ccccc5)c5ccc([nH]5)c(-c5ccccc5)c5nc(c(-c6ccccc6)c6ccc3[nH]6)C=C5)C=C4)cc2)cc1OC
REMARK SMILES IDX 17 1 16 2 15 3 13 4 14 5 12 7 7 8 8 9 9 10 11 11 6 12 3 13
REMARK SMILES IDX 4 14 72 15 5 16 71 17 2 18 1 19 73 20 74 21 10 22 18 25
REMARK SMILES IDX 19 26 20 27 21 28 22 30 23 31 24 32 70 33 25 34 69 35 26 36
REMARK SMILES IDX 27 37 28 38 63 39 29 40 68 41 62 42 64 43 30 44 67 45 61 46
REMARK SMILES IDX 60 47 31 49 53 50 38 51 52 52 39 53 42 54 51 55 65 56 40 57
REMARK SMILES IDX 41 58 50 60 66 61 43 62 32 63 33 64 37 65 34 66 36 67 35 68
REMARK SMILES IDX 54 69 55 70 59 71 56 72 58 73 57 74 44 75 45 76 49 77 46 78
REMARK SMILES IDX 48 79 47 80
REMARK H PARENT 15 6 10 23 10 24 20 29 64 48 42 59
REMARK Flexibility Score: inf
ROOT
ATOM      1  C   UNL A   1      39.008  23.258  26.563  1.00  0.00     0.023 C 
ENDROOT
BRANCH   1   2
ATOM      2  C   UNL A   1      37.639  23.675  26.030  1.00  0.00     0.116 C 
BRANCH   2   3
ATOM      3  N   UNL A   1      37.480  23.341  24.627  1.00  0.00    -0.351 N 
ATOM      4  C   UNL A   1      36.445  22.767  23.924  1.00  0.00     0.271 C 
ATOM      5  O   UNL A   1      36.632  22.648  22.709  1.00  0.00    -0.267 OA
ATOM      6  H   UNL A   1      38.261  23.568  24.071  1.00  0.00     0.163 HD
BRANCH   4   7
ATOM      7  C   UNL A   1      35.198  22.336  24.582  1.00  0.00     0.149 A 
ATOM      8  C   UNL A   1      34.122  23.177  24.871  1.00  0.00     0.069 A 
ATOM      9  S   UNL A   1      32.896  22.293  25.698  1.00  0.00    -0.096 S 
ATOM     10  C   UNL A   1      33.837  20.873  25.580  1.00  0.00     0.181 A 
ATOM     11  N   UNL A   1      34.993  21.020  24.998  1.00  0.00    -0.215 NA
BRANCH   8  12
ATOM     12  C   UNL A   1      33.887  24.587  24.545  1.00  0.00    -0.002 A 
ATOM     13  C   UNL A   1      33.571  27.290  23.825  1.00  0.00     0.160 A 
ATOM     14  C   UNL A   1      33.678  26.920  25.174  1.00  0.00     0.051 A 
ATOM     15  C   UNL A   1      33.613  26.312  22.826  1.00  0.00     0.161 A 
ATOM     16  C   UNL A   1      33.829  25.575  25.534  1.00  0.00     0.014 A 
ATOM     17  C   UNL A   1      33.756  24.970  23.204  1.00  0.00     0.060 A 
BRANCH  13  18
ATOM     18  O   UNL A   1      33.573  28.627  23.529  1.00  0.00    -0.493 OA
ATOM     19  C   UNL A   1      32.958  29.405  24.555  1.00  0.00     0.278 C 
ENDBRANCH  13  18
BRANCH  15  20
ATOM     20  O   UNL A   1      33.571  26.464  21.467  1.00  0.00    -0.493 OA
ATOM     21  C   UNL A   1      32.616  25.726  20.726  1.00  0.00     0.278 C 
ENDBRANCH  15  20
ENDBRANCH   8  12
BRANCH  10  22
ATOM     22  N   UNL A   1      33.417  19.694  26.048  1.00  0.00    -0.375 N 
ATOM     23  H   UNL A   1      33.659  18.864  25.578  1.00  0.00     0.159 HD
ATOM     24  H   UNL A   1      32.865  19.656  26.862  1.00  0.00     0.159 HD
ENDBRANCH  10  22
ENDBRANCH   4   7
ENDBRANCH   2   3
ENDBRANCH   1   2
BRANCH   1  25
ATOM     25  C   UNL A   1      39.461  21.860  26.137  1.00  0.00     0.023 C 
BRANCH  25  26
ATOM     26  C   UNL A   1      40.881  21.479  26.549  1.00  0.00     0.116 C 
BRANCH  26  27
ATOM     27  N   UNL A   1      41.870  21.741  25.512  1.00  0.00    -0.352 N 
ATOM     28  C   UNL A   1      42.678  22.839  25.341  1.00  0.00     0.251 C 
ATOM     29  H   UNL A   1      41.974  21.031  24.839  1.00  0.00     0.163 HD
ATOM     30  O   UNL A   1      43.372  22.952  24.336  1.00  0.00    -0.269 OA
BRANCH  28  31
ATOM     31  C   UNL A   1      42.674  23.910  26.360  1.00  0.00     0.039 A 
ATOM     32  C   UNL A   1      42.666  25.242  25.938  1.00  0.00     0.014 A 
ATOM     33  C   UNL A   1      42.625  23.599  27.722  1.00  0.00     0.014 A 
ATOM     34  C   UNL A   1      42.508  26.261  26.880  1.00  0.00     0.010 A 
ATOM     35  C   UNL A   1      42.397  24.611  28.650  1.00  0.00     0.010 A 
ATOM     36  C   UNL A   1      42.315  25.950  28.236  1.00  0.00    -0.014 A 
BRANCH  36  37
ATOM     37  C   UNL A   1      41.975  27.002  29.228  1.00  0.00     0.031 A 
ATOM     38  C   UNL A   1      42.814  27.186  30.461  1.00  0.00     0.074 A 
ATOM     39  C   UNL A   1      40.863  27.745  29.050  1.00  0.00     0.049 A 
ATOM     40  N   UNL A   1      42.620  27.990  31.476  1.00  0.00    -0.248 NA
ATOM     41  C   UNL A   1      44.018  26.350  30.578  1.00  0.00     0.031 C 
ATOM     42  C   UNL A   1      39.947  27.646  27.910  1.00  0.00     0.029 A 
ATOM     43  N   UNL A   1      40.307  28.725  29.834  1.00  0.00    -0.354 N 
ATOM     44  C   UNL A   1      43.673  27.754  32.350  1.00  0.00     0.074 A 
ATOM     45  C   UNL A   1      44.475  26.697  31.772  1.00  0.00     0.031 C 
ATOM     46  C   UNL A   1      38.960  28.545  28.058  1.00  0.00     0.029 A 
ATOM     47  C   UNL A   1      39.140  29.245  29.324  1.00  0.00     0.049 A 
ATOM     48  H   UNL A   1      40.705  29.028  30.681  1.00  0.00     0.167 HD
ATOM     49  C   UNL A   1      43.958  28.377  33.518  1.00  0.00     0.031 A 
ATOM     50  C   UNL A   1      38.297  30.166  29.829  1.00  0.00     0.031 A 
ATOM     51  C   UNL A   1      43.160  29.424  34.097  1.00  0.00     0.049 A 
ATOM     52  C   UNL A   1      38.605  30.788  31.164  1.00  0.00     0.074 A 
ATOM     53  C   UNL A   1      43.389  30.137  35.262  1.00  0.00     0.029 A 
ATOM     54  N   UNL A   1      41.979  29.906  33.557  1.00  0.00    -0.354 N 
ATOM     55  N   UNL A   1      39.641  30.599  31.945  1.00  0.00    -0.248 NA
ATOM     56  C   UNL A   1      37.625  31.751  31.688  1.00  0.00     0.031 C 
ATOM     57  C   UNL A   1      42.316  31.011  35.457  1.00  0.00     0.029 A 
ATOM     58  C   UNL A   1      41.452  30.886  34.383  1.00  0.00     0.049 A 
ATOM     59  H   UNL A   1      41.574  29.599  32.714  1.00  0.00     0.167 HD
ATOM     60  C   UNL A   1      39.450  31.439  33.035  1.00  0.00     0.074 A 
ATOM     61  C   UNL A   1      38.215  32.157  32.802  1.00  0.00     0.031 C 
ATOM     62  C   UNL A   1      40.225  31.598  34.134  1.00  0.00     0.031 A 
BRANCH  49  63
ATOM     63  C   UNL A   1      45.196  27.946  34.255  1.00  0.00    -0.014 A 
ATOM     64  C   UNL A   1      45.159  26.878  35.165  1.00  0.00     0.009 A 
ATOM     65  C   UNL A   1      46.427  28.560  33.980  1.00  0.00     0.009 A 
ATOM     66  C   UNL A   1      46.325  26.450  35.803  1.00  0.00     0.001 A 
ATOM     67  C   UNL A   1      47.597  28.112  34.597  1.00  0.00     0.001 A 
ATOM     68  C   UNL A   1      47.544  27.062  35.512  1.00  0.00     0.000 A 
ENDBRANCH  49  63
BRANCH  50  69
ATOM     69  C   UNL A   1      37.063  30.552  29.091  1.00  0.00    -0.014 A 
ATOM     70  C   UNL A   1      36.061  29.603  28.830  1.00  0.00     0.009 A 
ATOM     71  C   UNL A   1      36.903  31.856  28.597  1.00  0.00     0.009 A 
ATOM     72  C   UNL A   1      34.950  29.941  28.052  1.00  0.00     0.001 A 
ATOM     73  C   UNL A   1      35.774  32.200  27.850  1.00  0.00     0.001 A 
ATOM     74  C   UNL A   1      34.807  31.238  27.565  1.00  0.00     0.000 A 
ENDBRANCH  50  69
BRANCH  62  75
ATOM     75  C   UNL A   1      39.780  32.608  35.154  1.00  0.00    -0.014 A 
ATOM     76  C   UNL A   1      40.152  33.957  35.052  1.00  0.00     0.009 A 
ATOM     77  C   UNL A   1      38.934  32.212  36.202  1.00  0.00     0.009 A 
ATOM     78  C   UNL A   1      39.710  34.884  35.998  1.00  0.00     0.001 A 
ATOM     79  C   UNL A   1      38.467  33.147  37.127  1.00  0.00     0.001 A 
ATOM     80  C   UNL A   1      38.862  34.480  37.029  1.00  0.00     0.000 A 
ENDBRANCH  62  75
ENDBRANCH  36  37
ENDBRANCH  28  31
ENDBRANCH  26  27
ENDBRANCH  25  26
ENDBRANCH   1  25
TORSDOF 15
ENDMDL
MODEL 3
REMARK VINA RESULT:     -10.7      2.228      3.789
REMARK SMILES COc1ccc(-c2sc(N)nc2C(=O)NCCCCNC(=O)c2ccc(-c3c4nc(c(-c5ccccc5)c5ccc([nH]5)c(-c5ccccc5)c5nc(c(-c6ccccc6)c6ccc3[nH]6)C=C5)C=C4)cc2)cc1OC
REMARK SMILES IDX 17 1 16 2 15 3 13 4 14 5 12 7 7 8 8 9 9 10 11 11 6 12 3 13
REMARK SMILES IDX 4 14 72 15 5 16 71 17 2 18 1 19 73 20 74 21 10 22 18 25
REMARK SMILES IDX 19 26 20 27 21 28 22 30 23 31 24 32 70 33 25 34 69 35 26 36
REMARK SMILES IDX 27 37 28 38 63 39 29 40 68 41 62 42 64 43 30 44 67 45 61 46
REMARK SMILES IDX 60 47 31 49 53 50 38 51 52 52 39 53 42 54 51 55 65 56 40 57
REMARK SMILES IDX 41 58 50 60 66 61 43 62 32 63 33 64 37 65 34 66 36 67 35 68
REMARK SMILES IDX 54 69 55 70 59 71 56 72 58 73 57 74 44 75 45 76 49 77 46 78
REMARK SMILES IDX 48 79 47 80
REMARK H PARENT 15 6 10 23 10 24 20 29 64 48 42 59
REMARK Flexibility Score: inf
ROOT
ATOM      1  C   UNL A   1      39.565  21.738  26.161  1.00  0.00     0.023 C 
ENDROOT
BRANCH   1   2
ATOM      2  C   UNL A   1      38.090  22.088  25.981  1.00  0.00     0.116 C 
BRANCH   2   3
ATOM      3  N   UNL A   1      37.781  22.439  24.607  1.00  0.00    -0.351 N 
ATOM      4  C   UNL A   1      36.610  22.408  23.885  1.00  0.00     0.271 C 
ATOM      5  O   UNL A   1      36.695  22.811  22.720  1.00  0.00    -0.267 OA
ATOM      6  H   UNL A   1      38.557  22.762  24.093  1.00  0.00     0.163 HD
BRANCH   4   7
ATOM      7  C   UNL A   1      35.343  21.935  24.472  1.00  0.00     0.149 A 
ATOM      8  C   UNL A   1      34.251  22.753  24.768  1.00  0.00     0.069 A 
ATOM      9  S   UNL A   1      33.002  21.818  25.498  1.00  0.00    -0.096 S 
ATOM     10  C   UNL A   1      33.956  20.412  25.335  1.00  0.00     0.181 A 
ATOM     11  N   UNL A   1      35.132  20.597  24.805  1.00  0.00    -0.215 NA
BRANCH   8  12
ATOM     12  C   UNL A   1      34.019  24.178  24.513  1.00  0.00    -0.002 A 
ATOM     13  C   UNL A   1      33.707  26.914  23.928  1.00  0.00     0.160 A 
ATOM     14  C   UNL A   1      33.829  26.479  25.256  1.00  0.00     0.051 A 
ATOM     15  C   UNL A   1      33.732  25.986  22.882  1.00  0.00     0.161 A 
ATOM     16  C   UNL A   1      33.978  25.118  25.549  1.00  0.00     0.014 A 
ATOM     17  C   UNL A   1      33.873  24.626  23.193  1.00  0.00     0.060 A 
BRANCH  13  18
ATOM     18  O   UNL A   1      33.711  28.264  23.697  1.00  0.00    -0.493 OA
ATOM     19  C   UNL A   1      32.392  28.806  23.653  1.00  0.00     0.278 C 
ENDBRANCH  13  18
BRANCH  15  20
ATOM     20  O   UNL A   1      33.673  26.203  21.533  1.00  0.00    -0.493 OA
ATOM     21  C   UNL A   1      32.544  25.741  20.814  1.00  0.00     0.278 C 
ENDBRANCH  15  20
ENDBRANCH   8  12
BRANCH  10  22
ATOM     22  N   UNL A   1      33.528  19.207  25.721  1.00  0.00    -0.375 N 
ATOM     23  H   UNL A   1      33.193  18.567  25.052  1.00  0.00     0.159 HD
ATOM     24  H   UNL A   1      33.546  18.959  26.673  1.00  0.00     0.159 HD
ENDBRANCH  10  22
ENDBRANCH   4   7
ENDBRANCH   2   3
ENDBRANCH   1   2
BRANCH   1  25
ATOM     25  C   UNL A   1      39.940  20.315  25.745  1.00  0.00     0.023 C 
BRANCH  25  26
ATOM     26  C   UNL A   1      41.034  19.656  26.580  1.00  0.00     0.116 C 
BRANCH  26  27
ATOM     27  N   UNL A   1      42.296  19.515  25.867  1.00  0.00    -0.352 N 
ATOM     28  C   UNL A   1      43.224  20.478  25.548  1.00  0.00     0.251 C 
ATOM     29  H   UNL A   1      42.516  18.603  25.573  1.00  0.00     0.163 HD
ATOM     30  O   UNL A   1      44.181  20.208  24.830  1.00  0.00    -0.269 OA
BRANCH  28  31
ATOM     31  C   UNL A   1      43.038  21.858  26.042  1.00  0.00     0.039 A 
ATOM     32  C   UNL A   1      43.028  22.085  27.420  1.00  0.00     0.014 A 
ATOM     33  C   UNL A   1      42.928  22.927  25.148  1.00  0.00     0.014 A 
ATOM     34  C   UNL A   1      43.006  23.397  27.901  1.00  0.00     0.010 A 
ATOM     35  C   UNL A   1      42.978  24.233  25.627  1.00  0.00     0.010 A 
ATOM     36  C   UNL A   1      43.039  24.481  27.008  1.00  0.00    -0.014 A 
BRANCH  36  37
ATOM     37  C   UNL A   1      43.190  25.876  27.494  1.00  0.00     0.031 A 
ATOM     38  C   UNL A   1      44.557  26.460  27.720  1.00  0.00     0.074 A 
ATOM     39  C   UNL A   1      42.090  26.593  27.802  1.00  0.00     0.049 A 
ATOM     40  N   UNL A   1      44.881  27.625  28.223  1.00  0.00    -0.248 NA
ATOM     41  C   UNL A   1      45.708  25.624  27.347  1.00  0.00     0.031 C 
ATOM     42  C   UNL A   1      40.706  26.133  27.656  1.00  0.00     0.029 A 
ATOM     43  N   UNL A   1      41.962  27.861  28.313  1.00  0.00    -0.354 N 
ATOM     44  C   UNL A   1      46.269  27.658  28.229  1.00  0.00     0.074 A 
ATOM     45  C   UNL A   1      46.727  26.380  27.729  1.00  0.00     0.031 C 
ATOM     46  C   UNL A   1      39.872  27.111  28.044  1.00  0.00     0.029 A 
ATOM     47  C   UNL A   1      40.657  28.245  28.517  1.00  0.00     0.049 A 
ATOM     48  H   UNL A   1      42.731  28.441  28.515  1.00  0.00     0.167 HD
ATOM     49  C   UNL A   1      47.090  28.671  28.598  1.00  0.00     0.031 A 
ATOM     50  C   UNL A   1      40.149  29.375  29.046  1.00  0.00     0.031 A 
ATOM     51  C   UNL A   1      46.637  29.940  29.100  1.00  0.00     0.049 A 
ATOM     52  C   UNL A   1      41.089  30.453  29.513  1.00  0.00     0.074 A 
ATOM     53  C   UNL A   1      47.395  31.039  29.468  1.00  0.00     0.029 A 
ATOM     54  N   UNL A   1      45.310  30.281  29.307  1.00  0.00    -0.354 N 
ATOM     55  N   UNL A   1      42.398  30.493  29.450  1.00  0.00    -0.248 NA
ATOM     56  C   UNL A   1      40.480  31.643  30.126  1.00  0.00     0.031 C 
ATOM     57  C   UNL A   1      46.529  32.024  29.953  1.00  0.00     0.029 A 
ATOM     58  C   UNL A   1      45.230  31.561  29.828  1.00  0.00     0.049 A 
ATOM     59  H   UNL A   1      44.540  29.699  29.113  1.00  0.00     0.167 HD
ATOM     60  C   UNL A   1      42.765  31.721  29.987  1.00  0.00     0.074 A 
ATOM     61  C   UNL A   1      41.541  32.406  30.346  1.00  0.00     0.031 C 
ATOM     62  C   UNL A   1      44.005  32.234  30.173  1.00  0.00     0.031 A 
BRANCH  49  63
ATOM     63  C   UNL A   1      48.571  28.452  28.467  1.00  0.00    -0.014 A 
ATOM     64  C   UNL A   1      49.314  27.899  29.523  1.00  0.00     0.009 A 
ATOM     65  C   UNL A   1      49.218  28.728  27.253  1.00  0.00     0.009 A 
ATOM     66  C   UNL A   1      50.679  27.649  29.372  1.00  0.00     0.001 A 
ATOM     67  C   UNL A   1      50.578  28.450  27.096  1.00  0.00     0.001 A 
ATOM     68  C   UNL A   1      51.308  27.917  28.156  1.00  0.00     0.000 A 
ENDBRANCH  49  63
BRANCH  50  69
ATOM     69  C   UNL A   1      38.678  29.552  29.190  1.00  0.00    -0.014 A 
ATOM     70  C   UNL A   1      37.924  30.132  28.156  1.00  0.00     0.009 A 
ATOM     71  C   UNL A   1      38.028  29.194  30.381  1.00  0.00     0.009 A 
ATOM     72  C   UNL A   1      36.561  30.388  28.331  1.00  0.00     0.001 A 
ATOM     73  C   UNL A   1      36.658  29.419  30.539  1.00  0.00     0.001 A 
ATOM     74  C   UNL A   1      35.930  30.031  29.521  1.00  0.00     0.000 A 
ENDBRANCH  50  69
BRANCH  62  75
ATOM     75  C   UNL A   1      44.101  33.613  30.761  1.00  0.00    -0.014 A 
ATOM     76  C   UNL A   1      44.215  33.806  32.146  1.00  0.00     0.009 A 
ATOM     77  C   UNL A   1      44.129  34.731  29.912  1.00  0.00     0.009 A 
ATOM     78  C   UNL A   1      44.325  35.096  32.671  1.00  0.00     0.001 A 
ATOM     79  C   UNL A   1      44.272  36.016  30.438  1.00  0.00     0.001 A 
ATOM     80  C   UNL A   1      44.362  36.197  31.817  1.00  0.00     0.000 A 
ENDBRANCH  62  75
ENDBRANCH  36  37
ENDBRANCH  28  31
ENDBRANCH  26  27
ENDBRANCH  25  26
ENDBRANCH   1  25
TORSDOF 15
ENDMDL
