MODEL 1
REMARK VINA RESULT:     -12.8      0.000      0.000
REMARK SMILES O=C(NCCCCNC(=O)c1ccc(-c2c3nc(c(-c4ccccc4)c4ccc([nH]4)c(-c4ccccc4)c4nc(c(-c5ccccc5)c5ccc2[nH]5)C=C4)C=C3)cc1)C1=Cc2c(ccc(Cl)c2Oc2ccccc2)O[C@H]1C(F)(F)F
REMARK SMILES IDX 5 1 4 2 3 3 1 4 2 5 59 7 60 8 76 9 61 10 75 11 62 12 67 13
REMARK SMILES IDX 63 14 65 15 64 16 66 17 77 18 78 19 79 20 80 21 68 22 69 23
REMARK SMILES IDX 70 24 74 25 71 26 73 27 72 28 6 29 7 30 8 31 9 32 10 34
REMARK SMILES IDX 11 35 12 36 58 37 13 38 57 39 14 40 15 41 16 42 51 43 17 44
REMARK SMILES IDX 56 45 50 46 52 47 18 48 55 49 49 50 48 51 19 53 41 54 26 55
REMARK SMILES IDX 40 56 27 57 30 58 39 59 53 60 28 61 29 62 38 64 54 65 31 66
REMARK SMILES IDX 20 67 21 68 25 69 22 70 24 71 23 72 42 73 43 74 47 75 44 76
REMARK SMILES IDX 46 77 45 78 32 79 33 80 37 81 34 82 36 83 35 84
REMARK H PARENT 3 6 8 33 52 52 30 63
REMARK Flexibility Score: inf
ROOT
ATOM      1  C   UNL A   1      31.673  28.188  26.910  1.00  0.00     0.023 C 
ENDROOT
BRANCH   1   2
ATOM      2  C   UNL A   1      31.472  26.919  26.087  1.00  0.00     0.116 C 
BRANCH   2   3
ATOM      3  N   UNL A   1      31.388  25.708  26.883  1.00  0.00    -0.352 N 
ATOM      4  O   UNL A   1      31.316  23.493  27.280  1.00  0.00    -0.270 OA
ATOM      5  C   UNL A   1      31.497  24.405  26.479  1.00  0.00     0.251 C 
ATOM      6  H   UNL A   1      31.232  25.842  27.845  1.00  0.00     0.163 HD
BRANCH   5   7
ATOM      7  C   UNL A   1      31.806  24.082  25.072  1.00  0.00     0.067 C 
ATOM      8  C   UNL A   1      32.141  22.831  24.738  1.00  0.00     0.029 C 
ATOM      9  C   UNL A   1      32.119  25.197  24.129  1.00  0.00     0.314 C 
ATOM     10  C   UNL A   1      33.574  22.737  24.362  1.00  0.00     0.061 A 
ATOM     11  O   UNL A   1      33.455  25.060  23.546  1.00  0.00    -0.475 OA
ATOM     12  C   UNL A   1      34.153  23.897  23.792  1.00  0.00     0.131 A 
ATOM     13  C   UNL A   1      34.382  21.630  24.714  1.00  0.00     0.156 A 
ATOM     14  C   UNL A   1      35.528  23.964  23.583  1.00  0.00     0.049 A 
ATOM     15  C   UNL A   1      35.773  21.747  24.538  1.00  0.00     0.084 A 
ATOM     16  C   UNL A   1      36.339  22.900  23.978  1.00  0.00     0.028 A 
ATOM     17  Cl  UNL A   1      36.854  20.508  25.077  1.00  0.00    -0.080 Cl
BRANCH   9  18
ATOM     18  C   UNL A   1      31.061  25.310  23.018  1.00  0.00     0.429 C 
ATOM     19  F   UNL A   1      30.510  26.544  22.948  1.00  0.00    -0.167 F 
ATOM     20  F   UNL A   1      31.600  25.049  21.804  1.00  0.00    -0.167 F 
ATOM     21  F   UNL A   1      30.042  24.435  23.204  1.00  0.00    -0.167 F 
ENDBRANCH   9  18
BRANCH  13  22
ATOM     22  O   UNL A   1      33.960  20.461  25.341  1.00  0.00    -0.455 OA
BRANCH  22  23
ATOM     23  C   UNL A   1      33.644  19.370  24.574  1.00  0.00     0.127 A 
ATOM     24  C   UNL A   1      32.538  19.457  23.724  1.00  0.00     0.047 A 
ATOM     25  C   UNL A   1      34.438  18.222  24.596  1.00  0.00     0.047 A 
ATOM     26  C   UNL A   1      32.304  18.442  22.797  1.00  0.00     0.004 A 
ATOM     27  C   UNL A   1      34.194  17.205  23.673  1.00  0.00     0.004 A 
ATOM     28  C   UNL A   1      33.143  17.326  22.759  1.00  0.00     0.000 A 
ENDBRANCH  22  23
ENDBRANCH  13  22
ENDBRANCH   5   7
ENDBRANCH   2   3
ENDBRANCH   1   2
BRANCH   1  29
ATOM     29  C   UNL A   1      33.120  28.506  27.269  1.00  0.00     0.023 C 
BRANCH  29  30
ATOM     30  C   UNL A   1      33.669  29.844  26.768  1.00  0.00     0.116 C 
BRANCH  30  31
ATOM     31  N   UNL A   1      33.695  30.902  27.767  1.00  0.00    -0.352 N 
ATOM     32  C   UNL A   1      34.677  31.216  28.687  1.00  0.00     0.251 C 
ATOM     33  H   UNL A   1      32.897  31.479  27.790  1.00  0.00     0.163 HD
ATOM     34  O   UNL A   1      34.509  32.129  29.482  1.00  0.00    -0.269 OA
BRANCH  32  35
ATOM     35  C   UNL A   1      35.908  30.394  28.749  1.00  0.00     0.039 A 
ATOM     36  C   UNL A   1      36.755  30.374  27.636  1.00  0.00     0.014 A 
ATOM     37  C   UNL A   1      36.264  29.713  29.914  1.00  0.00     0.014 A 
ATOM     38  C   UNL A   1      38.014  29.776  27.737  1.00  0.00     0.010 A 
ATOM     39  C   UNL A   1      37.546  29.182  30.036  1.00  0.00     0.010 A 
ATOM     40  C   UNL A   1      38.445  29.235  28.959  1.00  0.00    -0.014 A 
BRANCH  40  41
ATOM     41  C   UNL A   1      39.849  28.784  29.148  1.00  0.00     0.031 A 
ATOM     42  C   UNL A   1      40.887  29.718  29.704  1.00  0.00     0.074 A 
ATOM     43  C   UNL A   1      40.211  27.552  28.738  1.00  0.00     0.049 A 
ATOM     44  N   UNL A   1      42.167  29.514  29.882  1.00  0.00    -0.248 NA
ATOM     45  C   UNL A   1      40.431  31.063  30.087  1.00  0.00     0.031 C 
ATOM     46  C   UNL A   1      39.318  26.559  28.134  1.00  0.00     0.029 A 
ATOM     47  N   UNL A   1      41.433  26.925  28.760  1.00  0.00    -0.354 N 
ATOM     48  C   UNL A   1      42.674  30.708  30.378  1.00  0.00     0.074 A 
ATOM     49  C   UNL A   1      41.571  31.644  30.433  1.00  0.00     0.031 C 
ATOM     50  C   UNL A   1      40.013  25.440  27.878  1.00  0.00     0.029 A 
ATOM     51  C   UNL A   1      41.405  25.646  28.260  1.00  0.00     0.049 A 
ATOM     52  H   UNL A   1      42.252  27.353  29.102  1.00  0.00     0.167 HD
ATOM     53  C   UNL A   1      43.939  30.999  30.768  1.00  0.00     0.031 A 
ATOM     54  C   UNL A   1      42.389  24.737  28.123  1.00  0.00     0.031 A 
ATOM     55  C   UNL A   1      45.038  30.072  30.728  1.00  0.00     0.049 A 
ATOM     56  C   UNL A   1      43.784  25.086  28.558  1.00  0.00     0.074 A 
ATOM     57  C   UNL A   1      46.339  30.258  31.163  1.00  0.00     0.029 A 
ATOM     58  N   UNL A   1      44.965  28.785  30.220  1.00  0.00    -0.354 N 
ATOM     59  N   UNL A   1      44.229  26.196  29.091  1.00  0.00    -0.248 NA
ATOM     60  C   UNL A   1      44.810  24.047  28.379  1.00  0.00     0.031 C 
ATOM     61  C   UNL A   1      47.065  29.094  30.883  1.00  0.00     0.029 A 
ATOM     62  C   UNL A   1      46.204  28.171  30.312  1.00  0.00     0.049 A 
ATOM     63  H   UNL A   1      44.154  28.368  29.850  1.00  0.00     0.167 HD
ATOM     64  C   UNL A   1      45.580  25.983  29.337  1.00  0.00     0.074 A 
ATOM     65  C   UNL A   1      45.879  24.633  28.903  1.00  0.00     0.031 C 
ATOM     66  C   UNL A   1      46.488  26.830  29.877  1.00  0.00     0.031 A 
BRANCH  53  67
ATOM     67  C   UNL A   1      44.196  32.392  31.268  1.00  0.00    -0.014 A 
ATOM     68  C   UNL A   1      44.576  33.420  30.390  1.00  0.00     0.009 A 
ATOM     69  C   UNL A   1      44.043  32.683  32.632  1.00  0.00     0.009 A 
ATOM     70  C   UNL A   1      44.838  34.702  30.875  1.00  0.00     0.001 A 
ATOM     71  C   UNL A   1      44.281  33.973  33.110  1.00  0.00     0.001 A 
ATOM     72  C   UNL A   1      44.688  34.978  32.233  1.00  0.00     0.000 A 
ENDBRANCH  53  67
BRANCH  54  73
ATOM     73  C   UNL A   1      42.089  23.389  27.576  1.00  0.00    -0.014 A 
ATOM     74  C   UNL A   1      41.794  22.327  28.444  1.00  0.00     0.009 A 
ATOM     75  C   UNL A   1      42.100  23.156  26.193  1.00  0.00     0.009 A 
ATOM     76  C   UNL A   1      41.541  21.051  27.939  1.00  0.00     0.001 A 
ATOM     77  C   UNL A   1      41.822  21.882  25.690  1.00  0.00     0.001 A 
ATOM     78  C   UNL A   1      41.551  20.830  26.562  1.00  0.00     0.000 A 
ENDBRANCH  54  73
BRANCH  66  79
ATOM     79  C   UNL A   1      47.885  26.308  30.060  1.00  0.00    -0.014 A 
ATOM     80  C   UNL A   1      48.806  26.313  29.002  1.00  0.00     0.009 A 
ATOM     81  C   UNL A   1      48.289  25.834  31.317  1.00  0.00     0.009 A 
ATOM     82  C   UNL A   1      50.101  25.825  29.195  1.00  0.00     0.001 A 
ATOM     83  C   UNL A   1      49.591  25.370  31.512  1.00  0.00     0.001 A 
ATOM     84  C   UNL A   1      50.493  25.358  30.449  1.00  0.00     0.000 A 
ENDBRANCH  66  79
ENDBRANCH  40  41
ENDBRANCH  32  35
ENDBRANCH  30  31
ENDBRANCH  29  30
ENDBRANCH   1  29
TORSDOF 14
ENDMDL
MODEL 2
REMARK VINA RESULT:     -12.8      3.156      8.148
REMARK SMILES O=C(NCCCCNC(=O)c1ccc(-c2c3nc(c(-c4ccccc4)c4ccc([nH]4)c(-c4ccccc4)c4nc(c(-c5ccccc5)c5ccc2[nH]5)C=C4)C=C3)cc1)C1=Cc2c(ccc(Cl)c2Oc2ccccc2)O[C@H]1C(F)(F)F
REMARK SMILES IDX 5 1 4 2 3 3 1 4 2 5 59 7 60 8 76 9 61 10 75 11 62 12 67 13
REMARK SMILES IDX 63 14 65 15 64 16 66 17 77 18 78 19 79 20 80 21 68 22 69 23
REMARK SMILES IDX 70 24 74 25 71 26 73 27 72 28 6 29 7 30 8 31 9 32 10 34
REMARK SMILES IDX 11 35 12 36 58 37 13 38 57 39 14 40 15 41 16 42 51 43 17 44
REMARK SMILES IDX 56 45 50 46 52 47 18 48 55 49 49 50 48 51 19 53 41 54 26 55
REMARK SMILES IDX 40 56 27 57 30 58 39 59 53 60 28 61 29 62 38 64 54 65 31 66
REMARK SMILES IDX 20 67 21 68 25 69 22 70 24 71 23 72 42 73 43 74 47 75 44 76
REMARK SMILES IDX 46 77 45 78 32 79 33 80 37 81 34 82 36 83 35 84
REMARK H PARENT 3 6 8 33 52 52 30 63
REMARK Flexibility Score: inf
ROOT
ATOM      1  C   UNL A   1      33.902  22.140  25.582  1.00  0.00     0.023 C 
ENDROOT
BRANCH   1   2
ATOM      2  C   UNL A   1      33.846  23.212  26.665  1.00  0.00     0.116 C 
BRANCH   2   3
ATOM      3  N   UNL A   1      32.516  23.743  26.902  1.00  0.00    -0.352 N 
ATOM      4  O   UNL A   1      30.824  25.222  26.775  1.00  0.00    -0.270 OA
ATOM      5  C   UNL A   1      31.940  24.877  26.400  1.00  0.00     0.251 C 
ATOM      6  H   UNL A   1      31.950  23.212  27.508  1.00  0.00     0.163 HD
BRANCH   5   7
ATOM      7  C   UNL A   1      32.665  25.713  25.422  1.00  0.00     0.067 C 
ATOM      8  C   UNL A   1      33.280  26.828  25.830  1.00  0.00     0.029 C 
ATOM      9  C   UNL A   1      32.385  25.527  23.967  1.00  0.00     0.314 C 
ATOM     10  C   UNL A   1      32.588  28.042  25.329  1.00  0.00     0.061 A 
ATOM     11  O   UNL A   1      31.890  26.757  23.345  1.00  0.00    -0.475 OA
ATOM     12  C   UNL A   1      31.906  27.914  24.095  1.00  0.00     0.131 A 
ATOM     13  C   UNL A   1      32.446  29.214  26.110  1.00  0.00     0.156 A 
ATOM     14  C   UNL A   1      31.078  28.937  23.641  1.00  0.00     0.049 A 
ATOM     15  C   UNL A   1      31.563  30.208  25.650  1.00  0.00     0.084 A 
ATOM     16  C   UNL A   1      30.888  30.072  24.430  1.00  0.00     0.028 A 
ATOM     17  Cl  UNL A   1      31.208  31.606  26.606  1.00  0.00    -0.080 Cl
BRANCH   9  18
ATOM     18  C   UNL A   1      33.622  25.008  23.215  1.00  0.00     0.429 C 
ATOM     19  F   UNL A   1      33.427  23.783  22.676  1.00  0.00    -0.167 F 
ATOM     20  F   UNL A   1      33.958  25.838  22.199  1.00  0.00    -0.167 F 
ATOM     21  F   UNL A   1      34.701  24.911  24.030  1.00  0.00    -0.167 F 
ENDBRANCH   9  18
BRANCH  13  22
ATOM     22  O   UNL A   1      32.997  29.445  27.366  1.00  0.00    -0.455 OA
BRANCH  22  23
ATOM     23  C   UNL A   1      34.251  29.995  27.453  1.00  0.00     0.127 A 
ATOM     24  C   UNL A   1      34.356  31.367  27.697  1.00  0.00     0.047 A 
ATOM     25  C   UNL A   1      35.392  29.196  27.359  1.00  0.00     0.047 A 
ATOM     26  C   UNL A   1      35.606  31.919  27.979  1.00  0.00     0.004 A 
ATOM     27  C   UNL A   1      36.641  29.756  27.633  1.00  0.00     0.004 A 
ATOM     28  C   UNL A   1      36.744  31.109  27.966  1.00  0.00     0.000 A 
ENDBRANCH  22  23
ENDBRANCH  13  22
ENDBRANCH   5   7
ENDBRANCH   2   3
ENDBRANCH   1   2
BRANCH   1  29
ATOM     29  C   UNL A   1      35.120  21.224  25.638  1.00  0.00     0.023 C 
BRANCH  29  30
ATOM     30  C   UNL A   1      36.488  21.908  25.664  1.00  0.00     0.116 C 
BRANCH  30  31
ATOM     31  N   UNL A   1      37.623  21.001  25.580  1.00  0.00    -0.352 N 
ATOM     32  C   UNL A   1      38.931  21.193  25.980  1.00  0.00     0.251 C 
ATOM     33  H   UNL A   1      37.430  20.122  25.181  1.00  0.00     0.163 HD
ATOM     34  O   UNL A   1      39.768  20.322  25.796  1.00  0.00    -0.269 OA
BRANCH  32  35
ATOM     35  C   UNL A   1      39.329  22.492  26.573  1.00  0.00     0.039 A 
ATOM     36  C   UNL A   1      40.382  22.511  27.493  1.00  0.00     0.014 A 
ATOM     37  C   UNL A   1      38.725  23.684  26.172  1.00  0.00     0.014 A 
ATOM     38  C   UNL A   1      40.909  23.735  27.913  1.00  0.00     0.010 A 
ATOM     39  C   UNL A   1      39.298  24.902  26.534  1.00  0.00     0.010 A 
ATOM     40  C   UNL A   1      40.414  24.939  27.384  1.00  0.00    -0.014 A 
BRANCH  40  41
ATOM     41  C   UNL A   1      41.092  26.234  27.653  1.00  0.00     0.031 A 
ATOM     42  C   UNL A   1      42.436  26.537  27.052  1.00  0.00     0.074 A 
ATOM     43  C   UNL A   1      40.533  27.110  28.512  1.00  0.00     0.049 A 
ATOM     44  N   UNL A   1      43.197  27.588  27.224  1.00  0.00    -0.248 NA
ATOM     45  C   UNL A   1      43.009  25.516  26.162  1.00  0.00     0.031 C 
ATOM     46  C   UNL A   1      39.256  26.924  29.206  1.00  0.00     0.029 A 
ATOM     47  N   UNL A   1      40.972  28.334  28.954  1.00  0.00    -0.354 N 
ATOM     48  C   UNL A   1      44.346  27.347  26.482  1.00  0.00     0.074 A 
ATOM     49  C   UNL A   1      44.199  26.033  25.892  1.00  0.00     0.031 C 
ATOM     50  C   UNL A   1      39.000  28.007  29.956  1.00  0.00     0.029 A 
ATOM     51  C   UNL A   1      40.108  28.946  29.829  1.00  0.00     0.049 A 
ATOM     52  H   UNL A   1      41.826  28.735  28.670  1.00  0.00     0.167 HD
ATOM     53  C   UNL A   1      45.421  28.150  26.293  1.00  0.00     0.031 A 
ATOM     54  C   UNL A   1      40.195  30.133  30.461  1.00  0.00     0.031 A 
ATOM     55  C   UNL A   1      45.570  29.461  26.866  1.00  0.00     0.049 A 
ATOM     56  C   UNL A   1      41.400  31.003  30.238  1.00  0.00     0.074 A 
ATOM     57  C   UNL A   1      46.595  30.373  26.677  1.00  0.00     0.029 A 
ATOM     58  N   UNL A   1      44.669  30.046  27.740  1.00  0.00    -0.354 N 
ATOM     59  N   UNL A   1      42.443  30.788  29.476  1.00  0.00    -0.248 NA
ATOM     60  C   UNL A   1      41.431  32.284  30.961  1.00  0.00     0.031 C 
ATOM     61  C   UNL A   1      46.332  31.496  27.470  1.00  0.00     0.029 A 
ATOM     62  C   UNL A   1      45.124  31.299  28.118  1.00  0.00     0.049 A 
ATOM     63  H   UNL A   1      43.830  29.633  28.048  1.00  0.00     0.167 HD
ATOM     64  C   UNL A   1      43.242  31.917  29.604  1.00  0.00     0.074 A 
ATOM     65  C   UNL A   1      42.558  32.818  30.510  1.00  0.00     0.031 C 
ATOM     66  C   UNL A   1      44.435  32.184  29.020  1.00  0.00     0.031 A 
BRANCH  53  67
ATOM     67  C   UNL A   1      46.528  27.617  25.429  1.00  0.00    -0.014 A 
ATOM     68  C   UNL A   1      47.462  26.696  25.931  1.00  0.00     0.009 A 
ATOM     69  C   UNL A   1      46.631  28.030  24.092  1.00  0.00     0.009 A 
ATOM     70  C   UNL A   1      48.501  26.231  25.123  1.00  0.00     0.001 A 
ATOM     71  C   UNL A   1      47.656  27.545  23.279  1.00  0.00     0.001 A 
ATOM     72  C   UNL A   1      48.596  26.655  23.798  1.00  0.00     0.000 A 
ENDBRANCH  53  67
BRANCH  54  73
ATOM     73  C   UNL A   1      39.092  30.590  31.344  1.00  0.00    -0.014 A 
ATOM     74  C   UNL A   1      38.162  31.532  30.878  1.00  0.00     0.009 A 
ATOM     75  C   UNL A   1      38.966  30.096  32.650  1.00  0.00     0.009 A 
ATOM     76  C   UNL A   1      37.141  31.989  31.713  1.00  0.00     0.001 A 
ATOM     77  C   UNL A   1      37.928  30.538  33.475  1.00  0.00     0.001 A 
ATOM     78  C   UNL A   1      37.022  31.489  33.009  1.00  0.00     0.000 A 
ENDBRANCH  54  73
BRANCH  66  79
ATOM     79  C   UNL A   1      45.058  33.517  29.316  1.00  0.00    -0.014 A 
ATOM     80  C   UNL A   1      45.959  33.677  30.379  1.00  0.00     0.009 A 
ATOM     81  C   UNL A   1      44.761  34.619  28.499  1.00  0.00     0.009 A 
ATOM     82  C   UNL A   1      46.530  34.926  30.635  1.00  0.00     0.001 A 
ATOM     83  C   UNL A   1      45.352  35.860  28.744  1.00  0.00     0.001 A 
ATOM     84  C   UNL A   1      46.229  36.014  29.817  1.00  0.00     0.000 A 
ENDBRANCH  66  79
ENDBRANCH  40  41
ENDBRANCH  32  35
ENDBRANCH  30  31
ENDBRANCH  29  30
ENDBRANCH   1  29
TORSDOF 14
ENDMDL
MODEL 3
REMARK VINA RESULT:     -12.6      0.342      5.735
REMARK SMILES O=C(NCCCCNC(=O)c1ccc(-c2c3nc(c(-c4ccccc4)c4ccc([nH]4)c(-c4ccccc4)c4nc(c(-c5ccccc5)c5ccc2[nH]5)C=C4)C=C3)cc1)C1=Cc2c(ccc(Cl)c2Oc2ccccc2)O[C@H]1C(F)(F)F
REMARK SMILES IDX 5 1 4 2 3 3 1 4 2 5 59 7 60 8 76 9 61 10 75 11 62 12 67 13
REMARK SMILES IDX 63 14 65 15 64 16 66 17 77 18 78 19 79 20 80 21 68 22 69 23
REMARK SMILES IDX 70 24 74 25 71 26 73 27 72 28 6 29 7 30 8 31 9 32 10 34
REMARK SMILES IDX 11 35 12 36 58 37 13 38 57 39 14 40 15 41 16 42 51 43 17 44
REMARK SMILES IDX 56 45 50 46 52 47 18 48 55 49 49 50 48 51 19 53 41 54 26 55
REMARK SMILES IDX 40 56 27 57 30 58 39 59 53 60 28 61 29 62 38 64 54 65 31 66
REMARK SMILES IDX 20 67 21 68 25 69 22 70 24 71 23 72 42 73 43 74 47 75 44 76
REMARK SMILES IDX 46 77 45 78 32 79 33 80 37 81 34 82 36 83 35 84
REMARK H PARENT 3 6 8 33 52 52 30 63
REMARK Flexibility Score: inf
ROOT
ATOM      1  C   UNL A   1      31.402  27.856  27.108  1.00  0.00     0.023 C 
ENDROOT
BRANCH   1   2
ATOM      2  C   UNL A   1      31.569  26.615  26.236  1.00  0.00     0.116 C 
BRANCH   2   3
ATOM      3  N   UNL A   1      31.409  25.364  26.954  1.00  0.00    -0.352 N 
ATOM      4  O   UNL A   1      31.241  23.134  27.215  1.00  0.00    -0.270 OA
ATOM      5  C   UNL A   1      31.488  24.084  26.478  1.00  0.00     0.251 C 
ATOM      6  H   UNL A   1      31.216  25.447  27.915  1.00  0.00     0.163 HD
BRANCH   5   7
ATOM      7  C   UNL A   1      31.846  23.831  25.068  1.00  0.00     0.067 C 
ATOM      8  C   UNL A   1      32.250  22.612  24.695  1.00  0.00     0.029 C 
ATOM      9  C   UNL A   1      32.127  24.996  24.176  1.00  0.00     0.314 C 
ATOM     10  C   UNL A   1      33.693  22.601  24.352  1.00  0.00     0.061 A 
ATOM     11  O   UNL A   1      33.481  24.946  23.623  1.00  0.00    -0.475 OA
ATOM     12  C   UNL A   1      34.229  23.809  23.843  1.00  0.00     0.131 A 
ATOM     13  C   UNL A   1      34.546  21.521  24.683  1.00  0.00     0.156 A 
ATOM     14  C   UNL A   1      35.604  23.950  23.671  1.00  0.00     0.049 A 
ATOM     15  C   UNL A   1      35.933  21.711  24.546  1.00  0.00     0.084 A 
ATOM     16  C   UNL A   1      36.456  22.911  24.046  1.00  0.00     0.028 A 
ATOM     17  Cl  UNL A   1      37.061  20.505  25.066  1.00  0.00    -0.080 Cl
BRANCH   9  18
ATOM     18  C   UNL A   1      31.091  25.102  23.044  1.00  0.00     0.429 C 
ATOM     19  F   UNL A   1      30.521  26.327  22.974  1.00  0.00    -0.167 F 
ATOM     20  F   UNL A   1      31.660  24.861  21.839  1.00  0.00    -0.167 F 
ATOM     21  F   UNL A   1      30.083  24.209  23.200  1.00  0.00    -0.167 F 
ENDBRANCH   9  18
BRANCH  13  22
ATOM     22  O   UNL A   1      34.167  20.310  25.254  1.00  0.00    -0.455 OA
BRANCH  22  23
ATOM     23  C   UNL A   1      33.892  19.243  24.435  1.00  0.00     0.127 A 
ATOM     24  C   UNL A   1      34.714  18.117  24.520  1.00  0.00     0.047 A 
ATOM     25  C   UNL A   1      32.787  19.260  23.582  1.00  0.00     0.047 A 
ATOM     26  C   UNL A   1      34.351  16.952  23.845  1.00  0.00     0.004 A 
ATOM     27  C   UNL A   1      32.433  18.094  22.901  1.00  0.00     0.004 A 
ATOM     28  C   UNL A   1      33.201  16.936  23.052  1.00  0.00     0.000 A 
ENDBRANCH  22  23
ENDBRANCH  13  22
ENDBRANCH   5   7
ENDBRANCH   2   3
ENDBRANCH   1   2
BRANCH   1  29
ATOM     29  C   UNL A   1      32.173  29.086  26.642  1.00  0.00     0.023 C 
BRANCH  29  30
ATOM     30  C   UNL A   1      33.554  29.303  27.264  1.00  0.00     0.116 C 
BRANCH  30  31
ATOM     31  N   UNL A   1      33.696  30.545  28.009  1.00  0.00    -0.352 N 
ATOM     32  C   UNL A   1      34.799  31.048  28.672  1.00  0.00     0.251 C 
ATOM     33  H   UNL A   1      32.890  31.108  28.046  1.00  0.00     0.163 HD
ATOM     34  O   UNL A   1      34.724  32.104  29.281  1.00  0.00    -0.269 OA
BRANCH  32  35
ATOM     35  C   UNL A   1      36.057  30.266  28.694  1.00  0.00     0.039 A 
ATOM     36  C   UNL A   1      36.869  30.273  27.556  1.00  0.00     0.014 A 
ATOM     37  C   UNL A   1      36.469  29.595  29.847  1.00  0.00     0.014 A 
ATOM     38  C   UNL A   1      38.149  29.715  27.617  1.00  0.00     0.010 A 
ATOM     39  C   UNL A   1      37.771  29.104  29.929  1.00  0.00     0.010 A 
ATOM     40  C   UNL A   1      38.635  29.186  28.825  1.00  0.00    -0.014 A 
BRANCH  40  41
ATOM     41  C   UNL A   1      40.057  28.779  28.970  1.00  0.00     0.031 A 
ATOM     42  C   UNL A   1      40.505  27.400  28.577  1.00  0.00     0.074 A 
ATOM     43  C   UNL A   1      40.934  29.630  29.539  1.00  0.00     0.049 A 
ATOM     44  N   UNL A   1      41.691  26.857  28.690  1.00  0.00    -0.248 NA
ATOM     45  C   UNL A   1      39.484  26.508  28.007  1.00  0.00     0.031 C 
ATOM     46  C   UNL A   1      40.625  30.982  30.013  1.00  0.00     0.029 A 
ATOM     47  N   UNL A   1      42.270  29.480  29.823  1.00  0.00    -0.354 N 
ATOM     48  C   UNL A   1      41.555  25.555  28.225  1.00  0.00     0.074 A 
ATOM     49  C   UNL A   1      40.163  25.379  27.868  1.00  0.00     0.031 C 
ATOM     50  C   UNL A   1      41.743  31.547  30.494  1.00  0.00     0.029 A 
ATOM     51  C   UNL A   1      42.839  30.589  30.400  1.00  0.00     0.049 A 
ATOM     52  H   UNL A   1      42.772  28.655  29.630  1.00  0.00     0.167 HD
ATOM     53  C   UNL A   1      42.502  24.596  28.090  1.00  0.00     0.031 A 
ATOM     54  C   UNL A   1      44.102  30.814  30.810  1.00  0.00     0.031 A 
ATOM     55  C   UNL A   1      43.889  24.768  28.431  1.00  0.00     0.049 A 
ATOM     56  C   UNL A   1      45.133  29.733  30.654  1.00  0.00     0.074 A 
ATOM     57  C   UNL A   1      44.934  23.873  28.268  1.00  0.00     0.029 A 
ATOM     58  N   UNL A   1      44.425  25.908  29.006  1.00  0.00    -0.354 N 
ATOM     59  N   UNL A   1      45.001  28.533  30.145  1.00  0.00    -0.248 NA
ATOM     60  C   UNL A   1      46.492  30.044  31.124  1.00  0.00     0.031 C 
ATOM     61  C   UNL A   1      46.097  24.461  28.781  1.00  0.00     0.029 A 
ATOM     62  C   UNL A   1      45.782  25.734  29.225  1.00  0.00     0.049 A 
ATOM     63  H   UNL A   1      43.917  26.722  29.227  1.00  0.00     0.167 HD
ATOM     64  C   UNL A   1      46.263  27.955  30.208  1.00  0.00     0.074 A 
ATOM     65  C   UNL A   1      47.149  28.940  30.795  1.00  0.00     0.031 C 
ATOM     66  C   UNL A   1      46.651  26.720  29.810  1.00  0.00     0.031 A 
BRANCH  53  67
ATOM     67  C   UNL A   1      42.057  23.267  27.552  1.00  0.00    -0.014 A 
ATOM     68  C   UNL A   1      42.128  22.978  26.180  1.00  0.00     0.009 A 
ATOM     69  C   UNL A   1      41.574  22.284  28.431  1.00  0.00     0.009 A 
ATOM     70  C   UNL A   1      41.685  21.748  25.692  1.00  0.00     0.001 A 
ATOM     71  C   UNL A   1      41.155  21.045  27.943  1.00  0.00     0.001 A 
ATOM     72  C   UNL A   1      41.201  20.782  26.574  1.00  0.00     0.000 A 
ENDBRANCH  53  67
BRANCH  54  73
ATOM     73  C   UNL A   1      44.477  32.132  31.380  1.00  0.00    -0.014 A 
ATOM     74  C   UNL A   1      44.935  33.158  30.539  1.00  0.00     0.009 A 
ATOM     75  C   UNL A   1      44.387  32.371  32.759  1.00  0.00     0.009 A 
ATOM     76  C   UNL A   1      45.319  34.390  31.072  1.00  0.00     0.001 A 
ATOM     77  C   UNL A   1      44.750  33.613  33.286  1.00  0.00     0.001 A 
ATOM     78  C   UNL A   1      45.222  34.618  32.444  1.00  0.00     0.000 A 
ENDBRANCH  54  73
BRANCH  66  79
ATOM     79  C   UNL A   1      48.105  26.378  29.966  1.00  0.00    -0.014 A 
ATOM     80  C   UNL A   1      49.025  26.631  28.938  1.00  0.00     0.009 A 
ATOM     81  C   UNL A   1      48.562  25.823  31.171  1.00  0.00     0.009 A 
ATOM     82  C   UNL A   1      50.374  26.307  29.105  1.00  0.00     0.001 A 
ATOM     83  C   UNL A   1      49.914  25.523  31.343  1.00  0.00     0.001 A 
ATOM     84  C   UNL A   1      50.817  25.757  30.307  1.00  0.00     0.000 A 
ENDBRANCH  66  79
ENDBRANCH  40  41
ENDBRANCH  32  35
ENDBRANCH  30  31
ENDBRANCH  29  30
ENDBRANCH   1  29
TORSDOF 14
ENDMDL
