MODEL 1
REMARK VINA RESULT:     -10.5      0.000      0.000
REMARK SMILES CC1=C(CC(=O)NCCCCNC(=O)c2ccc(-c3c4nc(c(-c5ccccc5)c5ccc([nH]5)c(-c5ccccc5)c5nc(c(-c6ccccc6)c6ccc3[nH]6)C=C5)C=C4)cc2)c2cc(F)ccc2/C1=C\c1cccc(OCc2ccccc2)c1
REMARK SMILES IDX 8 1 7 2 5 3 6 4 4 6 3 7 1 8 2 9 70 10 63 11 69 12 71 13
REMARK SMILES IDX 64 14 68 15 65 16 67 17 66 18 72 19 73 20 85 21 74 22 76 23
REMARK SMILES IDX 75 24 77 25 78 26 79 27 80 28 84 29 81 30 83 31 82 32 9 33
REMARK SMILES IDX 10 34 11 35 12 36 13 37 14 39 15 40 16 41 62 42 17 43 61 44
REMARK SMILES IDX 18 45 19 46 20 47 55 48 21 49 60 50 54 51 56 52 22 53 59 54
REMARK SMILES IDX 53 55 52 56 23 58 45 59 30 60 44 61 31 62 34 63 43 64 57 65
REMARK SMILES IDX 32 66 33 67 42 69 58 70 35 71 24 72 25 73 29 74 26 75 28 76
REMARK SMILES IDX 27 77 46 78 47 79 51 80 48 81 50 82 49 83 36 84 37 85 41 86
REMARK SMILES IDX 38 87 40 88 39 89
REMARK H PARENT 7 5 12 38 56 57 34 68
REMARK Flexibility Score: inf
ROOT
ATOM      1  C   UNL A   1      34.309  35.014  30.870  1.00  0.00     0.116 C 
ENDROOT
BRANCH   1   2
ATOM      2  N   UNL A   1      33.293  34.636  29.911  1.00  0.00    -0.356 N 
ATOM      3  C   UNL A   1      33.429  34.347  28.583  1.00  0.00     0.224 C 
ATOM      4  O   UNL A   1      32.414  34.069  27.941  1.00  0.00    -0.275 OA
ATOM      5  H   UNL A   1      32.376  34.577  30.265  1.00  0.00     0.163 HD
BRANCH   3   6
ATOM      6  C   UNL A   1      34.809  34.333  27.927  1.00  0.00     0.136 C 
BRANCH   6   7
ATOM      7  C   UNL A   1      35.589  33.096  28.231  1.00  0.00    -0.027 C 
ATOM      8  C   UNL A   1      37.627  34.038  29.468  1.00  0.00     0.045 C 
ATOM      9  C   UNL A   1      36.786  32.968  28.851  1.00  0.00    -0.039 C 
ATOM     10  C   UNL A   1      37.199  31.557  28.829  1.00  0.00    -0.014 C 
ATOM     11  C   UNL A   1      35.126  31.744  27.863  1.00  0.00    -0.011 A 
ATOM     12  C   UNL A   1      36.087  30.789  28.246  1.00  0.00    -0.010 A 
ATOM     13  C   UNL A   1      38.406  31.121  29.229  1.00  0.00     0.017 C 
ATOM     14  C   UNL A   1      33.946  31.350  27.248  1.00  0.00     0.048 A 
ATOM     15  C   UNL A   1      35.865  29.434  28.038  1.00  0.00     0.012 A 
ATOM     16  C   UNL A   1      33.743  29.991  27.021  1.00  0.00     0.123 A 
ATOM     17  C   UNL A   1      34.683  29.036  27.411  1.00  0.00     0.040 A 
ATOM     18  F   UNL A   1      32.617  29.586  26.420  1.00  0.00    -0.207 F 
BRANCH  13  19
ATOM     19  C   UNL A   1      38.856  29.733  29.245  1.00  0.00    -0.021 A 
ATOM     20  C   UNL A   1      38.294  28.782  30.102  1.00  0.00     0.008 A 
ATOM     21  C   UNL A   1      39.897  29.371  28.385  1.00  0.00     0.054 A 
ATOM     22  C   UNL A   1      38.801  27.483  30.119  1.00  0.00     0.004 A 
ATOM     23  C   UNL A   1      40.372  28.063  28.363  1.00  0.00     0.120 A 
ATOM     24  C   UNL A   1      39.839  27.128  29.254  1.00  0.00     0.046 A 
BRANCH  23  25
ATOM     25  O   UNL A   1      41.329  27.583  27.509  1.00  0.00    -0.489 OA
BRANCH  25  26
ATOM     26  C   UNL A   1      42.704  27.742  27.894  1.00  0.00     0.265 C 
BRANCH  26  27
ATOM     27  C   UNL A   1      43.416  26.437  28.193  1.00  0.00    -0.011 A 
ATOM     28  C   UNL A   1      44.468  25.998  27.375  1.00  0.00     0.007 A 
ATOM     29  C   UNL A   1      43.026  25.639  29.279  1.00  0.00     0.007 A 
ATOM     30  C   UNL A   1      45.086  24.769  27.615  1.00  0.00     0.000 A 
ATOM     31  C   UNL A   1      43.643  24.411  29.515  1.00  0.00     0.000 A 
ATOM     32  C   UNL A   1      44.669  23.973  28.680  1.00  0.00     0.000 A 
ENDBRANCH  26  27
ENDBRANCH  25  26
ENDBRANCH  23  25
ENDBRANCH  13  19
ENDBRANCH   6   7
ENDBRANCH   3   6
ENDBRANCH   1   2
BRANCH   1  33
ATOM     33  C   UNL A   1      34.417  34.020  32.028  1.00  0.00     0.023 C 
BRANCH  33  34
ATOM     34  C   UNL A   1      34.804  32.598  31.627  1.00  0.00     0.023 C 
BRANCH  34  35
ATOM     35  C   UNL A   1      35.929  31.977  32.442  1.00  0.00     0.116 C 
BRANCH  35  36
ATOM     36  N   UNL A   1      36.074  32.549  33.773  1.00  0.00    -0.352 N 
ATOM     37  C   UNL A   1      37.150  32.446  34.627  1.00  0.00     0.251 C 
ATOM     38  H   UNL A   1      35.310  33.073  34.103  1.00  0.00     0.163 HD
ATOM     39  O   UNL A   1      37.097  32.913  35.761  1.00  0.00    -0.269 OA
BRANCH  37  40
ATOM     40  C   UNL A   1      38.350  31.710  34.178  1.00  0.00     0.039 A 
ATOM     41  C   UNL A   1      39.621  32.259  34.356  1.00  0.00     0.014 A 
ATOM     42  C   UNL A   1      38.190  30.502  33.495  1.00  0.00     0.014 A 
ATOM     43  C   UNL A   1      40.708  31.694  33.701  1.00  0.00     0.010 A 
ATOM     44  C   UNL A   1      39.299  29.892  32.904  1.00  0.00     0.010 A 
ATOM     45  C   UNL A   1      40.556  30.512  32.954  1.00  0.00    -0.014 A 
BRANCH  45  46
ATOM     46  C   UNL A   1      41.723  29.964  32.219  1.00  0.00     0.031 A 
ATOM     47  C   UNL A   1      42.317  30.707  31.051  1.00  0.00     0.074 A 
ATOM     48  C   UNL A   1      42.294  28.822  32.649  1.00  0.00     0.049 A 
ATOM     49  N   UNL A   1      43.350  30.384  30.313  1.00  0.00    -0.248 NA
ATOM     50  C   UNL A   1      41.676  31.973  30.661  1.00  0.00     0.031 C 
ATOM     51  C   UNL A   1      41.824  28.022  33.782  1.00  0.00     0.029 A 
ATOM     52  N   UNL A   1      43.407  28.153  32.206  1.00  0.00    -0.354 N 
ATOM     53  C   UNL A   1      43.472  31.393  29.366  1.00  0.00     0.074 A 
ATOM     54  C   UNL A   1      42.396  32.330  29.605  1.00  0.00     0.031 C 
ATOM     55  C   UNL A   1      42.670  27.000  33.976  1.00  0.00     0.029 A 
ATOM     56  C   UNL A   1      43.705  27.036  32.947  1.00  0.00     0.049 A 
ATOM     57  H   UNL A   1      43.939  28.446  31.432  1.00  0.00     0.167 HD
ATOM     58  C   UNL A   1      44.402  31.532  28.394  1.00  0.00     0.031 A 
ATOM     59  C   UNL A   1      44.692  26.130  32.812  1.00  0.00     0.031 A 
ATOM     60  C   UNL A   1      45.482  30.609  28.164  1.00  0.00     0.049 A 
ATOM     61  C   UNL A   1      45.694  26.293  31.707  1.00  0.00     0.074 A 
ATOM     62  C   UNL A   1      46.472  30.671  27.198  1.00  0.00     0.029 A 
ATOM     63  N   UNL A   1      45.721  29.467  28.911  1.00  0.00    -0.354 N 
ATOM     64  N   UNL A   1      45.785  27.248  30.815  1.00  0.00    -0.248 NA
ATOM     65  C   UNL A   1      46.727  25.254  31.587  1.00  0.00     0.031 C 
ATOM     66  C   UNL A   1      47.285  29.544  27.334  1.00  0.00     0.029 A 
ATOM     67  C   UNL A   1      46.834  28.809  28.418  1.00  0.00     0.049 A 
ATOM     68  H   UNL A   1      45.179  29.169  29.677  1.00  0.00     0.167 HD
ATOM     69  C   UNL A   1      46.885  26.930  30.031  1.00  0.00     0.074 A 
ATOM     70  C   UNL A   1      47.446  25.708  30.569  1.00  0.00     0.031 C 
ATOM     71  C   UNL A   1      47.380  27.592  28.958  1.00  0.00     0.031 A 
BRANCH  58  72
ATOM     72  C   UNL A   1      44.308  32.725  27.485  1.00  0.00    -0.014 A 
ATOM     73  C   UNL A   1      43.861  32.562  26.165  1.00  0.00     0.009 A 
ATOM     74  C   UNL A   1      44.768  33.984  27.899  1.00  0.00     0.009 A 
ATOM     75  C   UNL A   1      43.892  33.632  25.269  1.00  0.00     0.001 A 
ATOM     76  C   UNL A   1      44.777  35.059  27.007  1.00  0.00     0.001 A 
ATOM     77  C   UNL A   1      44.350  34.880  25.691  1.00  0.00     0.000 A 
ENDBRANCH  58  72
BRANCH  59  78
ATOM     78  C   UNL A   1      44.759  24.984  33.754  1.00  0.00    -0.014 A 
ATOM     79  C   UNL A   1      44.072  23.792  33.469  1.00  0.00     0.009 A 
ATOM     80  C   UNL A   1      45.465  25.089  34.961  1.00  0.00     0.009 A 
ATOM     81  C   UNL A   1      44.069  22.740  34.384  1.00  0.00     0.001 A 
ATOM     82  C   UNL A   1      45.483  24.021  35.862  1.00  0.00     0.001 A 
ATOM     83  C   UNL A   1      44.779  22.852  35.577  1.00  0.00     0.000 A 
ENDBRANCH  59  78
BRANCH  71  84
ATOM     84  C   UNL A   1      48.592  27.021  28.282  1.00  0.00    -0.014 A 
ATOM     85  C   UNL A   1      49.874  27.429  28.686  1.00  0.00     0.009 A 
ATOM     86  C   UNL A   1      48.464  26.160  27.182  1.00  0.00     0.009 A 
ATOM     87  C   UNL A   1      51.004  26.995  27.993  1.00  0.00     0.001 A 
ATOM     88  C   UNL A   1      49.598  25.709  26.506  1.00  0.00     0.001 A 
ATOM     89  C   UNL A   1      50.866  26.133  26.905  1.00  0.00     0.000 A 
ENDBRANCH  71  84
ENDBRANCH  45  46
ENDBRANCH  37  40
ENDBRANCH  35  36
ENDBRANCH  34  35
ENDBRANCH  33  34
ENDBRANCH   1  33
TORSDOF 16
ENDMDL
MODEL 2
REMARK VINA RESULT:     -10.4      0.659      5.630
REMARK SMILES CC1=C(CC(=O)NCCCCNC(=O)c2ccc(-c3c4nc(c(-c5ccccc5)c5ccc([nH]5)c(-c5ccccc5)c5nc(c(-c6ccccc6)c6ccc3[nH]6)C=C5)C=C4)cc2)c2cc(F)ccc2/C1=C\c1cccc(OCc2ccccc2)c1
REMARK SMILES IDX 8 1 7 2 5 3 6 4 4 6 3 7 1 8 2 9 70 10 63 11 69 12 71 13
REMARK SMILES IDX 64 14 68 15 65 16 67 17 66 18 72 19 73 20 85 21 74 22 76 23
REMARK SMILES IDX 75 24 77 25 78 26 79 27 80 28 84 29 81 30 83 31 82 32 9 33
REMARK SMILES IDX 10 34 11 35 12 36 13 37 14 39 15 40 16 41 62 42 17 43 61 44
REMARK SMILES IDX 18 45 19 46 20 47 55 48 21 49 60 50 54 51 56 52 22 53 59 54
REMARK SMILES IDX 53 55 52 56 23 58 45 59 30 60 44 61 31 62 34 63 43 64 57 65
REMARK SMILES IDX 32 66 33 67 42 69 58 70 35 71 24 72 25 73 29 74 26 75 28 76
REMARK SMILES IDX 27 77 46 78 47 79 51 80 48 81 50 82 49 83 36 84 37 85 41 86
REMARK SMILES IDX 38 87 40 88 39 89
REMARK H PARENT 7 5 12 38 56 57 34 68
REMARK Flexibility Score: inf
ROOT
ATOM      1  C   UNL A   1      34.444  34.848  31.434  1.00  0.00     0.116 C 
ENDROOT
BRANCH   1   2
ATOM      2  N   UNL A   1      33.418  34.657  30.429  1.00  0.00    -0.356 N 
ATOM      3  C   UNL A   1      33.551  34.553  29.074  1.00  0.00     0.224 C 
ATOM      4  O   UNL A   1      32.530  34.416  28.399  1.00  0.00    -0.275 OA
ATOM      5  H   UNL A   1      32.497  34.593  30.771  1.00  0.00     0.163 HD
BRANCH   3   6
ATOM      6  C   UNL A   1      34.934  34.567  28.425  1.00  0.00     0.136 C 
BRANCH   6   7
ATOM      7  C   UNL A   1      35.686  33.291  28.622  1.00  0.00    -0.027 C 
ATOM      8  C   UNL A   1      37.779  34.091  29.869  1.00  0.00     0.045 C 
ATOM      9  C   UNL A   1      36.894  33.089  29.201  1.00  0.00    -0.039 C 
ATOM     10  C   UNL A   1      37.267  31.673  29.071  1.00  0.00    -0.014 C 
ATOM     11  C   UNL A   1      35.177  31.981  28.174  1.00  0.00    -0.011 A 
ATOM     12  C   UNL A   1      36.121  30.977  28.465  1.00  0.00    -0.010 A 
ATOM     13  C   UNL A   1      38.471  31.179  29.409  1.00  0.00     0.017 C 
ATOM     14  C   UNL A   1      33.972  31.662  27.563  1.00  0.00     0.048 A 
ATOM     15  C   UNL A   1      35.856  29.646  28.169  1.00  0.00     0.012 A 
ATOM     16  C   UNL A   1      33.726  30.328  27.249  1.00  0.00     0.123 A 
ATOM     17  C   UNL A   1      34.649  29.324  27.547  1.00  0.00     0.040 A 
ATOM     18  F   UNL A   1      32.576  29.996  26.649  1.00  0.00    -0.207 F 
BRANCH  13  19
ATOM     19  C   UNL A   1      38.882  29.781  29.317  1.00  0.00    -0.021 A 
ATOM     20  C   UNL A   1      38.322  28.789  30.129  1.00  0.00     0.008 A 
ATOM     21  C   UNL A   1      39.884  29.452  28.399  1.00  0.00     0.054 A 
ATOM     22  C   UNL A   1      38.793  27.480  30.041  1.00  0.00     0.004 A 
ATOM     23  C   UNL A   1      40.321  28.136  28.274  1.00  0.00     0.120 A 
ATOM     24  C   UNL A   1      39.792  27.157  29.119  1.00  0.00     0.046 A 
BRANCH  23  25
ATOM     25  O   UNL A   1      41.235  27.690  27.357  1.00  0.00    -0.489 OA
BRANCH  25  26
ATOM     26  C   UNL A   1      42.618  27.682  27.748  1.00  0.00     0.265 C 
BRANCH  26  27
ATOM     27  C   UNL A   1      43.233  26.298  27.812  1.00  0.00    -0.011 A 
ATOM     28  C   UNL A   1      42.908  25.424  28.861  1.00  0.00     0.007 A 
ATOM     29  C   UNL A   1      44.147  25.872  26.836  1.00  0.00     0.007 A 
ATOM     30  C   UNL A   1      43.517  24.171  28.954  1.00  0.00     0.000 A 
ATOM     31  C   UNL A   1      44.756  24.621  26.932  1.00  0.00     0.000 A 
ATOM     32  C   UNL A   1      44.445  23.773  27.993  1.00  0.00     0.000 A 
ENDBRANCH  26  27
ENDBRANCH  25  26
ENDBRANCH  23  25
ENDBRANCH  13  19
ENDBRANCH   6   7
ENDBRANCH   3   6
ENDBRANCH   1   2
BRANCH   1  33
ATOM     33  C   UNL A   1      34.339  33.834  32.575  1.00  0.00     0.023 C 
BRANCH  33  34
ATOM     34  C   UNL A   1      35.622  33.061  32.874  1.00  0.00     0.023 C 
BRANCH  34  35
ATOM     35  C   UNL A   1      36.598  33.760  33.806  1.00  0.00     0.116 C 
BRANCH  35  36
ATOM     36  N   UNL A   1      36.792  33.075  35.076  1.00  0.00    -0.352 N 
ATOM     37  C   UNL A   1      37.784  32.182  35.416  1.00  0.00     0.251 C 
ATOM     38  H   UNL A   1      36.133  33.274  35.779  1.00  0.00     0.163 HD
ATOM     39  O   UNL A   1      37.772  31.615  36.504  1.00  0.00    -0.269 OA
BRANCH  37  40
ATOM     40  C   UNL A   1      38.834  31.870  34.423  1.00  0.00     0.039 A 
ATOM     41  C   UNL A   1      38.595  30.937  33.413  1.00  0.00     0.014 A 
ATOM     42  C   UNL A   1      40.094  32.458  34.562  1.00  0.00     0.014 A 
ATOM     43  C   UNL A   1      39.659  30.459  32.658  1.00  0.00     0.010 A 
ATOM     44  C   UNL A   1      41.146  32.032  33.746  1.00  0.00     0.010 A 
ATOM     45  C   UNL A   1      40.949  30.991  32.827  1.00  0.00    -0.014 A 
BRANCH  45  46
ATOM     46  C   UNL A   1      42.076  30.421  32.047  1.00  0.00     0.031 A 
ATOM     47  C   UNL A   1      42.661  29.080  32.404  1.00  0.00     0.074 A 
ATOM     48  C   UNL A   1      42.531  31.086  30.967  1.00  0.00     0.049 A 
ATOM     49  N   UNL A   1      43.630  28.424  31.815  1.00  0.00    -0.248 NA
ATOM     50  C   UNL A   1      42.088  28.382  33.566  1.00  0.00     0.031 C 
ATOM     51  C   UNL A   1      42.032  32.384  30.507  1.00  0.00     0.029 A 
ATOM     52  N   UNL A   1      43.491  30.751  30.046  1.00  0.00    -0.354 N 
ATOM     53  C   UNL A   1      43.792  27.250  32.540  1.00  0.00     0.074 A 
ATOM     54  C   UNL A   1      42.839  27.290  33.628  1.00  0.00     0.031 C 
ATOM     55  C   UNL A   1      42.653  32.711  29.365  1.00  0.00     0.029 A 
ATOM     56  C   UNL A   1      43.635  31.679  29.044  1.00  0.00     0.049 A 
ATOM     57  H   UNL A   1      44.024  29.926  30.098  1.00  0.00     0.167 HD
ATOM     58  C   UNL A   1      44.649  26.229  32.313  1.00  0.00     0.031 A 
ATOM     59  C   UNL A   1      44.472  31.710  27.989  1.00  0.00     0.031 A 
ATOM     60  C   UNL A   1      45.587  26.180  31.224  1.00  0.00     0.049 A 
ATOM     61  C   UNL A   1      45.432  30.576  27.778  1.00  0.00     0.074 A 
ATOM     62  C   UNL A   1      46.496  25.181  30.919  1.00  0.00     0.029 A 
ATOM     63  N   UNL A   1      45.730  27.162  30.257  1.00  0.00    -0.354 N 
ATOM     64  N   UNL A   1      45.577  29.481  28.483  1.00  0.00    -0.248 NA
ATOM     65  C   UNL A   1      46.344  30.682  26.630  1.00  0.00     0.031 C 
ATOM     66  C   UNL A   1      47.219  25.578  29.792  1.00  0.00     0.029 A 
ATOM     67  C   UNL A   1      46.723  26.799  29.364  1.00  0.00     0.049 A 
ATOM     68  H   UNL A   1      45.205  27.994  30.214  1.00  0.00     0.167 HD
ATOM     69  C   UNL A   1      46.592  28.765  27.863  1.00  0.00     0.074 A 
ATOM     70  C   UNL A   1      47.008  29.536  26.710  1.00  0.00     0.031 C 
ATOM     71  C   UNL A   1      47.131  27.576  28.224  1.00  0.00     0.031 A 
BRANCH  58  72
ATOM     72  C   UNL A   1      44.630  25.062  33.260  1.00  0.00    -0.014 A 
ATOM     73  C   UNL A   1      45.427  25.088  34.416  1.00  0.00     0.009 A 
ATOM     74  C   UNL A   1      43.914  23.895  32.952  1.00  0.00     0.009 A 
ATOM     75  C   UNL A   1      45.522  23.963  35.236  1.00  0.00     0.001 A 
ATOM     76  C   UNL A   1      43.995  22.778  33.787  1.00  0.00     0.001 A 
ATOM     77  C   UNL A   1      44.806  22.809  34.921  1.00  0.00     0.000 A 
ENDBRANCH  58  72
BRANCH  59  78
ATOM     78  C   UNL A   1      44.431  32.872  27.065  1.00  0.00    -0.014 A 
ATOM     79  C   UNL A   1      43.778  32.767  25.825  1.00  0.00     0.009 A 
ATOM     80  C   UNL A   1      45.084  34.069  27.390  1.00  0.00     0.009 A 
ATOM     81  C   UNL A   1      43.801  33.828  24.921  1.00  0.00     0.001 A 
ATOM     82  C   UNL A   1      45.079  35.141  26.493  1.00  0.00     0.001 A 
ATOM     83  C   UNL A   1      44.446  35.016  25.257  1.00  0.00     0.000 A 
ENDBRANCH  59  78
BRANCH  71  84
ATOM     84  C   UNL A   1      48.235  27.022  27.371  1.00  0.00    -0.014 A 
ATOM     85  C   UNL A   1      49.569  27.359  27.651  1.00  0.00     0.009 A 
ATOM     86  C   UNL A   1      47.949  26.252  26.234  1.00  0.00     0.009 A 
ATOM     87  C   UNL A   1      50.595  26.945  26.801  1.00  0.00     0.001 A 
ATOM     88  C   UNL A   1      48.980  25.820  25.399  1.00  0.00     0.001 A 
ATOM     89  C   UNL A   1      50.300  26.174  25.677  1.00  0.00     0.000 A 
ENDBRANCH  71  84
ENDBRANCH  45  46
ENDBRANCH  37  40
ENDBRANCH  35  36
ENDBRANCH  34  35
ENDBRANCH  33  34
ENDBRANCH   1  33
TORSDOF 16
ENDMDL
MODEL 3
REMARK VINA RESULT:     -10.1      3.975     10.603
REMARK SMILES CC1=C(CC(=O)NCCCCNC(=O)c2ccc(-c3c4nc(c(-c5ccccc5)c5ccc([nH]5)c(-c5ccccc5)c5nc(c(-c6ccccc6)c6ccc3[nH]6)C=C5)C=C4)cc2)c2cc(F)ccc2/C1=C\c1cccc(OCc2ccccc2)c1
REMARK SMILES IDX 8 1 7 2 5 3 6 4 4 6 3 7 1 8 2 9 70 10 63 11 69 12 71 13
REMARK SMILES IDX 64 14 68 15 65 16 67 17 66 18 72 19 73 20 85 21 74 22 76 23
REMARK SMILES IDX 75 24 77 25 78 26 79 27 80 28 84 29 81 30 83 31 82 32 9 33
REMARK SMILES IDX 10 34 11 35 12 36 13 37 14 39 15 40 16 41 62 42 17 43 61 44
REMARK SMILES IDX 18 45 19 46 20 47 55 48 21 49 60 50 54 51 56 52 22 53 59 54
REMARK SMILES IDX 53 55 52 56 23 58 45 59 30 60 44 61 31 62 34 63 43 64 57 65
REMARK SMILES IDX 32 66 33 67 42 69 58 70 35 71 24 72 25 73 29 74 26 75 28 76
REMARK SMILES IDX 27 77 46 78 47 79 51 80 48 81 50 82 49 83 36 84 37 85 41 86
REMARK SMILES IDX 38 87 40 88 39 89
REMARK H PARENT 7 5 12 38 56 57 34 68
REMARK Flexibility Score: inf
ROOT
ATOM      1  C   UNL A   1      47.440  26.793  31.047  1.00  0.00     0.116 C 
ENDROOT
BRANCH   1   2
ATOM      2  N   UNL A   1      46.697  27.180  29.865  1.00  0.00    -0.356 N 
ATOM      3  C   UNL A   1      46.332  26.418  28.792  1.00  0.00     0.224 C 
ATOM      4  O   UNL A   1      45.716  26.964  27.875  1.00  0.00    -0.275 OA
ATOM      5  H   UNL A   1      46.415  28.122  29.831  1.00  0.00     0.163 HD
BRANCH   3   6
ATOM      6  C   UNL A   1      46.648  24.924  28.755  1.00  0.00     0.136 C 
BRANCH   6   7
ATOM      7  C   UNL A   1      45.516  24.100  28.234  1.00  0.00    -0.027 C 
ATOM      8  C   UNL A   1      43.967  23.966  30.273  1.00  0.00     0.045 C 
ATOM      9  C   UNL A   1      44.403  23.670  28.874  1.00  0.00    -0.039 C 
ATOM     10  C   UNL A   1      43.626  22.802  27.976  1.00  0.00    -0.014 C 
ATOM     11  C   UNL A   1      45.457  23.601  26.846  1.00  0.00    -0.011 A 
ATOM     12  C   UNL A   1      44.295  22.827  26.665  1.00  0.00    -0.010 A 
ATOM     13  C   UNL A   1      42.548  22.096  28.359  1.00  0.00     0.017 C 
ATOM     14  C   UNL A   1      46.340  23.806  25.795  1.00  0.00     0.048 A 
ATOM     15  C   UNL A   1      43.996  22.274  25.427  1.00  0.00     0.012 A 
ATOM     16  C   UNL A   1      46.044  23.227  24.564  1.00  0.00     0.123 A 
ATOM     17  C   UNL A   1      44.886  22.472  24.371  1.00  0.00     0.040 A 
ATOM     18  F   UNL A   1      46.885  23.401  23.537  1.00  0.00    -0.207 F 
BRANCH  13  19
ATOM     19  C   UNL A   1      41.735  21.238  27.503  1.00  0.00    -0.021 A 
ATOM     20  C   UNL A   1      42.121  19.934  27.180  1.00  0.00     0.008 A 
ATOM     21  C   UNL A   1      40.550  21.767  26.982  1.00  0.00     0.054 A 
ATOM     22  C   UNL A   1      41.336  19.177  26.311  1.00  0.00     0.004 A 
ATOM     23  C   UNL A   1      39.738  20.996  26.154  1.00  0.00     0.120 A 
ATOM     24  C   UNL A   1      40.151  19.710  25.797  1.00  0.00     0.046 A 
BRANCH  23  25
ATOM     25  O   UNL A   1      38.523  21.384  25.655  1.00  0.00    -0.489 OA
BRANCH  25  26
ATOM     26  C   UNL A   1      38.086  22.724  25.933  1.00  0.00     0.265 C 
BRANCH  26  27
ATOM     27  C   UNL A   1      36.915  23.181  25.085  1.00  0.00    -0.011 A 
ATOM     28  C   UNL A   1      36.012  24.136  25.576  1.00  0.00     0.007 A 
ATOM     29  C   UNL A   1      36.705  22.646  23.805  1.00  0.00     0.007 A 
ATOM     30  C   UNL A   1      34.901  24.514  24.820  1.00  0.00     0.000 A 
ATOM     31  C   UNL A   1      35.594  23.024  23.052  1.00  0.00     0.000 A 
ATOM     32  C   UNL A   1      34.689  23.953  23.562  1.00  0.00     0.000 A 
ENDBRANCH  26  27
ENDBRANCH  25  26
ENDBRANCH  23  25
ENDBRANCH  13  19
ENDBRANCH   6   7
ENDBRANCH   3   6
ENDBRANCH   1   2
BRANCH   1  33
ATOM     33  C   UNL A   1      46.593  25.980  32.028  1.00  0.00     0.023 C 
BRANCH  33  34
ATOM     34  C   UNL A   1      47.387  25.130  33.019  1.00  0.00     0.023 C 
BRANCH  34  35
ATOM     35  C   UNL A   1      48.290  25.908  33.963  1.00  0.00     0.116 C 
BRANCH  35  36
ATOM     36  N   UNL A   1      48.158  25.516  35.359  1.00  0.00    -0.352 N 
ATOM     37  C   UNL A   1      47.137  25.820  36.232  1.00  0.00     0.251 C 
ATOM     38  H   UNL A   1      48.888  24.967  35.724  1.00  0.00     0.163 HD
ATOM     39  O   UNL A   1      47.202  25.489  37.412  1.00  0.00    -0.269 OA
BRANCH  37  40
ATOM     40  C   UNL A   1      45.986  26.605  35.739  1.00  0.00     0.039 A 
ATOM     41  C   UNL A   1      44.719  26.025  35.660  1.00  0.00     0.014 A 
ATOM     42  C   UNL A   1      46.201  27.905  35.273  1.00  0.00     0.014 A 
ATOM     43  C   UNL A   1      43.713  26.673  34.956  1.00  0.00     0.010 A 
ATOM     44  C   UNL A   1      45.162  28.588  34.635  1.00  0.00     0.010 A 
ATOM     45  C   UNL A   1      43.928  27.956  34.421  1.00  0.00    -0.014 A 
BRANCH  45  46
ATOM     46  C   UNL A   1      42.853  28.599  33.625  1.00  0.00     0.031 A 
ATOM     47  C   UNL A   1      42.617  28.207  32.190  1.00  0.00     0.074 A 
ATOM     48  C   UNL A   1      42.041  29.495  34.219  1.00  0.00     0.049 A 
ATOM     49  N   UNL A   1      41.708  28.651  31.358  1.00  0.00    -0.248 NA
ATOM     50  C   UNL A   1      43.508  27.188  31.614  1.00  0.00     0.031 C 
ATOM     51  C   UNL A   1      42.155  29.941  35.610  1.00  0.00     0.029 A 
ATOM     52  N   UNL A   1      40.944  30.166  33.742  1.00  0.00    -0.354 N 
ATOM     53  C   UNL A   1      41.927  27.980  30.161  1.00  0.00     0.074 A 
ATOM     54  C   UNL A   1      43.069  27.115  30.364  1.00  0.00     0.031 C 
ATOM     55  C   UNL A   1      41.140  30.772  35.887  1.00  0.00     0.029 A 
ATOM     56  C   UNL A   1      40.340  30.966  34.681  1.00  0.00     0.049 A 
ATOM     57  H   UNL A   1      40.622  30.083  32.816  1.00  0.00     0.167 HD
ATOM     58  C   UNL A   1      41.233  28.069  29.003  1.00  0.00     0.031 A 
ATOM     59  C   UNL A   1      39.270  31.777  34.586  1.00  0.00     0.031 A 
ATOM     60  C   UNL A   1      40.089  28.917  28.804  1.00  0.00     0.049 A 
ATOM     61  C   UNL A   1      38.535  31.878  33.281  1.00  0.00     0.074 A 
ATOM     62  C   UNL A   1      39.324  29.070  27.660  1.00  0.00     0.029 A 
ATOM     63  N   UNL A   1      39.537  29.743  29.769  1.00  0.00    -0.354 N 
ATOM     64  N   UNL A   1      38.767  31.244  32.158  1.00  0.00    -0.248 NA
ATOM     65  C   UNL A   1      37.397  32.805  33.228  1.00  0.00     0.031 C 
ATOM     66  C   UNL A   1      38.336  30.022  27.920  1.00  0.00     0.029 A 
ATOM     67  C   UNL A   1      38.451  30.420  29.242  1.00  0.00     0.049 A 
ATOM     68  H   UNL A   1      39.869  29.835  30.692  1.00  0.00     0.167 HD
ATOM     69  C   UNL A   1      37.801  31.690  31.267  1.00  0.00     0.074 A 
ATOM     70  C   UNL A   1      36.966  32.629  31.986  1.00  0.00     0.031 C 
ATOM     71  C   UNL A   1      37.630  31.354  29.966  1.00  0.00     0.031 A 
BRANCH  58  72
ATOM     72  C   UNL A   1      41.683  27.232  27.839  1.00  0.00    -0.014 A 
ATOM     73  C   UNL A   1      42.562  27.774  26.889  1.00  0.00     0.009 A 
ATOM     74  C   UNL A   1      41.151  25.951  27.624  1.00  0.00     0.009 A 
ATOM     75  C   UNL A   1      42.886  27.059  25.735  1.00  0.00     0.001 A 
ATOM     76  C   UNL A   1      41.494  25.229  26.478  1.00  0.00     0.001 A 
ATOM     77  C   UNL A   1      42.352  25.787  25.530  1.00  0.00     0.000 A 
ENDBRANCH  58  72
BRANCH  59  78
ATOM     78  C   UNL A   1      38.846  32.562  35.774  1.00  0.00    -0.014 A 
ATOM     79  C   UNL A   1      39.373  33.845  35.998  1.00  0.00     0.009 A 
ATOM     80  C   UNL A   1      37.958  32.018  36.713  1.00  0.00     0.009 A 
ATOM     81  C   UNL A   1      39.038  34.557  37.150  1.00  0.00     0.001 A 
ATOM     82  C   UNL A   1      37.602  32.747  37.850  1.00  0.00     0.001 A 
ATOM     83  C   UNL A   1      38.149  34.010  38.072  1.00  0.00     0.000 A 
ENDBRANCH  59  78
BRANCH  71  84
ATOM     84  C   UNL A   1      36.497  31.997  29.221  1.00  0.00    -0.014 A 
ATOM     85  C   UNL A   1      36.630  33.315  28.753  1.00  0.00     0.009 A 
ATOM     86  C   UNL A   1      35.267  31.341  29.073  1.00  0.00     0.009 A 
ATOM     87  C   UNL A   1      35.548  33.966  28.160  1.00  0.00     0.001 A 
ATOM     88  C   UNL A   1      34.193  31.986  28.458  1.00  0.00     0.001 A 
ATOM     89  C   UNL A   1      34.331  33.300  28.011  1.00  0.00     0.000 A 
ENDBRANCH  71  84
ENDBRANCH  45  46
ENDBRANCH  37  40
ENDBRANCH  35  36
ENDBRANCH  34  35
ENDBRANCH  33  34
ENDBRANCH   1  33
TORSDOF 16
ENDMDL
