MODEL 1
REMARK VINA RESULT:     -10.5      0.000      0.000
REMARK SMILES CCC(CC)(NC(=O)N(C)C1CC[NH2+]CC1)C(=O)NCCCCNC(=O)c1ccc(-c2c3nc(c(-c4ccccc4)c4ccc([nH]4)c(-c4ccccc4)c4nc(c(-c5ccccc5)c5ccc2[nH]5)C=C4)C=C3)cc1
REMARK SMILES IDX 21 1 20 2 19 3 17 4 18 5 3 7 2 8 1 9 4 10 5 11 6 12 7 13
REMARK SMILES IDX 8 15 9 16 10 17 11 18 12 19 16 20 13 21 15 22 14 23 22 26
REMARK SMILES IDX 23 27 24 28 25 29 26 31 27 32 28 33 74 34 29 35 73 36 30 37
REMARK SMILES IDX 31 38 32 39 67 40 33 41 72 42 66 43 68 44 34 45 71 46 65 47
REMARK SMILES IDX 64 48 35 50 57 51 42 52 56 53 43 54 46 55 55 56 69 57 44 58
REMARK SMILES IDX 45 59 54 61 70 62 47 63 36 64 37 65 41 66 38 67 40 68 39 69
REMARK SMILES IDX 58 70 59 71 63 72 60 73 62 74 61 75 48 76 49 77 53 78 50 79
REMARK SMILES IDX 52 80 51 81
REMARK H PARENT 19 6 6 14 14 24 14 25 24 30 68 49 46 60
REMARK Flexibility Score: inf
ROOT
ATOM      1  C   UNL A   1      36.403  20.378  25.013  1.00  0.00     0.023 C 
ENDROOT
BRANCH   1   2
ATOM      2  C   UNL A   1      36.332  21.820  25.482  1.00  0.00     0.116 C 
BRANCH   2   3
ATOM      3  N   UNL A   1      35.593  22.029  26.720  1.00  0.00    -0.354 N 
ATOM      4  C   UNL A   1      34.320  22.470  26.969  1.00  0.00     0.245 C 
ATOM      5  O   UNL A   1      33.932  22.364  28.138  1.00  0.00    -0.272 OA
ATOM      6  H   UNL A   1      36.107  21.813  27.531  1.00  0.00     0.163 HD
BRANCH   4   7
ATOM      7  C   UNL A   1      33.375  22.958  25.827  1.00  0.00     0.120 C 
BRANCH   7   8
ATOM      8  C   UNL A   1      33.255  22.041  24.570  1.00  0.00     0.035 C 
ATOM      9  C   UNL A   1      32.659  20.650  24.755  1.00  0.00     0.007 C 
ENDBRANCH   7   8
BRANCH   7  10
ATOM     10  C   UNL A   1      34.032  24.321  25.372  1.00  0.00     0.035 C 
ATOM     11  C   UNL A   1      34.403  24.473  23.904  1.00  0.00     0.007 C 
ENDBRANCH   7  10
BRANCH   7  12
ATOM     12  N   UNL A   1      31.996  23.153  26.367  1.00  0.00    -0.323 N 
ATOM     13  C   UNL A   1      30.973  24.041  26.293  1.00  0.00     0.318 C 
ATOM     14  H   UNL A   1      31.754  22.407  26.961  1.00  0.00     0.166 HD
ATOM     15  O   UNL A   1      30.133  23.880  27.182  1.00  0.00    -0.249 OA
BRANCH  13  16
ATOM     16  N   UNL A   1      30.781  24.929  25.267  1.00  0.00    -0.324 N 
ATOM     17  C   UNL A   1      30.652  24.576  23.858  1.00  0.00     0.149 C 
BRANCH  16  18
ATOM     18  C   UNL A   1      30.757  26.418  25.492  1.00  0.00     0.097 C 
ATOM     19  C   UNL A   1      31.030  27.237  24.225  1.00  0.00     0.086 C 
ATOM     20  C   UNL A   1      31.510  27.043  26.690  1.00  0.00     0.086 C 
ATOM     21  C   UNL A   1      32.512  27.502  24.035  1.00  0.00     0.262 C 
ATOM     22  C   UNL A   1      32.925  27.544  26.405  1.00  0.00     0.262 C 
ATOM     23  N   UNL A   1      33.030  28.289  25.152  1.00  0.00    -0.346 N 
ATOM     24  H   UNL A   1      32.493  29.152  25.231  1.00  0.00     0.346 HD
ATOM     25  H   UNL A   1      34.013  28.498  24.977  1.00  0.00     0.346 HD
ENDBRANCH  16  18
ENDBRANCH  13  16
ENDBRANCH   7  12
ENDBRANCH   4   7
ENDBRANCH   2   3
ENDBRANCH   1   2
BRANCH   1  26
ATOM     26  C   UNL A   1      37.795  19.851  24.705  1.00  0.00     0.023 C 
BRANCH  26  27
ATOM     27  C   UNL A   1      38.837  20.273  25.720  1.00  0.00     0.116 C 
BRANCH  27  28
ATOM     28  N   UNL A   1      39.946  19.332  25.791  1.00  0.00    -0.352 N 
ATOM     29  C   UNL A   1      41.267  19.556  26.084  1.00  0.00     0.251 C 
ATOM     30  H   UNL A   1      39.712  18.395  25.600  1.00  0.00     0.163 HD
ATOM     31  O   UNL A   1      42.096  18.676  25.905  1.00  0.00    -0.269 OA
BRANCH  29  32
ATOM     32  C   UNL A   1      41.678  20.877  26.599  1.00  0.00     0.039 A 
ATOM     33  C   UNL A   1      42.123  21.846  25.700  1.00  0.00     0.014 A 
ATOM     34  C   UNL A   1      41.611  21.158  27.967  1.00  0.00     0.014 A 
ATOM     35  C   UNL A   1      42.448  23.118  26.169  1.00  0.00     0.010 A 
ATOM     36  C   UNL A   1      41.824  22.453  28.413  1.00  0.00     0.010 A 
ATOM     37  C   UNL A   1      42.266  23.440  27.524  1.00  0.00    -0.014 A 
BRANCH  37  38
ATOM     38  C   UNL A   1      42.564  24.794  28.044  1.00  0.00     0.031 A 
ATOM     39  C   UNL A   1      43.968  25.143  28.456  1.00  0.00     0.074 A 
ATOM     40  C   UNL A   1      41.563  25.680  28.207  1.00  0.00     0.049 A 
ATOM     41  N   UNL A   1      44.419  26.249  28.992  1.00  0.00    -0.248 NA
ATOM     42  C   UNL A   1      44.995  24.104  28.273  1.00  0.00     0.031 C 
ATOM     43  C   UNL A   1      40.153  25.439  27.886  1.00  0.00     0.029 A 
ATOM     44  N   UNL A   1      41.579  26.964  28.688  1.00  0.00    -0.354 N 
ATOM     45  C   UNL A   1      45.769  26.026  29.230  1.00  0.00     0.074 A 
ATOM     46  C   UNL A   1      46.052  24.664  28.839  1.00  0.00     0.031 C 
ATOM     47  C   UNL A   1      39.449  26.554  28.141  1.00  0.00     0.029 A 
ATOM     48  C   UNL A   1      40.345  27.567  28.686  1.00  0.00     0.049 A 
ATOM     49  H   UNL A   1      42.397  27.410  29.005  1.00  0.00     0.167 HD
ATOM     50  C   UNL A   1      46.698  26.886  29.708  1.00  0.00     0.031 A 
ATOM     51  C   UNL A   1      39.978  28.799  29.084  1.00  0.00     0.031 A 
ATOM     52  C   UNL A   1      46.415  28.246  30.077  1.00  0.00     0.049 A 
ATOM     53  C   UNL A   1      41.027  29.733  29.622  1.00  0.00     0.074 A 
ATOM     54  C   UNL A   1      47.294  29.222  30.511  1.00  0.00     0.029 A 
ATOM     55  N   UNL A   1      45.154  28.820  30.056  1.00  0.00    -0.354 N 
ATOM     56  N   UNL A   1      42.315  29.532  29.771  1.00  0.00    -0.248 NA
ATOM     57  C   UNL A   1      40.571  31.066  30.038  1.00  0.00     0.031 C 
ATOM     58  C   UNL A   1      46.555  30.370  30.810  1.00  0.00     0.029 A 
ATOM     59  C   UNL A   1      45.226  30.130  30.499  1.00  0.00     0.049 A 
ATOM     60  H   UNL A   1      44.329  28.365  29.770  1.00  0.00     0.167 HD
ATOM     61  C   UNL A   1      42.828  30.723  30.268  1.00  0.00     0.074 A 
ATOM     62  C   UNL A   1      41.715  31.644  30.378  1.00  0.00     0.031 C 
ATOM     63  C   UNL A   1      44.106  31.030  30.601  1.00  0.00     0.031 A 
BRANCH  50  64
ATOM     64  C   UNL A   1      48.103  26.374  29.865  1.00  0.00    -0.014 A 
ATOM     65  C   UNL A   1      48.543  25.797  31.068  1.00  0.00     0.009 A 
ATOM     66  C   UNL A   1      48.996  26.445  28.783  1.00  0.00     0.009 A 
ATOM     67  C   UNL A   1      49.856  25.341  31.197  1.00  0.00     0.001 A 
ATOM     68  C   UNL A   1      50.298  25.958  28.904  1.00  0.00     0.001 A 
ATOM     69  C   UNL A   1      50.731  25.416  30.113  1.00  0.00     0.000 A 
ENDBRANCH  50  64
BRANCH  51  70
ATOM     70  C   UNL A   1      38.561  29.232  28.968  1.00  0.00    -0.014 A 
ATOM     71  C   UNL A   1      37.703  29.165  30.076  1.00  0.00     0.009 A 
ATOM     72  C   UNL A   1      38.055  29.711  27.749  1.00  0.00     0.009 A 
ATOM     73  C   UNL A   1      36.362  29.536  29.960  1.00  0.00     0.001 A 
ATOM     74  C   UNL A   1      36.721  30.112  27.643  1.00  0.00     0.001 A 
ATOM     75  C   UNL A   1      35.874  30.013  28.744  1.00  0.00     0.000 A 
ENDBRANCH  51  70
BRANCH  63  76
ATOM     76  C   UNL A   1      44.374  32.429  31.078  1.00  0.00    -0.014 A 
ATOM     77  C   UNL A   1      44.675  33.464  30.179  1.00  0.00     0.009 A 
ATOM     78  C   UNL A   1      44.282  32.723  32.448  1.00  0.00     0.009 A 
ATOM     79  C   UNL A   1      44.912  34.757  30.647  1.00  0.00     0.001 A 
ATOM     80  C   UNL A   1      44.487  34.022  32.909  1.00  0.00     0.001 A 
ATOM     81  C   UNL A   1      44.812  35.036  32.010  1.00  0.00     0.000 A 
ENDBRANCH  63  76
ENDBRANCH  37  38
ENDBRANCH  29  32
ENDBRANCH  27  28
ENDBRANCH  26  27
ENDBRANCH   1  26
TORSDOF 16
ENDMDL
MODEL 2
REMARK VINA RESULT:     -10.4      0.487      5.962
REMARK SMILES CCC(CC)(NC(=O)N(C)C1CC[NH2+]CC1)C(=O)NCCCCNC(=O)c1ccc(-c2c3nc(c(-c4ccccc4)c4ccc([nH]4)c(-c4ccccc4)c4nc(c(-c5ccccc5)c5ccc2[nH]5)C=C4)C=C3)cc1
REMARK SMILES IDX 21 1 20 2 19 3 17 4 18 5 3 7 2 8 1 9 4 10 5 11 6 12 7 13
REMARK SMILES IDX 8 15 9 16 10 17 11 18 12 19 16 20 13 21 15 22 14 23 22 26
REMARK SMILES IDX 23 27 24 28 25 29 26 31 27 32 28 33 74 34 29 35 73 36 30 37
REMARK SMILES IDX 31 38 32 39 67 40 33 41 72 42 66 43 68 44 34 45 71 46 65 47
REMARK SMILES IDX 64 48 35 50 57 51 42 52 56 53 43 54 46 55 55 56 69 57 44 58
REMARK SMILES IDX 45 59 54 61 70 62 47 63 36 64 37 65 41 66 38 67 40 68 39 69
REMARK SMILES IDX 58 70 59 71 63 72 60 73 62 74 61 75 48 76 49 77 53 78 50 79
REMARK SMILES IDX 52 80 51 81
REMARK H PARENT 19 6 6 14 14 24 14 25 24 30 68 49 46 60
REMARK Flexibility Score: inf
ROOT
ATOM      1  C   UNL A   1      36.630  21.118  24.606  1.00  0.00     0.023 C 
ENDROOT
BRANCH   1   2
ATOM      2  C   UNL A   1      36.453  22.211  25.643  1.00  0.00     0.116 C 
BRANCH   2   3
ATOM      3  N   UNL A   1      35.533  21.889  26.726  1.00  0.00    -0.354 N 
ATOM      4  C   UNL A   1      34.195  22.129  26.899  1.00  0.00     0.245 C 
ATOM      5  O   UNL A   1      33.666  21.563  27.862  1.00  0.00    -0.272 OA
ATOM      6  H   UNL A   1      35.952  21.408  27.475  1.00  0.00     0.163 HD
BRANCH   4   7
ATOM      7  C   UNL A   1      33.365  22.962  25.873  1.00  0.00     0.120 C 
BRANCH   7   8
ATOM      8  C   UNL A   1      33.275  22.405  24.418  1.00  0.00     0.035 C 
ATOM      9  C   UNL A   1      32.745  20.989  24.228  1.00  0.00     0.007 C 
ENDBRANCH   7   8
BRANCH   7  10
ATOM     10  C   UNL A   1      34.136  24.339  25.818  1.00  0.00     0.035 C 
ATOM     11  C   UNL A   1      34.461  24.916  24.447  1.00  0.00     0.007 C 
ENDBRANCH   7  10
BRANCH   7  12
ATOM     12  N   UNL A   1      31.966  23.123  26.374  1.00  0.00    -0.323 N 
ATOM     13  C   UNL A   1      30.942  24.011  26.313  1.00  0.00     0.318 C 
ATOM     14  H   UNL A   1      31.706  22.343  26.916  1.00  0.00     0.166 HD
ATOM     15  O   UNL A   1      30.072  23.796  27.161  1.00  0.00    -0.249 OA
BRANCH  13  16
ATOM     16  N   UNL A   1      30.782  24.954  25.333  1.00  0.00    -0.324 N 
ATOM     17  C   UNL A   1      30.754  24.687  23.900  1.00  0.00     0.149 C 
BRANCH  16  18
ATOM     18  C   UNL A   1      30.690  26.424  25.646  1.00  0.00     0.097 C 
ATOM     19  C   UNL A   1      30.730  27.323  24.404  1.00  0.00     0.086 C 
ATOM     20  C   UNL A   1      31.559  27.045  26.766  1.00  0.00     0.086 C 
ATOM     21  C   UNL A   1      32.150  27.706  24.031  1.00  0.00     0.262 C 
ATOM     22  C   UNL A   1      32.884  27.662  26.322  1.00  0.00     0.262 C 
ATOM     23  N   UNL A   1      32.764  28.474  25.112  1.00  0.00    -0.346 N 
ATOM     24  H   UNL A   1      32.187  29.290  25.313  1.00  0.00     0.346 HD
ATOM     25  H   UNL A   1      33.698  28.763  24.819  1.00  0.00     0.346 HD
ENDBRANCH  16  18
ENDBRANCH  13  16
ENDBRANCH   7  12
ENDBRANCH   4   7
ENDBRANCH   2   3
ENDBRANCH   1   2
BRANCH   1  26
ATOM     26  C   UNL A   1      37.602  20.008  24.974  1.00  0.00     0.023 C 
BRANCH  26  27
ATOM     27  C   UNL A   1      38.831  20.504  25.709  1.00  0.00     0.116 C 
BRANCH  27  28
ATOM     28  N   UNL A   1      39.873  19.489  25.781  1.00  0.00    -0.352 N 
ATOM     29  C   UNL A   1      41.207  19.623  26.072  1.00  0.00     0.251 C 
ATOM     30  H   UNL A   1      39.575  18.570  25.593  1.00  0.00     0.163 HD
ATOM     31  O   UNL A   1      41.973  18.688  25.895  1.00  0.00    -0.269 OA
BRANCH  29  32
ATOM     32  C   UNL A   1      41.708  20.914  26.584  1.00  0.00     0.039 A 
ATOM     33  C   UNL A   1      42.154  21.875  25.675  1.00  0.00     0.014 A 
ATOM     34  C   UNL A   1      41.724  21.176  27.956  1.00  0.00     0.014 A 
ATOM     35  C   UNL A   1      42.565  23.122  26.144  1.00  0.00     0.010 A 
ATOM     36  C   UNL A   1      42.023  22.452  28.408  1.00  0.00     0.010 A 
ATOM     37  C   UNL A   1      42.468  23.431  27.511  1.00  0.00    -0.014 A 
BRANCH  37  38
ATOM     38  C   UNL A   1      42.858  24.760  28.033  1.00  0.00     0.031 A 
ATOM     39  C   UNL A   1      41.804  25.804  28.280  1.00  0.00     0.074 A 
ATOM     40  C   UNL A   1      44.161  25.047  28.219  1.00  0.00     0.049 A 
ATOM     41  N   UNL A   1      41.946  27.044  28.674  1.00  0.00    -0.248 NA
ATOM     42  C   UNL A   1      40.407  25.415  28.020  1.00  0.00     0.031 C 
ATOM     43  C   UNL A   1      45.278  24.131  27.971  1.00  0.00     0.029 A 
ATOM     44  N   UNL A   1      44.766  26.196  28.660  1.00  0.00    -0.354 N 
ATOM     45  C   UNL A   1      40.666  27.583  28.682  1.00  0.00     0.074 A 
ATOM     46  C   UNL A   1      39.768  26.560  28.199  1.00  0.00     0.031 C 
ATOM     47  C   UNL A   1      46.427  24.741  28.302  1.00  0.00     0.029 A 
ATOM     48  C   UNL A   1      46.134  26.101  28.739  1.00  0.00     0.049 A 
ATOM     49  H   UNL A   1      44.267  27.010  28.897  1.00  0.00     0.167 HD
ATOM     50  C   UNL A   1      40.269  28.814  29.081  1.00  0.00     0.031 A 
ATOM     51  C   UNL A   1      47.049  27.013  29.117  1.00  0.00     0.031 A 
ATOM     52  C   UNL A   1      41.164  29.821  29.581  1.00  0.00     0.049 A 
ATOM     53  C   UNL A   1      46.583  28.377  29.546  1.00  0.00     0.074 A 
ATOM     54  C   UNL A   1      40.860  31.078  30.074  1.00  0.00     0.029 A 
ATOM     55  N   UNL A   1      42.542  29.685  29.649  1.00  0.00    -0.354 N 
ATOM     56  N   UNL A   1      45.361  28.848  29.621  1.00  0.00    -0.248 NA
ATOM     57  C   UNL A   1      47.624  29.331  29.952  1.00  0.00     0.031 C 
ATOM     58  C   UNL A   1      42.059  31.724  30.384  1.00  0.00     0.029 A 
ATOM     59  C   UNL A   1      43.105  30.847  30.148  1.00  0.00     0.049 A 
ATOM     60  H   UNL A   1      43.046  28.882  29.382  1.00  0.00     0.167 HD
ATOM     61  C   UNL A   1      45.484  30.142  30.111  1.00  0.00     0.074 A 
ATOM     62  C   UNL A   1      46.897  30.372  30.332  1.00  0.00     0.031 C 
ATOM     63  C   UNL A   1      44.515  31.056  30.360  1.00  0.00     0.031 A 
BRANCH  50  64
ATOM     64  C   UNL A   1      38.803  29.136  28.985  1.00  0.00    -0.014 A 
ATOM     65  C   UNL A   1      37.945  28.984  30.087  1.00  0.00     0.009 A 
ATOM     66  C   UNL A   1      38.275  29.625  27.780  1.00  0.00     0.009 A 
ATOM     67  C   UNL A   1      36.585  29.275  29.972  1.00  0.00     0.001 A 
ATOM     68  C   UNL A   1      36.921  29.947  27.677  1.00  0.00     0.001 A 
ATOM     69  C   UNL A   1      36.075  29.763  28.769  1.00  0.00     0.000 A 
ENDBRANCH  50  64
BRANCH  51  70
ATOM     70  C   UNL A   1      48.493  26.662  29.131  1.00  0.00    -0.014 A 
ATOM     71  C   UNL A   1      49.298  26.914  28.009  1.00  0.00     0.009 A 
ATOM     72  C   UNL A   1      49.076  26.071  30.262  1.00  0.00     0.009 A 
ATOM     73  C   UNL A   1      50.646  26.552  28.006  1.00  0.00     0.001 A 
ATOM     74  C   UNL A   1      50.433  25.738  30.269  1.00  0.00     0.001 A 
ATOM     75  C   UNL A   1      51.213  25.968  29.139  1.00  0.00     0.000 A 
ENDBRANCH  51  70
BRANCH  63  76
ATOM     76  C   UNL A   1      44.947  32.375  30.935  1.00  0.00    -0.014 A 
ATOM     77  C   UNL A   1      45.192  33.487  30.114  1.00  0.00     0.009 A 
ATOM     78  C   UNL A   1      45.068  32.516  32.327  1.00  0.00     0.009 A 
ATOM     79  C   UNL A   1      45.584  34.704  30.675  1.00  0.00     0.001 A 
ATOM     80  C   UNL A   1      45.428  33.742  32.886  1.00  0.00     0.001 A 
ATOM     81  C   UNL A   1      45.696  34.831  32.059  1.00  0.00     0.000 A 
ENDBRANCH  63  76
ENDBRANCH  37  38
ENDBRANCH  29  32
ENDBRANCH  27  28
ENDBRANCH  26  27
ENDBRANCH   1  26
TORSDOF 16
ENDMDL
MODEL 3
REMARK VINA RESULT:     -10.4      3.357      8.802
REMARK SMILES CCC(CC)(NC(=O)N(C)C1CC[NH2+]CC1)C(=O)NCCCCNC(=O)c1ccc(-c2c3nc(c(-c4ccccc4)c4ccc([nH]4)c(-c4ccccc4)c4nc(c(-c5ccccc5)c5ccc2[nH]5)C=C4)C=C3)cc1
REMARK SMILES IDX 21 1 20 2 19 3 17 4 18 5 3 7 2 8 1 9 4 10 5 11 6 12 7 13
REMARK SMILES IDX 8 15 9 16 10 17 11 18 12 19 16 20 13 21 15 22 14 23 22 26
REMARK SMILES IDX 23 27 24 28 25 29 26 31 27 32 28 33 74 34 29 35 73 36 30 37
REMARK SMILES IDX 31 38 32 39 67 40 33 41 72 42 66 43 68 44 34 45 71 46 65 47
REMARK SMILES IDX 64 48 35 50 57 51 42 52 56 53 43 54 46 55 55 56 69 57 44 58
REMARK SMILES IDX 45 59 54 61 70 62 47 63 36 64 37 65 41 66 38 67 40 68 39 69
REMARK SMILES IDX 58 70 59 71 63 72 60 73 62 74 61 75 48 76 49 77 53 78 50 79
REMARK SMILES IDX 52 80 51 81
REMARK H PARENT 19 6 6 14 14 24 14 25 24 30 68 49 46 60
REMARK Flexibility Score: inf
ROOT
ATOM      1  C   UNL A   1      31.390  30.774  25.733  1.00  0.00     0.023 C 
ENDROOT
BRANCH   1   2
ATOM      2  C   UNL A   1      32.529  29.776  25.818  1.00  0.00     0.116 C 
BRANCH   2   3
ATOM      3  N   UNL A   1      33.348  29.674  24.617  1.00  0.00    -0.354 N 
ATOM      4  C   UNL A   1      33.469  28.695  23.666  1.00  0.00     0.245 C 
ATOM      5  O   UNL A   1      34.129  28.995  22.665  1.00  0.00    -0.272 OA
ATOM      6  H   UNL A   1      33.925  30.456  24.461  1.00  0.00     0.163 HD
BRANCH   4   7
ATOM      7  C   UNL A   1      32.717  27.333  23.781  1.00  0.00     0.120 C 
BRANCH   7   8
ATOM      8  C   UNL A   1      31.212  27.389  24.189  1.00  0.00     0.035 C 
ATOM      9  C   UNL A   1      30.245  28.103  23.252  1.00  0.00     0.007 C 
ENDBRANCH   7   8
BRANCH   7  10
ATOM     10  C   UNL A   1      33.502  26.581  24.927  1.00  0.00     0.035 C 
ATOM     11  C   UNL A   1      32.695  26.023  26.091  1.00  0.00     0.007 C 
ENDBRANCH   7  10
BRANCH   7  12
ATOM     12  N   UNL A   1      32.796  26.605  22.478  1.00  0.00    -0.323 N 
ATOM     13  C   UNL A   1      32.891  25.337  22.007  1.00  0.00     0.318 C 
ATOM     14  H   UNL A   1      32.774  27.244  21.729  1.00  0.00     0.166 HD
ATOM     15  O   UNL A   1      33.221  25.290  20.819  1.00  0.00    -0.249 OA
BRANCH  13  16
ATOM     16  N   UNL A   1      32.514  24.216  22.698  1.00  0.00    -0.324 N 
ATOM     17  C   UNL A   1      31.205  23.994  23.299  1.00  0.00     0.149 C 
BRANCH  16  18
ATOM     18  C   UNL A   1      33.475  23.090  22.980  1.00  0.00     0.097 C 
ATOM     19  C   UNL A   1      32.972  22.102  24.040  1.00  0.00     0.086 C 
ATOM     20  C   UNL A   1      34.977  23.379  23.209  1.00  0.00     0.086 C 
ATOM     21  C   UNL A   1      33.380  22.521  25.440  1.00  0.00     0.262 C 
ATOM     22  C   UNL A   1      35.415  23.543  24.663  1.00  0.00     0.262 C 
ATOM     23  N   UNL A   1      34.837  22.540  25.555  1.00  0.00    -0.346 N 
ATOM     24  H   UNL A   1      35.204  21.621  25.307  1.00  0.00     0.346 HD
ATOM     25  H   UNL A   1      35.087  22.774  26.516  1.00  0.00     0.346 HD
ENDBRANCH  16  18
ENDBRANCH  13  16
ENDBRANCH   7  12
ENDBRANCH   4   7
ENDBRANCH   2   3
ENDBRANCH   1   2
BRANCH   1  26
ATOM     26  C   UNL A   1      31.321  31.798  26.855  1.00  0.00     0.023 C 
BRANCH  26  27
ATOM     27  C   UNL A   1      32.650  32.467  27.139  1.00  0.00     0.116 C 
BRANCH  27  28
ATOM     28  N   UNL A   1      32.484  33.831  27.622  1.00  0.00    -0.352 N 
ATOM     29  C   UNL A   1      33.213  34.525  28.554  1.00  0.00     0.251 C 
ATOM     30  H   UNL A   1      31.737  34.330  27.218  1.00  0.00     0.163 HD
ATOM     31  O   UNL A   1      32.809  35.598  28.978  1.00  0.00    -0.269 OA
BRANCH  29  32
ATOM     32  C   UNL A   1      34.479  33.952  29.053  1.00  0.00     0.039 A 
ATOM     33  C   UNL A   1      34.455  33.148  30.193  1.00  0.00     0.014 A 
ATOM     34  C   UNL A   1      35.682  34.200  28.386  1.00  0.00     0.014 A 
ATOM     35  C   UNL A   1      35.634  32.548  30.631  1.00  0.00     0.010 A 
ATOM     36  C   UNL A   1      36.827  33.513  28.756  1.00  0.00     0.010 A 
ATOM     37  C   UNL A   1      36.821  32.697  29.895  1.00  0.00    -0.014 A 
BRANCH  37  38
ATOM     38  C   UNL A   1      38.079  32.039  30.313  1.00  0.00     0.031 A 
ATOM     39  C   UNL A   1      38.976  32.710  31.317  1.00  0.00     0.074 A 
ATOM     40  C   UNL A   1      38.444  30.875  29.741  1.00  0.00     0.049 A 
ATOM     41  N   UNL A   1      40.145  32.328  31.764  1.00  0.00    -0.248 NA
ATOM     42  C   UNL A   1      38.514  33.995  31.869  1.00  0.00     0.031 C 
ATOM     43  C   UNL A   1      37.679  30.152  28.721  1.00  0.00     0.029 A 
ATOM     44  N   UNL A   1      39.556  30.097  29.935  1.00  0.00    -0.354 N 
ATOM     45  C   UNL A   1      40.564  33.336  32.624  1.00  0.00     0.074 A 
ATOM     46  C   UNL A   1      39.557  34.371  32.591  1.00  0.00     0.031 C 
ATOM     47  C   UNL A   1      38.326  29.016  28.412  1.00  0.00     0.029 A 
ATOM     48  C   UNL A   1      39.569  28.955  29.171  1.00  0.00     0.049 A 
ATOM     49  H   UNL A   1      40.277  30.335  30.562  1.00  0.00     0.167 HD
ATOM     50  C   UNL A   1      41.677  33.384  33.392  1.00  0.00     0.031 A 
ATOM     51  C   UNL A   1      40.484  27.972  29.091  1.00  0.00     0.031 A 
ATOM     52  C   UNL A   1      42.665  32.341  33.436  1.00  0.00     0.049 A 
ATOM     53  C   UNL A   1      41.718  28.055  29.947  1.00  0.00     0.074 A 
ATOM     54  C   UNL A   1      43.797  32.259  34.228  1.00  0.00     0.029 A 
ATOM     55  N   UNL A   1      42.640  31.200  32.651  1.00  0.00    -0.354 N 
ATOM     56  N   UNL A   1      42.064  28.978  30.812  1.00  0.00    -0.248 NA
ATOM     57  C   UNL A   1      42.682  26.953  29.822  1.00  0.00     0.031 C 
ATOM     58  C   UNL A   1      44.487  31.096  33.879  1.00  0.00     0.029 A 
ATOM     59  C   UNL A   1      43.752  30.420  32.918  1.00  0.00     0.049 A 
ATOM     60  H   UNL A   1      41.936  30.976  32.000  1.00  0.00     0.167 HD
ATOM     61  C   UNL A   1      43.269  28.553  31.357  1.00  0.00     0.074 A 
ATOM     62  C   UNL A   1      43.583  27.282  30.737  1.00  0.00     0.031 C 
ATOM     63  C   UNL A   1      44.046  29.158  32.289  1.00  0.00     0.031 A 
BRANCH  50  64
ATOM     64  C   UNL A   1      41.883  34.609  34.241  1.00  0.00    -0.014 A 
ATOM     65  C   UNL A   1      41.521  34.630  35.598  1.00  0.00     0.009 A 
ATOM     66  C   UNL A   1      42.473  35.753  33.681  1.00  0.00     0.009 A 
ATOM     67  C   UNL A   1      41.707  35.782  36.364  1.00  0.00     0.001 A 
ATOM     68  C   UNL A   1      42.689  36.892  34.457  1.00  0.00     0.001 A 
ATOM     69  C   UNL A   1      42.297  36.910  35.795  1.00  0.00     0.000 A 
ENDBRANCH  50  64
BRANCH  51  70
ATOM     70  C   UNL A   1      40.262  26.815  28.185  1.00  0.00    -0.014 A 
ATOM     71  C   UNL A   1      40.778  26.823  26.880  1.00  0.00     0.009 A 
ATOM     72  C   UNL A   1      39.531  25.698  28.617  1.00  0.00     0.009 A 
ATOM     73  C   UNL A   1      40.538  25.753  26.016  1.00  0.00     0.001 A 
ATOM     74  C   UNL A   1      39.319  24.614  27.761  1.00  0.00     0.001 A 
ATOM     75  C   UNL A   1      39.813  24.648  26.459  1.00  0.00     0.000 A 
ENDBRANCH  51  70
BRANCH  63  76
ATOM     76  C   UNL A   1      45.289  28.434  32.722  1.00  0.00    -0.014 A 
ATOM     77  C   UNL A   1      46.524  28.659  32.093  1.00  0.00     0.009 A 
ATOM     78  C   UNL A   1      45.229  27.544  33.806  1.00  0.00     0.009 A 
ATOM     79  C   UNL A   1      47.666  27.980  32.520  1.00  0.00     0.001 A 
ATOM     80  C   UNL A   1      46.378  26.891  34.251  1.00  0.00     0.001 A 
ATOM     81  C   UNL A   1      47.593  27.101  33.601  1.00  0.00     0.000 A 
ENDBRANCH  63  76
ENDBRANCH  37  38
ENDBRANCH  29  32
ENDBRANCH  27  28
ENDBRANCH  26  27
ENDBRANCH   1  26
TORSDOF 16
ENDMDL
