MODEL 1
REMARK VINA RESULT:     -12.8      0.000      0.000
REMARK SMILES O=C(NCCCCNC(=O)c1ccc(-c2c3nc(c(-c4ccccc4)c4ccc([nH]4)c(-c4ccccc4)c4nc(c(-c5ccccc5)c5ccc2[nH]5)C=C4)C=C3)cc1)C1=Cc2cc(S(F)(F)(F)(F)F)cc(Br)c2O[C@@H]1C(F)(F)F
REMARK SMILES IDX 6 1 5 2 4 3 3 4 1 5 2 6 59 8 60 9 75 10 61 11 74 12 62 13
REMARK SMILES IDX 73 14 63 15 71 16 70 17 72 18 76 19 77 20 78 21 79 22 64 23
REMARK SMILES IDX 65 24 66 25 67 26 68 27 69 28 7 29 8 30 9 31 10 33 11 34
REMARK SMILES IDX 12 35 58 36 13 37 57 38 14 39 15 40 16 41 51 42 17 43 56 44
REMARK SMILES IDX 50 45 52 46 18 47 55 48 49 49 48 50 19 52 41 53 26 54 40 55
REMARK SMILES IDX 27 56 30 57 39 58 53 59 28 60 29 61 38 63 54 64 31 65 20 66
REMARK SMILES IDX 21 67 25 68 22 69 24 70 23 71 42 72 43 73 47 74 44 75 46 76
REMARK SMILES IDX 45 77 32 78 33 79 37 80 34 81 36 82 35 83
REMARK H PARENT 3 7 8 32 52 51 30 62
REMARK Flexibility Score: inf
ROOT
ATOM      1  C   UNL A   1      32.895  28.141  26.075  1.00  0.00     0.023 C 
ENDROOT
BRANCH   1   2
ATOM      2  C   UNL A   1      33.640  27.401  24.975  1.00  0.00     0.023 C 
BRANCH   2   3
ATOM      3  C   UNL A   1      33.735  25.927  25.331  1.00  0.00     0.116 C 
BRANCH   3   4
ATOM      4  N   UNL A   1      34.115  25.158  24.137  1.00  0.00    -0.352 N 
ATOM      5  O   UNL A   1      33.626  23.348  22.677  1.00  0.00    -0.270 OA
ATOM      6  C   UNL A   1      33.297  24.014  23.709  1.00  0.00     0.251 C 
ATOM      7  H   UNL A   1      34.918  25.409  23.625  1.00  0.00     0.163 HD
BRANCH   6   8
ATOM      8  C   UNL A   1      32.058  23.627  24.499  1.00  0.00     0.067 C 
ATOM      9  C   UNL A   1      31.958  22.382  25.042  1.00  0.00     0.025 C 
ATOM     10  C   UNL A   1      30.930  24.629  24.685  1.00  0.00     0.314 C 
ATOM     11  C   UNL A   1      33.085  21.380  24.856  1.00  0.00     0.020 A 
ATOM     12  O   UNL A   1      34.709  23.071  25.244  1.00  0.00    -0.474 OA
ATOM     13  C   UNL A   1      32.720  20.099  24.480  1.00  0.00     0.036 A 
ATOM     14  C   UNL A   1      34.361  21.714  25.015  1.00  0.00     0.142 A 
ATOM     15  C   UNL A   1      33.768  19.152  24.575  1.00  0.00     0.109 A 
ATOM     16  C   UNL A   1      35.346  20.757  24.961  1.00  0.00     0.062 A 
ATOM     17  C   UNL A   1      35.049  19.459  24.652  1.00  0.00     0.044 A 
ATOM     18  Br  UNL A   1      37.204  21.262  25.332  1.00  0.00    -0.047 Br
BRANCH  10  19
ATOM     19  C   UNL A   1      30.723  24.890  26.167  1.00  0.00     0.429 C 
ATOM     20  F   UNL A   1      31.858  24.660  26.821  1.00  0.00    -0.167 F 
ATOM     21  F   UNL A   1      30.357  26.156  26.348  1.00  0.00    -0.167 F 
ATOM     22  F   UNL A   1      29.773  24.083  26.631  1.00  0.00    -0.167 F 
ENDBRANCH  10  19
BRANCH  15  23
ATOM     23  S   UNL A   1      33.319  17.398  24.593  1.00  0.00     0.310 S 
ATOM     24  F   UNL A   1      31.806  17.725  24.242  1.00  0.00    -0.094 F 
ATOM     25  F   UNL A   1      32.925  17.540  26.112  1.00  0.00    -0.094 F 
ATOM     26  F   UNL A   1      32.928  15.894  24.603  1.00  0.00    -0.094 F 
ATOM     27  F   UNL A   1      33.585  17.310  23.038  1.00  0.00    -0.094 F 
ATOM     28  F   UNL A   1      33.612  18.951  24.540  1.00  0.00    -0.094 F 
ENDBRANCH  15  23
ENDBRANCH   6   8
ENDBRANCH   3   4
ENDBRANCH   2   3
ENDBRANCH   1   2
BRANCH   1  29
ATOM     29  C   UNL A   1      33.881  28.576  27.148  1.00  0.00     0.116 C 
BRANCH  29  30
ATOM     30  N   UNL A   1      33.514  29.913  27.637  1.00  0.00    -0.352 N 
ATOM     31  C   UNL A   1      34.528  30.765  28.277  1.00  0.00     0.251 C 
ATOM     32  H   UNL A   1      32.590  30.238  27.536  1.00  0.00     0.163 HD
ATOM     33  O   UNL A   1      34.211  31.921  28.700  1.00  0.00    -0.269 OA
BRANCH  31  34
ATOM     34  C   UNL A   1      35.954  30.263  28.433  1.00  0.00     0.039 A 
ATOM     35  C   UNL A   1      36.894  30.396  27.425  1.00  0.00     0.014 A 
ATOM     36  C   UNL A   1      36.269  29.717  29.602  1.00  0.00     0.014 A 
ATOM     37  C   UNL A   1      38.079  29.654  27.645  1.00  0.00     0.010 A 
ATOM     38  C   UNL A   1      37.495  29.128  29.791  1.00  0.00     0.010 A 
ATOM     39  C   UNL A   1      38.454  29.170  28.815  1.00  0.00    -0.014 A 
BRANCH  39  40
ATOM     40  C   UNL A   1      39.873  28.685  29.065  1.00  0.00     0.031 A 
ATOM     41  C   UNL A   1      40.733  29.626  29.632  1.00  0.00     0.074 A 
ATOM     42  C   UNL A   1      40.255  27.405  28.703  1.00  0.00     0.049 A 
ATOM     43  N   UNL A   1      42.020  29.466  29.949  1.00  0.00    -0.248 NA
ATOM     44  C   UNL A   1      40.338  30.998  29.985  1.00  0.00     0.031 C 
ATOM     45  C   UNL A   1      39.390  26.447  28.138  1.00  0.00     0.029 A 
ATOM     46  N   UNL A   1      41.502  26.832  28.814  1.00  0.00    -0.354 N 
ATOM     47  C   UNL A   1      42.505  30.585  30.489  1.00  0.00     0.074 A 
ATOM     48  C   UNL A   1      41.431  31.589  30.515  1.00  0.00     0.031 C 
ATOM     49  C   UNL A   1      40.108  25.319  27.902  1.00  0.00     0.029 A 
ATOM     50  C   UNL A   1      41.433  25.550  28.316  1.00  0.00     0.049 A 
ATOM     51  H   UNL A   1      42.305  27.265  29.186  1.00  0.00     0.167 HD
ATOM     52  C   UNL A   1      43.798  30.808  30.962  1.00  0.00     0.031 A 
ATOM     53  C   UNL A   1      42.457  24.622  28.217  1.00  0.00     0.031 A 
ATOM     54  C   UNL A   1      44.811  29.864  30.904  1.00  0.00     0.049 A 
ATOM     55  C   UNL A   1      43.767  24.865  28.638  1.00  0.00     0.074 A 
ATOM     56  C   UNL A   1      46.119  30.070  31.384  1.00  0.00     0.029 A 
ATOM     57  N   UNL A   1      44.749  28.591  30.383  1.00  0.00    -0.354 N 
ATOM     58  N   UNL A   1      44.241  25.970  29.214  1.00  0.00    -0.248 NA
ATOM     59  C   UNL A   1      44.867  23.900  28.508  1.00  0.00     0.031 C 
ATOM     60  C   UNL A   1      46.837  28.940  31.148  1.00  0.00     0.029 A 
ATOM     61  C   UNL A   1      45.991  28.010  30.516  1.00  0.00     0.049 A 
ATOM     62  H   UNL A   1      43.953  28.169  29.985  1.00  0.00     0.167 HD
ATOM     63  C   UNL A   1      45.538  25.823  29.493  1.00  0.00     0.074 A 
ATOM     64  C   UNL A   1      45.962  24.492  29.036  1.00  0.00     0.031 C 
ATOM     65  C   UNL A   1      46.385  26.744  30.113  1.00  0.00     0.031 A 
BRANCH  52  66
ATOM     66  C   UNL A   1      44.114  32.161  31.578  1.00  0.00    -0.014 A 
ATOM     67  C   UNL A   1      44.551  33.208  30.783  1.00  0.00     0.009 A 
ATOM     68  C   UNL A   1      43.876  32.334  32.874  1.00  0.00     0.009 A 
ATOM     69  C   UNL A   1      44.988  34.339  31.513  1.00  0.00     0.001 A 
ATOM     70  C   UNL A   1      44.204  33.515  33.494  1.00  0.00     0.001 A 
ATOM     71  C   UNL A   1      44.696  34.571  32.780  1.00  0.00     0.000 A 
ENDBRANCH  52  66
BRANCH  53  72
ATOM     72  C   UNL A   1      42.138  23.263  27.617  1.00  0.00    -0.014 A 
ATOM     73  C   UNL A   1      42.276  23.067  26.252  1.00  0.00     0.009 A 
ATOM     74  C   UNL A   1      41.644  22.313  28.401  1.00  0.00     0.009 A 
ATOM     75  C   UNL A   1      41.588  21.931  25.763  1.00  0.00     0.001 A 
ATOM     76  C   UNL A   1      41.111  21.167  27.863  1.00  0.00     0.001 A 
ATOM     77  C   UNL A   1      41.159  20.934  26.516  1.00  0.00     0.000 A 
ENDBRANCH  53  72
BRANCH  65  78
ATOM     78  C   UNL A   1      47.827  26.332  30.362  1.00  0.00    -0.014 A 
ATOM     79  C   UNL A   1      48.810  26.466  29.397  1.00  0.00     0.009 A 
ATOM     80  C   UNL A   1      48.110  25.873  31.575  1.00  0.00     0.009 A 
ATOM     81  C   UNL A   1      50.023  25.812  29.720  1.00  0.00     0.001 A 
ATOM     82  C   UNL A   1      49.357  25.373  31.861  1.00  0.00     0.001 A 
ATOM     83  C   UNL A   1      50.362  25.419  30.935  1.00  0.00     0.000 A 
ENDBRANCH  65  78
ENDBRANCH  39  40
ENDBRANCH  31  34
ENDBRANCH  29  30
ENDBRANCH   1  29
TORSDOF 13
ENDMDL
MODEL 2
REMARK VINA RESULT:     -12.7      0.356      5.726
REMARK SMILES O=C(NCCCCNC(=O)c1ccc(-c2c3nc(c(-c4ccccc4)c4ccc([nH]4)c(-c4ccccc4)c4nc(c(-c5ccccc5)c5ccc2[nH]5)C=C4)C=C3)cc1)C1=Cc2cc(S(F)(F)(F)(F)F)cc(Br)c2O[C@@H]1C(F)(F)F
REMARK SMILES IDX 6 1 5 2 4 3 3 4 1 5 2 6 59 8 60 9 75 10 61 11 74 12 62 13
REMARK SMILES IDX 73 14 63 15 71 16 70 17 72 18 76 19 77 20 78 21 79 22 64 23
REMARK SMILES IDX 65 24 66 25 67 26 68 27 69 28 7 29 8 30 9 31 10 33 11 34
REMARK SMILES IDX 12 35 58 36 13 37 57 38 14 39 15 40 16 41 51 42 17 43 56 44
REMARK SMILES IDX 50 45 52 46 18 47 55 48 49 49 48 50 19 52 41 53 26 54 40 55
REMARK SMILES IDX 27 56 30 57 39 58 53 59 28 60 29 61 38 63 54 64 31 65 20 66
REMARK SMILES IDX 21 67 25 68 22 69 24 70 23 71 42 72 43 73 47 74 44 75 46 76
REMARK SMILES IDX 45 77 32 78 33 79 37 80 34 81 36 82 35 83
REMARK H PARENT 3 7 8 32 52 51 30 62
REMARK Flexibility Score: inf
ROOT
ATOM      1  C   UNL A   1      32.952  28.063  26.120  1.00  0.00     0.023 C 
ENDROOT
BRANCH   1   2
ATOM      2  C   UNL A   1      33.637  27.313  24.989  1.00  0.00     0.023 C 
BRANCH   2   3
ATOM      3  C   UNL A   1      33.755  25.843  25.355  1.00  0.00     0.116 C 
BRANCH   3   4
ATOM      4  N   UNL A   1      34.169  25.075  24.172  1.00  0.00    -0.352 N 
ATOM      5  O   UNL A   1      33.738  23.249  22.714  1.00  0.00    -0.270 OA
ATOM      6  C   UNL A   1      33.380  23.913  23.737  1.00  0.00     0.251 C 
ATOM      7  H   UNL A   1      34.975  25.338  23.671  1.00  0.00     0.163 HD
BRANCH   6   8
ATOM      8  C   UNL A   1      32.136  23.507  24.510  1.00  0.00     0.067 C 
ATOM      9  C   UNL A   1      32.036  22.251  25.027  1.00  0.00     0.025 C 
ATOM     10  C   UNL A   1      31.004  24.502  24.707  1.00  0.00     0.314 C 
ATOM     11  C   UNL A   1      33.168  21.256  24.830  1.00  0.00     0.020 A 
ATOM     12  O   UNL A   1      34.784  22.944  25.263  1.00  0.00    -0.474 OA
ATOM     13  C   UNL A   1      32.809  19.982  24.425  1.00  0.00     0.036 A 
ATOM     14  C   UNL A   1      34.441  21.591  25.005  1.00  0.00     0.142 A 
ATOM     15  C   UNL A   1      33.859  19.036  24.509  1.00  0.00     0.109 A 
ATOM     16  C   UNL A   1      35.429  20.638  24.940  1.00  0.00     0.062 A 
ATOM     17  C   UNL A   1      35.139  19.345  24.602  1.00  0.00     0.044 A 
ATOM     18  Br  UNL A   1      37.283  21.140  25.334  1.00  0.00    -0.047 Br
BRANCH  10  19
ATOM     19  C   UNL A   1      30.785  24.733  26.193  1.00  0.00     0.429 C 
ATOM     20  F   UNL A   1      31.910  24.471  26.853  1.00  0.00    -0.167 F 
ATOM     21  F   UNL A   1      30.436  26.000  26.398  1.00  0.00    -0.167 F 
ATOM     22  F   UNL A   1      29.818  23.930  26.629  1.00  0.00    -0.167 F 
ENDBRANCH  10  19
BRANCH  15  23
ATOM     23  S   UNL A   1      33.415  17.281  24.488  1.00  0.00     0.310 S 
ATOM     24  F   UNL A   1      34.896  16.845  24.856  1.00  0.00    -0.094 F 
ATOM     25  F   UNL A   1      33.846  17.217  22.974  1.00  0.00    -0.094 F 
ATOM     26  F   UNL A   1      33.040  15.773  24.474  1.00  0.00    -0.094 F 
ATOM     27  F   UNL A   1      33.122  17.332  26.039  1.00  0.00    -0.094 F 
ATOM     28  F   UNL A   1      33.900  18.785  24.545  1.00  0.00    -0.094 F 
ENDBRANCH  15  23
ENDBRANCH   6   8
ENDBRANCH   3   4
ENDBRANCH   2   3
ENDBRANCH   1   2
BRANCH   1  29
ATOM     29  C   UNL A   1      34.000  28.576  27.095  1.00  0.00     0.116 C 
BRANCH  29  30
ATOM     30  N   UNL A   1      33.587  29.888  27.614  1.00  0.00    -0.352 N 
ATOM     31  C   UNL A   1      34.566  30.753  28.289  1.00  0.00     0.251 C 
ATOM     32  H   UNL A   1      32.655  30.187  27.510  1.00  0.00     0.163 HD
ATOM     33  O   UNL A   1      34.209  31.887  28.737  1.00  0.00    -0.269 OA
BRANCH  31  34
ATOM     34  C   UNL A   1      36.005  30.291  28.449  1.00  0.00     0.039 A 
ATOM     35  C   UNL A   1      36.948  30.459  27.448  1.00  0.00     0.014 A 
ATOM     36  C   UNL A   1      36.329  29.744  29.616  1.00  0.00     0.014 A 
ATOM     37  C   UNL A   1      38.152  29.749  27.670  1.00  0.00     0.010 A 
ATOM     38  C   UNL A   1      37.571  29.189  29.807  1.00  0.00     0.010 A 
ATOM     39  C   UNL A   1      38.533  29.267  28.838  1.00  0.00    -0.014 A 
BRANCH  39  40
ATOM     40  C   UNL A   1      39.964  28.821  29.093  1.00  0.00     0.031 A 
ATOM     41  C   UNL A   1      40.257  27.511  28.711  1.00  0.00     0.074 A 
ATOM     42  C   UNL A   1      40.871  29.671  29.702  1.00  0.00     0.049 A 
ATOM     43  N   UNL A   1      41.423  26.872  28.824  1.00  0.00    -0.248 NA
ATOM     44  C   UNL A   1      39.286  26.594  28.095  1.00  0.00     0.031 C 
ATOM     45  C   UNL A   1      40.584  30.997  30.082  1.00  0.00     0.029 A 
ATOM     46  N   UNL A   1      42.177  29.408  30.045  1.00  0.00    -0.354 N 
ATOM     47  C   UNL A   1      41.322  25.636  28.331  1.00  0.00     0.074 A 
ATOM     48  C   UNL A   1      39.944  25.437  27.861  1.00  0.00     0.031 C 
ATOM     49  C   UNL A   1      41.698  31.521  30.657  1.00  0.00     0.029 A 
ATOM     50  C   UNL A   1      42.701  30.532  30.645  1.00  0.00     0.049 A 
ATOM     51  H   UNL A   1      42.656  28.561  29.889  1.00  0.00     0.167 HD
ATOM     52  C   UNL A   1      42.324  24.668  28.253  1.00  0.00     0.031 A 
ATOM     53  C   UNL A   1      43.975  30.704  31.159  1.00  0.00     0.031 A 
ATOM     54  C   UNL A   1      43.612  24.856  28.729  1.00  0.00     0.049 A 
ATOM     55  C   UNL A   1      44.962  29.715  31.135  1.00  0.00     0.074 A 
ATOM     56  C   UNL A   1      44.637  23.893  28.651  1.00  0.00     0.029 A 
ATOM     57  N   UNL A   1      44.128  25.971  29.351  1.00  0.00    -0.354 N 
ATOM     58  N   UNL A   1      44.871  28.494  30.606  1.00  0.00    -0.248 NA
ATOM     59  C   UNL A   1      46.305  29.875  31.706  1.00  0.00     0.031 C 
ATOM     60  C   UNL A   1      45.752  24.418  29.226  1.00  0.00     0.029 A 
ATOM     61  C   UNL A   1      45.442  25.715  29.673  1.00  0.00     0.049 A 
ATOM     62  H   UNL A   1      43.641  26.807  29.532  1.00  0.00     0.167 HD
ATOM     63  C   UNL A   1      46.026  27.842  30.757  1.00  0.00     0.074 A 
ATOM     64  C   UNL A   1      46.963  28.718  31.473  1.00  0.00     0.031 C 
ATOM     65  C   UNL A   1      46.337  26.552  30.323  1.00  0.00     0.031 A 
BRANCH  52  66
ATOM     66  C   UNL A   1      41.985  23.334  27.610  1.00  0.00    -0.014 A 
ATOM     67  C   UNL A   1      42.239  23.120  26.265  1.00  0.00     0.009 A 
ATOM     68  C   UNL A   1      41.524  22.360  28.387  1.00  0.00     0.009 A 
ATOM     69  C   UNL A   1      41.698  21.912  25.764  1.00  0.00     0.001 A 
ATOM     70  C   UNL A   1      41.140  21.157  27.847  1.00  0.00     0.001 A 
ATOM     71  C   UNL A   1      41.308  20.898  26.515  1.00  0.00     0.000 A 
ENDBRANCH  52  66
BRANCH  53  72
ATOM     72  C   UNL A   1      44.320  32.044  31.788  1.00  0.00    -0.014 A 
ATOM     73  C   UNL A   1      44.904  33.034  31.014  1.00  0.00     0.009 A 
ATOM     74  C   UNL A   1      44.137  32.209  33.092  1.00  0.00     0.009 A 
ATOM     75  C   UNL A   1      45.532  34.054  31.767  1.00  0.00     0.001 A 
ATOM     76  C   UNL A   1      44.662  33.301  33.741  1.00  0.00     0.001 A 
ATOM     77  C   UNL A   1      45.305  34.288  33.047  1.00  0.00     0.000 A 
ENDBRANCH  53  72
BRANCH  65  78
ATOM     78  C   UNL A   1      47.743  26.033  30.576  1.00  0.00    -0.014 A 
ATOM     79  C   UNL A   1      48.143  25.559  31.814  1.00  0.00     0.009 A 
ATOM     80  C   UNL A   1      48.565  26.017  29.533  1.00  0.00     0.009 A 
ATOM     81  C   UNL A   1      49.539  25.350  31.924  1.00  0.00     0.001 A 
ATOM     82  C   UNL A   1      49.885  25.671  29.689  1.00  0.00     0.001 A 
ATOM     83  C   UNL A   1      50.365  25.249  30.898  1.00  0.00     0.000 A 
ENDBRANCH  65  78
ENDBRANCH  39  40
ENDBRANCH  31  34
ENDBRANCH  29  30
ENDBRANCH   1  29
TORSDOF 13
ENDMDL
MODEL 3
REMARK VINA RESULT:     -12.5      3.331      8.281
REMARK SMILES O=C(NCCCCNC(=O)c1ccc(-c2c3nc(c(-c4ccccc4)c4ccc([nH]4)c(-c4ccccc4)c4nc(c(-c5ccccc5)c5ccc2[nH]5)C=C4)C=C3)cc1)C1=Cc2cc(S(F)(F)(F)(F)F)cc(Br)c2O[C@@H]1C(F)(F)F
REMARK SMILES IDX 6 1 5 2 4 3 3 4 1 5 2 6 59 8 60 9 75 10 61 11 74 12 62 13
REMARK SMILES IDX 73 14 63 15 71 16 70 17 72 18 76 19 77 20 78 21 79 22 64 23
REMARK SMILES IDX 65 24 66 25 67 26 68 27 69 28 7 29 8 30 9 31 10 33 11 34
REMARK SMILES IDX 12 35 58 36 13 37 57 38 14 39 15 40 16 41 51 42 17 43 56 44
REMARK SMILES IDX 50 45 52 46 18 47 55 48 49 49 48 50 19 52 41 53 26 54 40 55
REMARK SMILES IDX 27 56 30 57 39 58 53 59 28 60 29 61 38 63 54 64 31 65 20 66
REMARK SMILES IDX 21 67 25 68 22 69 24 70 23 71 42 72 43 73 47 74 44 75 46 76
REMARK SMILES IDX 45 77 32 78 33 79 37 80 34 81 36 82 35 83
REMARK H PARENT 3 7 8 32 52 51 30 62
REMARK Flexibility Score: inf
ROOT
ATOM      1  C   UNL A   1      38.764  22.403  25.937  1.00  0.00     0.023 C 
ENDROOT
BRANCH   1   2
ATOM      2  C   UNL A   1      38.120  23.677  26.460  1.00  0.00     0.023 C 
BRANCH   2   3
ATOM      3  C   UNL A   1      36.677  23.744  25.990  1.00  0.00     0.116 C 
BRANCH   3   4
ATOM      4  N   UNL A   1      36.637  23.703  24.522  1.00  0.00    -0.352 N 
ATOM      5  O   UNL A   1      35.515  22.953  22.566  1.00  0.00    -0.270 OA
ATOM      6  C   UNL A   1      35.549  22.989  23.836  1.00  0.00     0.251 C 
ATOM      7  H   UNL A   1      37.338  24.153  23.997  1.00  0.00     0.163 HD
BRANCH   6   8
ATOM      8  C   UNL A   1      34.467  22.294  24.646  1.00  0.00     0.067 C 
ATOM      9  C   UNL A   1      33.456  23.021  25.195  1.00  0.00     0.025 C 
ATOM     10  C   UNL A   1      34.513  20.788  24.842  1.00  0.00     0.314 C 
ATOM     11  C   UNL A   1      33.409  24.528  24.999  1.00  0.00     0.020 A 
ATOM     12  O   UNL A   1      34.035  24.293  22.718  1.00  0.00    -0.474 OA
ATOM     13  C   UNL A   1      33.160  25.292  26.126  1.00  0.00     0.036 A 
ATOM     14  C   UNL A   1      33.625  25.093  23.816  1.00  0.00     0.142 A 
ATOM     15  C   UNL A   1      32.871  26.649  25.847  1.00  0.00     0.109 A 
ATOM     16  C   UNL A   1      33.455  26.446  23.647  1.00  0.00     0.062 A 
ATOM     17  C   UNL A   1      33.150  27.255  24.707  1.00  0.00     0.044 A 
ATOM     18  Br  UNL A   1      33.653  27.229  21.861  1.00  0.00    -0.047 Br
BRANCH  10  19
ATOM     19  C   UNL A   1      33.255  20.163  24.263  1.00  0.00     0.429 C 
ATOM     20  F   UNL A   1      32.300  20.147  25.188  1.00  0.00    -0.167 F 
ATOM     21  F   UNL A   1      32.847  20.875  23.216  1.00  0.00    -0.167 F 
ATOM     22  F   UNL A   1      33.517  18.917  23.875  1.00  0.00    -0.167 F 
ENDBRANCH  10  19
BRANCH  15  23
ATOM     23  S   UNL A   1      32.061  27.622  27.141  1.00  0.00     0.310 S 
ATOM     24  F   UNL A   1      31.834  28.845  26.157  1.00  0.00    -0.094 F 
ATOM     25  F   UNL A   1      33.457  28.258  27.500  1.00  0.00    -0.094 F 
ATOM     26  F   UNL A   1      31.363  28.460  28.248  1.00  0.00    -0.094 F 
ATOM     27  F   UNL A   1      30.654  27.079  26.675  1.00  0.00    -0.094 F 
ATOM     28  F   UNL A   1      32.741  26.849  25.940  1.00  0.00    -0.094 F 
ENDBRANCH  15  23
ENDBRANCH   6   8
ENDBRANCH   3   4
ENDBRANCH   2   3
ENDBRANCH   1   2
BRANCH   1  29
ATOM     29  C   UNL A   1      40.064  22.148  26.685  1.00  0.00     0.116 C 
BRANCH  29  30
ATOM     30  N   UNL A   1      41.194  22.246  25.751  1.00  0.00    -0.352 N 
ATOM     31  C   UNL A   1      42.069  23.427  25.777  1.00  0.00     0.251 C 
ATOM     32  H   UNL A   1      41.365  21.520  25.108  1.00  0.00     0.163 HD
ATOM     33  O   UNL A   1      43.047  23.511  24.970  1.00  0.00    -0.269 OA
BRANCH  31  34
ATOM     34  C   UNL A   1      41.805  24.547  26.770  1.00  0.00     0.039 A 
ATOM     35  C   UNL A   1      41.291  24.304  28.033  1.00  0.00     0.014 A 
ATOM     36  C   UNL A   1      42.125  25.776  26.380  1.00  0.00     0.014 A 
ATOM     37  C   UNL A   1      40.875  25.472  28.717  1.00  0.00     0.010 A 
ATOM     38  C   UNL A   1      41.810  26.861  27.162  1.00  0.00     0.010 A 
ATOM     39  C   UNL A   1      41.245  26.698  28.397  1.00  0.00    -0.014 A 
BRANCH  39  40
ATOM     40  C   UNL A   1      41.053  27.867  29.350  1.00  0.00     0.031 A 
ATOM     41  C   UNL A   1      41.955  27.924  30.413  1.00  0.00     0.074 A 
ATOM     42  C   UNL A   1      40.017  28.767  29.164  1.00  0.00     0.049 A 
ATOM     43  N   UNL A   1      42.009  28.835  31.387  1.00  0.00    -0.248 NA
ATOM     44  C   UNL A   1      43.035  26.950  30.632  1.00  0.00     0.031 C 
ATOM     45  C   UNL A   1      39.109  28.720  28.089  1.00  0.00     0.029 A 
ATOM     46  N   UNL A   1      39.679  29.841  29.956  1.00  0.00    -0.354 N 
ATOM     47  C   UNL A   1      43.022  28.568  32.214  1.00  0.00     0.074 A 
ATOM     48  C   UNL A   1      43.693  27.347  31.743  1.00  0.00     0.031 C 
ATOM     49  C   UNL A   1      38.229  29.744  28.237  1.00  0.00     0.029 A 
ATOM     50  C   UNL A   1      38.572  30.449  29.406  1.00  0.00     0.049 A 
ATOM     51  H   UNL A   1      40.147  30.125  30.774  1.00  0.00     0.167 HD
ATOM     52  C   UNL A   1      43.414  29.293  33.339  1.00  0.00     0.031 A 
ATOM     53  C   UNL A   1      37.886  31.554  29.883  1.00  0.00     0.031 A 
ATOM     54  C   UNL A   1      42.754  30.425  33.791  1.00  0.00     0.049 A 
ATOM     55  C   UNL A   1      38.243  32.247  31.043  1.00  0.00     0.074 A 
ATOM     56  C   UNL A   1      43.140  31.173  34.920  1.00  0.00     0.029 A 
ATOM     57  N   UNL A   1      41.632  31.018  33.256  1.00  0.00    -0.354 N 
ATOM     58  N   UNL A   1      39.280  32.003  31.845  1.00  0.00    -0.248 NA
ATOM     59  C   UNL A   1      37.505  33.399  31.576  1.00  0.00     0.031 C 
ATOM     60  C   UNL A   1      42.259  32.198  35.068  1.00  0.00     0.029 A 
ATOM     61  C   UNL A   1      41.307  32.106  34.035  1.00  0.00     0.049 A 
ATOM     62  H   UNL A   1      41.147  30.717  32.454  1.00  0.00     0.167 HD
ATOM     63  C   UNL A   1      39.307  32.890  32.843  1.00  0.00     0.074 A 
ATOM     64  C   UNL A   1      38.162  33.797  32.688  1.00  0.00     0.031 C 
ATOM     65  C   UNL A   1      40.244  32.981  33.874  1.00  0.00     0.031 A 
BRANCH  52  66
ATOM     66  C   UNL A   1      44.633  28.818  34.111  1.00  0.00    -0.014 A 
ATOM     67  C   UNL A   1      44.504  27.863  35.106  1.00  0.00     0.009 A 
ATOM     68  C   UNL A   1      45.826  29.275  33.747  1.00  0.00     0.009 A 
ATOM     69  C   UNL A   1      45.682  27.661  35.865  1.00  0.00     0.001 A 
ATOM     70  C   UNL A   1      46.953  28.929  34.452  1.00  0.00     0.001 A 
ATOM     71  C   UNL A   1      46.890  28.037  35.485  1.00  0.00     0.000 A 
ENDBRANCH  52  66
BRANCH  53  72
ATOM     72  C   UNL A   1      36.676  32.040  29.102  1.00  0.00    -0.014 A 
ATOM     73  C   UNL A   1      36.769  33.197  28.346  1.00  0.00     0.009 A 
ATOM     74  C   UNL A   1      35.525  31.393  29.232  1.00  0.00     0.009 A 
ATOM     75  C   UNL A   1      35.516  33.758  28.002  1.00  0.00     0.001 A 
ATOM     76  C   UNL A   1      34.358  31.936  28.751  1.00  0.00     0.001 A 
ATOM     77  C   UNL A   1      34.367  33.108  28.046  1.00  0.00     0.000 A 
ENDBRANCH  53  72
BRANCH  65  78
ATOM     78  C   UNL A   1      40.090  34.110  34.881  1.00  0.00    -0.014 A 
ATOM     79  C   UNL A   1      40.650  35.360  34.680  1.00  0.00     0.009 A 
ATOM     80  C   UNL A   1      39.350  33.850  35.953  1.00  0.00     0.009 A 
ATOM     81  C   UNL A   1      40.610  36.196  35.821  1.00  0.00     0.001 A 
ATOM     82  C   UNL A   1      39.246  34.768  36.969  1.00  0.00     0.001 A 
ATOM     83  C   UNL A   1      39.823  36.002  36.865  1.00  0.00     0.000 A 
ENDBRANCH  65  78
ENDBRANCH  39  40
ENDBRANCH  31  34
ENDBRANCH  29  30
ENDBRANCH   1  29
TORSDOF 13
ENDMDL
