MODEL 1
REMARK VINA RESULT:     -11.9      0.000      0.000
REMARK SMILES O=C(NCCCCNC(=O)[C@H]1[NH2+]CC[C@H]1c1cccc(Oc2ccccc2)c1)c1ccc(-c2c3nc(c(-c4ccccc4)c4ccc([nH]4)c(-c4ccccc4)c4nc(c(-c5ccccc5)c5ccc2[nH]5)C=C4)C=C3)cc1
REMARK SMILES IDX 6 1 5 2 4 3 3 4 1 5 2 6 29 8 30 9 76 10 31 11 75 12 32 13
REMARK SMILES IDX 33 14 34 15 69 16 35 17 74 18 68 19 70 20 36 21 73 22 67 23
REMARK SMILES IDX 66 24 37 26 59 27 44 28 58 29 45 30 48 31 57 32 71 33 46 34
REMARK SMILES IDX 47 35 56 37 72 38 49 39 38 40 39 41 43 42 40 43 42 44 41 45
REMARK SMILES IDX 60 46 61 47 65 48 62 49 64 50 63 51 50 52 51 53 55 54 52 55
REMARK SMILES IDX 54 56 53 57 7 58 8 59 9 60 10 62 11 63 12 64 15 65 13 66
REMARK SMILES IDX 14 69 16 70 17 71 28 72 18 73 20 74 19 75 21 76 22 77 23 78
REMARK SMILES IDX 27 79 24 80 26 81 25 82
REMARK H PARENT 3 7 70 25 48 36 8 61 12 67 12 68
REMARK Flexibility Score: inf
ROOT
ATOM      1  C   UNL A   1      36.579  21.083  24.715  1.00  0.00     0.023 C 
ENDROOT
BRANCH   1   2
ATOM      2  C   UNL A   1      37.705  20.055  24.785  1.00  0.00     0.023 C 
BRANCH   2   3
ATOM      3  C   UNL A   1      38.827  20.393  25.756  1.00  0.00     0.116 C 
BRANCH   3   4
ATOM      4  N   UNL A   1      39.906  19.414  25.741  1.00  0.00    -0.352 N 
ATOM      5  O   UNL A   1      42.038  18.670  25.857  1.00  0.00    -0.269 OA
ATOM      6  C   UNL A   1      41.235  19.578  26.052  1.00  0.00     0.251 C 
ATOM      7  H   UNL A   1      39.646  18.505  25.471  1.00  0.00     0.163 HD
BRANCH   6   8
ATOM      8  C   UNL A   1      41.697  20.868  26.602  1.00  0.00     0.039 A 
ATOM      9  C   UNL A   1      41.725  21.071  27.981  1.00  0.00     0.014 A 
ATOM     10  C   UNL A   1      42.075  21.894  25.730  1.00  0.00     0.014 A 
ATOM     11  C   UNL A   1      41.962  22.342  28.483  1.00  0.00     0.010 A 
ATOM     12  C   UNL A   1      42.415  23.150  26.244  1.00  0.00     0.010 A 
ATOM     13  C   UNL A   1      42.326  23.393  27.622  1.00  0.00    -0.014 A 
BRANCH  13  14
ATOM     14  C   UNL A   1      42.670  24.707  28.220  1.00  0.00     0.031 A 
ATOM     15  C   UNL A   1      44.092  25.090  28.520  1.00  0.00     0.074 A 
ATOM     16  C   UNL A   1      41.673  25.591  28.418  1.00  0.00     0.049 A 
ATOM     17  N   UNL A   1      44.555  26.233  28.961  1.00  0.00    -0.248 NA
ATOM     18  C   UNL A   1      45.128  24.067  28.308  1.00  0.00     0.031 C 
ATOM     19  C   UNL A   1      40.252  25.326  28.172  1.00  0.00     0.029 A 
ATOM     20  N   UNL A   1      41.700  26.900  28.823  1.00  0.00    -0.354 N 
ATOM     21  C   UNL A   1      45.928  26.065  29.094  1.00  0.00     0.074 A 
ATOM     22  C   UNL A   1      46.224  24.702  28.708  1.00  0.00     0.031 C 
ATOM     23  C   UNL A   1      39.555  26.455  28.355  1.00  0.00     0.029 A 
ATOM     24  C   UNL A   1      40.466  27.503  28.798  1.00  0.00     0.049 A 
ATOM     25  H   UNL A   1      42.522  27.362  29.104  1.00  0.00     0.167 HD
ATOM     26  C   UNL A   1      46.856  26.965  29.498  1.00  0.00     0.031 A 
ATOM     27  C   UNL A   1      40.101  28.760  29.104  1.00  0.00     0.031 A 
ATOM     28  C   UNL A   1      46.559  28.322  29.880  1.00  0.00     0.049 A 
ATOM     29  C   UNL A   1      41.150  29.732  29.550  1.00  0.00     0.074 A 
ATOM     30  C   UNL A   1      47.433  29.312  30.300  1.00  0.00     0.029 A 
ATOM     31  N   UNL A   1      45.291  28.882  29.885  1.00  0.00    -0.354 N 
ATOM     32  N   UNL A   1      42.444  29.553  29.660  1.00  0.00    -0.248 NA
ATOM     33  C   UNL A   1      40.687  31.075  29.919  1.00  0.00     0.031 C 
ATOM     34  C   UNL A   1      46.688  30.459  30.596  1.00  0.00     0.029 A 
ATOM     35  C   UNL A   1      45.357  30.198  30.314  1.00  0.00     0.049 A 
ATOM     36  H   UNL A   1      44.466  28.414  29.623  1.00  0.00     0.167 HD
ATOM     37  C   UNL A   1      42.952  30.761  30.114  1.00  0.00     0.074 A 
ATOM     38  C   UNL A   1      41.831  31.674  30.219  1.00  0.00     0.031 C 
ATOM     39  C   UNL A   1      44.229  31.083  30.429  1.00  0.00     0.031 A 
BRANCH  26  40
ATOM     40  C   UNL A   1      48.287  26.512  29.568  1.00  0.00    -0.014 A 
ATOM     41  C   UNL A   1      49.173  26.734  28.503  1.00  0.00     0.009 A 
ATOM     42  C   UNL A   1      48.775  25.918  30.744  1.00  0.00     0.009 A 
ATOM     43  C   UNL A   1      50.514  26.353  28.606  1.00  0.00     0.001 A 
ATOM     44  C   UNL A   1      50.120  25.557  30.851  1.00  0.00     0.001 A 
ATOM     45  C   UNL A   1      50.987  25.771  29.781  1.00  0.00     0.000 A 
ENDBRANCH  26  40
BRANCH  27  46
ATOM     46  C   UNL A   1      38.672  29.156  29.018  1.00  0.00    -0.014 A 
ATOM     47  C   UNL A   1      37.837  29.083  30.141  1.00  0.00     0.009 A 
ATOM     48  C   UNL A   1      38.141  29.623  27.804  1.00  0.00     0.009 A 
ATOM     49  C   UNL A   1      36.492  29.450  30.045  1.00  0.00     0.001 A 
ATOM     50  C   UNL A   1      36.806  30.018  27.719  1.00  0.00     0.001 A 
ATOM     51  C   UNL A   1      35.980  29.922  28.837  1.00  0.00     0.000 A 
ENDBRANCH  27  46
BRANCH  39  52
ATOM     52  C   UNL A   1      44.466  32.484  30.912  1.00  0.00    -0.014 A 
ATOM     53  C   UNL A   1      44.400  32.796  32.279  1.00  0.00     0.009 A 
ATOM     54  C   UNL A   1      44.754  33.502  29.991  1.00  0.00     0.009 A 
ATOM     55  C   UNL A   1      44.577  34.112  32.711  1.00  0.00     0.001 A 
ATOM     56  C   UNL A   1      44.955  34.812  30.428  1.00  0.00     0.001 A 
ATOM     57  C   UNL A   1      44.855  35.117  31.785  1.00  0.00     0.000 A 
ENDBRANCH  39  52
ENDBRANCH  13  14
ENDBRANCH   6   8
ENDBRANCH   3   4
ENDBRANCH   2   3
ENDBRANCH   1   2
BRANCH   1  58
ATOM     58  C   UNL A   1      36.631  22.189  25.766  1.00  0.00     0.116 C 
BRANCH  58  59
ATOM     59  N   UNL A   1      35.585  22.040  26.755  1.00  0.00    -0.351 N 
ATOM     60  C   UNL A   1      34.538  22.848  27.061  1.00  0.00     0.278 C 
ATOM     61  H   UNL A   1      35.644  21.219  27.295  1.00  0.00     0.163 HD
ATOM     62  O   UNL A   1      33.965  22.608  28.131  1.00  0.00    -0.268 OA
BRANCH  60  63
ATOM     63  C   UNL A   1      34.120  24.055  26.219  1.00  0.00     0.280 C 
ATOM     64  N   UNL A   1      35.001  24.448  25.087  1.00  0.00    -0.335 N 
ATOM     65  C   UNL A   1      32.743  23.928  25.526  1.00  0.00     0.093 C 
ATOM     66  C   UNL A   1      34.222  25.473  24.371  1.00  0.00     0.262 C 
ATOM     67  H   UNL A   1      35.193  23.650  24.482  1.00  0.00     0.346 HD
ATOM     68  H   UNL A   1      35.910  24.790  25.397  1.00  0.00     0.346 HD
ATOM     69  C   UNL A   1      32.752  25.245  24.737  1.00  0.00     0.076 C 
BRANCH  65  70
ATOM     70  C   UNL A   1      32.560  22.667  24.668  1.00  0.00    -0.034 A 
ATOM     71  C   UNL A   1      32.623  22.657  23.266  1.00  0.00     0.004 A 
ATOM     72  C   UNL A   1      32.310  21.440  25.312  1.00  0.00     0.051 A 
ATOM     73  C   UNL A   1      32.452  21.473  22.543  1.00  0.00     0.004 A 
ATOM     74  C   UNL A   1      32.161  20.244  24.601  1.00  0.00     0.127 A 
ATOM     75  C   UNL A   1      32.224  20.271  23.209  1.00  0.00     0.047 A 
BRANCH  74  76
ATOM     76  O   UNL A   1      31.930  18.999  25.151  1.00  0.00    -0.457 OA
BRANCH  76  77
ATOM     77  C   UNL A   1      32.928  18.058  25.086  1.00  0.00     0.127 A 
ATOM     78  C   UNL A   1      34.154  18.422  24.528  1.00  0.00     0.047 A 
ATOM     79  C   UNL A   1      32.694  16.740  25.483  1.00  0.00     0.047 A 
ATOM     80  C   UNL A   1      35.174  17.474  24.424  1.00  0.00     0.004 A 
ATOM     81  C   UNL A   1      33.722  15.802  25.401  1.00  0.00     0.004 A 
ATOM     82  C   UNL A   1      34.961  16.169  24.873  1.00  0.00     0.000 A 
ENDBRANCH  76  77
ENDBRANCH  74  76
ENDBRANCH  65  70
ENDBRANCH  60  63
ENDBRANCH  58  59
ENDBRANCH   1  58
TORSDOF 14
ENDMDL
MODEL 2
REMARK VINA RESULT:     -11.9      4.978     10.001
REMARK SMILES O=C(NCCCCNC(=O)[C@H]1[NH2+]CC[C@H]1c1cccc(Oc2ccccc2)c1)c1ccc(-c2c3nc(c(-c4ccccc4)c4ccc([nH]4)c(-c4ccccc4)c4nc(c(-c5ccccc5)c5ccc2[nH]5)C=C4)C=C3)cc1
REMARK SMILES IDX 6 1 5 2 4 3 3 4 1 5 2 6 29 8 30 9 76 10 31 11 75 12 32 13
REMARK SMILES IDX 33 14 34 15 69 16 35 17 74 18 68 19 70 20 36 21 73 22 67 23
REMARK SMILES IDX 66 24 37 26 59 27 44 28 58 29 45 30 48 31 57 32 71 33 46 34
REMARK SMILES IDX 47 35 56 37 72 38 49 39 38 40 39 41 43 42 40 43 42 44 41 45
REMARK SMILES IDX 60 46 61 47 65 48 62 49 64 50 63 51 50 52 51 53 55 54 52 55
REMARK SMILES IDX 54 56 53 57 7 58 8 59 9 60 10 62 11 63 12 64 15 65 13 66
REMARK SMILES IDX 14 69 16 70 17 71 28 72 18 73 20 74 19 75 21 76 22 77 23 78
REMARK SMILES IDX 27 79 24 80 26 81 25 82
REMARK H PARENT 3 7 70 25 48 36 8 61 12 67 12 68
REMARK Flexibility Score: inf
ROOT
ATOM      1  C   UNL A   1      31.669  30.497  25.937  1.00  0.00     0.023 C 
ENDROOT
BRANCH   1   2
ATOM      2  C   UNL A   1      31.411  31.886  26.515  1.00  0.00     0.023 C 
BRANCH   2   3
ATOM      3  C   UNL A   1      32.600  32.523  27.219  1.00  0.00     0.116 C 
BRANCH   3   4
ATOM      4  N   UNL A   1      32.363  33.910  27.595  1.00  0.00    -0.352 N 
ATOM      5  O   UNL A   1      32.635  35.818  28.777  1.00  0.00    -0.269 OA
ATOM      6  C   UNL A   1      33.055  34.704  28.479  1.00  0.00     0.251 C 
ATOM      7  H   UNL A   1      31.598  34.342  27.151  1.00  0.00     0.163 HD
BRANCH   6   8
ATOM      8  C   UNL A   1      34.299  34.195  29.089  1.00  0.00     0.039 A 
ATOM      9  C   UNL A   1      35.534  34.505  28.521  1.00  0.00     0.014 A 
ATOM     10  C   UNL A   1      34.228  33.376  30.220  1.00  0.00     0.014 A 
ATOM     11  C   UNL A   1      36.677  33.862  28.973  1.00  0.00     0.010 A 
ATOM     12  C   UNL A   1      35.397  32.808  30.739  1.00  0.00     0.010 A 
ATOM     13  C   UNL A   1      36.626  33.019  30.098  1.00  0.00    -0.014 A 
BRANCH  13  14
ATOM     14  C   UNL A   1      37.894  32.439  30.603  1.00  0.00     0.031 A 
ATOM     15  C   UNL A   1      38.569  32.969  31.836  1.00  0.00     0.074 A 
ATOM     16  C   UNL A   1      38.393  31.361  29.967  1.00  0.00     0.049 A 
ATOM     17  N   UNL A   1      39.633  32.510  32.447  1.00  0.00    -0.248 NA
ATOM     18  C   UNL A   1      37.989  34.166  32.464  1.00  0.00     0.031 C 
ATOM     19  C   UNL A   1      37.827  30.763  28.753  1.00  0.00     0.029 A 
ATOM     20  N   UNL A   1      39.452  30.547  30.272  1.00  0.00    -0.354 N 
ATOM     21  C   UNL A   1      39.859  33.366  33.518  1.00  0.00     0.074 A 
ATOM     22  C   UNL A   1      38.835  34.387  33.463  1.00  0.00     0.031 C 
ATOM     23  C   UNL A   1      38.495  29.640  28.462  1.00  0.00     0.029 A 
ATOM     24  C   UNL A   1      39.577  29.473  29.425  1.00  0.00     0.049 A 
ATOM     25  H   UNL A   1      40.064  30.716  31.024  1.00  0.00     0.167 HD
ATOM     26  C   UNL A   1      40.831  33.304  34.460  1.00  0.00     0.031 A 
ATOM     27  C   UNL A   1      40.467  28.466  29.414  1.00  0.00     0.031 A 
ATOM     28  C   UNL A   1      41.848  32.287  34.514  1.00  0.00     0.049 A 
ATOM     29  C   UNL A   1      41.530  28.426  30.469  1.00  0.00     0.074 A 
ATOM     30  C   UNL A   1      42.874  32.137  35.434  1.00  0.00     0.029 A 
ATOM     31  N   UNL A   1      41.968  31.241  33.611  1.00  0.00    -0.354 N 
ATOM     32  N   UNL A   1      41.719  29.242  31.478  1.00  0.00    -0.248 NA
ATOM     33  C   UNL A   1      42.504  27.332  30.380  1.00  0.00     0.031 C 
ATOM     34  C   UNL A   1      43.636  31.023  35.064  1.00  0.00     0.029 A 
ATOM     35  C   UNL A   1      43.057  30.452  33.943  1.00  0.00     0.049 A 
ATOM     36  H   UNL A   1      41.368  31.084  32.847  1.00  0.00     0.167 HD
ATOM     37  C   UNL A   1      42.837  28.762  32.143  1.00  0.00     0.074 A 
ATOM     38  C   UNL A   1      43.256  27.561  31.447  1.00  0.00     0.031 C 
ATOM     39  C   UNL A   1      43.468  29.274  33.227  1.00  0.00     0.031 A 
BRANCH  26  40
ATOM     40  C   UNL A   1      40.856  34.379  35.510  1.00  0.00    -0.014 A 
ATOM     41  C   UNL A   1      41.576  35.568  35.316  1.00  0.00     0.009 A 
ATOM     42  C   UNL A   1      40.093  34.231  36.681  1.00  0.00     0.009 A 
ATOM     43  C   UNL A   1      41.547  36.580  36.281  1.00  0.00     0.001 A 
ATOM     44  C   UNL A   1      40.049  35.252  37.633  1.00  0.00     0.001 A 
ATOM     45  C   UNL A   1      40.779  36.423  37.435  1.00  0.00     0.000 A 
ENDBRANCH  26  40
BRANCH  27  46
ATOM     46  C   UNL A   1      40.397  27.429  28.354  1.00  0.00    -0.014 A 
ATOM     47  C   UNL A   1      39.660  26.252  28.546  1.00  0.00     0.009 A 
ATOM     48  C   UNL A   1      41.064  27.622  27.133  1.00  0.00     0.009 A 
ATOM     49  C   UNL A   1      39.610  25.279  27.544  1.00  0.00     0.001 A 
ATOM     50  C   UNL A   1      40.986  26.664  26.122  1.00  0.00     0.001 A 
ATOM     51  C   UNL A   1      40.267  25.489  26.332  1.00  0.00     0.000 A 
ENDBRANCH  27  46
BRANCH  39  52
ATOM     52  C   UNL A   1      44.675  28.526  33.713  1.00  0.00    -0.014 A 
ATOM     53  C   UNL A   1      45.958  28.840  33.238  1.00  0.00     0.009 A 
ATOM     54  C   UNL A   1      44.526  27.495  34.653  1.00  0.00     0.009 A 
ATOM     55  C   UNL A   1      47.066  28.106  33.664  1.00  0.00     0.001 A 
ATOM     56  C   UNL A   1      45.639  26.780  35.096  1.00  0.00     0.001 A 
ATOM     57  C   UNL A   1      46.905  27.078  34.593  1.00  0.00     0.000 A 
ENDBRANCH  39  52
ENDBRANCH  13  14
ENDBRANCH   6   8
ENDBRANCH   3   4
ENDBRANCH   2   3
ENDBRANCH   1   2
BRANCH   1  58
ATOM     58  C   UNL A   1      33.022  29.881  26.285  1.00  0.00     0.116 C 
BRANCH  58  59
ATOM     59  N   UNL A   1      32.889  28.514  26.741  1.00  0.00    -0.351 N 
ATOM     60  C   UNL A   1      32.947  27.345  26.053  1.00  0.00     0.278 C 
ATOM     61  H   UNL A   1      32.728  28.416  27.707  1.00  0.00     0.163 HD
ATOM     62  O   UNL A   1      32.525  26.346  26.649  1.00  0.00    -0.268 OA
BRANCH  60  63
ATOM     63  C   UNL A   1      33.400  27.236  24.596  1.00  0.00     0.280 C 
ATOM     64  N   UNL A   1      33.594  25.873  24.032  1.00  0.00    -0.335 N 
ATOM     65  C   UNL A   1      32.449  27.880  23.562  1.00  0.00     0.093 C 
ATOM     66  C   UNL A   1      33.807  26.113  22.594  1.00  0.00     0.262 C 
ATOM     67  H   UNL A   1      32.767  25.296  24.185  1.00  0.00     0.346 HD
ATOM     68  H   UNL A   1      34.369  25.374  24.467  1.00  0.00     0.346 HD
ATOM     69  C   UNL A   1      33.185  27.476  22.277  1.00  0.00     0.076 C 
BRANCH  65  70
ATOM     70  C   UNL A   1      30.988  27.411  23.639  1.00  0.00    -0.034 A 
ATOM     71  C   UNL A   1      30.598  26.122  24.036  1.00  0.00     0.004 A 
ATOM     72  C   UNL A   1      29.967  28.316  23.290  1.00  0.00     0.051 A 
ATOM     73  C   UNL A   1      29.249  25.759  24.089  1.00  0.00     0.004 A 
ATOM     74  C   UNL A   1      28.612  27.972  23.361  1.00  0.00     0.127 A 
ATOM     75  C   UNL A   1      28.261  26.682  23.755  1.00  0.00     0.047 A 
BRANCH  74  76
ATOM     76  O   UNL A   1      27.550  28.800  23.055  1.00  0.00    -0.457 OA
BRANCH  76  77
ATOM     77  C   UNL A   1      27.816  30.077  22.626  1.00  0.00     0.127 A 
ATOM     78  C   UNL A   1      27.814  31.110  23.563  1.00  0.00     0.047 A 
ATOM     79  C   UNL A   1      27.994  30.352  21.269  1.00  0.00     0.047 A 
ATOM     80  C   UNL A   1      28.053  32.421  23.146  1.00  0.00     0.004 A 
ATOM     81  C   UNL A   1      28.256  31.658  20.858  1.00  0.00     0.004 A 
ATOM     82  C   UNL A   1      28.287  32.691  21.796  1.00  0.00     0.000 A 
ENDBRANCH  76  77
ENDBRANCH  74  76
ENDBRANCH  65  70
ENDBRANCH  60  63
ENDBRANCH  58  59
ENDBRANCH   1  58
TORSDOF 14
ENDMDL
MODEL 3
REMARK VINA RESULT:     -11.9      4.664      9.671
REMARK SMILES O=C(NCCCCNC(=O)[C@H]1[NH2+]CC[C@H]1c1cccc(Oc2ccccc2)c1)c1ccc(-c2c3nc(c(-c4ccccc4)c4ccc([nH]4)c(-c4ccccc4)c4nc(c(-c5ccccc5)c5ccc2[nH]5)C=C4)C=C3)cc1
REMARK SMILES IDX 6 1 5 2 4 3 3 4 1 5 2 6 29 8 30 9 76 10 31 11 75 12 32 13
REMARK SMILES IDX 33 14 34 15 69 16 35 17 74 18 68 19 70 20 36 21 73 22 67 23
REMARK SMILES IDX 66 24 37 26 59 27 44 28 58 29 45 30 48 31 57 32 71 33 46 34
REMARK SMILES IDX 47 35 56 37 72 38 49 39 38 40 39 41 43 42 40 43 42 44 41 45
REMARK SMILES IDX 60 46 61 47 65 48 62 49 64 50 63 51 50 52 51 53 55 54 52 55
REMARK SMILES IDX 54 56 53 57 7 58 8 59 9 60 10 62 11 63 12 64 15 65 13 66
REMARK SMILES IDX 14 69 16 70 17 71 28 72 18 73 20 74 19 75 21 76 22 77 23 78
REMARK SMILES IDX 27 79 24 80 26 81 25 82
REMARK H PARENT 3 7 70 25 48 36 8 61 12 67 12 68
REMARK Flexibility Score: inf
ROOT
ATOM      1  C   UNL A   1      31.570  30.517  25.767  1.00  0.00     0.023 C 
ENDROOT
BRANCH   1   2
ATOM      2  C   UNL A   1      31.350  31.829  26.514  1.00  0.00     0.023 C 
BRANCH   2   3
ATOM      3  C   UNL A   1      32.599  32.432  27.141  1.00  0.00     0.116 C 
BRANCH   3   4
ATOM      4  N   UNL A   1      32.418  33.818  27.552  1.00  0.00    -0.352 N 
ATOM      5  O   UNL A   1      32.770  35.685  28.777  1.00  0.00    -0.269 OA
ATOM      6  C   UNL A   1      33.144  34.563  28.450  1.00  0.00     0.251 C 
ATOM      7  H   UNL A   1      31.668  34.289  27.123  1.00  0.00     0.163 HD
BRANCH   6   8
ATOM      8  C   UNL A   1      34.371  33.992  29.040  1.00  0.00     0.039 A 
ATOM      9  C   UNL A   1      35.595  34.137  28.387  1.00  0.00     0.014 A 
ATOM     10  C   UNL A   1      34.292  33.278  30.240  1.00  0.00     0.014 A 
ATOM     11  C   UNL A   1      36.699  33.429  28.837  1.00  0.00     0.010 A 
ATOM     12  C   UNL A   1      35.433  32.649  30.749  1.00  0.00     0.010 A 
ATOM     13  C   UNL A   1      36.637  32.690  30.032  1.00  0.00    -0.014 A 
BRANCH  13  14
ATOM     14  C   UNL A   1      37.875  32.037  30.523  1.00  0.00     0.031 A 
ATOM     15  C   UNL A   1      38.404  30.775  29.901  1.00  0.00     0.074 A 
ATOM     16  C   UNL A   1      38.567  32.652  31.503  1.00  0.00     0.049 A 
ATOM     17  N   UNL A   1      39.518  30.138  30.165  1.00  0.00    -0.248 NA
ATOM     18  C   UNL A   1      37.584  30.140  28.858  1.00  0.00     0.031 C 
ATOM     19  C   UNL A   1      38.145  33.878  32.189  1.00  0.00     0.029 A 
ATOM     20  N   UNL A   1      39.786  32.365  32.058  1.00  0.00    -0.354 N 
ATOM     21  C   UNL A   1      39.526  29.023  29.336  1.00  0.00     0.074 A 
ATOM     22  C   UNL A   1      38.297  29.057  28.573  1.00  0.00     0.031 C 
ATOM     23  C   UNL A   1      39.121  34.278  33.014  1.00  0.00     0.029 A 
ATOM     24  C   UNL A   1      40.205  33.305  32.968  1.00  0.00     0.049 A 
ATOM     25  H   UNL A   1      40.310  31.565  31.829  1.00  0.00     0.167 HD
ATOM     26  C   UNL A   1      40.474  28.062  29.220  1.00  0.00     0.031 A 
ATOM     27  C   UNL A   1      41.333  33.376  33.696  1.00  0.00     0.031 A 
ATOM     28  C   UNL A   1      41.698  28.032  29.979  1.00  0.00     0.049 A 
ATOM     29  C   UNL A   1      42.362  32.297  33.546  1.00  0.00     0.074 A 
ATOM     30  C   UNL A   1      42.723  27.101  29.928  1.00  0.00     0.029 A 
ATOM     31  N   UNL A   1      42.065  28.978  30.924  1.00  0.00    -0.354 N 
ATOM     32  N   UNL A   1      42.353  31.257  32.749  1.00  0.00    -0.248 NA
ATOM     33  C   UNL A   1      43.551  32.400  34.401  1.00  0.00     0.031 C 
ATOM     34  C   UNL A   1      43.692  27.463  30.871  1.00  0.00     0.029 A 
ATOM     35  C   UNL A   1      43.293  28.645  31.474  1.00  0.00     0.049 A 
ATOM     36  H   UNL A   1      41.532  29.768  31.169  1.00  0.00     0.167 HD
ATOM     37  C   UNL A   1      43.534  30.577  33.008  1.00  0.00     0.074 A 
ATOM     38  C   UNL A   1      44.251  31.347  34.005  1.00  0.00     0.031 C 
ATOM     39  C   UNL A   1      43.980  29.414  32.477  1.00  0.00     0.031 A 
BRANCH  26  40
ATOM     40  C   UNL A   1      40.223  26.945  28.246  1.00  0.00    -0.014 A 
ATOM     41  C   UNL A   1      40.727  26.994  26.938  1.00  0.00     0.009 A 
ATOM     42  C   UNL A   1      39.533  25.796  28.665  1.00  0.00     0.009 A 
ATOM     43  C   UNL A   1      40.528  25.923  26.062  1.00  0.00     0.001 A 
ATOM     44  C   UNL A   1      39.354  24.719  27.794  1.00  0.00     0.001 A 
ATOM     45  C   UNL A   1      39.848  24.785  26.493  1.00  0.00     0.000 A 
ENDBRANCH  26  40
BRANCH  27  46
ATOM     46  C   UNL A   1      41.532  34.502  34.644  1.00  0.00    -0.014 A 
ATOM     47  C   UNL A   1      41.081  34.415  35.968  1.00  0.00     0.009 A 
ATOM     48  C   UNL A   1      42.188  35.671  34.223  1.00  0.00     0.009 A 
ATOM     49  C   UNL A   1      41.265  35.484  36.848  1.00  0.00     0.001 A 
ATOM     50  C   UNL A   1      42.399  36.725  35.113  1.00  0.00     0.001 A 
ATOM     51  C   UNL A   1      41.929  36.634  36.421  1.00  0.00     0.000 A 
ENDBRANCH  27  46
BRANCH  39  52
ATOM     52  C   UNL A   1      45.306  28.917  32.973  1.00  0.00    -0.014 A 
ATOM     53  C   UNL A   1      45.397  28.153  34.147  1.00  0.00     0.009 A 
ATOM     54  C   UNL A   1      46.477  29.220  32.262  1.00  0.00     0.009 A 
ATOM     55  C   UNL A   1      46.642  27.737  34.622  1.00  0.00     0.001 A 
ATOM     56  C   UNL A   1      47.717  28.782  32.725  1.00  0.00     0.001 A 
ATOM     57  C   UNL A   1      47.800  28.051  33.911  1.00  0.00     0.000 A 
ENDBRANCH  39  52
ENDBRANCH  13  14
ENDBRANCH   6   8
ENDBRANCH   3   4
ENDBRANCH   2   3
ENDBRANCH   1   2
BRANCH   1  58
ATOM     58  C   UNL A   1      32.964  29.907  25.905  1.00  0.00     0.116 C 
BRANCH  58  59
ATOM     59  N   UNL A   1      32.916  28.586  26.493  1.00  0.00    -0.351 N 
ATOM     60  C   UNL A   1      33.009  27.360  25.918  1.00  0.00     0.278 C 
ATOM     61  H   UNL A   1      32.795  28.575  27.470  1.00  0.00     0.163 HD
ATOM     62  O   UNL A   1      32.659  26.404  26.622  1.00  0.00    -0.268 OA
BRANCH  60  63
ATOM     63  C   UNL A   1      33.415  27.132  24.460  1.00  0.00     0.280 C 
ATOM     64  N   UNL A   1      33.526  25.727  23.984  1.00  0.00    -0.335 N 
ATOM     65  C   UNL A   1      32.467  27.754  23.409  1.00  0.00     0.093 C 
ATOM     66  C   UNL A   1      33.710  25.860  22.529  1.00  0.00     0.262 C 
ATOM     67  H   UNL A   1      32.676  25.204  24.196  1.00  0.00     0.346 HD
ATOM     68  H   UNL A   1      34.288  25.219  24.433  1.00  0.00     0.346 HD
ATOM     69  C   UNL A   1      33.147  27.229  22.136  1.00  0.00     0.076 C 
BRANCH  65  70
ATOM     70  C   UNL A   1      30.988  27.365  23.553  1.00  0.00    -0.034 A 
ATOM     71  C   UNL A   1      30.545  26.173  24.146  1.00  0.00     0.004 A 
ATOM     72  C   UNL A   1      30.006  28.247  23.063  1.00  0.00     0.051 A 
ATOM     73  C   UNL A   1      29.182  25.881  24.251  1.00  0.00     0.004 A 
ATOM     74  C   UNL A   1      28.638  27.977  23.183  1.00  0.00     0.127 A 
ATOM     75  C   UNL A   1      28.233  26.781  23.773  1.00  0.00     0.047 A 
BRANCH  74  76
ATOM     76  O   UNL A   1      27.611  28.791  22.746  1.00  0.00    -0.457 OA
BRANCH  76  77
ATOM     77  C   UNL A   1      27.887  30.109  22.479  1.00  0.00     0.127 A 
ATOM     78  C   UNL A   1      27.954  31.006  23.545  1.00  0.00     0.047 A 
ATOM     79  C   UNL A   1      28.006  30.561  21.164  1.00  0.00     0.047 A 
ATOM     80  C   UNL A   1      28.205  32.357  23.296  1.00  0.00     0.004 A 
ATOM     81  C   UNL A   1      28.280  31.906  20.920  1.00  0.00     0.004 A 
ATOM     82  C   UNL A   1      28.381  32.803  21.985  1.00  0.00     0.000 A 
ENDBRANCH  76  77
ENDBRANCH  74  76
ENDBRANCH  65  70
ENDBRANCH  60  63
ENDBRANCH  58  59
ENDBRANCH   1  58
TORSDOF 14
ENDMDL
