MODEL 1
REMARK VINA RESULT:     -11.5      0.000      0.000
REMARK SMILES Cc1cc(Cl)c2c(c1)C=C(C(=O)NCCCCNC(=O)c1ccc(-c3c4nc(c(-c5ccccc5)c5ccc([nH]5)c(-c5ccccc5)c5nc(c(-c6ccccc6)c6ccc3[nH]6)C=C5)C=C4)cc1)[C@@H](C(F)(F)F)O2
REMARK SMILES IDX 16 1 15 2 14 3 13 4 11 5 12 6 10 8 1 9 2 10 3 11 8 12 4 13
REMARK SMILES IDX 7 14 5 15 6 16 9 17 74 18 69 19 70 20 71 21 72 22 73 23
REMARK SMILES IDX 17 24 18 25 19 26 20 28 21 29 22 30 68 31 23 32 67 33 24 34
REMARK SMILES IDX 25 35 26 36 61 37 27 38 66 39 60 40 62 41 28 42 65 43 59 44
REMARK SMILES IDX 58 45 29 47 51 48 36 49 50 50 37 51 40 52 49 53 63 54 38 55
REMARK SMILES IDX 39 56 48 58 64 59 41 60 30 61 31 62 35 63 32 64 34 65 33 66
REMARK SMILES IDX 52 67 53 68 57 69 54 70 56 71 55 72 42 73 43 74 47 75 44 76
REMARK SMILES IDX 46 77 45 78
REMARK H PARENT 13 7 18 27 62 46 40 57
REMARK Flexibility Score: inf
ROOT
ATOM      1  C   UNL A   1      33.900  28.543  25.765  1.00  0.00     0.023 C 
ENDROOT
BRANCH   1   2
ATOM      2  C   UNL A   1      32.734  28.924  24.850  1.00  0.00     0.023 C 
BRANCH   2   3
ATOM      3  C   UNL A   1      31.994  27.731  24.253  1.00  0.00     0.116 C 
BRANCH   3   4
ATOM      4  N   UNL A   1      31.135  27.082  25.226  1.00  0.00    -0.352 N 
ATOM      5  C   UNL A   1      31.052  25.866  25.813  1.00  0.00     0.251 C 
ATOM      6  O   UNL A   1      30.119  25.734  26.613  1.00  0.00    -0.270 OA
ATOM      7  H   UNL A   1      30.425  27.686  25.543  1.00  0.00     0.163 HD
BRANCH   5   8
ATOM      8  C   UNL A   1      31.977  24.719  25.562  1.00  0.00     0.067 C 
ATOM      9  C   UNL A   1      37.994  23.325  25.952  1.00  0.00     0.044 C 
ATOM     10  C   UNL A   1      36.537  23.068  25.706  1.00  0.00    -0.049 A 
ATOM     11  C   UNL A   1      36.088  21.795  25.337  1.00  0.00     0.028 A 
ATOM     12  C   UNL A   1      35.602  24.096  25.886  1.00  0.00     0.015 A 
ATOM     13  C   UNL A   1      34.726  21.559  25.140  1.00  0.00     0.084 A 
ATOM     14  C   UNL A   1      34.235  23.864  25.688  1.00  0.00     0.019 A 
ATOM     15  Cl  UNL A   1      34.222  19.971  24.688  1.00  0.00    -0.080 Cl
ATOM     16  C   UNL A   1      33.799  22.593  25.307  1.00  0.00     0.146 A 
ATOM     17  C   UNL A   1      33.258  24.920  25.921  1.00  0.00     0.025 C 
ATOM     18  O   UNL A   1      32.472  22.308  25.146  1.00  0.00    -0.474 OA
ATOM     19  C   UNL A   1      31.574  23.425  24.915  1.00  0.00     0.314 C 
BRANCH  19  20
ATOM     20  C   UNL A   1      31.326  23.570  23.401  1.00  0.00     0.429 C 
ATOM     21  F   UNL A   1      32.124  24.535  22.879  1.00  0.00    -0.167 F 
ATOM     22  F   UNL A   1      31.609  22.434  22.718  1.00  0.00    -0.167 F 
ATOM     23  F   UNL A   1      30.047  23.895  23.112  1.00  0.00    -0.167 F 
ENDBRANCH  19  20
ENDBRANCH   5   8
ENDBRANCH   3   4
ENDBRANCH   2   3
ENDBRANCH   1   2
BRANCH   1  24
ATOM     24  C   UNL A   1      33.630  28.684  27.262  1.00  0.00     0.116 C 
BRANCH  24  25
ATOM     25  N   UNL A   1      33.591  30.063  27.727  1.00  0.00    -0.352 N 
ATOM     26  C   UNL A   1      34.603  30.793  28.302  1.00  0.00     0.251 C 
ATOM     27  H   UNL A   1      32.731  30.531  27.618  1.00  0.00     0.163 HD
ATOM     28  O   UNL A   1      34.408  31.931  28.713  1.00  0.00    -0.269 OA
BRANCH  26  29
ATOM     29  C   UNL A   1      35.925  30.162  28.457  1.00  0.00     0.039 A 
ATOM     30  C   UNL A   1      36.837  30.244  27.402  1.00  0.00     0.014 A 
ATOM     31  C   UNL A   1      36.283  29.565  29.669  1.00  0.00     0.014 A 
ATOM     32  C   UNL A   1      38.140  29.791  27.589  1.00  0.00     0.010 A 
ATOM     33  C   UNL A   1      37.600  29.169  29.873  1.00  0.00     0.010 A 
ATOM     34  C   UNL A   1      38.540  29.286  28.838  1.00  0.00    -0.014 A 
BRANCH  34  35
ATOM     35  C   UNL A   1      39.943  28.878  29.080  1.00  0.00     0.031 A 
ATOM     36  C   UNL A   1      40.402  27.506  28.683  1.00  0.00     0.074 A 
ATOM     37  C   UNL A   1      40.786  29.724  29.702  1.00  0.00     0.049 A 
ATOM     38  N   UNL A   1      41.573  26.949  28.851  1.00  0.00    -0.248 NA
ATOM     39  C   UNL A   1      39.409  26.637  28.030  1.00  0.00     0.031 C 
ATOM     40  C   UNL A   1      40.448  31.072  30.164  1.00  0.00     0.029 A 
ATOM     41  N   UNL A   1      42.103  29.573  30.051  1.00  0.00    -0.354 N 
ATOM     42  C   UNL A   1      41.455  25.666  28.336  1.00  0.00     0.074 A 
ATOM     43  C   UNL A   1      40.087  25.508  27.892  1.00  0.00     0.031 C 
ATOM     44  C   UNL A   1      41.541  31.638  30.702  1.00  0.00     0.029 A 
ATOM     45  C   UNL A   1      42.644  30.683  30.654  1.00  0.00     0.049 A 
ATOM     46  H   UNL A   1      42.614  28.748  29.885  1.00  0.00     0.167 HD
ATOM     47  C   UNL A   1      42.407  24.712  28.219  1.00  0.00     0.031 A 
ATOM     48  C   UNL A   1      43.889  30.906  31.112  1.00  0.00     0.031 A 
ATOM     49  C   UNL A   1      43.770  24.871  28.645  1.00  0.00     0.049 A 
ATOM     50  C   UNL A   1      44.923  29.824  30.986  1.00  0.00     0.074 A 
ATOM     51  C   UNL A   1      44.819  23.976  28.532  1.00  0.00     0.029 A 
ATOM     52  N   UNL A   1      44.272  26.005  29.262  1.00  0.00    -0.354 N 
ATOM     53  N   UNL A   1      44.807  28.630  30.459  1.00  0.00    -0.248 NA
ATOM     54  C   UNL A   1      46.262  30.122  31.518  1.00  0.00     0.031 C 
ATOM     55  C   UNL A   1      45.950  24.557  29.114  1.00  0.00     0.029 A 
ATOM     56  C   UNL A   1      45.614  25.827  29.550  1.00  0.00     0.049 A 
ATOM     57  H   UNL A   1      43.753  26.816  29.466  1.00  0.00     0.167 HD
ATOM     58  C   UNL A   1      46.058  28.041  30.576  1.00  0.00     0.074 A 
ATOM     59  C   UNL A   1      46.923  29.013  31.213  1.00  0.00     0.031 C 
ATOM     60  C   UNL A   1      46.455  26.806  30.189  1.00  0.00     0.031 A 
BRANCH  47  61
ATOM     61  C   UNL A   1      42.000  23.409  27.595  1.00  0.00    -0.014 A 
ATOM     62  C   UNL A   1      42.243  23.154  26.236  1.00  0.00     0.009 A 
ATOM     63  C   UNL A   1      41.395  22.414  28.378  1.00  0.00     0.009 A 
ATOM     64  C   UNL A   1      41.860  21.939  25.665  1.00  0.00     0.001 A 
ATOM     65  C   UNL A   1      41.034  21.191  27.809  1.00  0.00     0.001 A 
ATOM     66  C   UNL A   1      41.259  20.958  26.454  1.00  0.00     0.000 A 
ENDBRANCH  47  61
BRANCH  48  67
ATOM     67  C   UNL A   1      44.237  32.224  31.700  1.00  0.00    -0.014 A 
ATOM     68  C   UNL A   1      44.086  32.443  33.077  1.00  0.00     0.009 A 
ATOM     69  C   UNL A   1      44.731  33.262  30.896  1.00  0.00     0.009 A 
ATOM     70  C   UNL A   1      44.409  33.681  33.636  1.00  0.00     0.001 A 
ATOM     71  C   UNL A   1      45.074  34.493  31.461  1.00  0.00     0.001 A 
ATOM     72  C   UNL A   1      44.906  34.703  32.830  1.00  0.00     0.000 A 
ENDBRANCH  48  67
BRANCH  60  73
ATOM     73  C   UNL A   1      47.889  26.435  30.428  1.00  0.00    -0.014 A 
ATOM     74  C   UNL A   1      48.282  25.805  31.618  1.00  0.00     0.009 A 
ATOM     75  C   UNL A   1      48.842  26.655  29.422  1.00  0.00     0.009 A 
ATOM     76  C   UNL A   1      49.610  25.418  31.802  1.00  0.00     0.001 A 
ATOM     77  C   UNL A   1      50.164  26.247  29.601  1.00  0.00     0.001 A 
ATOM     78  C   UNL A   1      50.548  25.631  30.792  1.00  0.00     0.000 A 
ENDBRANCH  60  73
ENDBRANCH  34  35
ENDBRANCH  26  29
ENDBRANCH  24  25
ENDBRANCH   1  24
TORSDOF 12
ENDMDL
MODEL 2
REMARK VINA RESULT:     -11.3      0.447      5.981
REMARK SMILES Cc1cc(Cl)c2c(c1)C=C(C(=O)NCCCCNC(=O)c1ccc(-c3c4nc(c(-c5ccccc5)c5ccc([nH]5)c(-c5ccccc5)c5nc(c(-c6ccccc6)c6ccc3[nH]6)C=C5)C=C4)cc1)[C@@H](C(F)(F)F)O2
REMARK SMILES IDX 16 1 15 2 14 3 13 4 11 5 12 6 10 8 1 9 2 10 3 11 8 12 4 13
REMARK SMILES IDX 7 14 5 15 6 16 9 17 74 18 69 19 70 20 71 21 72 22 73 23
REMARK SMILES IDX 17 24 18 25 19 26 20 28 21 29 22 30 68 31 23 32 67 33 24 34
REMARK SMILES IDX 25 35 26 36 61 37 27 38 66 39 60 40 62 41 28 42 65 43 59 44
REMARK SMILES IDX 58 45 29 47 51 48 36 49 50 50 37 51 40 52 49 53 63 54 38 55
REMARK SMILES IDX 39 56 48 58 64 59 41 60 30 61 31 62 35 63 32 64 34 65 33 66
REMARK SMILES IDX 52 67 53 68 57 69 54 70 56 71 55 72 42 73 43 74 47 75 44 76
REMARK SMILES IDX 46 77 45 78
REMARK H PARENT 13 7 18 27 62 46 40 57
REMARK Flexibility Score: inf
ROOT
ATOM      1  C   UNL A   1      33.134  29.201  25.668  1.00  0.00     0.023 C 
ENDROOT
BRANCH   1   2
ATOM      2  C   UNL A   1      33.574  28.099  24.702  1.00  0.00     0.023 C 
BRANCH   2   3
ATOM      3  C   UNL A   1      32.429  27.252  24.159  1.00  0.00     0.116 C 
BRANCH   3   4
ATOM      4  N   UNL A   1      31.627  26.675  25.223  1.00  0.00    -0.352 N 
ATOM      5  C   UNL A   1      31.553  25.490  25.871  1.00  0.00     0.251 C 
ATOM      6  O   UNL A   1      30.680  25.426  26.744  1.00  0.00    -0.270 OA
ATOM      7  H   UNL A   1      30.961  27.316  25.563  1.00  0.00     0.163 HD
BRANCH   5   8
ATOM      8  C   UNL A   1      32.422  24.304  25.607  1.00  0.00     0.067 C 
ATOM      9  C   UNL A   1      38.373  22.635  25.931  1.00  0.00     0.044 C 
ATOM     10  C   UNL A   1      36.904  22.445  25.699  1.00  0.00    -0.049 A 
ATOM     11  C   UNL A   1      36.393  21.196  25.329  1.00  0.00     0.028 A 
ATOM     12  C   UNL A   1      36.018  23.515  25.892  1.00  0.00     0.015 A 
ATOM     13  C   UNL A   1      35.019  21.024  25.145  1.00  0.00     0.084 A 
ATOM     14  C   UNL A   1      34.640  23.345  25.707  1.00  0.00     0.019 A 
ATOM     15  Cl  UNL A   1      34.439  19.461  24.692  1.00  0.00    -0.080 Cl
ATOM     16  C   UNL A   1      34.143  22.098  25.326  1.00  0.00     0.146 A 
ATOM     17  C   UNL A   1      33.715  24.445  25.954  1.00  0.00     0.025 C 
ATOM     18  O   UNL A   1      32.802  21.874  25.177  1.00  0.00    -0.474 OA
ATOM     19  C   UNL A   1      31.954  23.032  24.959  1.00  0.00     0.314 C 
BRANCH  19  20
ATOM     20  C   UNL A   1      31.698  23.195  23.448  1.00  0.00     0.429 C 
ATOM     21  F   UNL A   1      32.568  24.087  22.912  1.00  0.00    -0.167 F 
ATOM     22  F   UNL A   1      31.874  22.038  22.765  1.00  0.00    -0.167 F 
ATOM     23  F   UNL A   1      30.448  23.627  23.175  1.00  0.00    -0.167 F 
ENDBRANCH  19  20
ENDBRANCH   5   8
ENDBRANCH   3   4
ENDBRANCH   2   3
ENDBRANCH   1   2
BRANCH   1  24
ATOM     24  C   UNL A   1      33.719  29.111  27.076  1.00  0.00     0.116 C 
BRANCH  24  25
ATOM     25  N   UNL A   1      33.686  30.367  27.811  1.00  0.00    -0.352 N 
ATOM     26  C   UNL A   1      34.682  30.931  28.571  1.00  0.00     0.251 C 
ATOM     27  H   UNL A   1      32.844  30.876  27.758  1.00  0.00     0.163 HD
ATOM     28  O   UNL A   1      34.490  31.968  29.196  1.00  0.00    -0.269 OA
BRANCH  26  29
ATOM     29  C   UNL A   1      35.979  30.239  28.657  1.00  0.00     0.039 A 
ATOM     30  C   UNL A   1      36.839  30.283  27.558  1.00  0.00     0.014 A 
ATOM     31  C   UNL A   1      36.370  29.620  29.849  1.00  0.00     0.014 A 
ATOM     32  C   UNL A   1      38.128  29.769  27.677  1.00  0.00     0.010 A 
ATOM     33  C   UNL A   1      37.675  29.163  29.985  1.00  0.00     0.010 A 
ATOM     34  C   UNL A   1      38.566  29.240  28.904  1.00  0.00    -0.014 A 
BRANCH  34  35
ATOM     35  C   UNL A   1      39.959  28.766  29.074  1.00  0.00     0.031 A 
ATOM     36  C   UNL A   1      40.994  29.682  29.657  1.00  0.00     0.074 A 
ATOM     37  C   UNL A   1      40.299  27.532  28.656  1.00  0.00     0.049 A 
ATOM     38  N   UNL A   1      42.270  29.467  29.845  1.00  0.00    -0.248 NA
ATOM     39  C   UNL A   1      40.541  31.022  30.066  1.00  0.00     0.031 C 
ATOM     40  C   UNL A   1      39.389  26.562  28.044  1.00  0.00     0.029 A 
ATOM     41  N   UNL A   1      41.507  26.883  28.686  1.00  0.00    -0.354 N 
ATOM     42  C   UNL A   1      42.773  30.644  30.381  1.00  0.00     0.074 A 
ATOM     43  C   UNL A   1      41.677  31.586  30.446  1.00  0.00     0.031 C 
ATOM     44  C   UNL A   1      40.062  25.428  27.791  1.00  0.00     0.029 A 
ATOM     45  C   UNL A   1      41.456  25.603  28.190  1.00  0.00     0.049 A 
ATOM     46  H   UNL A   1      42.332  27.294  29.031  1.00  0.00     0.167 HD
ATOM     47  C   UNL A   1      44.030  30.911  30.806  1.00  0.00     0.031 A 
ATOM     48  C   UNL A   1      42.423  24.674  28.074  1.00  0.00     0.031 A 
ATOM     49  C   UNL A   1      45.117  29.973  30.756  1.00  0.00     0.049 A 
ATOM     50  C   UNL A   1      43.814  25.001  28.536  1.00  0.00     0.074 A 
ATOM     51  C   UNL A   1      46.417  30.136  31.200  1.00  0.00     0.029 A 
ATOM     52  N   UNL A   1      45.026  28.692  30.234  1.00  0.00    -0.354 N 
ATOM     53  N   UNL A   1      44.264  26.105  29.080  1.00  0.00    -0.248 NA
ATOM     54  C   UNL A   1      44.830  23.951  28.371  1.00  0.00     0.031 C 
ATOM     55  C   UNL A   1      47.124  28.963  30.914  1.00  0.00     0.029 A 
ATOM     56  C   UNL A   1      46.252  28.058  30.331  1.00  0.00     0.049 A 
ATOM     57  H   UNL A   1      44.212  28.293  29.852  1.00  0.00     0.167 HD
ATOM     58  C   UNL A   1      45.609  25.878  29.339  1.00  0.00     0.074 A 
ATOM     59  C   UNL A   1      45.898  24.527  28.906  1.00  0.00     0.031 C 
ATOM     60  C   UNL A   1      46.521  26.714  29.889  1.00  0.00     0.031 A 
BRANCH  47  61
ATOM     61  C   UNL A   1      44.289  32.278  31.370  1.00  0.00    -0.014 A 
ATOM     62  C   UNL A   1      44.689  33.336  30.538  1.00  0.00     0.009 A 
ATOM     63  C   UNL A   1      44.102  32.519  32.740  1.00  0.00     0.009 A 
ATOM     64  C   UNL A   1      44.929  34.602  31.073  1.00  0.00     0.001 A 
ATOM     65  C   UNL A   1      44.319  33.793  33.267  1.00  0.00     0.001 A 
ATOM     66  C   UNL A   1      44.739  34.830  32.436  1.00  0.00     0.000 A 
ENDBRANCH  47  61
BRANCH  48  67
ATOM     67  C   UNL A   1      42.099  23.333  27.529  1.00  0.00    -0.014 A 
ATOM     68  C   UNL A   1      42.379  23.031  26.187  1.00  0.00     0.009 A 
ATOM     69  C   UNL A   1      41.524  22.345  28.342  1.00  0.00     0.009 A 
ATOM     70  C   UNL A   1      42.075  21.772  25.667  1.00  0.00     0.001 A 
ATOM     71  C   UNL A   1      41.240  21.079  27.824  1.00  0.00     0.001 A 
ATOM     72  C   UNL A   1      41.510  20.796  26.485  1.00  0.00     0.000 A 
ENDBRANCH  48  67
BRANCH  60  73
ATOM     73  C   UNL A   1      47.916  26.192  30.069  1.00  0.00    -0.014 A 
ATOM     74  C   UNL A   1      48.846  26.247  29.021  1.00  0.00     0.009 A 
ATOM     75  C   UNL A   1      48.322  25.708  31.322  1.00  0.00     0.009 A 
ATOM     76  C   UNL A   1      50.156  25.808  29.220  1.00  0.00     0.001 A 
ATOM     77  C   UNL A   1      49.638  25.290  31.524  1.00  0.00     0.001 A 
ATOM     78  C   UNL A   1      50.552  25.337  30.472  1.00  0.00     0.000 A 
ENDBRANCH  60  73
ENDBRANCH  34  35
ENDBRANCH  26  29
ENDBRANCH  24  25
ENDBRANCH   1  24
TORSDOF 12
ENDMDL
MODEL 3
REMARK VINA RESULT:     -11.2      3.515      7.527
REMARK SMILES Cc1cc(Cl)c2c(c1)C=C(C(=O)NCCCCNC(=O)c1ccc(-c3c4nc(c(-c5ccccc5)c5ccc([nH]5)c(-c5ccccc5)c5nc(c(-c6ccccc6)c6ccc3[nH]6)C=C5)C=C4)cc1)[C@@H](C(F)(F)F)O2
REMARK SMILES IDX 16 1 15 2 14 3 13 4 11 5 12 6 10 8 1 9 2 10 3 11 8 12 4 13
REMARK SMILES IDX 7 14 5 15 6 16 9 17 74 18 69 19 70 20 71 21 72 22 73 23
REMARK SMILES IDX 17 24 18 25 19 26 20 28 21 29 22 30 68 31 23 32 67 33 24 34
REMARK SMILES IDX 25 35 26 36 61 37 27 38 66 39 60 40 62 41 28 42 65 43 59 44
REMARK SMILES IDX 58 45 29 47 51 48 36 49 50 50 37 51 40 52 49 53 63 54 38 55
REMARK SMILES IDX 39 56 48 58 64 59 41 60 30 61 31 62 35 63 32 64 34 65 33 66
REMARK SMILES IDX 52 67 53 68 57 69 54 70 56 71 55 72 42 73 43 74 47 75 44 76
REMARK SMILES IDX 46 77 45 78
REMARK H PARENT 13 7 18 27 62 46 40 57
REMARK Flexibility Score: inf
ROOT
ATOM      1  C   UNL A   1      31.530  32.006  26.771  1.00  0.00     0.023 C 
ENDROOT
BRANCH   1   2
ATOM      2  C   UNL A   1      31.784  30.499  26.692  1.00  0.00     0.023 C 
BRANCH   2   3
ATOM      3  C   UNL A   1      33.195  30.127  26.247  1.00  0.00     0.116 C 
BRANCH   3   4
ATOM      4  N   UNL A   1      33.237  29.729  24.851  1.00  0.00    -0.352 N 
ATOM      5  C   UNL A   1      32.997  28.604  24.139  1.00  0.00     0.251 C 
ATOM      6  O   UNL A   1      33.172  28.710  22.920  1.00  0.00    -0.270 OA
ATOM      7  H   UNL A   1      33.513  30.474  24.270  1.00  0.00     0.163 HD
BRANCH   5   8
ATOM      8  C   UNL A   1      32.557  27.295  24.710  1.00  0.00     0.067 C 
ATOM      9  C   UNL A   1      34.959  21.921  26.623  1.00  0.00     0.044 C 
ATOM     10  C   UNL A   1      33.881  22.933  26.375  1.00  0.00    -0.049 A 
ATOM     11  C   UNL A   1      32.555  22.670  26.738  1.00  0.00     0.028 A 
ATOM     12  C   UNL A   1      34.200  24.177  25.812  1.00  0.00     0.015 A 
ATOM     13  C   UNL A   1      31.564  23.631  26.529  1.00  0.00     0.084 A 
ATOM     14  C   UNL A   1      33.208  25.143  25.600  1.00  0.00     0.019 A 
ATOM     15  Cl  UNL A   1      29.944  23.258  26.998  1.00  0.00    -0.080 Cl
ATOM     16  C   UNL A   1      31.886  24.864  25.954  1.00  0.00     0.146 A 
ATOM     17  C   UNL A   1      33.548  26.453  25.059  1.00  0.00     0.025 C 
ATOM     18  O   UNL A   1      30.893  25.792  25.808  1.00  0.00    -0.474 OA
ATOM     19  C   UNL A   1      31.124  26.872  24.865  1.00  0.00     0.314 C 
BRANCH  19  20
ATOM     20  C   UNL A   1      30.460  26.521  23.521  1.00  0.00     0.429 C 
ATOM     21  F   UNL A   1      29.421  25.670  23.711  1.00  0.00    -0.167 F 
ATOM     22  F   UNL A   1      29.948  27.609  22.896  1.00  0.00    -0.167 F 
ATOM     23  F   UNL A   1      31.315  25.936  22.654  1.00  0.00    -0.167 F 
ENDBRANCH  19  20
ENDBRANCH   5   8
ENDBRANCH   3   4
ENDBRANCH   2   3
ENDBRANCH   1   2
BRANCH   1  24
ATOM     24  C   UNL A   1      32.699  32.841  27.291  1.00  0.00     0.116 C 
BRANCH  24  25
ATOM     25  N   UNL A   1      32.334  34.200  27.662  1.00  0.00    -0.352 N 
ATOM     26  C   UNL A   1      32.947  35.023  28.577  1.00  0.00     0.251 C 
ATOM     27  H   UNL A   1      31.549  34.578  27.201  1.00  0.00     0.163 HD
ATOM     28  O   UNL A   1      32.486  36.127  28.842  1.00  0.00    -0.269 OA
BRANCH  26  29
ATOM     29  C   UNL A   1      34.149  34.531  29.271  1.00  0.00     0.039 A 
ATOM     30  C   UNL A   1      33.999  33.887  30.501  1.00  0.00     0.014 A 
ATOM     31  C   UNL A   1      35.405  34.639  28.666  1.00  0.00     0.014 A 
ATOM     32  C   UNL A   1      35.104  33.280  31.093  1.00  0.00     0.010 A 
ATOM     33  C   UNL A   1      36.493  33.981  29.229  1.00  0.00     0.010 A 
ATOM     34  C   UNL A   1      36.349  33.291  30.443  1.00  0.00    -0.014 A 
BRANCH  34  35
ATOM     35  C   UNL A   1      37.514  32.580  31.017  1.00  0.00     0.031 A 
ATOM     36  C   UNL A   1      38.115  33.050  32.308  1.00  0.00     0.074 A 
ATOM     37  C   UNL A   1      38.059  31.545  30.349  1.00  0.00     0.049 A 
ATOM     38  N   UNL A   1      39.159  32.588  32.946  1.00  0.00    -0.248 NA
ATOM     39  C   UNL A   1      37.471  34.202  32.959  1.00  0.00     0.031 C 
ATOM     40  C   UNL A   1      37.584  31.015  29.069  1.00  0.00     0.029 A 
ATOM     41  N   UNL A   1      39.134  30.752  30.659  1.00  0.00    -0.354 N 
ATOM     42  C   UNL A   1      39.303  33.398  34.064  1.00  0.00     0.074 A 
ATOM     43  C   UNL A   1      38.270  34.409  33.995  1.00  0.00     0.031 C 
ATOM     44  C   UNL A   1      38.341  29.961  28.723  1.00  0.00     0.029 A 
ATOM     45  C   UNL A   1      39.373  29.763  29.736  1.00  0.00     0.049 A 
ATOM     46  H   UNL A   1      39.682  30.877  31.467  1.00  0.00     0.167 HD
ATOM     47  C   UNL A   1      40.199  33.296  35.072  1.00  0.00     0.031 A 
ATOM     48  C   UNL A   1      40.316  28.803  29.711  1.00  0.00     0.031 A 
ATOM     49  C   UNL A   1      41.217  32.285  35.151  1.00  0.00     0.049 A 
ATOM     50  C   UNL A   1      41.310  28.721  30.833  1.00  0.00     0.074 A 
ATOM     51  C   UNL A   1      42.147  32.074  36.153  1.00  0.00     0.029 A 
ATOM     52  N   UNL A   1      41.433  31.311  34.189  1.00  0.00    -0.354 N 
ATOM     53  N   UNL A   1      41.408  29.470  31.905  1.00  0.00    -0.248 NA
ATOM     54  C   UNL A   1      42.325  27.660  30.744  1.00  0.00     0.031 C 
ATOM     55  C   UNL A   1      42.950  30.991  35.780  1.00  0.00     0.029 A 
ATOM     56  C   UNL A   1      42.493  30.505  34.567  1.00  0.00     0.049 A 
ATOM     57  H   UNL A   1      40.912  31.208  33.360  1.00  0.00     0.167 HD
ATOM     58  C   UNL A   1      42.479  28.960  32.626  1.00  0.00     0.074 A 
ATOM     59  C   UNL A   1      42.991  27.831  31.878  1.00  0.00     0.031 C 
ATOM     60  C   UNL A   1      42.990  29.389  33.805  1.00  0.00     0.031 A 
BRANCH  47  61
ATOM     61  C   UNL A   1      40.109  34.308  36.177  1.00  0.00    -0.014 A 
ATOM     62  C   UNL A   1      40.821  35.515  36.109  1.00  0.00     0.009 A 
ATOM     63  C   UNL A   1      39.280  34.066  37.284  1.00  0.00     0.009 A 
ATOM     64  C   UNL A   1      40.730  36.449  37.142  1.00  0.00     0.001 A 
ATOM     65  C   UNL A   1      39.173  35.012  38.305  1.00  0.00     0.001 A 
ATOM     66  C   UNL A   1      39.903  36.197  38.237  1.00  0.00     0.000 A 
ENDBRANCH  47  61
BRANCH  48  67
ATOM     67  C   UNL A   1      40.340  27.818  28.602  1.00  0.00    -0.014 A 
ATOM     68  C   UNL A   1      39.645  26.605  28.720  1.00  0.00     0.009 A 
ATOM     69  C   UNL A   1      41.042  28.086  27.417  1.00  0.00     0.009 A 
ATOM     70  C   UNL A   1      39.665  25.673  27.681  1.00  0.00     0.001 A 
ATOM     71  C   UNL A   1      41.043  27.161  26.370  1.00  0.00     0.001 A 
ATOM     72  C   UNL A   1      40.360  25.953  26.506  1.00  0.00     0.000 A 
ENDBRANCH  48  67
BRANCH  60  73
ATOM     73  C   UNL A   1      44.155  28.630  34.369  1.00  0.00    -0.014 A 
ATOM     74  C   UNL A   1      45.472  29.025  34.096  1.00  0.00     0.009 A 
ATOM     75  C   UNL A   1      43.927  27.553  35.239  1.00  0.00     0.009 A 
ATOM     76  C   UNL A   1      46.544  28.341  34.673  1.00  0.00     0.001 A 
ATOM     77  C   UNL A   1      45.001  26.885  35.831  1.00  0.00     0.001 A 
ATOM     78  C   UNL A   1      46.307  27.278  35.544  1.00  0.00     0.000 A 
ENDBRANCH  60  73
ENDBRANCH  34  35
ENDBRANCH  26  29
ENDBRANCH  24  25
ENDBRANCH   1  24
TORSDOF 12
ENDMDL
