MODEL 1
REMARK VINA RESULT:     -11.4      0.000      0.000
REMARK SMILES O=C(CSc1nnc(-c2ccncc2)s1)Nc1cccc(C(=O)NCCCCNC(=O)c2ccc(-c3c4nc(c(-c5ccccc5)c5ccc([nH]5)c(-c5ccccc5)c5nc(c(-c6ccccc6)c6ccc3[nH]6)C=C5)C=C4)cc2)c1
REMARK SMILES IDX 25 1 24 2 22 3 23 4 21 6 17 7 18 8 80 9 19 10 20 11 16 12
REMARK SMILES IDX 1 13 2 14 3 16 4 17 5 18 6 19 15 20 7 21 8 22 9 23 10 24
REMARK SMILES IDX 14 25 11 26 13 27 12 28 26 29 27 30 28 31 29 32 30 33 31 35
REMARK SMILES IDX 32 36 33 37 79 38 34 39 78 40 35 41 36 42 37 43 72 44 38 45
REMARK SMILES IDX 77 46 71 47 73 48 39 49 76 50 70 51 69 52 40 54 62 55 47 56
REMARK SMILES IDX 61 57 48 58 51 59 60 60 74 61 49 62 50 63 59 65 75 66 52 67
REMARK SMILES IDX 41 68 42 69 46 70 43 71 45 72 44 73 63 74 64 75 68 76 65 77
REMARK SMILES IDX 67 78 66 79 53 80 54 81 58 82 55 83 57 84 56 85
REMARK H PARENT 24 5 16 15 29 34 73 53 51 64
REMARK Flexibility Score: inf
ROOT
ATOM      1  C   UNL A   1      32.943  24.335  24.457  1.00  0.00     0.116 C 
ENDROOT
BRANCH   1   2
ATOM      2  N   UNL A   1      33.409  24.620  23.105  1.00  0.00    -0.352 N 
ATOM      3  C   UNL A   1      33.154  25.712  22.297  1.00  0.00     0.251 C 
ATOM      4  O   UNL A   1      33.632  25.757  21.166  1.00  0.00    -0.269 OA
ATOM      5  H   UNL A   1      33.994  23.934  22.710  1.00  0.00     0.163 HD
BRANCH   3   6
ATOM      6  C   UNL A   1      32.242  26.793  22.753  1.00  0.00     0.041 A 
ATOM      7  C   UNL A   1      31.922  28.788  24.078  1.00  0.00     0.041 A 
ATOM      8  C   UNL A   1      30.539  28.591  24.021  1.00  0.00     0.026 A 
ATOM      9  C   UNL A   1      32.747  27.961  23.322  1.00  0.00     0.040 A 
ATOM     10  C   UNL A   1      30.007  27.514  23.302  1.00  0.00     0.003 A 
ATOM     11  C   UNL A   1      30.861  26.591  22.698  1.00  0.00     0.014 A 
BRANCH   7  12
ATOM     12  N   UNL A   1      32.429  29.720  25.009  1.00  0.00    -0.325 N 
ATOM     13  O   UNL A   1      31.782  28.759  27.033  1.00  0.00    -0.274 OA
ATOM     14  C   UNL A   1      32.266  29.689  26.387  1.00  0.00     0.234 C 
ATOM     15  H   UNL A   1      32.952  30.469  24.644  1.00  0.00     0.169 HD
BRANCH  14  16
ATOM     16  C   UNL A   1      32.547  30.997  27.109  1.00  0.00     0.177 C 
BRANCH  16  17
ATOM     17  S   UNL A   1      34.249  31.247  27.651  1.00  0.00    -0.084 SA
BRANCH  17  18
ATOM     18  C   UNL A   1      34.069  32.757  28.504  1.00  0.00     0.175 A 
ATOM     19  N   UNL A   1      33.349  33.732  28.005  1.00  0.00    -0.131 NA
ATOM     20  S   UNL A   1      34.733  33.069  30.047  1.00  0.00    -0.086 S 
ATOM     21  N   UNL A   1      33.247  34.793  28.878  1.00  0.00    -0.137 NA
ATOM     22  C   UNL A   1      33.914  34.583  29.996  1.00  0.00     0.148 A 
BRANCH  22  23
ATOM     23  C   UNL A   1      33.882  35.461  31.159  1.00  0.00     0.015 A 
ATOM     24  C   UNL A   1      34.487  35.117  32.370  1.00  0.00     0.031 A 
ATOM     25  C   UNL A   1      33.230  36.694  31.056  1.00  0.00     0.031 A 
ATOM     26  C   UNL A   1      34.398  36.012  33.424  1.00  0.00     0.111 A 
ATOM     27  C   UNL A   1      33.187  37.514  32.167  1.00  0.00     0.111 A 
ATOM     28  N   UNL A   1      33.753  37.197  33.350  1.00  0.00    -0.265 NA
ENDBRANCH  22  23
ENDBRANCH  17  18
ENDBRANCH  16  17
ENDBRANCH  14  16
ENDBRANCH   7  12
ENDBRANCH   3   6
ENDBRANCH   1   2
BRANCH   1  29
ATOM     29  C   UNL A   1      33.714  23.243  25.185  1.00  0.00     0.023 C 
BRANCH  29  30
ATOM     30  C   UNL A   1      35.221  23.227  24.969  1.00  0.00     0.023 C 
BRANCH  30  31
ATOM     31  C   UNL A   1      36.055  22.737  26.146  1.00  0.00     0.116 C 
BRANCH  31  32
ATOM     32  N   UNL A   1      37.005  21.688  25.802  1.00  0.00    -0.352 N 
ATOM     33  C   UNL A   1      38.380  21.676  25.908  1.00  0.00     0.251 C 
ATOM     34  H   UNL A   1      36.606  20.865  25.438  1.00  0.00     0.163 HD
ATOM     35  O   UNL A   1      39.028  20.732  25.485  1.00  0.00    -0.269 OA
BRANCH  33  36
ATOM     36  C   UNL A   1      39.075  22.841  26.503  1.00  0.00     0.039 A 
ATOM     37  C   UNL A   1      40.122  22.615  27.402  1.00  0.00     0.014 A 
ATOM     38  C   UNL A   1      38.726  24.143  26.144  1.00  0.00     0.014 A 
ATOM     39  C   UNL A   1      40.884  23.693  27.860  1.00  0.00     0.010 A 
ATOM     40  C   UNL A   1      39.536  25.205  26.534  1.00  0.00     0.010 A 
ATOM     41  C   UNL A   1      40.630  24.991  27.388  1.00  0.00    -0.014 A 
BRANCH  41  42
ATOM     42  C   UNL A   1      41.491  26.143  27.757  1.00  0.00     0.031 A 
ATOM     43  C   UNL A   1      40.996  27.163  28.745  1.00  0.00     0.074 A 
ATOM     44  C   UNL A   1      42.673  26.326  27.136  1.00  0.00     0.049 A 
ATOM     45  N   UNL A   1      41.535  28.303  29.096  1.00  0.00    -0.248 NA
ATOM     46  C   UNL A   1      39.710  26.876  29.400  1.00  0.00     0.031 C 
ATOM     47  C   UNL A   1      43.257  25.433  26.133  1.00  0.00     0.029 A 
ATOM     48  N   UNL A   1      43.591  27.341  27.250  1.00  0.00    -0.354 N 
ATOM     49  C   UNL A   1      40.641  28.882  29.986  1.00  0.00     0.074 A 
ATOM     50  C   UNL A   1      39.507  27.989  30.091  1.00  0.00     0.031 C 
ATOM     51  C   UNL A   1      44.443  25.927  25.741  1.00  0.00     0.029 A 
ATOM     52  C   UNL A   1      44.683  27.191  26.430  1.00  0.00     0.049 A 
ATOM     53  H   UNL A   1      43.478  28.104  27.861  1.00  0.00     0.167 HD
ATOM     54  C   UNL A   1      40.757  30.045  30.671  1.00  0.00     0.031 A 
ATOM     55  C   UNL A   1      45.753  27.987  26.243  1.00  0.00     0.031 A 
ATOM     56  C   UNL A   1      41.890  30.924  30.587  1.00  0.00     0.049 A 
ATOM     57  C   UNL A   1      45.858  29.275  27.012  1.00  0.00     0.074 A 
ATOM     58  C   UNL A   1      42.124  32.098  31.282  1.00  0.00     0.029 A 
ATOM     59  N   UNL A   1      42.985  30.722  29.762  1.00  0.00    -0.354 N 
ATOM     60  N   UNL A   1      45.025  29.784  27.886  1.00  0.00    -0.248 NA
ATOM     61  C   UNL A   1      47.055  30.093  26.770  1.00  0.00     0.031 C 
ATOM     62  C   UNL A   1      43.346  32.625  30.851  1.00  0.00     0.029 A 
ATOM     63  C   UNL A   1      43.892  31.756  29.921  1.00  0.00     0.049 A 
ATOM     64  H   UNL A   1      43.100  29.958  29.153  1.00  0.00     0.167 HD
ATOM     65  C   UNL A   1      45.612  30.966  28.321  1.00  0.00     0.074 A 
ATOM     66  C   UNL A   1      46.873  31.093  27.622  1.00  0.00     0.031 C 
ATOM     67  C   UNL A   1      45.147  31.862  29.224  1.00  0.00     0.031 A 
BRANCH  54  68
ATOM     68  C   UNL A   1      39.614  30.431  31.567  1.00  0.00    -0.014 A 
ATOM     69  C   UNL A   1      39.520  29.931  32.876  1.00  0.00     0.009 A 
ATOM     70  C   UNL A   1      38.630  31.317  31.104  1.00  0.00     0.009 A 
ATOM     71  C   UNL A   1      38.440  30.281  33.689  1.00  0.00     0.001 A 
ATOM     72  C   UNL A   1      37.566  31.686  31.928  1.00  0.00     0.001 A 
ATOM     73  C   UNL A   1      37.466  31.160  33.215  1.00  0.00     0.000 A 
ENDBRANCH  54  68
BRANCH  55  74
ATOM     74  C   UNL A   1      46.828  27.583  25.300  1.00  0.00    -0.014 A 
ATOM     75  C   UNL A   1      47.900  26.796  25.750  1.00  0.00     0.009 A 
ATOM     76  C   UNL A   1      46.794  27.984  23.956  1.00  0.00     0.009 A 
ATOM     77  C   UNL A   1      48.930  26.440  24.876  1.00  0.00     0.001 A 
ATOM     78  C   UNL A   1      47.814  27.605  23.080  1.00  0.00     0.001 A 
ATOM     79  C   UNL A   1      48.884  26.841  23.542  1.00  0.00     0.000 A 
ENDBRANCH  55  74
BRANCH  67  80
ATOM     80  C   UNL A   1      46.026  33.036  29.544  1.00  0.00    -0.014 A 
ATOM     81  C   UNL A   1      46.969  32.978  30.581  1.00  0.00     0.009 A 
ATOM     82  C   UNL A   1      45.941  34.198  28.760  1.00  0.00     0.009 A 
ATOM     83  C   UNL A   1      47.794  34.074  30.843  1.00  0.00     0.001 A 
ATOM     84  C   UNL A   1      46.784  35.281  29.010  1.00  0.00     0.001 A 
ATOM     85  C   UNL A   1      47.705  35.222  30.055  1.00  0.00     0.000 A 
ENDBRANCH  67  80
ENDBRANCH  41  42
ENDBRANCH  33  36
ENDBRANCH  31  32
ENDBRANCH  30  31
ENDBRANCH  29  30
ENDBRANCH   1  29
TORSDOF 16
ENDMDL
MODEL 2
REMARK VINA RESULT:     -11.2      3.206      4.921
REMARK SMILES O=C(CSc1nnc(-c2ccncc2)s1)Nc1cccc(C(=O)NCCCCNC(=O)c2ccc(-c3c4nc(c(-c5ccccc5)c5ccc([nH]5)c(-c5ccccc5)c5nc(c(-c6ccccc6)c6ccc3[nH]6)C=C5)C=C4)cc2)c1
REMARK SMILES IDX 25 1 24 2 22 3 23 4 21 6 17 7 18 8 80 9 19 10 20 11 16 12
REMARK SMILES IDX 1 13 2 14 3 16 4 17 5 18 6 19 15 20 7 21 8 22 9 23 10 24
REMARK SMILES IDX 14 25 11 26 13 27 12 28 26 29 27 30 28 31 29 32 30 33 31 35
REMARK SMILES IDX 32 36 33 37 79 38 34 39 78 40 35 41 36 42 37 43 72 44 38 45
REMARK SMILES IDX 77 46 71 47 73 48 39 49 76 50 70 51 69 52 40 54 62 55 47 56
REMARK SMILES IDX 61 57 48 58 51 59 60 60 74 61 49 62 50 63 59 65 75 66 52 67
REMARK SMILES IDX 41 68 42 69 46 70 43 71 45 72 44 73 63 74 64 75 68 76 65 77
REMARK SMILES IDX 67 78 66 79 53 80 54 81 58 82 55 83 57 84 56 85
REMARK H PARENT 24 5 16 15 29 34 73 53 51 64
REMARK Flexibility Score: inf
ROOT
ATOM      1  C   UNL A   1      36.284  21.268  24.666  1.00  0.00     0.116 C 
ENDROOT
BRANCH   1   2
ATOM      2  N   UNL A   1      35.625  19.968  24.712  1.00  0.00    -0.352 N 
ATOM      3  C   UNL A   1      34.277  19.666  24.761  1.00  0.00     0.251 C 
ATOM      4  O   UNL A   1      33.919  18.491  24.814  1.00  0.00    -0.269 OA
ATOM      5  H   UNL A   1      36.229  19.191  24.706  1.00  0.00     0.163 HD
BRANCH   3   6
ATOM      6  C   UNL A   1      33.262  20.748  24.831  1.00  0.00     0.041 A 
ATOM      7  C   UNL A   1      32.240  22.676  23.794  1.00  0.00     0.041 A 
ATOM      8  C   UNL A   1      31.728  23.060  25.037  1.00  0.00     0.026 A 
ATOM      9  C   UNL A   1      32.882  21.447  23.686  1.00  0.00     0.040 A 
ATOM     10  C   UNL A   1      31.955  22.269  26.170  1.00  0.00     0.003 A 
ATOM     11  C   UNL A   1      32.756  21.131  26.075  1.00  0.00     0.014 A 
BRANCH   7  12
ATOM     12  N   UNL A   1      32.210  23.613  22.739  1.00  0.00    -0.325 N 
ATOM     13  O   UNL A   1      34.414  24.376  22.728  1.00  0.00    -0.274 OA
ATOM     14  C   UNL A   1      33.249  24.437  22.331  1.00  0.00     0.234 C 
ATOM     15  H   UNL A   1      31.366  23.689  22.239  1.00  0.00     0.169 HD
BRANCH  14  16
ATOM     16  C   UNL A   1      32.846  25.620  21.466  1.00  0.00     0.177 C 
BRANCH  16  17
ATOM     17  S   UNL A   1      31.164  26.231  21.701  1.00  0.00    -0.084 SA
BRANCH  17  18
ATOM     18  C   UNL A   1      31.376  27.112  23.191  1.00  0.00     0.175 A 
ATOM     19  N   UNL A   1      31.619  26.486  24.317  1.00  0.00    -0.131 NA
ATOM     20  S   UNL A   1      31.356  28.817  23.305  1.00  0.00    -0.086 S 
ATOM     21  N   UNL A   1      31.858  27.364  25.350  1.00  0.00    -0.137 NA
ATOM     22  C   UNL A   1      31.765  28.622  24.967  1.00  0.00     0.148 A 
BRANCH  22  23
ATOM     23  C   UNL A   1      32.096  29.772  25.800  1.00  0.00     0.015 A 
ATOM     24  C   UNL A   1      31.270  30.894  25.885  1.00  0.00     0.031 A 
ATOM     25  C   UNL A   1      33.279  29.745  26.545  1.00  0.00     0.031 A 
ATOM     26  C   UNL A   1      31.673  31.942  26.696  1.00  0.00     0.111 A 
ATOM     27  C   UNL A   1      33.598  30.845  27.317  1.00  0.00     0.111 A 
ATOM     28  N   UNL A   1      32.822  31.945  27.405  1.00  0.00    -0.265 NA
ENDBRANCH  22  23
ENDBRANCH  17  18
ENDBRANCH  16  17
ENDBRANCH  14  16
ENDBRANCH   7  12
ENDBRANCH   3   6
ENDBRANCH   1   2
BRANCH   1  29
ATOM     29  C   UNL A   1      37.709  21.284  25.203  1.00  0.00     0.023 C 
BRANCH  29  30
ATOM     30  C   UNL A   1      38.532  20.027  24.961  1.00  0.00     0.023 C 
BRANCH  30  31
ATOM     31  C   UNL A   1      39.344  19.527  26.149  1.00  0.00     0.116 C 
BRANCH  31  32
ATOM     32  N   UNL A   1      40.637  18.963  25.787  1.00  0.00    -0.352 N 
ATOM     33  C   UNL A   1      41.893  19.528  25.847  1.00  0.00     0.251 C 
ATOM     34  H   UNL A   1      40.610  18.039  25.447  1.00  0.00     0.163 HD
ATOM     35  O   UNL A   1      42.866  18.931  25.414  1.00  0.00    -0.269 OA
BRANCH  33  36
ATOM     36  C   UNL A   1      42.053  20.892  26.403  1.00  0.00     0.039 A 
ATOM     37  C   UNL A   1      42.129  21.051  27.790  1.00  0.00     0.014 A 
ATOM     38  C   UNL A   1      42.168  21.999  25.563  1.00  0.00     0.014 A 
ATOM     39  C   UNL A   1      42.424  22.306  28.327  1.00  0.00     0.010 A 
ATOM     40  C   UNL A   1      42.544  23.229  26.092  1.00  0.00     0.010 A 
ATOM     41  C   UNL A   1      42.687  23.394  27.479  1.00  0.00    -0.014 A 
BRANCH  41  42
ATOM     42  C   UNL A   1      43.121  24.713  28.006  1.00  0.00     0.031 A 
ATOM     43  C   UNL A   1      42.096  25.762  28.340  1.00  0.00     0.074 A 
ATOM     44  C   UNL A   1      44.434  25.004  28.094  1.00  0.00     0.049 A 
ATOM     45  N   UNL A   1      42.274  27.012  28.683  1.00  0.00    -0.248 NA
ATOM     46  C   UNL A   1      40.684  25.357  28.247  1.00  0.00     0.031 C 
ATOM     47  C   UNL A   1      45.533  24.092  27.769  1.00  0.00     0.029 A 
ATOM     48  N   UNL A   1      45.066  26.163  28.470  1.00  0.00    -0.354 N 
ATOM     49  C   UNL A   1      41.001  27.550  28.814  1.00  0.00     0.074 A 
ATOM     50  C   UNL A   1      40.061  26.504  28.476  1.00  0.00     0.031 C 
ATOM     51  C   UNL A   1      46.702  24.719  27.982  1.00  0.00     0.029 A 
ATOM     52  C   UNL A   1      46.437  26.087  28.415  1.00  0.00     0.049 A 
ATOM     53  H   UNL A   1      44.584  26.973  28.753  1.00  0.00     0.167 HD
ATOM     54  C   UNL A   1      40.642  28.799  29.197  1.00  0.00     0.031 A 
ATOM     55  C   UNL A   1      47.377  27.017  28.671  1.00  0.00     0.031 A 
ATOM     56  C   UNL A   1      41.571  29.835  29.556  1.00  0.00     0.049 A 
ATOM     57  C   UNL A   1      46.954  28.397  29.092  1.00  0.00     0.074 A 
ATOM     58  C   UNL A   1      41.303  31.115  30.009  1.00  0.00     0.029 A 
ATOM     59  N   UNL A   1      42.951  29.707  29.508  1.00  0.00    -0.354 N 
ATOM     60  N   UNL A   1      45.745  28.875  29.257  1.00  0.00    -0.248 NA
ATOM     61  C   UNL A   1      48.028  29.362  29.368  1.00  0.00     0.031 C 
ATOM     62  C   UNL A   1      42.522  31.773  30.202  1.00  0.00     0.029 A 
ATOM     63  C   UNL A   1      43.547  30.889  29.911  1.00  0.00     0.049 A 
ATOM     64  H   UNL A   1      43.434  28.897  29.228  1.00  0.00     0.167 HD
ATOM     65  C   UNL A   1      45.913  30.186  29.686  1.00  0.00     0.074 A 
ATOM     66  C   UNL A   1      47.338  30.425  29.763  1.00  0.00     0.031 C 
ATOM     67  C   UNL A   1      44.968  31.107  29.991  1.00  0.00     0.031 A 
BRANCH  54  68
ATOM     68  C   UNL A   1      39.172  29.107  29.240  1.00  0.00    -0.014 A 
ATOM     69  C   UNL A   1      38.415  28.868  30.398  1.00  0.00     0.009 A 
ATOM     70  C   UNL A   1      38.541  29.660  28.115  1.00  0.00     0.009 A 
ATOM     71  C   UNL A   1      37.046  29.138  30.414  1.00  0.00     0.001 A 
ATOM     72  C   UNL A   1      37.177  29.955  28.144  1.00  0.00     0.001 A 
ATOM     73  C   UNL A   1      36.429  29.684  29.289  1.00  0.00     0.000 A 
ENDBRANCH  54  68
BRANCH  55  74
ATOM     74  C   UNL A   1      48.817  26.673  28.558  1.00  0.00    -0.014 A 
ATOM     75  C   UNL A   1      49.532  26.248  29.690  1.00  0.00     0.009 A 
ATOM     76  C   UNL A   1      49.486  26.772  27.329  1.00  0.00     0.009 A 
ATOM     77  C   UNL A   1      50.893  25.954  29.597  1.00  0.00     0.001 A 
ATOM     78  C   UNL A   1      50.843  26.453  27.235  1.00  0.00     0.001 A 
ATOM     79  C   UNL A   1      51.547  26.053  28.370  1.00  0.00     0.000 A 
ENDBRANCH  55  74
BRANCH  67  80
ATOM     80  C   UNL A   1      45.443  32.443  30.483  1.00  0.00    -0.014 A 
ATOM     81  C   UNL A   1      45.691  32.672  31.846  1.00  0.00     0.009 A 
ATOM     82  C   UNL A   1      45.694  33.471  29.560  1.00  0.00     0.009 A 
ATOM     83  C   UNL A   1      46.158  33.915  32.276  1.00  0.00     0.001 A 
ATOM     84  C   UNL A   1      46.183  34.704  29.992  1.00  0.00     0.001 A 
ATOM     85  C   UNL A   1      46.408  34.928  31.349  1.00  0.00     0.000 A 
ENDBRANCH  67  80
ENDBRANCH  41  42
ENDBRANCH  33  36
ENDBRANCH  31  32
ENDBRANCH  30  31
ENDBRANCH  29  30
ENDBRANCH   1  29
TORSDOF 16
ENDMDL
MODEL 3
REMARK VINA RESULT:     -11.2      3.483      7.712
REMARK SMILES O=C(CSc1nnc(-c2ccncc2)s1)Nc1cccc(C(=O)NCCCCNC(=O)c2ccc(-c3c4nc(c(-c5ccccc5)c5ccc([nH]5)c(-c5ccccc5)c5nc(c(-c6ccccc6)c6ccc3[nH]6)C=C5)C=C4)cc2)c1
REMARK SMILES IDX 25 1 24 2 22 3 23 4 21 6 17 7 18 8 80 9 19 10 20 11 16 12
REMARK SMILES IDX 1 13 2 14 3 16 4 17 5 18 6 19 15 20 7 21 8 22 9 23 10 24
REMARK SMILES IDX 14 25 11 26 13 27 12 28 26 29 27 30 28 31 29 32 30 33 31 35
REMARK SMILES IDX 32 36 33 37 79 38 34 39 78 40 35 41 36 42 37 43 72 44 38 45
REMARK SMILES IDX 77 46 71 47 73 48 39 49 76 50 70 51 69 52 40 54 62 55 47 56
REMARK SMILES IDX 61 57 48 58 51 59 60 60 74 61 49 62 50 63 59 65 75 66 52 67
REMARK SMILES IDX 41 68 42 69 46 70 43 71 45 72 44 73 63 74 64 75 68 76 65 77
REMARK SMILES IDX 67 78 66 79 53 80 54 81 58 82 55 83 57 84 56 85
REMARK H PARENT 24 5 16 15 29 34 73 53 51 64
REMARK Flexibility Score: inf
ROOT
ATOM      1  C   UNL A   1      39.236  27.797  28.842  1.00  0.00     0.116 C 
ENDROOT
BRANCH   1   2
ATOM      2  N   UNL A   1      38.740  27.878  30.211  1.00  0.00    -0.352 N 
ATOM      3  C   UNL A   1      37.792  28.723  30.756  1.00  0.00     0.251 C 
ATOM      4  O   UNL A   1      37.524  28.644  31.952  1.00  0.00    -0.269 OA
ATOM      5  H   UNL A   1      39.140  27.235  30.840  1.00  0.00     0.163 HD
BRANCH   3   6
ATOM      6  C   UNL A   1      37.153  29.777  29.927  1.00  0.00     0.041 A 
ATOM      7  C   UNL A   1      35.817  30.342  27.994  1.00  0.00     0.041 A 
ATOM      8  C   UNL A   1      36.296  31.654  28.060  1.00  0.00     0.026 A 
ATOM      9  C   UNL A   1      36.146  29.458  29.017  1.00  0.00     0.040 A 
ATOM     10  C   UNL A   1      37.177  32.035  29.080  1.00  0.00     0.003 A 
ATOM     11  C   UNL A   1      37.636  31.085  29.993  1.00  0.00     0.014 A 
BRANCH   7  12
ATOM     12  N   UNL A   1      35.143  29.932  26.823  1.00  0.00    -0.325 N 
ATOM     13  O   UNL A   1      32.919  30.328  27.399  1.00  0.00    -0.274 OA
ATOM     14  C   UNL A   1      33.771  29.880  26.631  1.00  0.00     0.234 C 
ATOM     15  H   UNL A   1      35.706  29.656  26.065  1.00  0.00     0.169 HD
BRANCH  14  16
ATOM     16  C   UNL A   1      33.305  29.031  25.458  1.00  0.00     0.177 C 
BRANCH  16  17
ATOM     17  S   UNL A   1      31.550  28.611  25.438  1.00  0.00    -0.084 SA
BRANCH  17  18
ATOM     18  C   UNL A   1      31.642  26.936  25.912  1.00  0.00     0.175 A 
ATOM     19  N   UNL A   1      30.649  26.359  26.546  1.00  0.00    -0.131 NA
ATOM     20  S   UNL A   1      32.956  25.909  25.546  1.00  0.00    -0.086 S 
ATOM     21  N   UNL A   1      30.874  25.014  26.734  1.00  0.00    -0.137 NA
ATOM     22  C   UNL A   1      32.040  24.632  26.251  1.00  0.00     0.148 A 
BRANCH  22  23
ATOM     23  C   UNL A   1      32.498  23.250  26.180  1.00  0.00     0.015 A 
ATOM     24  C   UNL A   1      31.897  22.307  25.342  1.00  0.00     0.031 A 
ATOM     25  C   UNL A   1      33.581  22.856  26.971  1.00  0.00     0.031 A 
ATOM     26  C   UNL A   1      32.395  21.015  25.349  1.00  0.00     0.111 A 
ATOM     27  C   UNL A   1      33.999  21.541  26.914  1.00  0.00     0.111 A 
ATOM     28  N   UNL A   1      33.426  20.610  26.123  1.00  0.00    -0.265 NA
ENDBRANCH  22  23
ENDBRANCH  17  18
ENDBRANCH  16  17
ENDBRANCH  14  16
ENDBRANCH   7  12
ENDBRANCH   3   6
ENDBRANCH   1   2
BRANCH   1  29
ATOM     29  C   UNL A   1      40.150  26.613  28.559  1.00  0.00     0.023 C 
BRANCH  29  30
ATOM     30  C   UNL A   1      39.473  25.344  28.064  1.00  0.00     0.023 C 
BRANCH  30  31
ATOM     31  C   UNL A   1      39.706  24.995  26.600  1.00  0.00     0.116 C 
BRANCH  31  32
ATOM     32  N   UNL A   1      40.500  23.792  26.397  1.00  0.00    -0.352 N 
ATOM     33  C   UNL A   1      41.865  23.650  26.262  1.00  0.00     0.251 C 
ATOM     34  H   UNL A   1      39.986  22.954  26.348  1.00  0.00     0.163 HD
ATOM     35  O   UNL A   1      42.355  22.561  26.008  1.00  0.00    -0.269 OA
BRANCH  33  36
ATOM     36  C   UNL A   1      42.738  24.841  26.383  1.00  0.00     0.039 A 
ATOM     37  C   UNL A   1      43.334  25.118  27.616  1.00  0.00     0.014 A 
ATOM     38  C   UNL A   1      42.998  25.653  25.279  1.00  0.00     0.014 A 
ATOM     39  C   UNL A   1      44.272  26.149  27.715  1.00  0.00     0.010 A 
ATOM     40  C   UNL A   1      43.992  26.623  25.358  1.00  0.00     0.010 A 
ATOM     41  C   UNL A   1      44.647  26.875  26.573  1.00  0.00    -0.014 A 
BRANCH  41  42
ATOM     42  C   UNL A   1      45.725  27.896  26.612  1.00  0.00     0.031 A 
ATOM     43  C   UNL A   1      45.375  29.352  26.738  1.00  0.00     0.074 A 
ATOM     44  C   UNL A   1      47.010  27.525  26.437  1.00  0.00     0.049 A 
ATOM     45  N   UNL A   1      46.155  30.401  26.656  1.00  0.00    -0.248 NA
ATOM     46  C   UNL A   1      43.955  29.672  26.955  1.00  0.00     0.031 C 
ATOM     47  C   UNL A   1      47.485  26.151  26.268  1.00  0.00     0.029 A 
ATOM     48  N   UNL A   1      48.152  28.283  26.356  1.00  0.00    -0.354 N 
ATOM     49  C   UNL A   1      45.318  31.501  26.778  1.00  0.00     0.074 A 
ATOM     50  C   UNL A   1      43.967  30.997  26.900  1.00  0.00     0.031 C 
ATOM     51  C   UNL A   1      48.822  26.162  26.127  1.00  0.00     0.029 A 
ATOM     52  C   UNL A   1      49.291  27.544  26.152  1.00  0.00     0.049 A 
ATOM     53  H   UNL A   1      48.155  29.264  26.438  1.00  0.00     0.167 HD
ATOM     54  C   UNL A   1      45.642  32.816  26.805  1.00  0.00     0.031 A 
ATOM     55  C   UNL A   1      50.570  27.932  25.989  1.00  0.00     0.031 A 
ATOM     56  C   UNL A   1      46.983  33.322  26.707  1.00  0.00     0.049 A 
ATOM     57  C   UNL A   1      50.905  29.398  26.019  1.00  0.00     0.074 A 
ATOM     58  C   UNL A   1      47.417  34.634  26.778  1.00  0.00     0.029 A 
ATOM     59  N   UNL A   1      48.110  32.535  26.524  1.00  0.00    -0.354 N 
ATOM     60  N   UNL A   1      50.106  30.423  26.184  1.00  0.00    -0.248 NA
ATOM     61  C   UNL A   1      52.320  29.755  25.846  1.00  0.00     0.031 C 
ATOM     62  C   UNL A   1      48.805  34.644  26.603  1.00  0.00     0.029 A 
ATOM     63  C   UNL A   1      49.238  33.336  26.467  1.00  0.00     0.049 A 
ATOM     64  H   UNL A   1      48.108  31.554  26.445  1.00  0.00     0.167 HD
ATOM     65  C   UNL A   1      50.925  31.546  26.166  1.00  0.00     0.074 A 
ATOM     66  C   UNL A   1      52.282  31.075  25.982  1.00  0.00     0.031 C 
ATOM     67  C   UNL A   1      50.582  32.850  26.294  1.00  0.00     0.031 A 
BRANCH  54  68
ATOM     68  C   UNL A   1      44.513  33.799  26.939  1.00  0.00    -0.014 A 
ATOM     69  C   UNL A   1      43.917  34.377  25.807  1.00  0.00     0.009 A 
ATOM     70  C   UNL A   1      44.029  34.137  28.212  1.00  0.00     0.009 A 
ATOM     71  C   UNL A   1      42.884  35.306  25.951  1.00  0.00     0.001 A 
ATOM     72  C   UNL A   1      42.978  35.045  28.351  1.00  0.00     0.001 A 
ATOM     73  C   UNL A   1      42.414  35.636  27.221  1.00  0.00     0.000 A 
ENDBRANCH  54  68
BRANCH  55  74
ATOM     74  C   UNL A   1      51.640  26.919  25.803  1.00  0.00    -0.014 A 
ATOM     75  C   UNL A   1      52.295  26.372  26.918  1.00  0.00     0.009 A 
ATOM     76  C   UNL A   1      52.018  26.499  24.519  1.00  0.00     0.009 A 
ATOM     77  C   UNL A   1      53.323  25.443  26.748  1.00  0.00     0.001 A 
ATOM     78  C   UNL A   1      53.030  25.551  24.354  1.00  0.00     0.001 A 
ATOM     79  C   UNL A   1      53.688  25.030  25.468  1.00  0.00     0.000 A 
ENDBRANCH  55  74
BRANCH  67  80
ATOM     80  C   UNL A   1      51.694  33.858  26.289  1.00  0.00    -0.014 A 
ATOM     81  C   UNL A   1      52.304  34.276  27.481  1.00  0.00     0.009 A 
ATOM     82  C   UNL A   1      52.170  34.357  25.066  1.00  0.00     0.009 A 
ATOM     83  C   UNL A   1      53.355  35.195  27.449  1.00  0.00     0.001 A 
ATOM     84  C   UNL A   1      53.235  35.257  25.036  1.00  0.00     0.001 A 
ATOM     85  C   UNL A   1      53.822  35.681  26.228  1.00  0.00     0.000 A 
ENDBRANCH  67  80
ENDBRANCH  41  42
ENDBRANCH  33  36
ENDBRANCH  31  32
ENDBRANCH  30  31
ENDBRANCH  29  30
ENDBRANCH   1  29
TORSDOF 16
ENDMDL
