MODEL 1
REMARK VINA RESULT:     -11.0      0.000      0.000
REMARK SMILES Cc1cc(C(=O)N[C@H]2C=C[C@H](C(=O)NCCCCNC(=O)c3ccc(-c4c5nc(c(-c6ccccc6)c6ccc([nH]6)c(-c6ccccc6)c6nc(c(-c7ccccc7)c7ccc4[nH]7)C=C6)C=C5)cc3)C2)ccc1F
REMARK SMILES IDX 16 1 15 2 14 3 12 4 13 5 11 7 8 8 9 9 70 10 10 11 7 12 5 13
REMARK SMILES IDX 6 14 4 16 1 17 2 18 3 19 73 20 72 21 74 22 71 23 17 24 18 25
REMARK SMILES IDX 19 26 20 27 21 29 22 30 23 31 69 32 24 33 68 34 25 35 26 36
REMARK SMILES IDX 27 37 62 38 28 39 67 40 61 41 63 42 29 43 66 44 60 45 59 46
REMARK SMILES IDX 30 48 52 49 37 50 51 51 38 52 41 53 50 54 64 55 39 56 40 57
REMARK SMILES IDX 49 59 65 60 42 61 31 62 32 63 36 64 33 65 35 66 34 67 53 68
REMARK SMILES IDX 54 69 58 70 55 71 57 72 56 73 43 74 44 75 48 76 45 77 47 78
REMARK SMILES IDX 46 79
REMARK H PARENT 14 6 7 15 19 28 63 47 41 58
REMARK Flexibility Score: inf
ROOT
ATOM      1  C   UNL A   1      33.443  29.226  24.872  1.00  0.00     0.023 C 
ENDROOT
BRANCH   1   2
ATOM      2  C   UNL A   1      32.280  28.708  24.035  1.00  0.00     0.116 C 
BRANCH   2   3
ATOM      3  N   UNL A   1      32.692  27.629  23.168  1.00  0.00    -0.356 N 
ATOM      4  C   UNL A   1      32.210  26.377  22.983  1.00  0.00     0.227 C 
ATOM      5  O   UNL A   1      32.850  25.685  22.182  1.00  0.00    -0.274 OA
ATOM      6  H   UNL A   1      33.470  27.844  22.605  1.00  0.00     0.163 HD
BRANCH   4   7
ATOM      7  C   UNL A   1      30.993  25.790  23.739  1.00  0.00     0.103 C 
ATOM      8  C   UNL A   1      32.016  24.214  25.243  1.00  0.00     0.106 C 
ATOM      9  C   UNL A   1      31.092  23.500  24.316  1.00  0.00    -0.006 C 
ATOM     10  C   UNL A   1      31.403  25.618  25.217  1.00  0.00     0.047 C 
ATOM     11  C   UNL A   1      30.542  24.378  23.465  1.00  0.00    -0.016 C 
BRANCH   8  12
ATOM     12  N   UNL A   1      32.058  23.604  26.542  1.00  0.00    -0.346 N 
ATOM     13  C   UNL A   1      33.001  22.771  27.097  1.00  0.00     0.251 C 
ATOM     14  O   UNL A   1      32.831  22.400  28.259  1.00  0.00    -0.269 OA
ATOM     15  H   UNL A   1      31.294  23.815  27.125  1.00  0.00     0.164 HD
BRANCH  13  16
ATOM     16  C   UNL A   1      34.250  22.359  26.384  1.00  0.00     0.040 A 
ATOM     17  C   UNL A   1      37.912  23.322  25.955  1.00  0.00     0.047 C 
ATOM     18  C   UNL A   1      36.613  22.590  25.804  1.00  0.00    -0.015 A 
ATOM     19  C   UNL A   1      35.434  23.107  26.361  1.00  0.00     0.020 A 
ATOM     20  C   UNL A   1      36.557  21.369  25.137  1.00  0.00     0.126 A 
ATOM     21  C   UNL A   1      35.368  20.654  25.054  1.00  0.00     0.040 A 
ATOM     22  F   UNL A   1      37.661  20.870  24.564  1.00  0.00    -0.207 F 
ATOM     23  C   UNL A   1      34.222  21.138  25.692  1.00  0.00     0.017 A 
ENDBRANCH  13  16
ENDBRANCH   8  12
ENDBRANCH   4   7
ENDBRANCH   2   3
ENDBRANCH   1   2
BRANCH   1  24
ATOM     24  C   UNL A   1      33.939  28.260  25.949  1.00  0.00     0.023 C 
BRANCH  24  25
ATOM     25  C   UNL A   1      33.493  28.582  27.372  1.00  0.00     0.116 C 
BRANCH  25  26
ATOM     26  N   UNL A   1      33.501  30.007  27.667  1.00  0.00    -0.352 N 
ATOM     27  C   UNL A   1      34.509  30.789  28.179  1.00  0.00     0.251 C 
ATOM     28  H   UNL A   1      32.660  30.481  27.471  1.00  0.00     0.163 HD
ATOM     29  O   UNL A   1      34.292  31.955  28.478  1.00  0.00    -0.269 OA
BRANCH  27  30
ATOM     30  C   UNL A   1      35.848  30.203  28.396  1.00  0.00     0.039 A 
ATOM     31  C   UNL A   1      36.778  30.252  27.357  1.00  0.00     0.014 A 
ATOM     32  C   UNL A   1      36.188  29.625  29.622  1.00  0.00     0.014 A 
ATOM     33  C   UNL A   1      38.075  29.784  27.572  1.00  0.00     0.010 A 
ATOM     34  C   UNL A   1      37.501  29.239  29.862  1.00  0.00     0.010 A 
ATOM     35  C   UNL A   1      38.459  29.310  28.838  1.00  0.00    -0.014 A 
BRANCH  35  36
ATOM     36  C   UNL A   1      39.856  28.885  29.104  1.00  0.00     0.031 A 
ATOM     37  C   UNL A   1      40.320  27.511  28.707  1.00  0.00     0.074 A 
ATOM     38  C   UNL A   1      40.695  29.721  29.746  1.00  0.00     0.049 A 
ATOM     39  N   UNL A   1      41.495  26.956  28.874  1.00  0.00    -0.248 NA
ATOM     40  C   UNL A   1      39.329  26.635  28.060  1.00  0.00     0.031 C 
ATOM     41  C   UNL A   1      40.354  31.064  30.227  1.00  0.00     0.029 A 
ATOM     42  N   UNL A   1      42.010  29.565  30.107  1.00  0.00    -0.354 N 
ATOM     43  C   UNL A   1      41.379  25.669  28.364  1.00  0.00     0.074 A 
ATOM     44  C   UNL A   1      40.006  25.503  27.939  1.00  0.00     0.031 C 
ATOM     45  C   UNL A   1      41.443  31.621  30.781  1.00  0.00     0.029 A 
ATOM     46  C   UNL A   1      42.543  30.664  30.735  1.00  0.00     0.049 A 
ATOM     47  H   UNL A   1      42.522  28.743  29.933  1.00  0.00     0.167 HD
ATOM     48  C   UNL A   1      42.335  24.719  28.234  1.00  0.00     0.031 A 
ATOM     49  C   UNL A   1      43.782  30.878  31.220  1.00  0.00     0.031 A 
ATOM     50  C   UNL A   1      43.701  24.884  28.654  1.00  0.00     0.049 A 
ATOM     51  C   UNL A   1      44.819  29.798  31.082  1.00  0.00     0.074 A 
ATOM     52  C   UNL A   1      44.756  23.997  28.524  1.00  0.00     0.029 A 
ATOM     53  N   UNL A   1      44.200  26.011  29.287  1.00  0.00    -0.354 N 
ATOM     54  N   UNL A   1      44.712  28.614  30.531  1.00  0.00    -0.248 NA
ATOM     55  C   UNL A   1      46.153  30.093  31.624  1.00  0.00     0.031 C 
ATOM     56  C   UNL A   1      45.881  24.567  29.129  1.00  0.00     0.029 A 
ATOM     57  C   UNL A   1      45.543  25.834  29.577  1.00  0.00     0.049 A 
ATOM     58  H   UNL A   1      43.678  26.818  29.500  1.00  0.00     0.167 HD
ATOM     59  C   UNL A   1      45.971  28.036  30.629  1.00  0.00     0.074 A 
ATOM     60  C   UNL A   1      46.829  29.008  31.276  1.00  0.00     0.031 C 
ATOM     61  C   UNL A   1      46.383  26.810  30.221  1.00  0.00     0.031 A 
BRANCH  48  62
ATOM     62  C   UNL A   1      41.927  23.409  27.614  1.00  0.00    -0.014 A 
ATOM     63  C   UNL A   1      42.126  23.159  26.247  1.00  0.00     0.009 A 
ATOM     64  C   UNL A   1      41.365  22.401  28.412  1.00  0.00     0.009 A 
ATOM     65  C   UNL A   1      41.732  21.944  25.684  1.00  0.00     0.001 A 
ATOM     66  C   UNL A   1      41.001  21.174  27.854  1.00  0.00     0.001 A 
ATOM     67  C   UNL A   1      41.175  20.950  26.488  1.00  0.00     0.000 A 
ENDBRANCH  48  62
BRANCH  49  68
ATOM     68  C   UNL A   1      44.121  32.176  31.862  1.00  0.00    -0.014 A 
ATOM     69  C   UNL A   1      43.931  32.361  33.240  1.00  0.00     0.009 A 
ATOM     70  C   UNL A   1      44.619  33.244  31.098  1.00  0.00     0.009 A 
ATOM     71  C   UNL A   1      44.198  33.597  33.834  1.00  0.00     0.001 A 
ATOM     72  C   UNL A   1      44.916  34.468  31.700  1.00  0.00     0.001 A 
ATOM     73  C   UNL A   1      44.695  34.648  33.064  1.00  0.00     0.000 A 
ENDBRANCH  49  68
BRANCH  61  74
ATOM     74  C   UNL A   1      47.834  26.471  30.423  1.00  0.00    -0.014 A 
ATOM     75  C   UNL A   1      48.286  25.860  31.602  1.00  0.00     0.009 A 
ATOM     76  C   UNL A   1      48.757  26.746  29.402  1.00  0.00     0.009 A 
ATOM     77  C   UNL A   1      49.642  25.568  31.770  1.00  0.00     0.001 A 
ATOM     78  C   UNL A   1      50.106  26.423  29.559  1.00  0.00     0.001 A 
ATOM     79  C   UNL A   1      50.548  25.846  30.748  1.00  0.00     0.000 A 
ENDBRANCH  61  74
ENDBRANCH  35  36
ENDBRANCH  27  30
ENDBRANCH  25  26
ENDBRANCH  24  25
ENDBRANCH   1  24
TORSDOF 13
ENDMDL
MODEL 2
REMARK VINA RESULT:     -10.8      3.239      7.295
REMARK SMILES Cc1cc(C(=O)N[C@H]2C=C[C@H](C(=O)NCCCCNC(=O)c3ccc(-c4c5nc(c(-c6ccccc6)c6ccc([nH]6)c(-c6ccccc6)c6nc(c(-c7ccccc7)c7ccc4[nH]7)C=C6)C=C5)cc3)C2)ccc1F
REMARK SMILES IDX 16 1 15 2 14 3 12 4 13 5 11 7 8 8 9 9 70 10 10 11 7 12 5 13
REMARK SMILES IDX 6 14 4 16 1 17 2 18 3 19 73 20 72 21 74 22 71 23 17 24 18 25
REMARK SMILES IDX 19 26 20 27 21 29 22 30 23 31 69 32 24 33 68 34 25 35 26 36
REMARK SMILES IDX 27 37 62 38 28 39 67 40 61 41 63 42 29 43 66 44 60 45 59 46
REMARK SMILES IDX 30 48 52 49 37 50 51 51 38 52 41 53 50 54 64 55 39 56 40 57
REMARK SMILES IDX 49 59 65 60 42 61 31 62 32 63 36 64 33 65 35 66 34 67 53 68
REMARK SMILES IDX 54 69 58 70 55 71 57 72 56 73 43 74 44 75 48 76 45 77 47 78
REMARK SMILES IDX 46 79
REMARK H PARENT 14 6 7 15 19 28 63 47 41 58
REMARK Flexibility Score: inf
ROOT
ATOM      1  C   UNL A   1      31.477  30.653  26.396  1.00  0.00     0.023 C 
ENDROOT
BRANCH   1   2
ATOM      2  C   UNL A   1      32.888  30.088  26.287  1.00  0.00     0.116 C 
BRANCH   2   3
ATOM      3  N   UNL A   1      33.048  29.290  25.094  1.00  0.00    -0.356 N 
ATOM      4  C   UNL A   1      32.315  28.279  24.571  1.00  0.00     0.227 C 
ATOM      5  O   UNL A   1      32.778  27.776  23.541  1.00  0.00    -0.274 OA
ATOM      6  H   UNL A   1      33.840  29.526  24.560  1.00  0.00     0.163 HD
BRANCH   4   7
ATOM      7  C   UNL A   1      31.021  27.718  25.212  1.00  0.00     0.103 C 
ATOM      8  C   UNL A   1      31.689  25.509  25.900  1.00  0.00     0.106 C 
ATOM      9  C   UNL A   1      30.583  25.416  24.903  1.00  0.00    -0.006 C 
ATOM     10  C   UNL A   1      31.433  26.912  26.462  1.00  0.00     0.047 C 
ATOM     11  C   UNL A   1      30.231  26.646  24.505  1.00  0.00    -0.016 C 
BRANCH   8  12
ATOM     12  N   UNL A   1      31.631  24.456  26.873  1.00  0.00    -0.346 N 
ATOM     13  C   UNL A   1      32.423  23.340  27.015  1.00  0.00     0.251 C 
ATOM     14  O   UNL A   1      32.196  22.589  27.964  1.00  0.00    -0.269 OA
ATOM     15  H   UNL A   1      30.914  24.546  27.541  1.00  0.00     0.164 HD
BRANCH  13  16
ATOM     16  C   UNL A   1      33.583  23.042  26.120  1.00  0.00     0.040 A 
ATOM     17  C   UNL A   1      37.316  23.703  25.731  1.00  0.00     0.047 C 
ATOM     18  C   UNL A   1      35.932  23.193  25.464  1.00  0.00    -0.015 A 
ATOM     19  C   UNL A   1      34.848  23.632  26.237  1.00  0.00     0.020 A 
ATOM     20  C   UNL A   1      35.702  22.251  24.465  1.00  0.00     0.126 A 
ATOM     21  C   UNL A   1      34.433  21.724  24.257  1.00  0.00     0.040 A 
ATOM     22  F   UNL A   1      36.714  21.841  23.687  1.00  0.00    -0.207 F 
ATOM     23  C   UNL A   1      33.379  22.104  25.095  1.00  0.00     0.017 A 
ENDBRANCH  13  16
ENDBRANCH   8  12
ENDBRANCH   4   7
ENDBRANCH   2   3
ENDBRANCH   1   2
BRANCH   1  24
ATOM     24  C   UNL A   1      31.403  32.175  26.518  1.00  0.00     0.023 C 
BRANCH  24  25
ATOM     25  C   UNL A   1      32.606  32.838  27.183  1.00  0.00     0.116 C 
BRANCH  25  26
ATOM     26  N   UNL A   1      32.339  34.198  27.626  1.00  0.00    -0.352 N 
ATOM     27  C   UNL A   1      32.974  34.945  28.589  1.00  0.00     0.251 C 
ATOM     28  H   UNL A   1      31.593  34.650  27.167  1.00  0.00     0.163 HD
ATOM     29  O   UNL A   1      32.530  36.037  28.915  1.00  0.00    -0.269 OA
BRANCH  27  30
ATOM     30  C   UNL A   1      34.179  34.406  29.253  1.00  0.00     0.039 A 
ATOM     31  C   UNL A   1      34.027  33.695  30.445  1.00  0.00     0.014 A 
ATOM     32  C   UNL A   1      35.447  34.584  28.693  1.00  0.00     0.014 A 
ATOM     33  C   UNL A   1      35.142  33.102  31.039  1.00  0.00     0.010 A 
ATOM     34  C   UNL A   1      36.541  33.922  29.240  1.00  0.00     0.010 A 
ATOM     35  C   UNL A   1      36.402  33.178  30.421  1.00  0.00    -0.014 A 
BRANCH  35  36
ATOM     36  C   UNL A   1      37.579  32.484  30.999  1.00  0.00     0.031 A 
ATOM     37  C   UNL A   1      38.201  32.981  32.275  1.00  0.00     0.074 A 
ATOM     38  C   UNL A   1      38.118  31.434  30.349  1.00  0.00     0.049 A 
ATOM     39  N   UNL A   1      39.243  32.517  32.920  1.00  0.00    -0.248 NA
ATOM     40  C   UNL A   1      37.591  34.167  32.896  1.00  0.00     0.031 C 
ATOM     41  C   UNL A   1      37.638  30.883  29.079  1.00  0.00     0.029 A 
ATOM     42  N   UNL A   1      39.192  30.640  30.670  1.00  0.00    -0.354 N 
ATOM     43  C   UNL A   1      39.416  33.360  34.011  1.00  0.00     0.074 A 
ATOM     44  C   UNL A   1      38.413  34.397  33.908  1.00  0.00     0.031 C 
ATOM     45  C   UNL A   1      38.388  29.818  28.750  1.00  0.00     0.029 A 
ATOM     46  C   UNL A   1      39.426  29.637  29.760  1.00  0.00     0.049 A 
ATOM     47  H   UNL A   1      39.742  30.776  31.474  1.00  0.00     0.167 HD
ATOM     48  C   UNL A   1      40.310  33.265  35.024  1.00  0.00     0.031 A 
ATOM     49  C   UNL A   1      40.370  28.677  29.742  1.00  0.00     0.031 A 
ATOM     50  C   UNL A   1      41.306  32.232  35.128  1.00  0.00     0.049 A 
ATOM     51  C   UNL A   1      41.365  28.607  30.868  1.00  0.00     0.074 A 
ATOM     52  C   UNL A   1      42.228  32.023  36.139  1.00  0.00     0.029 A 
ATOM     53  N   UNL A   1      41.511  31.237  34.186  1.00  0.00    -0.354 N 
ATOM     54  N   UNL A   1      41.467  29.368  31.930  1.00  0.00    -0.248 NA
ATOM     55  C   UNL A   1      42.366  27.534  30.795  1.00  0.00     0.031 C 
ATOM     56  C   UNL A   1      43.028  30.932  35.780  1.00  0.00     0.029 A 
ATOM     57  C   UNL A   1      42.561  30.424  34.579  1.00  0.00     0.049 A 
ATOM     58  H   UNL A   1      40.988  31.124  33.359  1.00  0.00     0.167 HD
ATOM     59  C   UNL A   1      42.522  28.847  32.668  1.00  0.00     0.074 A 
ATOM     60  C   UNL A   1      43.012  27.693  31.941  1.00  0.00     0.031 C 
ATOM     61  C   UNL A   1      43.038  29.281  33.844  1.00  0.00     0.031 A 
BRANCH  48  62
ATOM     62  C   UNL A   1      40.249  34.316  36.099  1.00  0.00    -0.014 A 
ATOM     63  C   UNL A   1      39.439  34.150  37.234  1.00  0.00     0.009 A 
ATOM     64  C   UNL A   1      41.035  35.474  35.992  1.00  0.00     0.009 A 
ATOM     65  C   UNL A   1      39.385  35.139  38.218  1.00  0.00     0.001 A 
ATOM     66  C   UNL A   1      41.004  36.447  36.993  1.00  0.00     0.001 A 
ATOM     67  C   UNL A   1      40.171  36.284  38.099  1.00  0.00     0.000 A 
ENDBRANCH  48  62
BRANCH  49  68
ATOM     68  C   UNL A   1      40.412  27.688  28.632  1.00  0.00    -0.014 A 
ATOM     69  C   UNL A   1      39.754  26.454  28.751  1.00  0.00     0.009 A 
ATOM     70  C   UNL A   1      41.126  27.963  27.455  1.00  0.00     0.009 A 
ATOM     71  C   UNL A   1      39.839  25.503  27.731  1.00  0.00     0.001 A 
ATOM     72  C   UNL A   1      41.182  27.024  26.424  1.00  0.00     0.001 A 
ATOM     73  C   UNL A   1      40.549  25.791  26.567  1.00  0.00     0.000 A 
ENDBRANCH  49  68
BRANCH  61  74
ATOM     74  C   UNL A   1      44.165  28.480  34.437  1.00  0.00    -0.014 A 
ATOM     75  C   UNL A   1      43.921  27.393  35.289  1.00  0.00     0.009 A 
ATOM     76  C   UNL A   1      45.491  28.807  34.113  1.00  0.00     0.009 A 
ATOM     77  C   UNL A   1      44.987  26.675  35.838  1.00  0.00     0.001 A 
ATOM     78  C   UNL A   1      46.552  28.067  34.636  1.00  0.00     0.001 A 
ATOM     79  C   UNL A   1      46.299  27.010  35.507  1.00  0.00     0.000 A 
ENDBRANCH  61  74
ENDBRANCH  35  36
ENDBRANCH  27  30
ENDBRANCH  25  26
ENDBRANCH  24  25
ENDBRANCH   1  24
TORSDOF 13
ENDMDL
MODEL 3
REMARK VINA RESULT:     -10.7      2.628      7.792
REMARK SMILES Cc1cc(C(=O)N[C@H]2C=C[C@H](C(=O)NCCCCNC(=O)c3ccc(-c4c5nc(c(-c6ccccc6)c6ccc([nH]6)c(-c6ccccc6)c6nc(c(-c7ccccc7)c7ccc4[nH]7)C=C6)C=C5)cc3)C2)ccc1F
REMARK SMILES IDX 16 1 15 2 14 3 12 4 13 5 11 7 8 8 9 9 70 10 10 11 7 12 5 13
REMARK SMILES IDX 6 14 4 16 1 17 2 18 3 19 73 20 72 21 74 22 71 23 17 24 18 25
REMARK SMILES IDX 19 26 20 27 21 29 22 30 23 31 69 32 24 33 68 34 25 35 26 36
REMARK SMILES IDX 27 37 62 38 28 39 67 40 61 41 63 42 29 43 66 44 60 45 59 46
REMARK SMILES IDX 30 48 52 49 37 50 51 51 38 52 41 53 50 54 64 55 39 56 40 57
REMARK SMILES IDX 49 59 65 60 42 61 31 62 32 63 36 64 33 65 35 66 34 67 53 68
REMARK SMILES IDX 54 69 58 70 55 71 57 72 56 73 43 74 44 75 48 76 45 77 47 78
REMARK SMILES IDX 46 79
REMARK H PARENT 14 6 7 15 19 28 63 47 41 58
REMARK Flexibility Score: inf
ROOT
ATOM      1  C   UNL A   1      35.644  21.335  24.930  1.00  0.00     0.023 C 
ENDROOT
BRANCH   1   2
ATOM      2  C   UNL A   1      34.179  21.034  24.641  1.00  0.00     0.116 C 
BRANCH   2   3
ATOM      3  N   UNL A   1      33.302  21.875  25.422  1.00  0.00    -0.356 N 
ATOM      4  C   UNL A   1      32.326  22.745  25.070  1.00  0.00     0.227 C 
ATOM      5  O   UNL A   1      31.800  23.348  26.013  1.00  0.00    -0.274 OA
ATOM      6  H   UNL A   1      33.440  21.802  26.393  1.00  0.00     0.163 HD
BRANCH   4   7
ATOM      7  C   UNL A   1      31.907  23.042  23.609  1.00  0.00     0.103 C 
ATOM      8  C   UNL A   1      32.710  25.287  23.277  1.00  0.00     0.106 C 
ATOM      9  C   UNL A   1      31.227  25.252  23.117  1.00  0.00    -0.006 C 
ATOM     10  C   UNL A   1      33.056  23.831  22.948  1.00  0.00     0.047 C 
ATOM     11  C   UNL A   1      30.782  24.005  23.326  1.00  0.00    -0.016 C 
BRANCH   8  12
ATOM     12  N   UNL A   1      33.324  26.257  22.416  1.00  0.00    -0.346 N 
ATOM     13  C   UNL A   1      33.507  27.608  22.596  1.00  0.00     0.251 C 
ATOM     14  O   UNL A   1      34.102  28.232  21.716  1.00  0.00    -0.269 OA
ATOM     15  H   UNL A   1      33.668  25.900  21.565  1.00  0.00     0.164 HD
BRANCH  13  16
ATOM     16  C   UNL A   1      33.084  28.333  23.834  1.00  0.00     0.040 A 
ATOM     17  C   UNL A   1      34.396  29.512  27.212  1.00  0.00     0.047 C 
ATOM     18  C   UNL A   1      33.469  29.262  26.061  1.00  0.00    -0.015 A 
ATOM     19  C   UNL A   1      33.860  28.439  24.995  1.00  0.00     0.020 A 
ATOM     20  C   UNL A   1      32.216  29.867  26.013  1.00  0.00     0.126 A 
ATOM     21  C   UNL A   1      31.380  29.694  24.916  1.00  0.00     0.040 A 
ATOM     22  F   UNL A   1      31.803  30.629  27.035  1.00  0.00    -0.207 F 
ATOM     23  C   UNL A   1      31.820  28.944  23.821  1.00  0.00     0.017 A 
ENDBRANCH  13  16
ENDBRANCH   8  12
ENDBRANCH   4   7
ENDBRANCH   2   3
ENDBRANCH   1   2
BRANCH   1  24
ATOM     24  C   UNL A   1      36.094  22.750  24.564  1.00  0.00     0.023 C 
BRANCH  24  25
ATOM     25  C   UNL A   1      37.134  23.367  25.493  1.00  0.00     0.116 C 
BRANCH  25  26
ATOM     26  N   UNL A   1      38.313  22.532  25.669  1.00  0.00    -0.352 N 
ATOM     27  C   UNL A   1      39.537  22.849  26.206  1.00  0.00     0.251 C 
ATOM     28  H   UNL A   1      38.219  21.602  25.358  1.00  0.00     0.163 HD
ATOM     29  O   UNL A   1      40.458  22.045  26.160  1.00  0.00    -0.269 OA
BRANCH  27  30
ATOM     30  C   UNL A   1      39.745  24.181  26.811  1.00  0.00     0.039 A 
ATOM     31  C   UNL A   1      39.310  24.399  28.119  1.00  0.00     0.014 A 
ATOM     32  C   UNL A   1      40.382  25.201  26.099  1.00  0.00     0.014 A 
ATOM     33  C   UNL A   1      39.576  25.621  28.738  1.00  0.00     0.010 A 
ATOM     34  C   UNL A   1      40.721  26.385  26.745  1.00  0.00     0.010 A 
ATOM     35  C   UNL A   1      40.318  26.610  28.070  1.00  0.00    -0.014 A 
BRANCH  35  36
ATOM     36  C   UNL A   1      40.678  27.882  28.745  1.00  0.00     0.031 A 
ATOM     37  C   UNL A   1      39.667  28.987  28.870  1.00  0.00     0.074 A 
ATOM     38  C   UNL A   1      41.933  28.059  29.204  1.00  0.00     0.049 A 
ATOM     39  N   UNL A   1      39.804  30.174  29.408  1.00  0.00    -0.248 NA
ATOM     40  C   UNL A   1      38.335  28.740  28.293  1.00  0.00     0.031 C 
ATOM     41  C   UNL A   1      43.021  27.082  29.103  1.00  0.00     0.029 A 
ATOM     42  N   UNL A   1      42.505  29.127  29.850  1.00  0.00    -0.354 N 
ATOM     43  C   UNL A   1      38.584  30.813  29.226  1.00  0.00     0.074 A 
ATOM     44  C   UNL A   1      37.741  29.909  28.474  1.00  0.00     0.031 C 
ATOM     45  C   UNL A   1      44.115  27.580  29.702  1.00  0.00     0.029 A 
ATOM     46  C   UNL A   1      43.821  28.924  30.190  1.00  0.00     0.049 A 
ATOM     47  H   UNL A   1      42.020  29.959  30.050  1.00  0.00     0.167 HD
ATOM     48  C   UNL A   1      38.189  32.031  29.667  1.00  0.00     0.031 A 
ATOM     49  C   UNL A   1      44.693  29.729  30.825  1.00  0.00     0.031 A 
ATOM     50  C   UNL A   1      39.026  32.929  30.417  1.00  0.00     0.049 A 
ATOM     51  C   UNL A   1      44.236  31.086  31.286  1.00  0.00     0.074 A 
ATOM     52  C   UNL A   1      38.704  34.165  30.949  1.00  0.00     0.029 A 
ATOM     53  N   UNL A   1      40.352  32.686  30.739  1.00  0.00    -0.354 N 
ATOM     54  N   UNL A   1      43.056  31.645  31.169  1.00  0.00    -0.248 NA
ATOM     55  C   UNL A   1      45.231  31.916  31.979  1.00  0.00     0.031 C 
ATOM     56  C   UNL A   1      39.853  34.696  31.546  1.00  0.00     0.029 A 
ATOM     57  C   UNL A   1      40.871  33.761  31.442  1.00  0.00     0.049 A 
ATOM     58  H   UNL A   1      40.851  31.872  30.503  1.00  0.00     0.167 HD
ATOM     59  C   UNL A   1      43.157  32.877  31.802  1.00  0.00     0.074 A 
ATOM     60  C   UNL A   1      44.508  32.973  32.317  1.00  0.00     0.031 C 
ATOM     61  C   UNL A   1      42.217  33.843  31.947  1.00  0.00     0.031 A 
BRANCH  48  62
ATOM     62  C   UNL A   1      36.784  32.461  29.341  1.00  0.00    -0.014 A 
ATOM     63  C   UNL A   1      36.488  33.126  28.140  1.00  0.00     0.009 A 
ATOM     64  C   UNL A   1      35.738  32.172  30.230  1.00  0.00     0.009 A 
ATOM     65  C   UNL A   1      35.182  33.528  27.855  1.00  0.00     0.001 A 
ATOM     66  C   UNL A   1      34.427  32.547  29.929  1.00  0.00     0.001 A 
ATOM     67  C   UNL A   1      34.151  33.234  28.747  1.00  0.00     0.000 A 
ENDBRANCH  48  62
BRANCH  49  68
ATOM     68  C   UNL A   1      46.084  29.271  31.085  1.00  0.00    -0.014 A 
ATOM     69  C   UNL A   1      46.425  28.684  32.313  1.00  0.00     0.009 A 
ATOM     70  C   UNL A   1      47.085  29.435  30.113  1.00  0.00     0.009 A 
ATOM     71  C   UNL A   1      47.743  28.304  32.577  1.00  0.00     0.001 A 
ATOM     72  C   UNL A   1      48.395  29.024  30.368  1.00  0.00     0.001 A 
ATOM     73  C   UNL A   1      48.725  28.470  31.603  1.00  0.00     0.000 A 
ENDBRANCH  49  68
BRANCH  61  74
ATOM     74  C   UNL A   1      42.605  35.067  32.728  1.00  0.00    -0.014 A 
ATOM     75  C   UNL A   1      42.265  35.212  34.082  1.00  0.00     0.009 A 
ATOM     76  C   UNL A   1      43.348  36.081  32.101  1.00  0.00     0.009 A 
ATOM     77  C   UNL A   1      42.625  36.367  34.780  1.00  0.00     0.001 A 
ATOM     78  C   UNL A   1      43.735  37.218  32.811  1.00  0.00     0.001 A 
ATOM     79  C   UNL A   1      43.363  37.365  34.146  1.00  0.00     0.000 A 
ENDBRANCH  61  74
ENDBRANCH  35  36
ENDBRANCH  27  30
ENDBRANCH  25  26
ENDBRANCH  24  25
ENDBRANCH   1  24
TORSDOF 13
ENDMDL
