MODEL 1
REMARK VINA RESULT:     -12.9      0.000      0.000
REMARK SMILES Cc1ccc(-c2cc(OCC(=O)NCCCCNC(=O)c3ccc(-c4c5nc(c(-c6ccccc6)c6ccc([nH]6)c(-c6ccccc6)c6nc(c(-c7ccccc7)c7ccc4[nH]7)C=C6)C=C5)cc3)nc(NCc3ccc4c(c3)OCO4)n2)cc1
REMARK SMILES IDX 14 1 13 2 11 3 12 4 10 6 9 7 8 8 6 9 7 10 82 11 70 12 69 13
REMARK SMILES IDX 5 14 1 15 2 16 3 17 84 18 4 19 83 20 71 21 72 23 73 24 74 25
REMARK SMILES IDX 78 26 75 27 77 28 76 29 79 30 81 31 80 32 15 33 16 34 17 35
REMARK SMILES IDX 18 36 19 37 20 39 21 40 22 41 68 42 23 43 67 44 24 45 25 46
REMARK SMILES IDX 26 47 61 48 27 49 66 50 60 51 62 52 28 53 65 54 59 55 58 56
REMARK SMILES IDX 29 58 51 59 36 60 50 61 37 62 40 63 49 64 63 65 38 66 39 67
REMARK SMILES IDX 48 69 64 70 41 71 30 72 31 73 35 74 32 75 34 76 33 77 52 78
REMARK SMILES IDX 53 79 57 80 54 81 56 82 55 83 42 84 43 85 47 86 44 87 46 88
REMARK SMILES IDX 45 89
REMARK H PARENT 13 5 71 22 18 38 62 57 40 68
REMARK Flexibility Score: inf
ROOT
ATOM      1  C   UNL A   1      34.665  29.198  27.406  1.00  0.00     0.116 C 
ENDROOT
BRANCH   1   2
ATOM      2  N   UNL A   1      33.309  28.726  27.632  1.00  0.00    -0.353 N 
ATOM      3  C   UNL A   1      32.638  27.714  27.009  1.00  0.00     0.258 C 
ATOM      4  O   UNL A   1      31.489  27.455  27.370  1.00  0.00    -0.271 OA
ATOM      5  H   UNL A   1      32.805  29.203  28.330  1.00  0.00     0.163 HD
BRANCH   3   6
ATOM      6  C   UNL A   1      33.319  26.917  25.892  1.00  0.00     0.331 C 
BRANCH   6   7
ATOM      7  O   UNL A   1      33.543  25.542  26.145  1.00  0.00    -0.467 OA
BRANCH   7   8
ATOM      8  C   UNL A   1      32.928  24.643  25.319  1.00  0.00     0.219 A 
ATOM      9  C   UNL A   1      32.559  22.602  24.258  1.00  0.00     0.080 A 
ATOM     10  C   UNL A   1      33.358  23.366  25.082  1.00  0.00     0.097 A 
ATOM     11  N   UNL A   1      31.450  23.086  23.664  1.00  0.00    -0.213 NA
ATOM     12  C   UNL A   1      31.112  24.347  23.950  1.00  0.00     0.226 A 
ATOM     13  N   UNL A   1      31.813  25.141  24.765  1.00  0.00    -0.177 NA
BRANCH   9  14
ATOM     14  C   UNL A   1      32.854  21.182  24.048  1.00  0.00     0.000 A 
ATOM     15  C   UNL A   1      33.503  16.933  23.557  1.00  0.00     0.044 C 
ATOM     16  C   UNL A   1      33.291  18.410  23.706  1.00  0.00    -0.051 A 
ATOM     17  C   UNL A   1      34.011  19.133  24.664  1.00  0.00     0.004 A 
ATOM     18  C   UNL A   1      32.358  19.081  22.910  1.00  0.00     0.004 A 
ATOM     19  C   UNL A   1      33.802  20.508  24.827  1.00  0.00     0.010 A 
ATOM     20  C   UNL A   1      32.143  20.450  23.082  1.00  0.00     0.010 A 
ENDBRANCH   9  14
BRANCH  12  21
ATOM     21  N   UNL A   1      29.969  24.906  23.445  1.00  0.00    -0.350 N 
ATOM     22  H   UNL A   1      29.643  24.619  22.561  1.00  0.00     0.164 HD
BRANCH  21  23
ATOM     23  C   UNL A   1      29.233  25.903  24.176  1.00  0.00     0.152 C 
BRANCH  23  24
ATOM     24  C   UNL A   1      29.224  27.260  23.494  1.00  0.00    -0.025 A 
ATOM     25  C   UNL A   1      30.431  27.734  22.920  1.00  0.00     0.009 A 
ATOM     26  C   UNL A   1      28.067  28.054  23.391  1.00  0.00     0.056 A 
ATOM     27  C   UNL A   1      30.501  28.989  22.303  1.00  0.00     0.051 A 
ATOM     28  C   UNL A   1      28.173  29.296  22.800  1.00  0.00     0.166 A 
ATOM     29  C   UNL A   1      29.356  29.754  22.278  1.00  0.00     0.165 A 
ATOM     30  O   UNL A   1      27.167  30.205  22.683  1.00  0.00    -0.454 OA
ATOM     31  O   UNL A   1      29.246  31.012  21.775  1.00  0.00    -0.454 OA
ATOM     32  C   UNL A   1      27.897  31.338  22.173  1.00  0.00     0.468 C 
ENDBRANCH  23  24
ENDBRANCH  21  23
ENDBRANCH  12  21
ENDBRANCH   7   8
ENDBRANCH   6   7
ENDBRANCH   3   6
ENDBRANCH   1   2
BRANCH   1  33
ATOM     33  C   UNL A   1      34.777  30.719  27.243  1.00  0.00     0.023 C 
BRANCH  33  34
ATOM     34  C   UNL A   1      34.025  31.565  28.274  1.00  0.00     0.023 C 
BRANCH  34  35
ATOM     35  C   UNL A   1      34.022  33.058  27.986  1.00  0.00     0.116 C 
BRANCH  35  36
ATOM     36  N   UNL A   1      33.416  33.888  29.018  1.00  0.00    -0.352 N 
ATOM     37  C   UNL A   1      33.950  34.356  30.211  1.00  0.00     0.251 C 
ATOM     38  H   UNL A   1      32.486  34.158  28.842  1.00  0.00     0.163 HD
ATOM     39  O   UNL A   1      33.241  34.963  30.993  1.00  0.00    -0.269 OA
BRANCH  37  40
ATOM     40  C   UNL A   1      35.414  34.250  30.470  1.00  0.00     0.039 A 
ATOM     41  C   UNL A   1      36.281  34.466  29.390  1.00  0.00     0.014 A 
ATOM     42  C   UNL A   1      35.916  33.743  31.662  1.00  0.00     0.014 A 
ATOM     43  C   UNL A   1      37.561  33.916  29.416  1.00  0.00     0.010 A 
ATOM     44  C   UNL A   1      37.132  33.094  31.651  1.00  0.00     0.010 A 
ATOM     45  C   UNL A   1      37.923  33.122  30.500  1.00  0.00    -0.014 A 
BRANCH  45  46
ATOM     46  C   UNL A   1      39.023  32.171  30.471  1.00  0.00     0.031 A 
ATOM     47  C   UNL A   1      38.816  30.786  30.019  1.00  0.00     0.074 A 
ATOM     48  C   UNL A   1      40.270  32.598  30.772  1.00  0.00     0.049 A 
ATOM     49  N   UNL A   1      39.568  29.796  30.365  1.00  0.00    -0.248 NA
ATOM     50  C   UNL A   1      37.706  30.397  29.156  1.00  0.00     0.031 C 
ATOM     51  C   UNL A   1      41.536  31.918  30.521  1.00  0.00     0.029 A 
ATOM     52  N   UNL A   1      40.625  33.679  31.561  1.00  0.00    -0.354 N 
ATOM     53  C   UNL A   1      39.251  28.742  29.543  1.00  0.00     0.074 A 
ATOM     54  C   UNL A   1      38.028  29.131  28.880  1.00  0.00     0.031 C 
ATOM     55  C   UNL A   1      42.482  32.446  31.316  1.00  0.00     0.029 A 
ATOM     56  C   UNL A   1      41.820  33.375  32.219  1.00  0.00     0.049 A 
ATOM     57  H   UNL A   1      40.120  34.520  31.646  1.00  0.00     0.167 HD
ATOM     58  C   UNL A   1      40.141  27.724  29.382  1.00  0.00     0.031 A 
ATOM     59  C   UNL A   1      41.863  33.293  33.583  1.00  0.00     0.031 A 
ATOM     60  C   UNL A   1      41.338  27.908  30.203  1.00  0.00     0.049 A 
ATOM     61  C   UNL A   1      42.215  31.911  34.096  1.00  0.00     0.074 A 
ATOM     62  C   UNL A   1      42.618  28.351  29.913  1.00  0.00     0.029 A 
ATOM     63  N   UNL A   1      41.224  27.915  31.588  1.00  0.00    -0.354 N 
ATOM     64  N   UNL A   1      42.141  30.823  33.378  1.00  0.00    -0.248 NA
ATOM     65  C   UNL A   1      42.647  31.639  35.465  1.00  0.00     0.031 C 
ATOM     66  C   UNL A   1      43.262  28.670  31.136  1.00  0.00     0.029 A 
ATOM     67  C   UNL A   1      42.382  28.398  32.167  1.00  0.00     0.049 A 
ATOM     68  H   UNL A   1      40.430  27.617  32.087  1.00  0.00     0.167 HD
ATOM     69  C   UNL A   1      42.504  29.739  34.136  1.00  0.00     0.074 A 
ATOM     70  C   UNL A   1      42.818  30.305  35.435  1.00  0.00     0.031 C 
ATOM     71  C   UNL A   1      42.504  28.474  33.619  1.00  0.00     0.031 A 
BRANCH  58  72
ATOM     72  C   UNL A   1      40.052  26.740  28.242  1.00  0.00    -0.014 A 
ATOM     73  C   UNL A   1      39.323  25.548  28.404  1.00  0.00     0.009 A 
ATOM     74  C   UNL A   1      40.703  26.902  27.007  1.00  0.00     0.009 A 
ATOM     75  C   UNL A   1      39.335  24.532  27.440  1.00  0.00     0.001 A 
ATOM     76  C   UNL A   1      40.756  25.874  26.056  1.00  0.00     0.001 A 
ATOM     77  C   UNL A   1      40.081  24.682  26.278  1.00  0.00     0.000 A 
ENDBRANCH  58  72
BRANCH  59  78
ATOM     78  C   UNL A   1      40.927  34.237  34.260  1.00  0.00    -0.014 A 
ATOM     79  C   UNL A   1      39.788  33.699  34.894  1.00  0.00     0.009 A 
ATOM     80  C   UNL A   1      41.337  35.532  34.608  1.00  0.00     0.009 A 
ATOM     81  C   UNL A   1      39.157  34.384  35.936  1.00  0.00     0.001 A 
ATOM     82  C   UNL A   1      40.689  36.222  35.642  1.00  0.00     0.001 A 
ATOM     83  C   UNL A   1      39.629  35.633  36.330  1.00  0.00     0.000 A 
ENDBRANCH  59  78
BRANCH  71  84
ATOM     84  C   UNL A   1      42.679  27.173  34.373  1.00  0.00    -0.014 A 
ATOM     85  C   UNL A   1      41.709  26.576  35.184  1.00  0.00     0.009 A 
ATOM     86  C   UNL A   1      43.867  26.428  34.170  1.00  0.00     0.009 A 
ATOM     87  C   UNL A   1      41.924  25.324  35.782  1.00  0.00     0.001 A 
ATOM     88  C   UNL A   1      44.068  25.162  34.724  1.00  0.00     0.001 A 
ATOM     89  C   UNL A   1      43.095  24.612  35.542  1.00  0.00     0.000 A 
ENDBRANCH  71  84
ENDBRANCH  45  46
ENDBRANCH  37  40
ENDBRANCH  35  36
ENDBRANCH  34  35
ENDBRANCH  33  34
ENDBRANCH   1  33
TORSDOF 17
ENDMDL
MODEL 2
REMARK VINA RESULT:     -12.5      3.019      9.054
REMARK SMILES Cc1ccc(-c2cc(OCC(=O)NCCCCNC(=O)c3ccc(-c4c5nc(c(-c6ccccc6)c6ccc([nH]6)c(-c6ccccc6)c6nc(c(-c7ccccc7)c7ccc4[nH]7)C=C6)C=C5)cc3)nc(NCc3ccc4c(c3)OCO4)n2)cc1
REMARK SMILES IDX 14 1 13 2 11 3 12 4 10 6 9 7 8 8 6 9 7 10 82 11 70 12 69 13
REMARK SMILES IDX 5 14 1 15 2 16 3 17 84 18 4 19 83 20 71 21 72 23 73 24 74 25
REMARK SMILES IDX 78 26 75 27 77 28 76 29 79 30 81 31 80 32 15 33 16 34 17 35
REMARK SMILES IDX 18 36 19 37 20 39 21 40 22 41 68 42 23 43 67 44 24 45 25 46
REMARK SMILES IDX 26 47 61 48 27 49 66 50 60 51 62 52 28 53 65 54 59 55 58 56
REMARK SMILES IDX 29 58 51 59 36 60 50 61 37 62 40 63 49 64 63 65 38 66 39 67
REMARK SMILES IDX 48 69 64 70 41 71 30 72 31 73 35 74 32 75 34 76 33 77 52 78
REMARK SMILES IDX 53 79 57 80 54 81 56 82 55 83 42 84 43 85 47 86 44 87 46 88
REMARK SMILES IDX 45 89
REMARK H PARENT 13 5 71 22 18 38 62 57 40 68
REMARK Flexibility Score: inf
ROOT
ATOM      1  C   UNL A   1      34.604  21.776  25.480  1.00  0.00     0.116 C 
ENDROOT
BRANCH   1   2
ATOM      2  N   UNL A   1      34.013  22.431  24.326  1.00  0.00    -0.353 N 
ATOM      3  C   UNL A   1      33.606  23.726  24.188  1.00  0.00     0.258 C 
ATOM      4  O   UNL A   1      33.148  24.092  23.105  1.00  0.00    -0.271 OA
ATOM      5  H   UNL A   1      33.889  21.861  23.532  1.00  0.00     0.163 HD
BRANCH   3   6
ATOM      6  C   UNL A   1      33.732  24.698  25.367  1.00  0.00     0.331 C 
BRANCH   6   7
ATOM      7  O   UNL A   1      32.575  25.443  25.696  1.00  0.00    -0.467 OA
BRANCH   7   8
ATOM      8  C   UNL A   1      32.573  26.773  25.378  1.00  0.00     0.219 A 
ATOM      9  C   UNL A   1      31.784  28.761  24.455  1.00  0.00     0.080 A 
ATOM     10  C   UNL A   1      31.632  27.399  24.606  1.00  0.00     0.097 A 
ATOM     11  N   UNL A   1      32.824  29.442  24.977  1.00  0.00    -0.213 NA
ATOM     12  C   UNL A   1      33.696  28.745  25.711  1.00  0.00     0.226 A 
ATOM     13  N   UNL A   1      33.601  27.430  25.934  1.00  0.00    -0.177 NA
BRANCH   9  14
ATOM     14  C   UNL A   1      30.760  29.549  23.764  1.00  0.00     0.000 A 
ATOM     15  C   UNL A   1      27.929  32.010  21.609  1.00  0.00     0.044 C 
ATOM     16  C   UNL A   1      28.893  31.138  22.357  1.00  0.00    -0.051 A 
ATOM     17  C   UNL A   1      29.150  31.373  23.713  1.00  0.00     0.004 A 
ATOM     18  C   UNL A   1      29.564  30.098  21.709  1.00  0.00     0.004 A 
ATOM     19  C   UNL A   1      30.068  30.580  24.412  1.00  0.00     0.010 A 
ATOM     20  C   UNL A   1      30.487  29.315  22.405  1.00  0.00     0.010 A 
ENDBRANCH   9  14
BRANCH  12  21
ATOM     21  N   UNL A   1      34.749  29.359  26.334  1.00  0.00    -0.350 N 
ATOM     22  H   UNL A   1      35.582  29.512  25.831  1.00  0.00     0.164 HD
BRANCH  21  23
ATOM     23  C   UNL A   1      34.667  29.786  27.705  1.00  0.00     0.152 C 
BRANCH  23  24
ATOM     24  C   UNL A   1      34.682  31.298  27.862  1.00  0.00    -0.025 A 
ATOM     25  C   UNL A   1      35.936  31.952  27.966  1.00  0.00     0.009 A 
ATOM     26  C   UNL A   1      33.508  32.073  27.889  1.00  0.00     0.056 A 
ATOM     27  C   UNL A   1      36.022  33.338  28.143  1.00  0.00     0.051 A 
ATOM     28  C   UNL A   1      33.624  33.433  28.090  1.00  0.00     0.166 A 
ATOM     29  C   UNL A   1      34.844  34.047  28.221  1.00  0.00     0.165 A 
ATOM     30  O   UNL A   1      32.587  34.307  28.206  1.00  0.00    -0.454 OA
ATOM     31  O   UNL A   1      34.728  35.383  28.445  1.00  0.00    -0.454 OA
ATOM     32  C   UNL A   1      33.296  35.504  28.580  1.00  0.00     0.468 C 
ENDBRANCH  23  24
ENDBRANCH  21  23
ENDBRANCH  12  21
ENDBRANCH   7   8
ENDBRANCH   6   7
ENDBRANCH   3   6
ENDBRANCH   1   2
BRANCH   1  33
ATOM     33  C   UNL A   1      35.746  20.812  25.134  1.00  0.00     0.023 C 
BRANCH  33  34
ATOM     34  C   UNL A   1      37.063  21.457  24.696  1.00  0.00     0.023 C 
BRANCH  34  35
ATOM     35  C   UNL A   1      37.630  22.467  25.680  1.00  0.00     0.116 C 
BRANCH  35  36
ATOM     36  N   UNL A   1      38.936  22.133  26.230  1.00  0.00    -0.352 N 
ATOM     37  C   UNL A   1      39.896  22.952  26.808  1.00  0.00     0.251 C 
ATOM     38  H   UNL A   1      39.175  21.178  26.185  1.00  0.00     0.163 HD
ATOM     39  O   UNL A   1      40.977  22.488  27.121  1.00  0.00    -0.269 OA
BRANCH  37  40
ATOM     40  C   UNL A   1      39.557  24.355  27.181  1.00  0.00     0.039 A 
ATOM     41  C   UNL A   1      40.051  25.381  26.364  1.00  0.00     0.014 A 
ATOM     42  C   UNL A   1      38.970  24.671  28.400  1.00  0.00     0.014 A 
ATOM     43  C   UNL A   1      40.210  26.662  26.890  1.00  0.00     0.010 A 
ATOM     44  C   UNL A   1      39.231  25.901  28.967  1.00  0.00     0.010 A 
ATOM     45  C   UNL A   1      39.916  26.871  28.233  1.00  0.00    -0.014 A 
BRANCH  45  46
ATOM     46  C   UNL A   1      40.414  28.003  29.000  1.00  0.00     0.031 A 
ATOM     47  C   UNL A   1      39.517  29.101  29.398  1.00  0.00     0.074 A 
ATOM     48  C   UNL A   1      41.693  27.993  29.433  1.00  0.00     0.049 A 
ATOM     49  N   UNL A   1      39.920  30.298  29.665  1.00  0.00    -0.248 NA
ATOM     50  C   UNL A   1      38.070  28.942  29.493  1.00  0.00     0.031 C 
ATOM     51  C   UNL A   1      42.305  28.848  30.447  1.00  0.00     0.029 A 
ATOM     52  N   UNL A   1      42.766  27.311  28.883  1.00  0.00    -0.354 N 
ATOM     53  C   UNL A   1      38.870  30.953  30.261  1.00  0.00     0.074 A 
ATOM     54  C   UNL A   1      37.720  30.107  30.043  1.00  0.00     0.031 C 
ATOM     55  C   UNL A   1      43.639  28.819  30.294  1.00  0.00     0.029 A 
ATOM     56  C   UNL A   1      43.923  28.071  29.080  1.00  0.00     0.049 A 
ATOM     57  H   UNL A   1      42.721  26.439  28.429  1.00  0.00     0.167 HD
ATOM     58  C   UNL A   1      39.112  32.058  31.019  1.00  0.00     0.031 A 
ATOM     59  C   UNL A   1      44.622  28.562  28.013  1.00  0.00     0.031 A 
ATOM     60  C   UNL A   1      40.531  32.416  31.031  1.00  0.00     0.049 A 
ATOM     61  C   UNL A   1      44.656  30.077  27.955  1.00  0.00     0.074 A 
ATOM     62  C   UNL A   1      41.541  32.222  31.959  1.00  0.00     0.029 A 
ATOM     63  N   UNL A   1      41.152  32.793  29.847  1.00  0.00    -0.354 N 
ATOM     64  N   UNL A   1      43.837  30.852  28.612  1.00  0.00    -0.248 NA
ATOM     65  C   UNL A   1      45.593  30.836  27.132  1.00  0.00     0.031 C 
ATOM     66  C   UNL A   1      42.784  32.443  31.310  1.00  0.00     0.029 A 
ATOM     67  C   UNL A   1      42.524  32.793  29.998  1.00  0.00     0.049 A 
ATOM     68  H   UNL A   1      40.679  33.029  29.016  1.00  0.00     0.167 HD
ATOM     69  C   UNL A   1      44.112  32.166  28.331  1.00  0.00     0.074 A 
ATOM     70  C   UNL A   1      45.226  32.103  27.403  1.00  0.00     0.031 C 
ATOM     71  C   UNL A   1      43.388  33.182  28.888  1.00  0.00     0.031 A 
BRANCH  58  72
ATOM     72  C   UNL A   1      38.103  32.609  31.997  1.00  0.00    -0.014 A 
ATOM     73  C   UNL A   1      37.735  31.847  33.122  1.00  0.00     0.009 A 
ATOM     74  C   UNL A   1      37.444  33.839  31.842  1.00  0.00     0.009 A 
ATOM     75  C   UNL A   1      36.694  32.237  33.975  1.00  0.00     0.001 A 
ATOM     76  C   UNL A   1      36.373  34.216  32.665  1.00  0.00     0.001 A 
ATOM     77  C   UNL A   1      35.990  33.407  33.725  1.00  0.00     0.000 A 
ENDBRANCH  58  72
BRANCH  59  78
ATOM     78  C   UNL A   1      44.582  27.668  26.819  1.00  0.00    -0.014 A 
ATOM     79  C   UNL A   1      45.432  26.543  26.807  1.00  0.00     0.009 A 
ATOM     80  C   UNL A   1      43.493  27.693  25.936  1.00  0.00     0.009 A 
ATOM     81  C   UNL A   1      45.128  25.422  26.029  1.00  0.00     0.001 A 
ATOM     82  C   UNL A   1      43.203  26.573  25.144  1.00  0.00     0.001 A 
ATOM     83  C   UNL A   1      43.994  25.428  25.221  1.00  0.00     0.000 A 
ENDBRANCH  59  78
BRANCH  71  84
ATOM     84  C   UNL A   1      43.438  34.651  28.525  1.00  0.00    -0.014 A 
ATOM     85  C   UNL A   1      43.545  35.703  29.440  1.00  0.00     0.009 A 
ATOM     86  C   UNL A   1      43.495  35.007  27.154  1.00  0.00     0.009 A 
ATOM     87  C   UNL A   1      43.670  37.035  29.013  1.00  0.00     0.001 A 
ATOM     88  C   UNL A   1      43.666  36.326  26.724  1.00  0.00     0.001 A 
ATOM     89  C   UNL A   1      43.744  37.345  27.659  1.00  0.00     0.000 A 
ENDBRANCH  71  84
ENDBRANCH  45  46
ENDBRANCH  37  40
ENDBRANCH  35  36
ENDBRANCH  34  35
ENDBRANCH  33  34
ENDBRANCH   1  33
TORSDOF 17
ENDMDL
MODEL 3
REMARK VINA RESULT:     -12.1      3.995      9.599
REMARK SMILES Cc1ccc(-c2cc(OCC(=O)NCCCCNC(=O)c3ccc(-c4c5nc(c(-c6ccccc6)c6ccc([nH]6)c(-c6ccccc6)c6nc(c(-c7ccccc7)c7ccc4[nH]7)C=C6)C=C5)cc3)nc(NCc3ccc4c(c3)OCO4)n2)cc1
REMARK SMILES IDX 14 1 13 2 11 3 12 4 10 6 9 7 8 8 6 9 7 10 82 11 70 12 69 13
REMARK SMILES IDX 5 14 1 15 2 16 3 17 84 18 4 19 83 20 71 21 72 23 73 24 74 25
REMARK SMILES IDX 78 26 75 27 77 28 76 29 79 30 81 31 80 32 15 33 16 34 17 35
REMARK SMILES IDX 18 36 19 37 20 39 21 40 22 41 68 42 23 43 67 44 24 45 25 46
REMARK SMILES IDX 26 47 61 48 27 49 66 50 60 51 62 52 28 53 65 54 59 55 58 56
REMARK SMILES IDX 29 58 51 59 36 60 50 61 37 62 40 63 49 64 63 65 38 66 39 67
REMARK SMILES IDX 48 69 64 70 41 71 30 72 31 73 35 74 32 75 34 76 33 77 52 78
REMARK SMILES IDX 53 79 57 80 54 81 56 82 55 83 42 84 43 85 47 86 44 87 46 88
REMARK SMILES IDX 45 89
REMARK H PARENT 13 5 71 22 18 38 62 57 40 68
REMARK Flexibility Score: inf
ROOT
ATOM      1  C   UNL A   1      36.162  22.036  24.754  1.00  0.00     0.116 C 
ENDROOT
BRANCH   1   2
ATOM      2  N   UNL A   1      35.603  22.872  23.705  1.00  0.00    -0.353 N 
ATOM      3  C   UNL A   1      35.081  24.129  23.797  1.00  0.00     0.258 C 
ATOM      4  O   UNL A   1      34.677  24.680  22.771  1.00  0.00    -0.271 OA
ATOM      5  H   UNL A   1      35.601  22.477  22.803  1.00  0.00     0.163 HD
BRANCH   3   6
ATOM      6  C   UNL A   1      35.013  24.834  25.156  1.00  0.00     0.331 C 
BRANCH   6   7
ATOM      7  O   UNL A   1      33.787  24.736  25.856  1.00  0.00    -0.467 OA
BRANCH   7   8
ATOM      8  C   UNL A   1      32.637  24.875  25.131  1.00  0.00     0.219 A 
ATOM      9  C   UNL A   1      30.808  25.971  24.190  1.00  0.00     0.080 A 
ATOM     10  C   UNL A   1      31.909  26.028  25.018  1.00  0.00     0.097 A 
ATOM     11  N   UNL A   1      30.422  24.838  23.568  1.00  0.00    -0.213 NA
ATOM     12  C   UNL A   1      31.192  23.760  23.742  1.00  0.00     0.226 A 
ATOM     13  N   UNL A   1      32.292  23.743  24.501  1.00  0.00    -0.177 NA
BRANCH   9  14
ATOM     14  C   UNL A   1      30.040  27.182  23.890  1.00  0.00     0.000 A 
ATOM     15  C   UNL A   1      27.789  30.697  22.755  1.00  0.00     0.044 C 
ATOM     16  C   UNL A   1      28.558  29.478  23.170  1.00  0.00    -0.051 A 
ATOM     17  C   UNL A   1      29.905  29.585  23.535  1.00  0.00     0.004 A 
ATOM     18  C   UNL A   1      27.950  28.220  23.179  1.00  0.00     0.004 A 
ATOM     19  C   UNL A   1      30.637  28.448  23.900  1.00  0.00     0.010 A 
ATOM     20  C   UNL A   1      28.684  27.087  23.533  1.00  0.00     0.010 A 
ENDBRANCH   9  14
BRANCH  12  21
ATOM     21  N   UNL A   1      30.916  22.581  23.102  1.00  0.00    -0.350 N 
ATOM     22  H   UNL A   1      30.004  22.213  23.144  1.00  0.00     0.164 HD
BRANCH  21  23
ATOM     23  C   UNL A   1      31.929  21.869  22.369  1.00  0.00     0.152 C 
BRANCH  23  24
ATOM     24  C   UNL A   1      32.179  20.468  22.901  1.00  0.00    -0.025 A 
ATOM     25  C   UNL A   1      32.220  19.393  21.977  1.00  0.00     0.009 A 
ATOM     26  C   UNL A   1      32.389  20.197  24.266  1.00  0.00     0.056 A 
ATOM     27  C   UNL A   1      32.415  18.074  22.402  1.00  0.00     0.051 A 
ATOM     28  C   UNL A   1      32.554  18.885  24.657  1.00  0.00     0.166 A 
ATOM     29  C   UNL A   1      32.559  17.853  23.754  1.00  0.00     0.165 A 
ATOM     30  O   UNL A   1      32.701  18.454  25.940  1.00  0.00    -0.454 OA
ATOM     31  O   UNL A   1      32.702  16.641  24.355  1.00  0.00    -0.454 OA
ATOM     32  C   UNL A   1      32.640  17.028  25.744  1.00  0.00     0.468 C 
ENDBRANCH  23  24
ENDBRANCH  21  23
ENDBRANCH  12  21
ENDBRANCH   7   8
ENDBRANCH   6   7
ENDBRANCH   3   6
ENDBRANCH   1   2
BRANCH   1  33
ATOM     33  C   UNL A   1      37.601  22.401  25.141  1.00  0.00     0.023 C 
BRANCH  33  34
ATOM     34  C   UNL A   1      38.393  21.323  25.884  1.00  0.00     0.023 C 
BRANCH  34  35
ATOM     35  C   UNL A   1      39.847  21.679  26.153  1.00  0.00     0.116 C 
BRANCH  35  36
ATOM     36  N   UNL A   1      40.799  20.596  25.949  1.00  0.00    -0.352 N 
ATOM     37  C   UNL A   1      42.169  20.561  26.170  1.00  0.00     0.251 C 
ATOM     38  H   UNL A   1      40.410  19.760  25.603  1.00  0.00     0.163 HD
ATOM     39  O   UNL A   1      42.809  19.579  25.840  1.00  0.00    -0.269 OA
BRANCH  37  40
ATOM     40  C   UNL A   1      42.832  21.653  26.938  1.00  0.00     0.039 A 
ATOM     41  C   UNL A   1      42.606  21.703  28.320  1.00  0.00     0.014 A 
ATOM     42  C   UNL A   1      43.468  22.715  26.308  1.00  0.00     0.014 A 
ATOM     43  C   UNL A   1      42.756  22.911  28.997  1.00  0.00     0.010 A 
ATOM     44  C   UNL A   1      43.506  23.940  26.940  1.00  0.00     0.010 A 
ATOM     45  C   UNL A   1      43.081  24.049  28.265  1.00  0.00    -0.014 A 
BRANCH  45  46
ATOM     46  C   UNL A   1      42.864  25.406  28.745  1.00  0.00     0.031 A 
ATOM     47  C   UNL A   1      41.693  26.185  28.309  1.00  0.00     0.074 A 
ATOM     48  C   UNL A   1      43.698  25.915  29.677  1.00  0.00     0.049 A 
ATOM     49  N   UNL A   1      41.647  27.474  28.309  1.00  0.00    -0.248 NA
ATOM     50  C   UNL A   1      40.478  25.561  27.797  1.00  0.00     0.031 C 
ATOM     51  C   UNL A   1      43.501  27.102  30.505  1.00  0.00     0.029 A 
ATOM     52  N   UNL A   1      45.010  25.551  29.926  1.00  0.00    -0.354 N 
ATOM     53  C   UNL A   1      40.334  27.831  28.117  1.00  0.00     0.074 A 
ATOM     54  C   UNL A   1      39.666  26.618  27.708  1.00  0.00     0.031 C 
ATOM     55  C   UNL A   1      44.692  27.503  30.982  1.00  0.00     0.029 A 
ATOM     56  C   UNL A   1      45.712  26.683  30.350  1.00  0.00     0.049 A 
ATOM     57  H   UNL A   1      45.387  24.648  29.821  1.00  0.00     0.167 HD
ATOM     58  C   UNL A   1      39.916  29.074  28.485  1.00  0.00     0.031 A 
ATOM     59  C   UNL A   1      46.752  27.174  29.610  1.00  0.00     0.031 A 
ATOM     60  C   UNL A   1      41.012  29.890  29.006  1.00  0.00     0.049 A 
ATOM     61  C   UNL A   1      46.507  28.569  29.071  1.00  0.00     0.074 A 
ATOM     62  C   UNL A   1      41.401  30.232  30.291  1.00  0.00     0.029 A 
ATOM     63  N   UNL A   1      42.071  30.227  28.173  1.00  0.00    -0.354 N 
ATOM     64  N   UNL A   1      45.330  29.126  28.993  1.00  0.00    -0.248 NA
ATOM     65  C   UNL A   1      47.562  29.434  28.549  1.00  0.00     0.031 C 
ATOM     66  C   UNL A   1      42.725  30.738  30.231  1.00  0.00     0.029 A 
ATOM     67  C   UNL A   1      43.128  30.725  28.909  1.00  0.00     0.049 A 
ATOM     68  H   UNL A   1      42.068  30.127  27.193  1.00  0.00     0.167 HD
ATOM     69  C   UNL A   1      45.442  30.378  28.441  1.00  0.00     0.074 A 
ATOM     70  C   UNL A   1      46.863  30.526  28.187  1.00  0.00     0.031 C 
ATOM     71  C   UNL A   1      44.347  31.171  28.242  1.00  0.00     0.031 A 
BRANCH  58  72
ATOM     72  C   UNL A   1      38.458  29.419  28.664  1.00  0.00    -0.014 A 
ATOM     73  C   UNL A   1      37.848  29.244  29.920  1.00  0.00     0.009 A 
ATOM     74  C   UNL A   1      37.620  29.869  27.629  1.00  0.00     0.009 A 
ATOM     75  C   UNL A   1      36.468  29.400  30.105  1.00  0.00     0.001 A 
ATOM     76  C   UNL A   1      36.233  29.985  27.794  1.00  0.00     0.001 A 
ATOM     77  C   UNL A   1      35.655  29.737  29.032  1.00  0.00     0.000 A 
ENDBRANCH  58  72
BRANCH  59  78
ATOM     78  C   UNL A   1      47.524  26.113  28.900  1.00  0.00    -0.014 A 
ATOM     79  C   UNL A   1      47.280  25.926  27.524  1.00  0.00     0.009 A 
ATOM     80  C   UNL A   1      48.707  25.595  29.446  1.00  0.00     0.009 A 
ATOM     81  C   UNL A   1      48.249  25.355  26.694  1.00  0.00     0.001 A 
ATOM     82  C   UNL A   1      49.669  25.007  28.612  1.00  0.00     0.001 A 
ATOM     83  C   UNL A   1      49.457  24.924  27.236  1.00  0.00     0.000 A 
ENDBRANCH  59  78
BRANCH  71  84
ATOM     84  C   UNL A   1      44.284  32.472  27.470  1.00  0.00    -0.014 A 
ATOM     85  C   UNL A   1      44.483  32.600  26.092  1.00  0.00     0.009 A 
ATOM     86  C   UNL A   1      43.884  33.646  28.156  1.00  0.00     0.009 A 
ATOM     87  C   UNL A   1      44.323  33.834  25.441  1.00  0.00     0.001 A 
ATOM     88  C   UNL A   1      43.678  34.865  27.506  1.00  0.00     0.001 A 
ATOM     89  C   UNL A   1      43.909  34.961  26.143  1.00  0.00     0.000 A 
ENDBRANCH  71  84
ENDBRANCH  45  46
ENDBRANCH  37  40
ENDBRANCH  35  36
ENDBRANCH  34  35
ENDBRANCH  33  34
ENDBRANCH   1  33
TORSDOF 17
ENDMDL
