MODEL 1
REMARK VINA RESULT:     -11.9      0.000      0.000
REMARK SMILES C[C@@]1(CN2C(=O)c3ccc(C(=O)NCCCCNC(=O)c4ccc(-c5c6nc(c(-c7ccccc7)c7ccc([nH]7)c(-c7ccccc7)c7nc(c(-c8ccccc8)c8ccc5[nH]8)C=C7)C=C6)cc4)cc3C2=O)CCCO1
REMARK SMILES IDX 15 1 14 2 13 3 11 4 12 5 10 7 4 8 5 9 71 10 6 11 7 12 70 13
REMARK SMILES IDX 72 14 8 15 69 16 9 17 3 18 2 19 1 20 73 21 76 22 74 23 75 24
REMARK SMILES IDX 16 25 17 26 18 27 19 28 20 30 21 31 22 32 68 33 23 34 67 35
REMARK SMILES IDX 24 36 25 37 26 38 61 39 27 40 66 41 60 42 62 43 28 44 65 45
REMARK SMILES IDX 59 46 58 47 29 49 51 50 36 51 50 52 37 53 40 54 49 55 63 56
REMARK SMILES IDX 38 57 39 58 48 60 64 61 41 62 30 63 31 64 35 65 32 66 34 67
REMARK SMILES IDX 33 68 52 69 53 70 57 71 54 72 56 73 55 74 42 75 43 76 47 77
REMARK SMILES IDX 44 78 46 79 45 80
REMARK H PARENT 13 6 18 29 62 48 40 59
REMARK Flexibility Score: inf
ROOT
ATOM      1  C   UNL A   1      35.642  21.446  25.846  1.00  0.00     0.023 C 
ENDROOT
BRANCH   1   2
ATOM      2  C   UNL A   1      35.567  20.184  24.981  1.00  0.00     0.116 C 
BRANCH   2   3
ATOM      3  N   UNL A   1      34.357  19.440  25.262  1.00  0.00    -0.352 N 
ATOM      4  C   UNL A   1      33.028  19.745  25.127  1.00  0.00     0.251 C 
ATOM      5  O   UNL A   1      32.218  18.867  25.425  1.00  0.00    -0.269 OA
ATOM      6  H   UNL A   1      34.522  18.539  25.622  1.00  0.00     0.163 HD
BRANCH   4   7
ATOM      7  C   UNL A   1      32.511  21.055  24.625  1.00  0.00     0.040 A 
ATOM      8  N   UNL A   1      30.881  25.354  24.991  1.00  0.00    -0.271 N 
ATOM      9  C   UNL A   1      31.156  24.931  23.724  1.00  0.00     0.261 C 
ATOM     10  C   UNL A   1      31.194  24.398  25.925  1.00  0.00     0.261 C 
ATOM     11  O   UNL A   1      31.102  25.540  22.671  1.00  0.00    -0.269 OA
ATOM     12  C   UNL A   1      31.606  23.553  23.836  1.00  0.00     0.053 A 
ATOM     13  C   UNL A   1      31.643  23.222  25.175  1.00  0.00     0.054 A 
ATOM     14  O   UNL A   1      31.187  24.467  27.137  1.00  0.00    -0.269 OA
ATOM     15  C   UNL A   1      32.008  22.681  22.851  1.00  0.00     0.015 A 
ATOM     16  C   UNL A   1      32.089  21.984  25.601  1.00  0.00     0.028 A 
ATOM     17  C   UNL A   1      32.484  21.433  23.262  1.00  0.00     0.015 A 
BRANCH   8  18
ATOM     18  C   UNL A   1      30.406  26.690  25.306  1.00  0.00     0.164 C 
BRANCH  18  19
ATOM     19  C   UNL A   1      31.525  27.675  25.750  1.00  0.00     0.084 C 
ATOM     20  C   UNL A   1      31.542  27.928  27.257  1.00  0.00     0.044 C 
ATOM     21  C   UNL A   1      31.401  28.999  24.987  1.00  0.00     0.039 C 
ATOM     22  O   UNL A   1      32.808  27.129  25.375  1.00  0.00    -0.373 OA
ATOM     23  C   UNL A   1      32.212  28.745  23.741  1.00  0.00     0.031 C 
ATOM     24  C   UNL A   1      33.328  27.866  24.260  1.00  0.00     0.161 C 
ENDBRANCH  18  19
ENDBRANCH   8  18
ENDBRANCH   4   7
ENDBRANCH   2   3
ENDBRANCH   1   2
BRANCH   1  25
ATOM     25  C   UNL A   1      35.732  22.750  25.051  1.00  0.00     0.023 C 
BRANCH  25  26
ATOM     26  C   UNL A   1      37.045  23.510  25.209  1.00  0.00     0.116 C 
BRANCH  26  27
ATOM     27  N   UNL A   1      38.186  22.641  25.454  1.00  0.00    -0.352 N 
ATOM     28  C   UNL A   1      39.353  22.923  26.120  1.00  0.00     0.251 C 
ATOM     29  H   UNL A   1      38.112  21.728  25.095  1.00  0.00     0.163 HD
ATOM     30  O   UNL A   1      40.267  22.106  26.140  1.00  0.00    -0.269 OA
BRANCH  28  31
ATOM     31  C   UNL A   1      39.516  24.237  26.773  1.00  0.00     0.039 A 
ATOM     32  C   UNL A   1      38.966  24.423  28.042  1.00  0.00     0.014 A 
ATOM     33  C   UNL A   1      40.232  25.265  26.155  1.00  0.00     0.014 A 
ATOM     34  C   UNL A   1      39.191  25.622  28.720  1.00  0.00     0.010 A 
ATOM     35  C   UNL A   1      40.523  26.428  26.862  1.00  0.00     0.010 A 
ATOM     36  C   UNL A   1      40.006  26.617  28.151  1.00  0.00    -0.014 A 
BRANCH  36  37
ATOM     37  C   UNL A   1      40.342  27.841  28.919  1.00  0.00     0.031 A 
ATOM     38  C   UNL A   1      41.672  27.974  29.607  1.00  0.00     0.074 A 
ATOM     39  C   UNL A   1      39.426  28.823  29.022  1.00  0.00     0.049 A 
ATOM     40  N   UNL A   1      42.148  28.988  30.285  1.00  0.00    -0.248 NA
ATOM     41  C   UNL A   1      42.575  26.815  29.547  1.00  0.00     0.031 C 
ATOM     42  C   UNL A   1      38.078  28.786  28.450  1.00  0.00     0.029 A 
ATOM     43  N   UNL A   1      39.492  30.048  29.635  1.00  0.00    -0.354 N 
ATOM     44  C   UNL A   1      43.400  28.588  30.735  1.00  0.00     0.074 A 
ATOM     45  C   UNL A   1      43.586  27.220  30.303  1.00  0.00     0.031 C 
ATOM     46  C   UNL A   1      37.463  29.953  28.698  1.00  0.00     0.029 A 
ATOM     47  C   UNL A   1      38.355  30.804  29.478  1.00  0.00     0.049 A 
ATOM     48  H   UNL A   1      40.279  30.357  30.139  1.00  0.00     0.167 HD
ATOM     49  C   UNL A   1      44.321  29.302  31.424  1.00  0.00     0.031 A 
ATOM     50  C   UNL A   1      38.064  32.045  29.909  1.00  0.00     0.031 A 
ATOM     51  C   UNL A   1      44.133  30.662  31.855  1.00  0.00     0.049 A 
ATOM     52  C   UNL A   1      39.101  32.812  30.679  1.00  0.00     0.074 A 
ATOM     53  C   UNL A   1      45.028  31.493  32.506  1.00  0.00     0.029 A 
ATOM     54  N   UNL A   1      42.964  31.390  31.685  1.00  0.00    -0.354 N 
ATOM     55  N   UNL A   1      40.316  32.452  31.016  1.00  0.00    -0.248 NA
ATOM     56  C   UNL A   1      38.730  34.165  31.116  1.00  0.00     0.031 C 
ATOM     57  C   UNL A   1      44.380  32.699  32.785  1.00  0.00     0.029 A 
ATOM     58  C   UNL A   1      43.104  32.647  32.249  1.00  0.00     0.049 A 
ATOM     59  H   UNL A   1      42.155  31.060  31.231  1.00  0.00     0.167 HD
ATOM     60  C   UNL A   1      40.862  33.540  31.684  1.00  0.00     0.074 A 
ATOM     61  C   UNL A   1      39.854  34.581  31.681  1.00  0.00     0.031 C 
ATOM     62  C   UNL A   1      42.086  33.666  32.251  1.00  0.00     0.031 A 
BRANCH  49  63
ATOM     63  C   UNL A   1      45.615  28.616  31.764  1.00  0.00    -0.014 A 
ATOM     64  C   UNL A   1      45.766  27.894  32.960  1.00  0.00     0.009 A 
ATOM     65  C   UNL A   1      46.689  28.659  30.861  1.00  0.00     0.009 A 
ATOM     66  C   UNL A   1      46.976  27.263  33.261  1.00  0.00     0.001 A 
ATOM     67  C   UNL A   1      47.887  28.001  31.149  1.00  0.00     0.001 A 
ATOM     68  C   UNL A   1      48.033  27.313  32.353  1.00  0.00     0.000 A 
ENDBRANCH  49  63
BRANCH  50  69
ATOM     69  C   UNL A   1      36.741  32.648  29.602  1.00  0.00    -0.014 A 
ATOM     70  C   UNL A   1      35.683  32.558  30.521  1.00  0.00     0.009 A 
ATOM     71  C   UNL A   1      36.525  33.315  28.386  1.00  0.00     0.009 A 
ATOM     72  C   UNL A   1      34.431  33.097  30.216  1.00  0.00     0.001 A 
ATOM     73  C   UNL A   1      35.282  33.882  28.098  1.00  0.00     0.001 A 
ATOM     74  C   UNL A   1      34.234  33.764  29.008  1.00  0.00     0.000 A 
ENDBRANCH  50  69
BRANCH  62  75
ATOM     75  C   UNL A   1      42.408  34.986  32.896  1.00  0.00    -0.014 A 
ATOM     76  C   UNL A   1      41.964  35.293  34.192  1.00  0.00     0.009 A 
ATOM     77  C   UNL A   1      43.185  35.928  32.203  1.00  0.00     0.009 A 
ATOM     78  C   UNL A   1      42.256  36.534  34.764  1.00  0.00     0.001 A 
ATOM     79  C   UNL A   1      43.504  37.153  32.791  1.00  0.00     0.001 A 
ATOM     80  C   UNL A   1      43.029  37.460  34.064  1.00  0.00     0.000 A 
ENDBRANCH  62  75
ENDBRANCH  36  37
ENDBRANCH  28  31
ENDBRANCH  26  27
ENDBRANCH  25  26
ENDBRANCH   1  25
TORSDOF 13
ENDMDL
MODEL 2
REMARK VINA RESULT:     -11.8      0.368      5.895
REMARK SMILES C[C@@]1(CN2C(=O)c3ccc(C(=O)NCCCCNC(=O)c4ccc(-c5c6nc(c(-c7ccccc7)c7ccc([nH]7)c(-c7ccccc7)c7nc(c(-c8ccccc8)c8ccc5[nH]8)C=C7)C=C6)cc4)cc3C2=O)CCCO1
REMARK SMILES IDX 15 1 14 2 13 3 11 4 12 5 10 7 4 8 5 9 71 10 6 11 7 12 70 13
REMARK SMILES IDX 72 14 8 15 69 16 9 17 3 18 2 19 1 20 73 21 76 22 74 23 75 24
REMARK SMILES IDX 16 25 17 26 18 27 19 28 20 30 21 31 22 32 68 33 23 34 67 35
REMARK SMILES IDX 24 36 25 37 26 38 61 39 27 40 66 41 60 42 62 43 28 44 65 45
REMARK SMILES IDX 59 46 58 47 29 49 51 50 36 51 50 52 37 53 40 54 49 55 63 56
REMARK SMILES IDX 38 57 39 58 48 60 64 61 41 62 30 63 31 64 35 65 32 66 34 67
REMARK SMILES IDX 33 68 52 69 53 70 57 71 54 72 56 73 55 74 42 75 43 76 47 77
REMARK SMILES IDX 44 78 46 79 45 80
REMARK H PARENT 13 6 18 29 62 48 40 59
REMARK Flexibility Score: inf
ROOT
ATOM      1  C   UNL A   1      35.716  21.436  25.869  1.00  0.00     0.023 C 
ENDROOT
BRANCH   1   2
ATOM      2  C   UNL A   1      35.626  20.209  24.957  1.00  0.00     0.116 C 
BRANCH   2   3
ATOM      3  N   UNL A   1      34.429  19.444  25.242  1.00  0.00    -0.352 N 
ATOM      4  C   UNL A   1      33.095  19.732  25.122  1.00  0.00     0.251 C 
ATOM      5  O   UNL A   1      32.301  18.839  25.418  1.00  0.00    -0.269 OA
ATOM      6  H   UNL A   1      34.611  18.541  25.590  1.00  0.00     0.163 HD
BRANCH   4   7
ATOM      7  C   UNL A   1      32.554  21.039  24.639  1.00  0.00     0.040 A 
ATOM      8  N   UNL A   1      30.900  25.323  25.066  1.00  0.00    -0.271 N 
ATOM      9  C   UNL A   1      31.146  24.907  23.791  1.00  0.00     0.261 C 
ATOM     10  C   UNL A   1      31.244  24.366  25.988  1.00  0.00     0.261 C 
ATOM     11  O   UNL A   1      31.059  25.520  22.742  1.00  0.00    -0.269 OA
ATOM     12  C   UNL A   1      31.610  23.533  23.885  1.00  0.00     0.053 A 
ATOM     13  C   UNL A   1      31.684  23.196  25.220  1.00  0.00     0.054 A 
ATOM     14  O   UNL A   1      31.268  24.430  27.199  1.00  0.00    -0.269 OA
ATOM     15  C   UNL A   1      31.993  22.668  22.886  1.00  0.00     0.015 A 
ATOM     16  C   UNL A   1      32.151  21.960  25.629  1.00  0.00     0.028 A 
ATOM     17  C   UNL A   1      32.490  21.422  23.279  1.00  0.00     0.015 A 
BRANCH   8  18
ATOM     18  C   UNL A   1      30.422  26.654  25.399  1.00  0.00     0.164 C 
BRANCH  18  19
ATOM     19  C   UNL A   1      31.545  27.649  25.809  1.00  0.00     0.084 C 
ATOM     20  C   UNL A   1      31.604  27.903  27.315  1.00  0.00     0.044 C 
ATOM     21  C   UNL A   1      31.387  28.971  25.050  1.00  0.00     0.039 C 
ATOM     22  O   UNL A   1      32.821  27.114  25.396  1.00  0.00    -0.373 OA
ATOM     23  C   UNL A   1      32.162  28.723  23.780  1.00  0.00     0.031 C 
ATOM     24  C   UNL A   1      33.301  27.855  24.266  1.00  0.00     0.161 C 
ENDBRANCH  18  19
ENDBRANCH   8  18
ENDBRANCH   4   7
ENDBRANCH   2   3
ENDBRANCH   1   2
BRANCH   1  25
ATOM     25  C   UNL A   1      35.813  22.769  25.124  1.00  0.00     0.023 C 
BRANCH  25  26
ATOM     26  C   UNL A   1      37.127  23.519  25.318  1.00  0.00     0.116 C 
BRANCH  26  27
ATOM     27  N   UNL A   1      38.257  22.642  25.583  1.00  0.00    -0.352 N 
ATOM     28  C   UNL A   1      39.435  22.929  26.226  1.00  0.00     0.251 C 
ATOM     29  H   UNL A   1      38.163  21.717  25.258  1.00  0.00     0.163 HD
ATOM     30  O   UNL A   1      40.337  22.099  26.266  1.00  0.00    -0.269 OA
BRANCH  28  31
ATOM     31  C   UNL A   1      39.626  24.264  26.828  1.00  0.00     0.039 A 
ATOM     32  C   UNL A   1      39.165  24.480  28.127  1.00  0.00     0.014 A 
ATOM     33  C   UNL A   1      40.282  25.282  26.130  1.00  0.00     0.014 A 
ATOM     34  C   UNL A   1      39.422  25.701  28.752  1.00  0.00     0.010 A 
ATOM     35  C   UNL A   1      40.607  26.467  26.782  1.00  0.00     0.010 A 
ATOM     36  C   UNL A   1      40.180  26.688  28.099  1.00  0.00    -0.014 A 
BRANCH  36  37
ATOM     37  C   UNL A   1      40.554  27.938  28.806  1.00  0.00     0.031 A 
ATOM     38  C   UNL A   1      39.568  29.062  28.951  1.00  0.00     0.074 A 
ATOM     39  C   UNL A   1      41.804  28.068  29.291  1.00  0.00     0.049 A 
ATOM     40  N   UNL A   1      39.711  30.207  29.572  1.00  0.00    -0.248 NA
ATOM     41  C   UNL A   1      38.261  28.895  28.296  1.00  0.00     0.031 C 
ATOM     42  C   UNL A   1      42.870  27.071  29.161  1.00  0.00     0.029 A 
ATOM     43  N   UNL A   1      42.388  29.087  29.999  1.00  0.00    -0.354 N 
ATOM     44  C   UNL A   1      38.520  30.893  29.379  1.00  0.00     0.074 A 
ATOM     45  C   UNL A   1      37.686  30.065  28.536  1.00  0.00     0.031 C 
ATOM     46  C   UNL A   1      43.961  27.508  29.810  1.00  0.00     0.029 A 
ATOM     47  C   UNL A   1      43.687  28.828  30.366  1.00  0.00     0.049 A 
ATOM     48  H   UNL A   1      41.921  29.924  30.223  1.00  0.00     0.167 HD
ATOM     49  C   UNL A   1      38.143  32.094  29.878  1.00  0.00     0.031 A 
ATOM     50  C   UNL A   1      44.558  29.568  31.077  1.00  0.00     0.031 A 
ATOM     51  C   UNL A   1      38.975  32.918  30.715  1.00  0.00     0.049 A 
ATOM     52  C   UNL A   1      44.117  30.901  31.612  1.00  0.00     0.074 A 
ATOM     53  C   UNL A   1      38.664  34.123  31.321  1.00  0.00     0.029 A 
ATOM     54  N   UNL A   1      40.286  32.626  31.058  1.00  0.00    -0.354 N 
ATOM     55  N   UNL A   1      42.954  31.494  31.498  1.00  0.00    -0.248 NA
ATOM     56  C   UNL A   1      45.109  31.659  32.387  1.00  0.00     0.031 C 
ATOM     57  C   UNL A   1      39.807  34.589  31.977  1.00  0.00     0.029 A 
ATOM     58  C   UNL A   1      40.810  33.644  31.838  1.00  0.00     0.049 A 
ATOM     59  H   UNL A   1      40.774  31.814  30.785  1.00  0.00     0.167 HD
ATOM     60  C   UNL A   1      43.066  32.684  32.205  1.00  0.00     0.074 A 
ATOM     61  C   UNL A   1      44.402  32.714  32.765  1.00  0.00     0.031 C 
ATOM     62  C   UNL A   1      42.146  33.666  32.374  1.00  0.00     0.031 A 
BRANCH  49  63
ATOM     63  C   UNL A   1      36.770  32.593  29.520  1.00  0.00    -0.014 A 
ATOM     64  C   UNL A   1      36.540  33.304  28.331  1.00  0.00     0.009 A 
ATOM     65  C   UNL A   1      35.682  32.318  30.364  1.00  0.00     0.009 A 
ATOM     66  C   UNL A   1      35.258  33.761  28.014  1.00  0.00     0.001 A 
ATOM     67  C   UNL A   1      34.397  32.747  30.030  1.00  0.00     0.001 A 
ATOM     68  C   UNL A   1      34.187  33.478  28.861  1.00  0.00     0.000 A 
ENDBRANCH  49  63
BRANCH  50  69
ATOM     69  C   UNL A   1      45.927  29.054  31.342  1.00  0.00    -0.014 A 
ATOM     70  C   UNL A   1      46.985  29.352  30.469  1.00  0.00     0.009 A 
ATOM     71  C   UNL A   1      46.185  28.259  32.470  1.00  0.00     0.009 A 
ATOM     72  C   UNL A   1      48.263  28.840  30.703  1.00  0.00     0.001 A 
ATOM     73  C   UNL A   1      47.470  27.776  32.720  1.00  0.00     0.001 A 
ATOM     74  C   UNL A   1      48.506  28.059  31.831  1.00  0.00     0.000 A 
ENDBRANCH  50  69
BRANCH  62  75
ATOM     75  C   UNL A   1      42.551  34.844  33.217  1.00  0.00    -0.014 A 
ATOM     76  C   UNL A   1      42.328  34.860  34.603  1.00  0.00     0.009 A 
ATOM     77  C   UNL A   1      43.185  35.944  32.618  1.00  0.00     0.009 A 
ATOM     78  C   UNL A   1      42.693  35.974  35.364  1.00  0.00     0.001 A 
ATOM     79  C   UNL A   1      43.579  37.040  33.386  1.00  0.00     0.001 A 
ATOM     80  C   UNL A   1      43.322  37.059  34.756  1.00  0.00     0.000 A 
ENDBRANCH  62  75
ENDBRANCH  36  37
ENDBRANCH  28  31
ENDBRANCH  26  27
ENDBRANCH  25  26
ENDBRANCH   1  25
TORSDOF 13
ENDMDL
MODEL 3
REMARK VINA RESULT:     -11.8      2.385      7.915
REMARK SMILES C[C@@]1(CN2C(=O)c3ccc(C(=O)NCCCCNC(=O)c4ccc(-c5c6nc(c(-c7ccccc7)c7ccc([nH]7)c(-c7ccccc7)c7nc(c(-c8ccccc8)c8ccc5[nH]8)C=C7)C=C6)cc4)cc3C2=O)CCCO1
REMARK SMILES IDX 15 1 14 2 13 3 11 4 12 5 10 7 4 8 5 9 71 10 6 11 7 12 70 13
REMARK SMILES IDX 72 14 8 15 69 16 9 17 3 18 2 19 1 20 73 21 76 22 74 23 75 24
REMARK SMILES IDX 16 25 17 26 18 27 19 28 20 30 21 31 22 32 68 33 23 34 67 35
REMARK SMILES IDX 24 36 25 37 26 38 61 39 27 40 66 41 60 42 62 43 28 44 65 45
REMARK SMILES IDX 59 46 58 47 29 49 51 50 36 51 50 52 37 53 40 54 49 55 63 56
REMARK SMILES IDX 38 57 39 58 48 60 64 61 41 62 30 63 31 64 35 65 32 66 34 67
REMARK SMILES IDX 33 68 52 69 53 70 57 71 54 72 56 73 55 74 42 75 43 76 47 77
REMARK SMILES IDX 44 78 46 79 45 80
REMARK H PARENT 13 6 18 29 62 48 40 59
REMARK Flexibility Score: inf
ROOT
ATOM      1  C   UNL A   1      32.482  29.677  25.074  1.00  0.00     0.023 C 
ENDROOT
BRANCH   1   2
ATOM      2  C   UNL A   1      31.028  30.152  24.993  1.00  0.00     0.116 C 
BRANCH   2   3
ATOM      3  N   UNL A   1      30.544  30.092  23.629  1.00  0.00    -0.352 N 
ATOM      4  C   UNL A   1      30.286  29.047  22.781  1.00  0.00     0.251 C 
ATOM      5  O   UNL A   1      29.838  29.325  21.669  1.00  0.00    -0.269 OA
ATOM      6  H   UNL A   1      30.366  30.976  23.234  1.00  0.00     0.163 HD
BRANCH   4   7
ATOM      7  C   UNL A   1      30.495  27.608  23.130  1.00  0.00     0.040 A 
ATOM      8  N   UNL A   1      32.745  23.584  23.217  1.00  0.00    -0.271 N 
ATOM      9  C   UNL A   1      31.612  23.645  23.973  1.00  0.00     0.261 C 
ATOM     10  C   UNL A   1      33.011  24.781  22.601  1.00  0.00     0.261 C 
ATOM     11  O   UNL A   1      31.133  22.817  24.727  1.00  0.00    -0.269 OA
ATOM     12  C   UNL A   1      31.045  24.967  23.764  1.00  0.00     0.053 A 
ATOM     13  C   UNL A   1      31.896  25.672  22.938  1.00  0.00     0.054 A 
ATOM     14  O   UNL A   1      33.979  25.122  21.954  1.00  0.00    -0.269 OA
ATOM     15  C   UNL A   1      29.910  25.527  24.301  1.00  0.00     0.015 A 
ATOM     16  C   UNL A   1      31.650  26.991  22.603  1.00  0.00     0.028 A 
ATOM     17  C   UNL A   1      29.655  26.867  23.993  1.00  0.00     0.015 A 
BRANCH   8  18
ATOM     18  C   UNL A   1      33.609  22.417  23.157  1.00  0.00     0.164 C 
BRANCH  18  19
ATOM     19  C   UNL A   1      34.844  22.490  24.099  1.00  0.00     0.084 C 
ATOM     20  C   UNL A   1      36.137  22.855  23.369  1.00  0.00     0.044 C 
ATOM     21  C   UNL A   1      35.014  21.170  24.859  1.00  0.00     0.039 C 
ATOM     22  O   UNL A   1      34.605  23.493  25.110  1.00  0.00    -0.373 OA
ATOM     23  C   UNL A   1      34.154  21.375  26.081  1.00  0.00     0.031 C 
ATOM     24  C   UNL A   1      34.346  22.847  26.364  1.00  0.00     0.161 C 
ENDBRANCH  18  19
ENDBRANCH   8  18
ENDBRANCH   4   7
ENDBRANCH   2   3
ENDBRANCH   1   2
BRANCH   1  25
ATOM     25  C   UNL A   1      32.694  28.448  25.962  1.00  0.00     0.023 C 
BRANCH  25  26
ATOM     26  C   UNL A   1      33.466  28.712  27.250  1.00  0.00     0.116 C 
BRANCH  26  27
ATOM     27  N   UNL A   1      33.472  30.113  27.641  1.00  0.00    -0.352 N 
ATOM     28  C   UNL A   1      34.482  30.840  28.220  1.00  0.00     0.251 C 
ATOM     29  H   UNL A   1      32.638  30.607  27.468  1.00  0.00     0.163 HD
ATOM     30  O   UNL A   1      34.282  31.992  28.592  1.00  0.00    -0.269 OA
BRANCH  28  31
ATOM     31  C   UNL A   1      35.800  30.209  28.433  1.00  0.00     0.039 A 
ATOM     32  C   UNL A   1      36.718  30.213  27.382  1.00  0.00     0.014 A 
ATOM     33  C   UNL A   1      36.138  29.647  29.667  1.00  0.00     0.014 A 
ATOM     34  C   UNL A   1      38.003  29.711  27.591  1.00  0.00     0.010 A 
ATOM     35  C   UNL A   1      37.442  29.220  29.897  1.00  0.00     0.010 A 
ATOM     36  C   UNL A   1      38.387  29.248  28.861  1.00  0.00    -0.014 A 
BRANCH  36  37
ATOM     37  C   UNL A   1      39.786  28.825  29.115  1.00  0.00     0.031 A 
ATOM     38  C   UNL A   1      40.753  29.743  29.806  1.00  0.00     0.074 A 
ATOM     39  C   UNL A   1      40.192  27.613  28.686  1.00  0.00     0.049 A 
ATOM     40  N   UNL A   1      41.999  29.522  30.145  1.00  0.00    -0.248 NA
ATOM     41  C   UNL A   1      40.271  31.092  30.142  1.00  0.00     0.031 C 
ATOM     42  C   UNL A   1      39.364  26.655  27.950  1.00  0.00     0.029 A 
ATOM     43  N   UNL A   1      41.400  26.977  28.817  1.00  0.00    -0.354 N 
ATOM     44  C   UNL A   1      42.449  30.700  30.726  1.00  0.00     0.074 A 
ATOM     45  C   UNL A   1      41.363  31.653  30.642  1.00  0.00     0.031 C 
ATOM     46  C   UNL A   1      40.073  25.535  27.736  1.00  0.00     0.029 A 
ATOM     47  C   UNL A   1      41.414  25.710  28.283  1.00  0.00     0.049 A 
ATOM     48  H   UNL A   1      42.182  27.388  29.251  1.00  0.00     0.167 HD
ATOM     49  C   UNL A   1      43.648  30.959  31.300  1.00  0.00     0.031 A 
ATOM     50  C   UNL A   1      42.395  24.789  28.244  1.00  0.00     0.031 A 
ATOM     51  C   UNL A   1      44.727  30.011  31.379  1.00  0.00     0.049 A 
ATOM     52  C   UNL A   1      43.719  25.105  28.880  1.00  0.00     0.074 A 
ATOM     53  C   UNL A   1      45.959  30.156  31.992  1.00  0.00     0.029 A 
ATOM     54  N   UNL A   1      44.706  28.742  30.820  1.00  0.00    -0.354 N 
ATOM     55  N   UNL A   1      44.096  26.192  29.508  1.00  0.00    -0.248 NA
ATOM     56  C   UNL A   1      44.748  24.059  28.813  1.00  0.00     0.031 C 
ATOM     57  C   UNL A   1      46.706  28.999  31.750  1.00  0.00     0.029 A 
ATOM     58  C   UNL A   1      45.916  28.106  31.044  1.00  0.00     0.049 A 
ATOM     59  H   UNL A   1      43.943  28.351  30.334  1.00  0.00     0.167 HD
ATOM     60  C   UNL A   1      45.397  25.953  29.931  1.00  0.00     0.074 A 
ATOM     61  C   UNL A   1      45.732  24.608  29.510  1.00  0.00     0.031 C 
ATOM     62  C   UNL A   1      46.240  26.773  30.605  1.00  0.00     0.031 A 
BRANCH  49  63
ATOM     63  C   UNL A   1      43.857  32.332  31.877  1.00  0.00    -0.014 A 
ATOM     64  C   UNL A   1      43.547  32.615  33.218  1.00  0.00     0.009 A 
ATOM     65  C   UNL A   1      44.406  33.350  31.082  1.00  0.00     0.009 A 
ATOM     66  C   UNL A   1      43.746  33.896  33.737  1.00  0.00     0.001 A 
ATOM     67  C   UNL A   1      44.635  34.621  31.612  1.00  0.00     0.001 A 
ATOM     68  C   UNL A   1      44.295  34.896  32.936  1.00  0.00     0.000 A 
ENDBRANCH  49  63
BRANCH  50  69
ATOM     69  C   UNL A   1      42.154  23.473  27.598  1.00  0.00    -0.014 A 
ATOM     70  C   UNL A   1      41.524  22.434  28.303  1.00  0.00     0.009 A 
ATOM     71  C   UNL A   1      42.556  23.244  26.273  1.00  0.00     0.009 A 
ATOM     72  C   UNL A   1      41.328  21.188  27.703  1.00  0.00     0.001 A 
ATOM     73  C   UNL A   1      42.329  22.008  25.665  1.00  0.00     0.001 A 
ATOM     74  C   UNL A   1      41.725  20.978  26.384  1.00  0.00     0.000 A 
ENDBRANCH  50  69
BRANCH  62  75
ATOM     75  C   UNL A   1      47.598  26.226  30.946  1.00  0.00    -0.014 A 
ATOM     76  C   UNL A   1      47.876  25.703  32.219  1.00  0.00     0.009 A 
ATOM     77  C   UNL A   1      48.609  26.214  29.972  1.00  0.00     0.009 A 
ATOM     78  C   UNL A   1      49.151  25.219  32.521  1.00  0.00     0.001 A 
ATOM     79  C   UNL A   1      49.872  25.698  30.266  1.00  0.00     0.001 A 
ATOM     80  C   UNL A   1      50.145  25.213  31.543  1.00  0.00     0.000 A 
ENDBRANCH  62  75
ENDBRANCH  36  37
ENDBRANCH  28  31
ENDBRANCH  26  27
ENDBRANCH  25  26
ENDBRANCH   1  25
TORSDOF 13
ENDMDL
