MODEL 1
REMARK VINA RESULT:     -10.7      0.000      0.000
REMARK SMILES [NH3+][C@H](Cc1ccc(O)c(F)c1)C(=O)NCCCCNC(=O)c1ccc(-c2c3nc(c(-c4ccccc4)c4ccc([nH]4)c(-c4ccccc4)c4nc(c(-c5ccccc5)c5ccc2[nH]5)C=C4)C=C3)cc1
REMARK SMILES IDX 16 1 15 2 14 3 12 4 13 5 2 7 1 8 3 12 4 13 5 14 11 15 6 16
REMARK SMILES IDX 9 17 7 18 10 19 8 20 17 22 18 23 19 24 20 25 21 27 22 28
REMARK SMILES IDX 23 29 69 30 24 31 68 32 25 33 26 34 27 35 62 36 28 37 67 38
REMARK SMILES IDX 61 39 63 40 29 41 66 42 60 43 59 44 30 46 52 47 37 48 51 49
REMARK SMILES IDX 38 50 41 51 50 52 64 53 39 54 40 55 49 57 65 58 42 59 31 60
REMARK SMILES IDX 32 61 36 62 33 63 35 64 34 65 53 66 54 67 58 68 55 69 57 70
REMARK SMILES IDX 56 71 43 72 44 73 48 74 45 75 47 76 46 77
REMARK H PARENT 14 6 1 9 1 10 1 11 8 21 19 26 63 45 41 56
REMARK Flexibility Score: inf
ROOT
ATOM      1  C   UNL A   1      37.116  22.001  24.434  1.00  0.00     0.023 C 
ENDROOT
BRANCH   1   2
ATOM      2  C   UNL A   1      35.594  22.112  24.501  1.00  0.00     0.116 C 
BRANCH   2   3
ATOM      3  N   UNL A   1      35.105  21.670  25.787  1.00  0.00    -0.351 N 
ATOM      4  C   UNL A   1      33.852  21.387  26.234  1.00  0.00     0.278 C 
ATOM      5  O   UNL A   1      33.742  21.194  27.451  1.00  0.00    -0.268 OA
ATOM      6  H   UNL A   1      35.808  21.555  26.466  1.00  0.00     0.163 HD
BRANCH   4   7
ATOM      7  C   UNL A   1      32.608  21.293  25.317  1.00  0.00     0.275 C 
BRANCH   7   8
ATOM      8  N   UNL A   1      31.370  21.638  26.037  1.00  0.00    -0.347 N 
ATOM      9  H   UNL A   1      30.825  22.297  25.481  1.00  0.00     0.345 HD
ATOM     10  H   UNL A   1      31.607  22.066  26.933  1.00  0.00     0.345 HD
ATOM     11  H   UNL A   1      30.823  20.793  26.198  1.00  0.00     0.345 HD
ENDBRANCH   7   8
BRANCH   7  12
ATOM     12  C   UNL A   1      32.586  20.109  24.318  1.00  0.00     0.111 C 
BRANCH  12  13
ATOM     13  C   UNL A   1      33.198  18.756  24.622  1.00  0.00    -0.038 A 
ATOM     14  C   UNL A   1      34.513  18.406  24.282  1.00  0.00     0.008 A 
ATOM     15  C   UNL A   1      32.436  17.817  25.350  1.00  0.00     0.047 A 
ATOM     16  C   UNL A   1      35.009  17.120  24.533  1.00  0.00     0.049 A 
ATOM     17  C   UNL A   1      32.940  16.544  25.610  1.00  0.00     0.165 A 
ATOM     18  C   UNL A   1      34.208  16.188  25.175  1.00  0.00     0.151 A 
ATOM     19  F   UNL A   1      32.176  15.641  26.242  1.00  0.00    -0.203 F 
BRANCH  18  20
ATOM     20  O   UNL A   1      34.690  14.923  25.331  1.00  0.00    -0.505 OA
ATOM     21  H   UNL A   1      34.116  14.189  25.243  1.00  0.00     0.293 HD
ENDBRANCH  18  20
ENDBRANCH  12  13
ENDBRANCH   7  12
ENDBRANCH   4   7
ENDBRANCH   2   3
ENDBRANCH   1   2
BRANCH   1  22
ATOM     22  C   UNL A   1      37.708  20.738  25.039  1.00  0.00     0.023 C 
BRANCH  22  23
ATOM     23  C   UNL A   1      39.050  20.943  25.731  1.00  0.00     0.116 C 
BRANCH  23  24
ATOM     24  N   UNL A   1      39.937  19.784  25.701  1.00  0.00    -0.352 N 
ATOM     25  C   UNL A   1      41.258  19.715  26.086  1.00  0.00     0.251 C 
ATOM     26  H   UNL A   1      39.541  18.946  25.367  1.00  0.00     0.163 HD
ATOM     27  O   UNL A   1      41.908  18.684  25.948  1.00  0.00    -0.269 OA
BRANCH  25  28
ATOM     28  C   UNL A   1      41.908  20.933  26.611  1.00  0.00     0.039 A 
ATOM     29  C   UNL A   1      42.441  21.854  25.709  1.00  0.00     0.014 A 
ATOM     30  C   UNL A   1      41.878  21.213  27.979  1.00  0.00     0.014 A 
ATOM     31  C   UNL A   1      42.837  23.112  26.167  1.00  0.00     0.010 A 
ATOM     32  C   UNL A   1      42.180  22.494  28.416  1.00  0.00     0.010 A 
ATOM     33  C   UNL A   1      42.647  23.463  27.514  1.00  0.00    -0.014 A 
BRANCH  33  34
ATOM     34  C   UNL A   1      42.898  24.842  28.005  1.00  0.00     0.031 A 
ATOM     35  C   UNL A   1      44.280  25.246  28.435  1.00  0.00     0.074 A 
ATOM     36  C   UNL A   1      41.865  25.693  28.168  1.00  0.00     0.049 A 
ATOM     37  N   UNL A   1      44.675  26.353  29.010  1.00  0.00    -0.248 NA
ATOM     38  C   UNL A   1      45.352  24.260  28.226  1.00  0.00     0.031 C 
ATOM     39  C   UNL A   1      40.463  25.408  27.849  1.00  0.00     0.029 A 
ATOM     40  N   UNL A   1      41.836  26.975  28.660  1.00  0.00    -0.354 N 
ATOM     41  C   UNL A   1      46.028  26.179  29.268  1.00  0.00     0.074 A 
ATOM     42  C   UNL A   1      46.376  24.846  28.828  1.00  0.00     0.031 C 
ATOM     43  C   UNL A   1      39.720  26.493  28.122  1.00  0.00     0.029 A 
ATOM     44  C   UNL A   1      40.580  27.533  28.674  1.00  0.00     0.049 A 
ATOM     45  H   UNL A   1      42.640  27.449  28.974  1.00  0.00     0.167 HD
ATOM     46  C   UNL A   1      46.910  27.056  29.805  1.00  0.00     0.031 A 
ATOM     47  C   UNL A   1      40.167  28.746  29.089  1.00  0.00     0.031 A 
ATOM     48  C   UNL A   1      46.576  28.395  30.204  1.00  0.00     0.049 A 
ATOM     49  C   UNL A   1      41.171  29.715  29.646  1.00  0.00     0.074 A 
ATOM     50  C   UNL A   1      47.415  29.384  30.686  1.00  0.00     0.029 A 
ATOM     51  N   UNL A   1      45.301  28.935  30.160  1.00  0.00    -0.354 N 
ATOM     52  N   UNL A   1      42.460  29.556  29.823  1.00  0.00    -0.248 NA
ATOM     53  C   UNL A   1      40.663  31.033  30.051  1.00  0.00     0.031 C 
ATOM     54  C   UNL A   1      46.641  30.516  30.964  1.00  0.00     0.029 A 
ATOM     55  C   UNL A   1      45.327  30.242  30.616  1.00  0.00     0.049 A 
ATOM     56  H   UNL A   1      44.497  28.460  29.850  1.00  0.00     0.167 HD
ATOM     57  C   UNL A   1      42.921  30.762  30.334  1.00  0.00     0.074 A 
ATOM     58  C   UNL A   1      41.777  31.645  30.428  1.00  0.00     0.031 C 
ATOM     59  C   UNL A   1      44.181  31.107  30.695  1.00  0.00     0.031 A 
BRANCH  46  60
ATOM     60  C   UNL A   1      48.324  26.584  29.984  1.00  0.00    -0.014 A 
ATOM     61  C   UNL A   1      48.727  25.924  31.156  1.00  0.00     0.009 A 
ATOM     62  C   UNL A   1      49.263  26.787  28.961  1.00  0.00     0.009 A 
ATOM     63  C   UNL A   1      50.051  25.515  31.317  1.00  0.00     0.001 A 
ATOM     64  C   UNL A   1      50.580  26.351  29.113  1.00  0.00     0.001 A 
ATOM     65  C   UNL A   1      50.976  25.725  30.294  1.00  0.00     0.000 A 
ENDBRANCH  46  60
BRANCH  47  66
ATOM     66  C   UNL A   1      38.738  29.129  28.965  1.00  0.00    -0.014 A 
ATOM     67  C   UNL A   1      37.874  28.990  30.063  1.00  0.00     0.009 A 
ATOM     68  C   UNL A   1      38.228  29.625  27.757  1.00  0.00     0.009 A 
ATOM     69  C   UNL A   1      36.521  29.316  29.944  1.00  0.00     0.001 A 
ATOM     70  C   UNL A   1      36.879  29.972  27.648  1.00  0.00     0.001 A 
ATOM     71  C   UNL A   1      36.025  29.809  28.737  1.00  0.00     0.000 A 
ENDBRANCH  47  66
BRANCH  59  72
ATOM     72  C   UNL A   1      44.394  32.509  31.187  1.00  0.00    -0.014 A 
ATOM     73  C   UNL A   1      44.318  32.819  32.553  1.00  0.00     0.009 A 
ATOM     74  C   UNL A   1      44.716  33.522  30.271  1.00  0.00     0.009 A 
ATOM     75  C   UNL A   1      44.537  34.127  32.990  1.00  0.00     0.001 A 
ATOM     76  C   UNL A   1      44.958  34.824  30.715  1.00  0.00     0.001 A 
ATOM     77  C   UNL A   1      44.861  35.126  32.073  1.00  0.00     0.000 A 
ENDBRANCH  59  72
ENDBRANCH  33  34
ENDBRANCH  25  28
ENDBRANCH  23  24
ENDBRANCH  22  23
ENDBRANCH   1  22
TORSDOF 15
ENDMDL
MODEL 2
REMARK VINA RESULT:     -10.7      6.462     10.457
REMARK SMILES [NH3+][C@H](Cc1ccc(O)c(F)c1)C(=O)NCCCCNC(=O)c1ccc(-c2c3nc(c(-c4ccccc4)c4ccc([nH]4)c(-c4ccccc4)c4nc(c(-c5ccccc5)c5ccc2[nH]5)C=C4)C=C3)cc1
REMARK SMILES IDX 16 1 15 2 14 3 12 4 13 5 2 7 1 8 3 12 4 13 5 14 11 15 6 16
REMARK SMILES IDX 9 17 7 18 10 19 8 20 17 22 18 23 19 24 20 25 21 27 22 28
REMARK SMILES IDX 23 29 69 30 24 31 68 32 25 33 26 34 27 35 62 36 28 37 67 38
REMARK SMILES IDX 61 39 63 40 29 41 66 42 60 43 59 44 30 46 52 47 37 48 51 49
REMARK SMILES IDX 38 50 41 51 50 52 64 53 39 54 40 55 49 57 65 58 42 59 31 60
REMARK SMILES IDX 32 61 36 62 33 63 35 64 34 65 53 66 54 67 58 68 55 69 57 70
REMARK SMILES IDX 56 71 43 72 44 73 48 74 45 75 47 76 46 77
REMARK H PARENT 14 6 1 9 1 10 1 11 8 21 19 26 63 45 41 56
REMARK Flexibility Score: inf
ROOT
ATOM      1  C   UNL A   1      31.811  30.405  26.497  1.00  0.00     0.023 C 
ENDROOT
BRANCH   1   2
ATOM      2  C   UNL A   1      31.563  29.748  25.141  1.00  0.00     0.116 C 
BRANCH   2   3
ATOM      3  N   UNL A   1      31.399  28.319  25.286  1.00  0.00    -0.351 N 
ATOM      4  C   UNL A   1      30.743  27.399  24.530  1.00  0.00     0.278 C 
ATOM      5  O   UNL A   1      30.646  26.266  25.019  1.00  0.00    -0.268 OA
ATOM      6  H   UNL A   1      31.844  27.944  26.079  1.00  0.00     0.163 HD
BRANCH   4   7
ATOM      7  C   UNL A   1      30.141  27.696  23.135  1.00  0.00     0.275 C 
BRANCH   7   8
ATOM      8  N   UNL A   1      31.165  28.161  22.184  1.00  0.00    -0.347 N 
ATOM      9  H   UNL A   1      31.675  28.946  22.590  1.00  0.00     0.345 HD
ATOM     10  H   UNL A   1      30.714  28.460  21.319  1.00  0.00     0.345 HD
ATOM     11  H   UNL A   1      31.814  27.401  21.984  1.00  0.00     0.345 HD
ENDBRANCH   7   8
BRANCH   7  12
ATOM     12  C   UNL A   1      28.748  28.377  23.126  1.00  0.00     0.111 C 
BRANCH  12  13
ATOM     13  C   UNL A   1      28.530  29.814  22.695  1.00  0.00    -0.038 A 
ATOM     14  C   UNL A   1      28.689  30.913  23.553  1.00  0.00     0.008 A 
ATOM     15  C   UNL A   1      28.222  30.075  21.343  1.00  0.00     0.047 A 
ATOM     16  C   UNL A   1      28.416  32.216  23.118  1.00  0.00     0.049 A 
ATOM     17  C   UNL A   1      27.965  31.375  20.912  1.00  0.00     0.165 A 
ATOM     18  C   UNL A   1      28.031  32.436  21.804  1.00  0.00     0.151 A 
ATOM     19  F   UNL A   1      27.606  31.598  19.640  1.00  0.00    -0.203 F 
BRANCH  18  20
ATOM     20  O   UNL A   1      27.694  33.704  21.435  1.00  0.00    -0.505 OA
ATOM     21  H   UNL A   1      27.365  33.869  20.574  1.00  0.00     0.293 HD
ENDBRANCH  18  20
ENDBRANCH  12  13
ENDBRANCH   7  12
ENDBRANCH   4   7
ENDBRANCH   2   3
ENDBRANCH   1   2
BRANCH   1  22
ATOM     22  C   UNL A   1      31.286  31.824  26.643  1.00  0.00     0.023 C 
BRANCH  22  23
ATOM     23  C   UNL A   1      32.358  32.903  26.551  1.00  0.00     0.116 C 
BRANCH  23  24
ATOM     24  N   UNL A   1      32.154  34.045  27.437  1.00  0.00    -0.352 N 
ATOM     25  C   UNL A   1      32.944  34.456  28.489  1.00  0.00     0.251 C 
ATOM     26  H   UNL A   1      31.353  34.590  27.260  1.00  0.00     0.163 HD
ATOM     27  O   UNL A   1      32.618  35.403  29.196  1.00  0.00    -0.269 OA
BRANCH  25  28
ATOM     28  C   UNL A   1      34.168  33.689  28.798  1.00  0.00     0.039 A 
ATOM     29  C   UNL A   1      35.408  34.311  28.649  1.00  0.00     0.014 A 
ATOM     30  C   UNL A   1      34.076  32.408  29.346  1.00  0.00     0.014 A 
ATOM     31  C   UNL A   1      36.550  33.693  29.161  1.00  0.00     0.010 A 
ATOM     32  C   UNL A   1      35.195  31.842  29.939  1.00  0.00     0.010 A 
ATOM     33  C   UNL A   1      36.441  32.485  29.869  1.00  0.00    -0.014 A 
BRANCH  33  34
ATOM     34  C   UNL A   1      37.602  31.883  30.572  1.00  0.00     0.031 A 
ATOM     35  C   UNL A   1      38.430  30.831  29.888  1.00  0.00     0.074 A 
ATOM     36  C   UNL A   1      37.844  32.201  31.859  1.00  0.00     0.049 A 
ATOM     37  N   UNL A   1      39.397  30.096  30.376  1.00  0.00    -0.248 NA
ATOM     38  C   UNL A   1      38.101  30.540  28.484  1.00  0.00     0.031 C 
ATOM     39  C   UNL A   1      37.080  33.160  32.662  1.00  0.00     0.029 A 
ATOM     40  N   UNL A   1      38.801  31.735  32.727  1.00  0.00    -0.354 N 
ATOM     41  C   UNL A   1      39.761  29.231  29.353  1.00  0.00     0.074 A 
ATOM     42  C   UNL A   1      38.884  29.501  28.236  1.00  0.00     0.031 C 
ATOM     43  C   UNL A   1      37.619  33.235  33.890  1.00  0.00     0.029 A 
ATOM     44  C   UNL A   1      38.735  32.301  33.978  1.00  0.00     0.049 A 
ATOM     45  H   UNL A   1      39.471  31.058  32.477  1.00  0.00     0.167 HD
ATOM     46  C   UNL A   1      40.751  28.307  29.336  1.00  0.00     0.031 A 
ATOM     47  C   UNL A   1      39.488  32.088  35.074  1.00  0.00     0.031 A 
ATOM     48  C   UNL A   1      41.651  28.065  30.430  1.00  0.00     0.049 A 
ATOM     49  C   UNL A   1      40.604  31.084  35.018  1.00  0.00     0.074 A 
ATOM     50  C   UNL A   1      42.734  27.205  30.480  1.00  0.00     0.029 A 
ATOM     51  N   UNL A   1      41.577  28.692  31.662  1.00  0.00    -0.354 N 
ATOM     52  N   UNL A   1      40.976  30.320  34.021  1.00  0.00    -0.248 NA
ATOM     53  C   UNL A   1      41.408  30.922  36.237  1.00  0.00     0.031 C 
ATOM     54  C   UNL A   1      43.297  27.289  31.758  1.00  0.00     0.029 A 
ATOM     55  C   UNL A   1      42.589  28.230  32.487  1.00  0.00     0.049 A 
ATOM     56  H   UNL A   1      40.905  29.366  31.915  1.00  0.00     0.167 HD
ATOM     57  C   UNL A   1      42.074  29.606  34.482  1.00  0.00     0.074 A 
ATOM     58  C   UNL A   1      42.314  30.037  35.844  1.00  0.00     0.031 C 
ATOM     59  C   UNL A   1      42.817  28.676  33.836  1.00  0.00     0.031 A 
BRANCH  46  60
ATOM     60  C   UNL A   1      40.907  27.493  28.084  1.00  0.00    -0.014 A 
ATOM     61  C   UNL A   1      41.738  27.923  27.036  1.00  0.00     0.009 A 
ATOM     62  C   UNL A   1      40.228  26.272  27.955  1.00  0.00     0.009 A 
ATOM     63  C   UNL A   1      41.852  27.166  25.869  1.00  0.00     0.001 A 
ATOM     64  C   UNL A   1      40.367  25.503  26.798  1.00  0.00     0.001 A 
ATOM     65  C   UNL A   1      41.169  25.956  25.752  1.00  0.00     0.000 A 
ENDBRANCH  46  60
BRANCH  47  66
ATOM     66  C   UNL A   1      39.234  32.864  36.314  1.00  0.00    -0.014 A 
ATOM     67  C   UNL A   1      38.407  32.337  37.319  1.00  0.00     0.009 A 
ATOM     68  C   UNL A   1      39.804  34.132  36.499  1.00  0.00     0.009 A 
ATOM     69  C   UNL A   1      38.135  33.076  38.473  1.00  0.00     0.001 A 
ATOM     70  C   UNL A   1      39.550  34.859  37.665  1.00  0.00     0.001 A 
ATOM     71  C   UNL A   1      38.709  34.335  38.646  1.00  0.00     0.000 A 
ENDBRANCH  47  66
BRANCH  59  72
ATOM     72  C   UNL A   1      43.982  28.090  34.579  1.00  0.00    -0.014 A 
ATOM     73  C   UNL A   1      43.845  26.917  35.336  1.00  0.00     0.009 A 
ATOM     74  C   UNL A   1      45.242  28.701  34.484  1.00  0.00     0.009 A 
ATOM     75  C   UNL A   1      44.946  26.380  36.006  1.00  0.00     0.001 A 
ATOM     76  C   UNL A   1      46.345  28.147  35.136  1.00  0.00     0.001 A 
ATOM     77  C   UNL A   1      46.194  26.992  35.902  1.00  0.00     0.000 A 
ENDBRANCH  59  72
ENDBRANCH  33  34
ENDBRANCH  25  28
ENDBRANCH  23  24
ENDBRANCH  22  23
ENDBRANCH   1  22
TORSDOF 15
ENDMDL
MODEL 3
REMARK VINA RESULT:     -10.6      5.619     10.197
REMARK SMILES [NH3+][C@H](Cc1ccc(O)c(F)c1)C(=O)NCCCCNC(=O)c1ccc(-c2c3nc(c(-c4ccccc4)c4ccc([nH]4)c(-c4ccccc4)c4nc(c(-c5ccccc5)c5ccc2[nH]5)C=C4)C=C3)cc1
REMARK SMILES IDX 16 1 15 2 14 3 12 4 13 5 2 7 1 8 3 12 4 13 5 14 11 15 6 16
REMARK SMILES IDX 9 17 7 18 10 19 8 20 17 22 18 23 19 24 20 25 21 27 22 28
REMARK SMILES IDX 23 29 69 30 24 31 68 32 25 33 26 34 27 35 62 36 28 37 67 38
REMARK SMILES IDX 61 39 63 40 29 41 66 42 60 43 59 44 30 46 52 47 37 48 51 49
REMARK SMILES IDX 38 50 41 51 50 52 64 53 39 54 40 55 49 57 65 58 42 59 31 60
REMARK SMILES IDX 32 61 36 62 33 63 35 64 34 65 53 66 54 67 58 68 55 69 57 70
REMARK SMILES IDX 56 71 43 72 44 73 48 74 45 75 47 76 46 77
REMARK H PARENT 14 6 1 9 1 10 1 11 8 21 19 26 63 45 41 56
REMARK Flexibility Score: inf
ROOT
ATOM      1  C   UNL A   1      32.187  29.160  27.048  1.00  0.00     0.023 C 
ENDROOT
BRANCH   1   2
ATOM      2  C   UNL A   1      31.926  28.206  25.884  1.00  0.00     0.116 C 
BRANCH   2   3
ATOM      3  N   UNL A   1      32.448  28.747  24.651  1.00  0.00    -0.351 N 
ATOM      4  C   UNL A   1      32.160  28.482  23.348  1.00  0.00     0.278 C 
ATOM      5  O   UNL A   1      32.911  28.999  22.511  1.00  0.00    -0.268 OA
ATOM      6  H   UNL A   1      33.142  29.433  24.776  1.00  0.00     0.163 HD
BRANCH   4   7
ATOM      7  C   UNL A   1      30.974  27.600  22.887  1.00  0.00     0.275 C 
BRANCH   7   8
ATOM      8  N   UNL A   1      31.260  26.921  21.612  1.00  0.00    -0.347 N 
ATOM      9  H   UNL A   1      30.636  26.122  21.504  1.00  0.00     0.345 HD
ATOM     10  H   UNL A   1      32.228  26.598  21.610  1.00  0.00     0.345 HD
ATOM     11  H   UNL A   1      31.117  27.572  20.840  1.00  0.00     0.345 HD
ENDBRANCH   7   8
BRANCH   7  12
ATOM     12  C   UNL A   1      29.559  28.187  23.120  1.00  0.00     0.111 C 
BRANCH  12  13
ATOM     13  C   UNL A   1      29.206  29.635  22.847  1.00  0.00    -0.038 A 
ATOM     14  C   UNL A   1      29.401  30.669  23.776  1.00  0.00     0.008 A 
ATOM     15  C   UNL A   1      28.723  29.984  21.568  1.00  0.00     0.047 A 
ATOM     16  C   UNL A   1      29.001  31.981  23.494  1.00  0.00     0.049 A 
ATOM     17  C   UNL A   1      28.339  31.294  21.288  1.00  0.00     0.165 A 
ATOM     18  C   UNL A   1      28.449  32.281  22.257  1.00  0.00     0.151 A 
ATOM     19  F   UNL A   1      27.817  31.595  20.090  1.00  0.00    -0.203 F 
BRANCH  18  20
ATOM     20  O   UNL A   1      27.996  33.548  22.044  1.00  0.00    -0.505 OA
ATOM     21  H   UNL A   1      27.685  34.061  22.763  1.00  0.00     0.293 HD
ENDBRANCH  18  20
ENDBRANCH  12  13
ENDBRANCH   7  12
ENDBRANCH   4   7
ENDBRANCH   2   3
ENDBRANCH   1   2
BRANCH   1  22
ATOM     22  C   UNL A   1      31.884  30.624  26.774  1.00  0.00     0.023 C 
BRANCH  22  23
ATOM     23  C   UNL A   1      32.944  31.592  27.288  1.00  0.00     0.116 C 
BRANCH  23  24
ATOM     24  N   UNL A   1      32.465  32.948  27.535  1.00  0.00    -0.352 N 
ATOM     25  C   UNL A   1      33.086  33.951  28.248  1.00  0.00     0.251 C 
ATOM     26  H   UNL A   1      31.592  33.176  27.141  1.00  0.00     0.163 HD
ATOM     27  O   UNL A   1      32.539  35.032  28.432  1.00  0.00    -0.269 OA
BRANCH  25  28
ATOM     28  C   UNL A   1      34.406  33.678  28.852  1.00  0.00     0.039 A 
ATOM     29  C   UNL A   1      34.460  33.081  30.112  1.00  0.00     0.014 A 
ATOM     30  C   UNL A   1      35.574  33.903  28.121  1.00  0.00     0.014 A 
ATOM     31  C   UNL A   1      35.680  32.598  30.589  1.00  0.00     0.010 A 
ATOM     32  C   UNL A   1      36.765  33.337  28.553  1.00  0.00     0.010 A 
ATOM     33  C   UNL A   1      36.828  32.664  29.783  1.00  0.00    -0.014 A 
BRANCH  33  34
ATOM     34  C   UNL A   1      38.103  32.014  30.183  1.00  0.00     0.031 A 
ATOM     35  C   UNL A   1      39.057  32.732  31.095  1.00  0.00     0.074 A 
ATOM     36  C   UNL A   1      38.449  30.830  29.641  1.00  0.00     0.049 A 
ATOM     37  N   UNL A   1      40.269  32.393  31.453  1.00  0.00    -0.248 NA
ATOM     38  C   UNL A   1      38.606  34.021  31.643  1.00  0.00     0.031 C 
ATOM     39  C   UNL A   1      37.643  30.053  28.694  1.00  0.00     0.029 A 
ATOM     40  N   UNL A   1      39.586  30.076  29.800  1.00  0.00    -0.354 N 
ATOM     41  C   UNL A   1      40.737  33.442  32.232  1.00  0.00     0.074 A 
ATOM     42  C   UNL A   1      39.698  34.447  32.259  1.00  0.00     0.031 C 
ATOM     43  C   UNL A   1      38.296  28.921  28.385  1.00  0.00     0.029 A 
ATOM     44  C   UNL A   1      39.581  28.909  29.074  1.00  0.00     0.049 A 
ATOM     45  H   UNL A   1      40.335  30.346  30.380  1.00  0.00     0.167 HD
ATOM     46  C   UNL A   1      41.918  33.553  32.887  1.00  0.00     0.031 A 
ATOM     47  C   UNL A   1      40.510  27.939  28.971  1.00  0.00     0.031 A 
ATOM     48  C   UNL A   1      42.935  32.538  32.897  1.00  0.00     0.049 A 
ATOM     49  C   UNL A   1      41.796  28.068  29.736  1.00  0.00     0.074 A 
ATOM     50  C   UNL A   1      44.131  32.524  33.592  1.00  0.00     0.029 A 
ATOM     51  N   UNL A   1      42.870  31.352  32.184  1.00  0.00    -0.354 N 
ATOM     52  N   UNL A   1      42.196  29.039  30.521  1.00  0.00    -0.248 NA
ATOM     53  C   UNL A   1      42.755  26.962  29.607  1.00  0.00     0.031 C 
ATOM     54  C   UNL A   1      44.806  31.341  33.274  1.00  0.00     0.029 A 
ATOM     55  C   UNL A   1      44.011  30.602  32.413  1.00  0.00     0.049 A 
ATOM     56  H   UNL A   1      42.124  31.083  31.601  1.00  0.00     0.167 HD
ATOM     57  C   UNL A   1      43.438  28.648  31.001  1.00  0.00     0.074 A 
ATOM     58  C   UNL A   1      43.722  27.348  30.428  1.00  0.00     0.031 C 
ATOM     59  C   UNL A   1      44.272  29.308  31.840  1.00  0.00     0.031 A 
BRANCH  46  60
ATOM     60  C   UNL A   1      42.163  34.823  33.649  1.00  0.00    -0.014 A 
ATOM     61  C   UNL A   1      41.689  34.986  34.961  1.00  0.00     0.009 A 
ATOM     62  C   UNL A   1      42.890  35.865  33.055  1.00  0.00     0.009 A 
ATOM     63  C   UNL A   1      41.904  36.183  35.646  1.00  0.00     0.001 A 
ATOM     64  C   UNL A   1      43.128  37.050  33.753  1.00  0.00     0.001 A 
ATOM     65  C   UNL A   1      42.626  37.213  35.043  1.00  0.00     0.000 A 
ENDBRANCH  46  60
BRANCH  47  66
ATOM     66  C   UNL A   1      40.247  26.741  28.134  1.00  0.00    -0.014 A 
ATOM     67  C   UNL A   1      40.740  26.678  26.821  1.00  0.00     0.009 A 
ATOM     68  C   UNL A   1      39.502  25.664  28.633  1.00  0.00     0.009 A 
ATOM     69  C   UNL A   1      40.467  25.569  26.015  1.00  0.00     0.001 A 
ATOM     70  C   UNL A   1      39.251  24.546  27.833  1.00  0.00     0.001 A 
ATOM     71  C   UNL A   1      39.726  24.503  26.523  1.00  0.00     0.000 A 
ENDBRANCH  47  66
BRANCH  59  72
ATOM     72  C   UNL A   1      45.550  28.619  32.221  1.00  0.00    -0.014 A 
ATOM     73  C   UNL A   1      46.731  28.827  31.494  1.00  0.00     0.009 A 
ATOM     74  C   UNL A   1      45.577  27.784  33.348  1.00  0.00     0.009 A 
ATOM     75  C   UNL A   1      47.913  28.189  31.876  1.00  0.00     0.001 A 
ATOM     76  C   UNL A   1      46.766  27.167  33.741  1.00  0.00     0.001 A 
ATOM     77  C   UNL A   1      47.931  27.364  33.000  1.00  0.00     0.000 A 
ENDBRANCH  59  72
ENDBRANCH  33  34
ENDBRANCH  25  28
ENDBRANCH  23  24
ENDBRANCH  22  23
ENDBRANCH   1  22
TORSDOF 15
ENDMDL
