MODEL 1
REMARK VINA RESULT:     -12.6      0.000      0.000
REMARK SMILES Cc1ccc(S(=O)(=O)n2cc(C(=O)C(=O)NCC(=O)NCC(=O)NCCCCNC(=O)c3ccc(-c4c5nc(c(-c6ccccc6)c6ccc([nH]6)c(-c6ccccc6)c6nc(c(-c7ccccc7)c7ccc4[nH]7)C=C6)C=C5)cc3)c3ccccc32)cc1
REMARK SMILES IDX 22 1 23 2 24 3 21 5 20 6 18 7 19 8 17 10 16 11 14 12 15 13
REMARK SMILES IDX 12 15 13 16 11 17 9 18 10 19 85 20 80 21 84 22 81 23 83 24
REMARK SMILES IDX 82 25 6 26 7 27 8 28 5 29 1 30 2 31 3 32 87 33 4 34 86 35
REMARK SMILES IDX 25 36 26 37 27 38 28 39 29 40 30 41 31 43 32 44 33 45 79 46
REMARK SMILES IDX 34 47 78 48 35 49 36 50 37 51 72 52 38 53 77 54 71 55 73 56
REMARK SMILES IDX 39 57 76 58 70 59 69 60 40 62 62 63 47 64 61 65 48 66 51 67
REMARK SMILES IDX 60 68 74 69 49 70 50 71 59 73 75 74 52 75 41 76 42 77 46 78
REMARK SMILES IDX 43 79 45 80 44 81 63 82 64 83 68 84 65 85 67 86 66 87 53 88
REMARK SMILES IDX 54 89 58 90 55 91 57 92 56 93
REMARK H PARENT 24 4 20 9 16 14 29 42 73 61 51 72
REMARK Flexibility Score: inf
ROOT
ATOM      1  C   UNL A   1      36.813  22.651  24.856  1.00  0.00     0.239 C 
ATOM      2  O   UNL A   1      36.455  23.616  24.176  1.00  0.00    -0.273 OA
ATOM      3  N   UNL A   1      38.156  22.470  25.034  1.00  0.00    -0.355 N 
ATOM      4  H   UNL A   1      38.736  23.004  24.444  1.00  0.00     0.163 HD
ENDROOT
BRANCH   1   5
ATOM      5  C   UNL A   1      35.777  21.798  25.612  1.00  0.00     0.216 C 
BRANCH   5   6
ATOM      6  N   UNL A   1      35.536  20.490  25.029  1.00  0.00    -0.346 N 
ATOM      7  C   UNL A   1      34.413  19.723  24.968  1.00  0.00     0.239 C 
ATOM      8  O   UNL A   1      34.520  18.604  24.459  1.00  0.00    -0.273 OA
ATOM      9  H   UNL A   1      36.325  20.085  24.601  1.00  0.00     0.164 HD
BRANCH   7  10
ATOM     10  C   UNL A   1      33.047  20.223  25.471  1.00  0.00     0.216 C 
BRANCH  10  11
ATOM     11  N   UNL A   1      33.061  20.822  26.805  1.00  0.00    -0.340 N 
ATOM     12  C   UNL A   1      32.533  22.005  27.285  1.00  0.00     0.292 C 
ATOM     13  O   UNL A   1      32.856  22.372  28.409  1.00  0.00    -0.265 OA
ATOM     14  H   UNL A   1      33.530  20.285  27.484  1.00  0.00     0.164 HD
BRANCH  12  15
ATOM     15  C   UNL A   1      31.569  22.846  26.420  1.00  0.00     0.252 C 
ATOM     16  O   UNL A   1      30.425  22.419  26.287  1.00  0.00    -0.283 OA
BRANCH  15  17
ATOM     17  C   UNL A   1      31.951  24.103  25.766  1.00  0.00     0.054 A 
ATOM     18  N   UNL A   1      32.326  26.249  25.268  1.00  0.00    -0.240 N 
ATOM     19  C   UNL A   1      31.876  25.398  26.250  1.00  0.00     0.117 A 
ATOM     20  C   UNL A   1      32.711  25.555  24.140  1.00  0.00     0.065 A 
ATOM     21  C   UNL A   1      32.480  24.204  24.427  1.00  0.00     0.012 A 
ATOM     22  C   UNL A   1      33.203  25.968  22.887  1.00  0.00     0.028 A 
ATOM     23  C   UNL A   1      32.764  23.246  23.427  1.00  0.00     0.011 A 
ATOM     24  C   UNL A   1      33.445  24.996  21.913  1.00  0.00     0.002 A 
ATOM     25  C   UNL A   1      33.233  23.651  22.178  1.00  0.00     0.001 A 
BRANCH  18  26
ATOM     26  S   UNL A   1      32.306  27.950  25.396  1.00  0.00     0.268 S 
ATOM     27  O   UNL A   1      33.520  28.393  24.747  1.00  0.00    -0.201 OA
ATOM     28  O   UNL A   1      32.031  28.236  26.795  1.00  0.00    -0.201 OA
BRANCH  26  29
ATOM     29  C   UNL A   1      30.932  28.556  24.451  1.00  0.00     0.088 A 
ATOM     30  C   UNL A   1      27.837  30.290  22.012  1.00  0.00     0.044 C 
ATOM     31  C   UNL A   1      28.902  29.678  22.875  1.00  0.00    -0.051 A 
ATOM     32  C   UNL A   1      29.699  30.495  23.686  1.00  0.00     0.005 A 
ATOM     33  C   UNL A   1      29.112  28.293  22.884  1.00  0.00     0.005 A 
ATOM     34  C   UNL A   1      30.715  29.938  24.467  1.00  0.00     0.022 A 
ATOM     35  C   UNL A   1      30.114  27.729  23.678  1.00  0.00     0.022 A 
ENDBRANCH  26  29
ENDBRANCH  18  26
ENDBRANCH  15  17
ENDBRANCH  12  15
ENDBRANCH  10  11
ENDBRANCH   7  10
ENDBRANCH   5   6
ENDBRANCH   1   5
BRANCH   3  36
ATOM     36  C   UNL A   1      38.848  21.606  25.966  1.00  0.00     0.116 C 
BRANCH  36  37
ATOM     37  C   UNL A   1      39.881  22.320  26.838  1.00  0.00     0.023 C 
BRANCH  37  38
ATOM     38  C   UNL A   1      41.206  22.597  26.137  1.00  0.00     0.023 C 
BRANCH  38  39
ATOM     39  C   UNL A   1      42.350  21.702  26.590  1.00  0.00     0.116 C 
BRANCH  39  40
ATOM     40  N   UNL A   1      43.108  21.048  25.532  1.00  0.00    -0.352 N 
ATOM     41  C   UNL A   1      44.217  21.507  24.835  1.00  0.00     0.251 C 
ATOM     42  H   UNL A   1      42.787  20.153  25.274  1.00  0.00     0.163 HD
ATOM     43  O   UNL A   1      44.672  20.835  23.912  1.00  0.00    -0.269 OA
BRANCH  41  44
ATOM     44  C   UNL A   1      44.967  22.702  25.312  1.00  0.00     0.039 A 
ATOM     45  C   UNL A   1      45.563  22.614  26.577  1.00  0.00     0.014 A 
ATOM     46  C   UNL A   1      44.769  23.946  24.730  1.00  0.00     0.014 A 
ATOM     47  C   UNL A   1      45.598  23.743  27.384  1.00  0.00     0.010 A 
ATOM     48  C   UNL A   1      44.640  25.026  25.560  1.00  0.00     0.010 A 
ATOM     49  C   UNL A   1      44.987  24.895  26.901  1.00  0.00    -0.014 A 
BRANCH  49  50
ATOM     50  C   UNL A   1      44.709  26.068  27.697  1.00  0.00     0.031 A 
ATOM     51  C   UNL A   1      43.319  26.530  27.704  1.00  0.00     0.074 A 
ATOM     52  C   UNL A   1      45.696  26.567  28.470  1.00  0.00     0.049 A 
ATOM     53  N   UNL A   1      42.958  27.754  27.830  1.00  0.00    -0.248 NA
ATOM     54  C   UNL A   1      42.196  25.619  27.478  1.00  0.00     0.031 C 
ATOM     55  C   UNL A   1      45.624  27.581  29.513  1.00  0.00     0.029 A 
ATOM     56  N   UNL A   1      47.070  26.352  28.300  1.00  0.00    -0.354 N 
ATOM     57  C   UNL A   1      41.600  27.740  28.059  1.00  0.00     0.074 A 
ATOM     58  C   UNL A   1      41.152  26.428  27.672  1.00  0.00     0.031 C 
ATOM     59  C   UNL A   1      46.845  28.134  29.658  1.00  0.00     0.029 A 
ATOM     60  C   UNL A   1      47.704  27.568  28.627  1.00  0.00     0.049 A 
ATOM     61  H   UNL A   1      47.505  25.517  28.009  1.00  0.00     0.167 HD
ATOM     62  C   UNL A   1      41.048  28.775  28.749  1.00  0.00     0.031 A 
ATOM     63  C   UNL A   1      48.348  28.281  27.655  1.00  0.00     0.031 A 
ATOM     64  C   UNL A   1      42.077  29.759  29.077  1.00  0.00     0.049 A 
ATOM     65  C   UNL A   1      47.643  29.587  27.381  1.00  0.00     0.074 A 
ATOM     66  C   UNL A   1      42.855  29.924  30.212  1.00  0.00     0.029 A 
ATOM     67  N   UNL A   1      42.725  30.433  28.048  1.00  0.00    -0.354 N 
ATOM     68  N   UNL A   1      46.373  29.790  27.608  1.00  0.00    -0.248 NA
ATOM     69  C   UNL A   1      48.318  30.777  26.871  1.00  0.00     0.031 C 
ATOM     70  C   UNL A   1      44.033  30.619  29.828  1.00  0.00     0.029 A 
ATOM     71  C   UNL A   1      43.952  30.904  28.475  1.00  0.00     0.049 A 
ATOM     72  H   UNL A   1      42.360  30.556  27.141  1.00  0.00     0.167 HD
ATOM     73  C   UNL A   1      46.067  31.097  27.346  1.00  0.00     0.074 A 
ATOM     74  C   UNL A   1      47.313  31.671  26.872  1.00  0.00     0.031 C 
ATOM     75  C   UNL A   1      44.824  31.622  27.556  1.00  0.00     0.031 A 
BRANCH  62  76
ATOM     76  C   UNL A   1      39.691  28.742  29.405  1.00  0.00    -0.014 A 
ATOM     77  C   UNL A   1      38.592  29.277  28.705  1.00  0.00     0.009 A 
ATOM     78  C   UNL A   1      39.418  28.250  30.692  1.00  0.00     0.009 A 
ATOM     79  C   UNL A   1      37.315  29.365  29.275  1.00  0.00     0.001 A 
ATOM     80  C   UNL A   1      38.148  28.356  31.278  1.00  0.00     0.001 A 
ATOM     81  C   UNL A   1      37.096  28.917  30.570  1.00  0.00     0.000 A 
ENDBRANCH  62  76
BRANCH  63  82
ATOM     82  C   UNL A   1      48.995  27.396  26.635  1.00  0.00    -0.014 A 
ATOM     83  C   UNL A   1      48.406  27.348  25.350  1.00  0.00     0.009 A 
ATOM     84  C   UNL A   1      50.333  27.006  26.766  1.00  0.00     0.009 A 
ATOM     85  C   UNL A   1      49.183  27.108  24.212  1.00  0.00     0.001 A 
ATOM     86  C   UNL A   1      51.097  26.731  25.622  1.00  0.00     0.001 A 
ATOM     87  C   UNL A   1      50.541  26.843  24.347  1.00  0.00     0.000 A 
ENDBRANCH  63  82
BRANCH  75  88
ATOM     88  C   UNL A   1      44.334  32.926  26.979  1.00  0.00    -0.014 A 
ATOM     89  C   UNL A   1      44.099  33.132  25.614  1.00  0.00     0.009 A 
ATOM     90  C   UNL A   1      43.942  33.963  27.854  1.00  0.00     0.009 A 
ATOM     91  C   UNL A   1      43.577  34.341  25.141  1.00  0.00     0.001 A 
ATOM     92  C   UNL A   1      43.357  35.143  27.393  1.00  0.00     0.001 A 
ATOM     93  C   UNL A   1      43.197  35.340  26.030  1.00  0.00     0.000 A 
ENDBRANCH  75  88
ENDBRANCH  49  50
ENDBRANCH  41  44
ENDBRANCH  39  40
ENDBRANCH  38  39
ENDBRANCH  37  38
ENDBRANCH  36  37
ENDBRANCH   3  36
TORSDOF 18
ENDMDL
MODEL 2
REMARK VINA RESULT:     -12.2      1.728      2.840
REMARK SMILES Cc1ccc(S(=O)(=O)n2cc(C(=O)C(=O)NCC(=O)NCC(=O)NCCCCNC(=O)c3ccc(-c4c5nc(c(-c6ccccc6)c6ccc([nH]6)c(-c6ccccc6)c6nc(c(-c7ccccc7)c7ccc4[nH]7)C=C6)C=C5)cc3)c3ccccc32)cc1
REMARK SMILES IDX 22 1 23 2 24 3 21 5 20 6 18 7 19 8 17 10 16 11 14 12 15 13
REMARK SMILES IDX 12 15 13 16 11 17 9 18 10 19 85 20 80 21 84 22 81 23 83 24
REMARK SMILES IDX 82 25 6 26 7 27 8 28 5 29 1 30 2 31 3 32 87 33 4 34 86 35
REMARK SMILES IDX 25 36 26 37 27 38 28 39 29 40 30 41 31 43 32 44 33 45 79 46
REMARK SMILES IDX 34 47 78 48 35 49 36 50 37 51 72 52 38 53 77 54 71 55 73 56
REMARK SMILES IDX 39 57 76 58 70 59 69 60 40 62 62 63 47 64 61 65 48 66 51 67
REMARK SMILES IDX 60 68 74 69 49 70 50 71 59 73 75 74 52 75 41 76 42 77 46 78
REMARK SMILES IDX 43 79 45 80 44 81 63 82 64 83 68 84 65 85 67 86 66 87 53 88
REMARK SMILES IDX 54 89 58 90 55 91 57 92 56 93
REMARK H PARENT 24 4 20 9 16 14 29 42 73 61 51 72
REMARK Flexibility Score: inf
ROOT
ATOM      1  C   UNL A   1      36.598  22.720  24.382  1.00  0.00     0.239 C 
ATOM      2  O   UNL A   1      36.373  22.937  23.188  1.00  0.00    -0.273 OA
ATOM      3  N   UNL A   1      37.837  23.043  24.857  1.00  0.00    -0.355 N 
ATOM      4  H   UNL A   1      38.516  23.236  24.171  1.00  0.00     0.163 HD
ENDROOT
BRANCH   1   5
ATOM      5  C   UNL A   1      35.465  22.270  25.322  1.00  0.00     0.216 C 
BRANCH   5   6
ATOM      6  N   UNL A   1      34.846  21.007  24.955  1.00  0.00    -0.346 N 
ATOM      7  C   UNL A   1      33.560  20.692  24.638  1.00  0.00     0.239 C 
ATOM      8  O   UNL A   1      33.306  19.503  24.429  1.00  0.00    -0.273 OA
ATOM      9  H   UNL A   1      35.467  20.243  24.933  1.00  0.00     0.164 HD
BRANCH   7  10
ATOM     10  C   UNL A   1      32.461  21.760  24.500  1.00  0.00     0.216 C 
BRANCH  10  11
ATOM     11  N   UNL A   1      31.923  22.261  25.764  1.00  0.00    -0.340 N 
ATOM     12  C   UNL A   1      31.424  23.498  26.122  1.00  0.00     0.292 C 
ATOM     13  O   UNL A   1      31.217  23.719  27.310  1.00  0.00    -0.265 OA
ATOM     14  H   UNL A   1      31.914  21.597  26.490  1.00  0.00     0.164 HD
BRANCH  12  15
ATOM     15  C   UNL A   1      31.145  24.576  25.052  1.00  0.00     0.252 C 
ATOM     16  O   UNL A   1      30.463  24.239  24.088  1.00  0.00    -0.283 OA
BRANCH  15  17
ATOM     17  C   UNL A   1      31.646  25.953  25.136  1.00  0.00     0.054 A 
ATOM     18  N   UNL A   1      32.099  28.050  25.760  1.00  0.00    -0.240 N 
ATOM     19  C   UNL A   1      31.458  26.892  26.135  1.00  0.00     0.117 A 
ATOM     20  C   UNL A   1      32.721  27.906  24.538  1.00  0.00     0.065 A 
ATOM     21  C   UNL A   1      32.446  26.598  24.122  1.00  0.00     0.012 A 
ATOM     22  C   UNL A   1      33.464  28.794  23.735  1.00  0.00     0.028 A 
ATOM     23  C   UNL A   1      32.944  26.171  22.870  1.00  0.00     0.011 A 
ATOM     24  C   UNL A   1      33.915  28.347  22.491  1.00  0.00     0.002 A 
ATOM     25  C   UNL A   1      33.663  27.051  22.062  1.00  0.00     0.001 A 
BRANCH  18  26
ATOM     26  S   UNL A   1      32.038  29.505  26.649  1.00  0.00     0.268 S 
ATOM     27  O   UNL A   1      31.283  29.190  27.841  1.00  0.00    -0.201 OA
ATOM     28  O   UNL A   1      31.603  30.523  25.706  1.00  0.00    -0.201 OA
BRANCH  26  29
ATOM     29  C   UNL A   1      33.692  29.914  27.146  1.00  0.00     0.088 A 
ATOM     30  C   UNL A   1      37.550  31.076  28.660  1.00  0.00     0.044 C 
ATOM     31  C   UNL A   1      36.213  30.670  28.114  1.00  0.00    -0.051 A 
ATOM     32  C   UNL A   1      35.180  31.611  28.024  1.00  0.00     0.005 A 
ATOM     33  C   UNL A   1      35.979  29.357  27.686  1.00  0.00     0.005 A 
ATOM     34  C   UNL A   1      33.922  31.235  27.548  1.00  0.00     0.022 A 
ATOM     35  C   UNL A   1      34.728  28.979  27.190  1.00  0.00     0.022 A 
ENDBRANCH  26  29
ENDBRANCH  18  26
ENDBRANCH  15  17
ENDBRANCH  12  15
ENDBRANCH  10  11
ENDBRANCH   7  10
ENDBRANCH   5   6
ENDBRANCH   1   5
BRANCH   3  36
ATOM     36  C   UNL A   1      38.295  23.141  26.226  1.00  0.00     0.116 C 
BRANCH  36  37
ATOM     37  C   UNL A   1      39.043  24.435  26.548  1.00  0.00     0.023 C 
BRANCH  37  38
ATOM     38  C   UNL A   1      40.478  24.472  26.034  1.00  0.00     0.023 C 
BRANCH  38  39
ATOM     39  C   UNL A   1      41.336  23.303  26.497  1.00  0.00     0.116 C 
BRANCH  39  40
ATOM     40  N   UNL A   1      42.065  22.593  25.455  1.00  0.00    -0.352 N 
ATOM     41  C   UNL A   1      43.328  22.849  24.939  1.00  0.00     0.251 C 
ATOM     42  H   UNL A   1      41.595  21.824  25.060  1.00  0.00     0.163 HD
ATOM     43  O   UNL A   1      43.743  22.178  23.996  1.00  0.00    -0.269 OA
BRANCH  41  44
ATOM     44  C   UNL A   1      44.250  23.792  25.631  1.00  0.00     0.039 A 
ATOM     45  C   UNL A   1      44.612  23.475  26.947  1.00  0.00     0.014 A 
ATOM     46  C   UNL A   1      44.431  25.085  25.161  1.00  0.00     0.014 A 
ATOM     47  C   UNL A   1      44.781  24.503  27.864  1.00  0.00     0.010 A 
ATOM     48  C   UNL A   1      44.428  26.103  26.074  1.00  0.00     0.010 A 
ATOM     49  C   UNL A   1      44.530  25.799  27.428  1.00  0.00    -0.014 A 
BRANCH  49  50
ATOM     50  C   UNL A   1      44.409  26.945  28.297  1.00  0.00     0.031 A 
ATOM     51  C   UNL A   1      43.047  27.395  28.592  1.00  0.00     0.074 A 
ATOM     52  C   UNL A   1      45.528  27.432  28.876  1.00  0.00     0.049 A 
ATOM     53  N   UNL A   1      42.713  28.611  28.823  1.00  0.00    -0.248 NA
ATOM     54  C   UNL A   1      41.904  26.480  28.564  1.00  0.00     0.031 C 
ATOM     55  C   UNL A   1      45.659  28.415  29.943  1.00  0.00     0.029 A 
ATOM     56  N   UNL A   1      46.842  27.234  28.433  1.00  0.00    -0.354 N 
ATOM     57  C   UNL A   1      41.427  28.578  29.314  1.00  0.00     0.074 A 
ATOM     58  C   UNL A   1      40.916  27.274  28.983  1.00  0.00     0.031 C 
ATOM     59  C   UNL A   1      46.883  28.974  29.862  1.00  0.00     0.029 A 
ATOM     60  C   UNL A   1      47.524  28.446  28.665  1.00  0.00     0.049 A 
ATOM     61  H   UNL A   1      47.214  26.412  28.037  1.00  0.00     0.167 HD
ATOM     62  C   UNL A   1      41.018  29.587  30.130  1.00  0.00     0.031 A 
ATOM     63  C   UNL A   1      47.962  29.193  27.607  1.00  0.00     0.031 A 
ATOM     64  C   UNL A   1      42.089  30.571  30.278  1.00  0.00     0.049 A 
ATOM     65  C   UNL A   1      47.212  30.500  27.516  1.00  0.00     0.074 A 
ATOM     66  C   UNL A   1      43.074  30.710  31.243  1.00  0.00     0.029 A 
ATOM     67  N   UNL A   1      42.518  31.280  29.163  1.00  0.00    -0.354 N 
ATOM     68  N   UNL A   1      46.011  30.684  27.995  1.00  0.00    -0.248 NA
ATOM     69  C   UNL A   1      47.769  31.710  26.920  1.00  0.00     0.031 C 
ATOM     70  C   UNL A   1      44.151  31.427  30.656  1.00  0.00     0.029 A 
ATOM     71  C   UNL A   1      43.804  31.750  29.355  1.00  0.00     0.049 A 
ATOM     72  H   UNL A   1      41.982  31.427  28.350  1.00  0.00     0.167 HD
ATOM     73  C   UNL A   1      45.655  31.995  27.839  1.00  0.00     0.074 A 
ATOM     74  C   UNL A   1      46.782  32.595  27.146  1.00  0.00     0.031 C 
ATOM     75  C   UNL A   1      44.476  32.503  28.304  1.00  0.00     0.031 A 
BRANCH  62  76
ATOM     76  C   UNL A   1      39.817  29.523  31.039  1.00  0.00    -0.014 A 
ATOM     77  C   UNL A   1      39.557  30.615  31.890  1.00  0.00     0.009 A 
ATOM     78  C   UNL A   1      38.931  28.438  31.146  1.00  0.00     0.009 A 
ATOM     79  C   UNL A   1      38.515  30.601  32.825  1.00  0.00     0.001 A 
ATOM     80  C   UNL A   1      37.900  28.406  32.097  1.00  0.00     0.001 A 
ATOM     81  C   UNL A   1      37.694  29.489  32.940  1.00  0.00     0.000 A 
ENDBRANCH  62  76
BRANCH  63  82
ATOM     82  C   UNL A   1      48.398  28.344  26.454  1.00  0.00    -0.014 A 
ATOM     83  C   UNL A   1      49.436  27.412  26.689  1.00  0.00     0.009 A 
ATOM     84  C   UNL A   1      47.556  28.134  25.355  1.00  0.00     0.009 A 
ATOM     85  C   UNL A   1      49.503  26.215  25.969  1.00  0.00     0.001 A 
ATOM     86  C   UNL A   1      47.652  26.946  24.616  1.00  0.00     0.001 A 
ATOM     87  C   UNL A   1      48.581  25.964  24.960  1.00  0.00     0.000 A 
ENDBRANCH  63  82
BRANCH  75  88
ATOM     88  C   UNL A   1      43.878  33.818  27.874  1.00  0.00    -0.014 A 
ATOM     89  C   UNL A   1      43.647  34.166  26.538  1.00  0.00     0.009 A 
ATOM     90  C   UNL A   1      43.378  34.702  28.856  1.00  0.00     0.009 A 
ATOM     91  C   UNL A   1      43.023  35.372  26.198  1.00  0.00     0.001 A 
ATOM     92  C   UNL A   1      42.694  35.872  28.523  1.00  0.00     0.001 A 
ATOM     93  C   UNL A   1      42.539  36.218  27.190  1.00  0.00     0.000 A 
ENDBRANCH  75  88
ENDBRANCH  49  50
ENDBRANCH  41  44
ENDBRANCH  39  40
ENDBRANCH  38  39
ENDBRANCH  37  38
ENDBRANCH  36  37
ENDBRANCH   3  36
TORSDOF 18
ENDMDL
MODEL 3
REMARK VINA RESULT:     -11.3      3.951      9.595
REMARK SMILES Cc1ccc(S(=O)(=O)n2cc(C(=O)C(=O)NCC(=O)NCC(=O)NCCCCNC(=O)c3ccc(-c4c5nc(c(-c6ccccc6)c6ccc([nH]6)c(-c6ccccc6)c6nc(c(-c7ccccc7)c7ccc4[nH]7)C=C6)C=C5)cc3)c3ccccc32)cc1
REMARK SMILES IDX 22 1 23 2 24 3 21 5 20 6 18 7 19 8 17 10 16 11 14 12 15 13
REMARK SMILES IDX 12 15 13 16 11 17 9 18 10 19 85 20 80 21 84 22 81 23 83 24
REMARK SMILES IDX 82 25 6 26 7 27 8 28 5 29 1 30 2 31 3 32 87 33 4 34 86 35
REMARK SMILES IDX 25 36 26 37 27 38 28 39 29 40 30 41 31 43 32 44 33 45 79 46
REMARK SMILES IDX 34 47 78 48 35 49 36 50 37 51 72 52 38 53 77 54 71 55 73 56
REMARK SMILES IDX 39 57 76 58 70 59 69 60 40 62 62 63 47 64 61 65 48 66 51 67
REMARK SMILES IDX 60 68 74 69 49 70 50 71 59 73 75 74 52 75 41 76 42 77 46 78
REMARK SMILES IDX 43 79 45 80 44 81 63 82 64 83 68 84 65 85 67 86 66 87 53 88
REMARK SMILES IDX 54 89 58 90 55 91 57 92 56 93
REMARK H PARENT 24 4 20 9 16 14 29 42 73 61 51 72
REMARK Flexibility Score: inf
ROOT
ATOM      1  C   UNL A   1      33.411  33.568  27.940  1.00  0.00     0.239 C 
ATOM      2  O   UNL A   1      32.446  34.321  28.099  1.00  0.00    -0.273 OA
ATOM      3  N   UNL A   1      34.658  34.105  28.090  1.00  0.00    -0.355 N 
ATOM      4  H   UNL A   1      34.695  35.088  28.115  1.00  0.00     0.163 HD
ENDROOT
BRANCH   1   5
ATOM      5  C   UNL A   1      33.201  32.054  27.755  1.00  0.00     0.216 C 
BRANCH   5   6
ATOM      6  N   UNL A   1      32.053  31.702  26.937  1.00  0.00    -0.346 N 
ATOM      7  C   UNL A   1      31.869  30.714  26.019  1.00  0.00     0.239 C 
ATOM      8  O   UNL A   1      30.791  30.694  25.419  1.00  0.00    -0.273 OA
ATOM      9  H   UNL A   1      31.268  32.282  27.070  1.00  0.00     0.164 HD
BRANCH   7  10
ATOM     10  C   UNL A   1      32.929  29.632  25.752  1.00  0.00     0.216 C 
BRANCH  10  11
ATOM     11  N   UNL A   1      33.533  29.673  24.420  1.00  0.00    -0.340 N 
ATOM     12  C   UNL A   1      33.289  28.934  23.279  1.00  0.00     0.292 C 
ATOM     13  O   UNL A   1      34.076  29.032  22.344  1.00  0.00    -0.265 OA
ATOM     14  H   UNL A   1      34.241  30.350  24.318  1.00  0.00     0.164 HD
BRANCH  12  15
ATOM     15  C   UNL A   1      32.060  28.003  23.191  1.00  0.00     0.252 C 
ATOM     16  O   UNL A   1      30.983  28.527  22.923  1.00  0.00    -0.283 OA
BRANCH  15  17
ATOM     17  C   UNL A   1      32.124  26.552  23.408  1.00  0.00     0.054 A 
ATOM     18  N   UNL A   1      32.546  24.363  23.252  1.00  0.00    -0.240 N 
ATOM     19  C   UNL A   1      32.808  25.590  22.686  1.00  0.00     0.117 A 
ATOM     20  C   UNL A   1      31.710  24.482  24.343  1.00  0.00     0.065 A 
ATOM     21  C   UNL A   1      31.426  25.849  24.458  1.00  0.00     0.012 A 
ATOM     22  C   UNL A   1      31.144  23.536  25.218  1.00  0.00     0.028 A 
ATOM     23  C   UNL A   1      30.558  26.271  25.490  1.00  0.00     0.011 A 
ATOM     24  C   UNL A   1      30.267  23.986  26.209  1.00  0.00     0.002 A 
ATOM     25  C   UNL A   1      29.979  25.336  26.348  1.00  0.00     0.001 A 
BRANCH  18  26
ATOM     26  S   UNL A   1      33.101  22.881  22.617  1.00  0.00     0.268 S 
ATOM     27  O   UNL A   1      33.446  23.163  21.242  1.00  0.00    -0.201 OA
ATOM     28  O   UNL A   1      32.090  21.898  22.972  1.00  0.00    -0.201 OA
BRANCH  26  29
ATOM     29  C   UNL A   1      34.592  22.441  23.472  1.00  0.00     0.088 A 
ATOM     30  C   UNL A   1      38.118  21.007  25.483  1.00  0.00     0.044 C 
ATOM     31  C   UNL A   1      36.890  21.524  24.792  1.00  0.00    -0.051 A 
ATOM     32  C   UNL A   1      35.633  20.996  25.112  1.00  0.00     0.005 A 
ATOM     33  C   UNL A   1      36.980  22.536  23.827  1.00  0.00     0.005 A 
ATOM     34  C   UNL A   1      34.489  21.447  24.452  1.00  0.00     0.022 A 
ATOM     35  C   UNL A   1      35.835  23.005  23.177  1.00  0.00     0.022 A 
ENDBRANCH  26  29
ENDBRANCH  18  26
ENDBRANCH  15  17
ENDBRANCH  12  15
ENDBRANCH  10  11
ENDBRANCH   7  10
ENDBRANCH   5   6
ENDBRANCH   1   5
BRANCH   3  36
ATOM     36  C   UNL A   1      35.934  33.434  28.215  1.00  0.00     0.116 C 
BRANCH  36  37
ATOM     37  C   UNL A   1      36.558  33.525  29.609  1.00  0.00     0.023 C 
BRANCH  37  38
ATOM     38  C   UNL A   1      35.578  33.276  30.750  1.00  0.00     0.023 C 
BRANCH  38  39
ATOM     39  C   UNL A   1      35.669  31.884  31.357  1.00  0.00     0.116 C 
BRANCH  39  40
ATOM     40  N   UNL A   1      35.763  30.779  30.413  1.00  0.00    -0.352 N 
ATOM     41  C   UNL A   1      36.886  30.082  29.987  1.00  0.00     0.251 C 
ATOM     42  H   UNL A   1      34.910  30.486  30.018  1.00  0.00     0.163 HD
ATOM     43  O   UNL A   1      36.771  29.225  29.115  1.00  0.00    -0.269 OA
BRANCH  41  44
ATOM     44  C   UNL A   1      38.183  30.230  30.705  1.00  0.00     0.039 A 
ATOM     45  C   UNL A   1      39.157  31.033  30.098  1.00  0.00     0.014 A 
ATOM     46  C   UNL A   1      38.550  29.338  31.702  1.00  0.00     0.014 A 
ATOM     47  C   UNL A   1      40.493  30.672  30.213  1.00  0.00     0.010 A 
ATOM     48  C   UNL A   1      39.835  28.867  31.695  1.00  0.00     0.010 A 
ATOM     49  C   UNL A   1      40.782  29.494  30.892  1.00  0.00    -0.014 A 
BRANCH  49  50
ATOM     50  C   UNL A   1      42.071  28.844  30.888  1.00  0.00     0.031 A 
ATOM     51  C   UNL A   1      42.192  27.650  30.048  1.00  0.00     0.074 A 
ATOM     52  C   UNL A   1      43.093  29.442  31.537  1.00  0.00     0.049 A 
ATOM     53  N   UNL A   1      42.960  26.655  30.301  1.00  0.00    -0.248 NA
ATOM     54  C   UNL A   1      41.362  27.450  28.859  1.00  0.00     0.031 C 
ATOM     55  C   UNL A   1      44.514  29.125  31.505  1.00  0.00     0.029 A 
ATOM     56  N   UNL A   1      42.981  30.398  32.555  1.00  0.00    -0.354 N 
ATOM     57  C   UNL A   1      42.989  25.883  29.160  1.00  0.00     0.074 A 
ATOM     58  C   UNL A   1      41.871  26.319  28.365  1.00  0.00     0.031 C 
ATOM     59  C   UNL A   1      45.083  29.595  32.634  1.00  0.00     0.029 A 
ATOM     60  C   UNL A   1      44.015  30.122  33.472  1.00  0.00     0.049 A 
ATOM     61  H   UNL A   1      42.312  31.119  32.616  1.00  0.00     0.167 HD
ATOM     62  C   UNL A   1      44.084  25.109  28.929  1.00  0.00     0.031 A 
ATOM     63  C   UNL A   1      43.708  29.685  34.730  1.00  0.00     0.031 A 
ATOM     64  C   UNL A   1      45.028  25.240  30.037  1.00  0.00     0.049 A 
ATOM     65  C   UNL A   1      44.161  28.260  34.937  1.00  0.00     0.074 A 
ATOM     66  C   UNL A   1      46.128  26.067  30.207  1.00  0.00     0.029 A 
ATOM     67  N   UNL A   1      44.652  24.809  31.304  1.00  0.00    -0.354 N 
ATOM     68  N   UNL A   1      44.324  27.401  33.967  1.00  0.00    -0.248 NA
ATOM     69  C   UNL A   1      44.507  27.704  36.242  1.00  0.00     0.031 C 
ATOM     70  C   UNL A   1      46.345  26.210  31.603  1.00  0.00     0.029 A 
ATOM     71  C   UNL A   1      45.404  25.446  32.274  1.00  0.00     0.049 A 
ATOM     72  H   UNL A   1      43.950  24.144  31.485  1.00  0.00     0.167 HD
ATOM     73  C   UNL A   1      44.831  26.235  34.472  1.00  0.00     0.074 A 
ATOM     74  C   UNL A   1      44.913  26.468  35.903  1.00  0.00     0.031 C 
ATOM     75  C   UNL A   1      45.168  25.172  33.684  1.00  0.00     0.031 A 
BRANCH  62  76
ATOM     76  C   UNL A   1      44.449  24.516  27.592  1.00  0.00    -0.014 A 
ATOM     77  C   UNL A   1      45.264  23.367  27.565  1.00  0.00     0.009 A 
ATOM     78  C   UNL A   1      44.075  25.032  26.340  1.00  0.00     0.009 A 
ATOM     79  C   UNL A   1      45.720  22.805  26.366  1.00  0.00     0.001 A 
ATOM     80  C   UNL A   1      44.547  24.489  25.137  1.00  0.00     0.001 A 
ATOM     81  C   UNL A   1      45.374  23.375  25.150  1.00  0.00     0.000 A 
ENDBRANCH  62  76
BRANCH  63  82
ATOM     82  C   UNL A   1      42.443  30.293  35.250  1.00  0.00    -0.014 A 
ATOM     83  C   UNL A   1      42.426  31.694  35.442  1.00  0.00     0.009 A 
ATOM     84  C   UNL A   1      41.218  29.627  35.120  1.00  0.00     0.009 A 
ATOM     85  C   UNL A   1      41.239  32.423  35.310  1.00  0.00     0.001 A 
ATOM     86  C   UNL A   1      40.027  30.363  35.024  1.00  0.00     0.001 A 
ATOM     87  C   UNL A   1      40.045  31.758  35.057  1.00  0.00     0.000 A 
ENDBRANCH  63  82
BRANCH  75  88
ATOM     88  C   UNL A   1      45.397  23.769  34.187  1.00  0.00    -0.014 A 
ATOM     89  C   UNL A   1      44.372  22.837  34.383  1.00  0.00     0.009 A 
ATOM     90  C   UNL A   1      46.720  23.298  34.334  1.00  0.00     0.009 A 
ATOM     91  C   UNL A   1      44.649  21.525  34.784  1.00  0.00     0.001 A 
ATOM     92  C   UNL A   1      47.004  21.973  34.666  1.00  0.00     0.001 A 
ATOM     93  C   UNL A   1      45.964  21.091  34.916  1.00  0.00     0.000 A 
ENDBRANCH  75  88
ENDBRANCH  49  50
ENDBRANCH  41  44
ENDBRANCH  39  40
ENDBRANCH  38  39
ENDBRANCH  37  38
ENDBRANCH  36  37
ENDBRANCH   3  36
TORSDOF 18
ENDMDL
