MODEL 1
REMARK VINA RESULT:     -11.7      0.000      0.000
REMARK SMILES C[C@@H](C(=O)NCCCCNC(=O)c1ccc(-c2c3nc(c(-c4ccccc4)c4ccc([nH]4)c(-c4ccccc4)c4nc(c(-c5ccccc5)c5ccc2[nH]5)C=C4)C=C3)cc1)c1ccc(-c2cccc(OC(=O)NCCCc3ccccc3)c2)c(F)c1
REMARK SMILES IDX 1 1 2 2 3 3 4 4 5 5 6 7 7 8 8 9 9 10 10 11 11 12 12 14 13 15
REMARK SMILES IDX 14 16 60 17 15 18 59 19 16 20 17 21 18 22 53 23 19 24 58 25
REMARK SMILES IDX 52 26 54 27 20 28 57 29 51 30 50 31 21 33 43 34 28 35 42 36
REMARK SMILES IDX 29 37 32 38 41 39 55 40 30 41 31 42 40 44 56 45 33 46 22 47
REMARK SMILES IDX 23 48 27 49 24 50 26 51 25 52 44 53 45 54 49 55 46 56 48 57
REMARK SMILES IDX 47 58 34 59 35 60 39 61 36 62 38 63 37 64 61 65 62 66 86 67
REMARK SMILES IDX 63 68 84 69 64 70 85 71 65 72 66 73 83 74 67 75 69 76 68 77
REMARK SMILES IDX 70 78 71 79 72 80 73 81 74 83 75 84 76 85 77 86 78 87 82 88
REMARK SMILES IDX 79 89 81 90 80 91
REMARK H PARENT 5 6 10 13 54 32 32 43 73 82
REMARK Flexibility Score: inf
ROOT
ATOM      1  C   UNL A   1      33.253  22.719  26.873  1.00  0.00     0.023 C 
ATOM      2  C   UNL A   1      33.335  22.954  25.362  1.00  0.00     0.105 C 
ENDROOT
BRANCH   2   3
ATOM      3  C   UNL A   1      33.233  21.659  24.537  1.00  0.00     0.227 C 
ATOM      4  O   UNL A   1      32.265  21.374  23.829  1.00  0.00    -0.274 OA
ATOM      5  N   UNL A   1      34.269  20.772  24.534  1.00  0.00    -0.356 N 
ATOM      6  H   UNL A   1      34.206  20.053  23.865  1.00  0.00     0.163 HD
BRANCH   5   7
ATOM      7  C   UNL A   1      35.446  20.734  25.372  1.00  0.00     0.116 C 
BRANCH   7   8
ATOM      8  C   UNL A   1      36.709  20.959  24.538  1.00  0.00     0.023 C 
BRANCH   8   9
ATOM      9  C   UNL A   1      37.777  19.874  24.698  1.00  0.00     0.023 C 
BRANCH   9  10
ATOM     10  C   UNL A   1      38.741  20.092  25.855  1.00  0.00     0.116 C 
BRANCH  10  11
ATOM     11  N   UNL A   1      39.927  19.258  25.760  1.00  0.00    -0.352 N 
ATOM     12  C   UNL A   1      41.235  19.583  26.011  1.00  0.00     0.251 C 
ATOM     13  H   UNL A   1      39.769  18.328  25.475  1.00  0.00     0.163 HD
ATOM     14  O   UNL A   1      42.128  18.787  25.740  1.00  0.00    -0.269 OA
BRANCH  12  15
ATOM     15  C   UNL A   1      41.569  20.904  26.584  1.00  0.00     0.039 A 
ATOM     16  C   UNL A   1      41.997  21.917  25.723  1.00  0.00     0.014 A 
ATOM     17  C   UNL A   1      41.474  21.142  27.957  1.00  0.00     0.014 A 
ATOM     18  C   UNL A   1      42.295  23.180  26.236  1.00  0.00     0.010 A 
ATOM     19  C   UNL A   1      41.691  22.423  28.456  1.00  0.00     0.010 A 
ATOM     20  C   UNL A   1      42.124  23.448  27.604  1.00  0.00    -0.014 A 
BRANCH  20  21
ATOM     21  C   UNL A   1      42.430  24.790  28.160  1.00  0.00     0.031 A 
ATOM     22  C   UNL A   1      43.837  25.135  28.566  1.00  0.00     0.074 A 
ATOM     23  C   UNL A   1      41.438  25.684  28.332  1.00  0.00     0.049 A 
ATOM     24  N   UNL A   1      44.302  26.253  29.065  1.00  0.00    -0.248 NA
ATOM     25  C   UNL A   1      44.852  24.079  28.417  1.00  0.00     0.031 C 
ATOM     26  C   UNL A   1      40.025  25.456  28.017  1.00  0.00     0.029 A 
ATOM     27  N   UNL A   1      41.469  26.968  28.811  1.00  0.00    -0.354 N 
ATOM     28  C   UNL A   1      45.650  26.026  29.306  1.00  0.00     0.074 A 
ATOM     29  C   UNL A   1      45.920  24.651  28.952  1.00  0.00     0.031 C 
ATOM     30  C   UNL A   1      39.334  26.580  28.268  1.00  0.00     0.029 A 
ATOM     31  C   UNL A   1      40.245  27.590  28.797  1.00  0.00     0.049 A 
ATOM     32  H   UNL A   1      42.291  27.403  29.135  1.00  0.00     0.167 HD
ATOM     33  C   UNL A   1      46.589  26.890  29.762  1.00  0.00     0.031 A 
ATOM     34  C   UNL A   1      39.896  28.838  29.161  1.00  0.00     0.031 A 
ATOM     35  C   UNL A   1      46.325  28.263  30.100  1.00  0.00     0.049 A 
ATOM     36  C   UNL A   1      40.956  29.777  29.667  1.00  0.00     0.074 A 
ATOM     37  C   UNL A   1      47.218  29.239  30.506  1.00  0.00     0.029 A 
ATOM     38  N   UNL A   1      45.071  28.853  30.075  1.00  0.00    -0.354 N 
ATOM     39  N   UNL A   1      42.243  29.573  29.811  1.00  0.00    -0.248 NA
ATOM     40  C   UNL A   1      40.513  31.127  30.045  1.00  0.00     0.031 C 
ATOM     41  C   UNL A   1      46.496  30.405  30.780  1.00  0.00     0.029 A 
ATOM     42  C   UNL A   1      45.162  30.173  30.484  1.00  0.00     0.049 A 
ATOM     43  H   UNL A   1      44.238  28.401  29.806  1.00  0.00     0.167 HD
ATOM     44  C   UNL A   1      42.768  30.778  30.262  1.00  0.00     0.074 A 
ATOM     45  C   UNL A   1      41.663  31.709  30.352  1.00  0.00     0.031 C 
ATOM     46  C   UNL A   1      44.052  31.087  30.569  1.00  0.00     0.031 A 
BRANCH  33  47
ATOM     47  C   UNL A   1      47.989  26.364  29.933  1.00  0.00    -0.014 A 
ATOM     48  C   UNL A   1      48.913  26.386  28.875  1.00  0.00     0.009 A 
ATOM     49  C   UNL A   1      48.394  25.858  31.177  1.00  0.00     0.009 A 
ATOM     50  C   UNL A   1      50.199  25.870  29.048  1.00  0.00     0.001 A 
ATOM     51  C   UNL A   1      49.691  25.373  31.357  1.00  0.00     0.001 A 
ATOM     52  C   UNL A   1      50.588  25.368  30.290  1.00  0.00     0.000 A 
ENDBRANCH  33  47
BRANCH  34  53
ATOM     53  C   UNL A   1      38.487  29.291  29.024  1.00  0.00    -0.014 A 
ATOM     54  C   UNL A   1      38.016  29.777  27.794  1.00  0.00     0.009 A 
ATOM     55  C   UNL A   1      37.611  29.252  30.118  1.00  0.00     0.009 A 
ATOM     56  C   UNL A   1      36.705  30.242  27.672  1.00  0.00     0.001 A 
ATOM     57  C   UNL A   1      36.291  29.690  29.985  1.00  0.00     0.001 A 
ATOM     58  C   UNL A   1      35.843  30.195  28.765  1.00  0.00     0.000 A 
ENDBRANCH  34  53
BRANCH  46  59
ATOM     59  C   UNL A   1      44.336  32.503  30.986  1.00  0.00    -0.014 A 
ATOM     60  C   UNL A   1      44.216  32.912  32.323  1.00  0.00     0.009 A 
ATOM     61  C   UNL A   1      44.756  33.436  30.025  1.00  0.00     0.009 A 
ATOM     62  C   UNL A   1      44.469  34.238  32.681  1.00  0.00     0.001 A 
ATOM     63  C   UNL A   1      45.041  34.752  30.391  1.00  0.00     0.001 A 
ATOM     64  C   UNL A   1      44.886  35.154  31.715  1.00  0.00     0.000 A 
ENDBRANCH  46  59
ENDBRANCH  20  21
ENDBRANCH  12  15
ENDBRANCH  10  11
ENDBRANCH   9  10
ENDBRANCH   8   9
ENDBRANCH   7   8
ENDBRANCH   5   7
ENDBRANCH   2   3
BRANCH   2  65
ATOM     65  C   UNL A   1      32.272  23.971  24.974  1.00  0.00    -0.033 A 
ATOM     66  C   UNL A   1      32.333  24.643  23.743  1.00  0.00     0.005 A 
ATOM     67  C   UNL A   1      31.204  24.239  25.836  1.00  0.00     0.044 A 
ATOM     68  C   UNL A   1      31.350  25.563  23.383  1.00  0.00     0.012 A 
ATOM     69  C   UNL A   1      30.227  25.160  25.468  1.00  0.00     0.131 A 
ATOM     70  C   UNL A   1      30.281  25.842  24.244  1.00  0.00     0.018 A 
ATOM     71  F   UNL A   1      29.224  25.391  26.330  1.00  0.00    -0.206 F 
BRANCH  70  72
ATOM     72  C   UNL A   1      29.315  26.889  23.900  1.00  0.00    -0.012 A 
ATOM     73  C   UNL A   1      27.930  26.665  23.940  1.00  0.00     0.009 A 
ATOM     74  C   UNL A   1      29.783  28.134  23.457  1.00  0.00     0.056 A 
ATOM     75  C   UNL A   1      27.035  27.660  23.539  1.00  0.00     0.004 A 
ATOM     76  C   UNL A   1      28.892  29.115  23.040  1.00  0.00     0.133 A 
ATOM     77  C   UNL A   1      27.517  28.886  23.084  1.00  0.00     0.047 A 
BRANCH  76  78
ATOM     78  O   UNL A   1      29.288  30.388  22.575  1.00  0.00    -0.410 OA
BRANCH  78  79
ATOM     79  C   UNL A   1      28.793  31.607  23.030  1.00  0.00     0.412 C 
ATOM     80  O   UNL A   1      27.852  32.240  22.568  1.00  0.00    -0.224 OA
ATOM     81  N   UNL A   1      29.467  32.077  24.121  1.00  0.00    -0.321 N 
ATOM     82  H   UNL A   1      29.249  32.987  24.429  1.00  0.00     0.167 HD
BRANCH  81  83
ATOM     83  C   UNL A   1      30.470  31.351  24.862  1.00  0.00     0.120 C 
BRANCH  83  84
ATOM     84  C   UNL A   1      31.028  32.105  26.068  1.00  0.00     0.026 C 
BRANCH  84  85
ATOM     85  C   UNL A   1      31.900  31.333  27.066  1.00  0.00     0.037 C 
BRANCH  85  86
ATOM     86  C   UNL A   1      32.309  29.905  26.790  1.00  0.00    -0.048 A 
ATOM     87  C   UNL A   1      31.716  28.779  27.369  1.00  0.00     0.004 A 
ATOM     88  C   UNL A   1      33.406  29.702  25.933  1.00  0.00     0.004 A 
ATOM     89  C   UNL A   1      32.204  27.495  27.107  1.00  0.00     0.000 A 
ATOM     90  C   UNL A   1      33.886  28.419  25.660  1.00  0.00     0.000 A 
ATOM     91  C   UNL A   1      33.287  27.313  26.253  1.00  0.00     0.000 A 
ENDBRANCH  85  86
ENDBRANCH  84  85
ENDBRANCH  83  84
ENDBRANCH  81  83
ENDBRANCH  78  79
ENDBRANCH  76  78
ENDBRANCH  70  72
ENDBRANCH   2  65
TORSDOF 19
ENDMDL
MODEL 2
REMARK VINA RESULT:     -11.6      0.388      5.569
REMARK SMILES C[C@@H](C(=O)NCCCCNC(=O)c1ccc(-c2c3nc(c(-c4ccccc4)c4ccc([nH]4)c(-c4ccccc4)c4nc(c(-c5ccccc5)c5ccc2[nH]5)C=C4)C=C3)cc1)c1ccc(-c2cccc(OC(=O)NCCCc3ccccc3)c2)c(F)c1
REMARK SMILES IDX 1 1 2 2 3 3 4 4 5 5 6 7 7 8 8 9 9 10 10 11 11 12 12 14 13 15
REMARK SMILES IDX 14 16 60 17 15 18 59 19 16 20 17 21 18 22 53 23 19 24 58 25
REMARK SMILES IDX 52 26 54 27 20 28 57 29 51 30 50 31 21 33 43 34 28 35 42 36
REMARK SMILES IDX 29 37 32 38 41 39 55 40 30 41 31 42 40 44 56 45 33 46 22 47
REMARK SMILES IDX 23 48 27 49 24 50 26 51 25 52 44 53 45 54 49 55 46 56 48 57
REMARK SMILES IDX 47 58 34 59 35 60 39 61 36 62 38 63 37 64 61 65 62 66 86 67
REMARK SMILES IDX 63 68 84 69 64 70 85 71 65 72 66 73 83 74 67 75 69 76 68 77
REMARK SMILES IDX 70 78 71 79 72 80 73 81 74 83 75 84 76 85 77 86 78 87 82 88
REMARK SMILES IDX 79 89 81 90 80 91
REMARK H PARENT 5 6 10 13 54 32 32 43 73 82
REMARK Flexibility Score: inf
ROOT
ATOM      1  C   UNL A   1      33.250  22.762  26.889  1.00  0.00     0.023 C 
ATOM      2  C   UNL A   1      33.354  23.021  25.384  1.00  0.00     0.105 C 
ENDROOT
BRANCH   2   3
ATOM      3  C   UNL A   1      33.284  21.738  24.537  1.00  0.00     0.227 C 
ATOM      4  O   UNL A   1      32.328  21.445  23.817  1.00  0.00    -0.274 OA
ATOM      5  N   UNL A   1      34.338  20.872  24.529  1.00  0.00    -0.356 N 
ATOM      6  H   UNL A   1      34.295  20.163  23.848  1.00  0.00     0.163 HD
BRANCH   5   7
ATOM      7  C   UNL A   1      35.509  20.844  25.376  1.00  0.00     0.116 C 
BRANCH   7   8
ATOM      8  C   UNL A   1      36.774  21.094  24.553  1.00  0.00     0.023 C 
BRANCH   8   9
ATOM      9  C   UNL A   1      37.854  20.020  24.707  1.00  0.00     0.023 C 
BRANCH   9  10
ATOM     10  C   UNL A   1      38.828  20.251  25.853  1.00  0.00     0.116 C 
BRANCH  10  11
ATOM     11  N   UNL A   1      39.959  19.340  25.820  1.00  0.00    -0.352 N 
ATOM     12  C   UNL A   1      41.279  19.590  26.093  1.00  0.00     0.251 C 
ATOM     13  H   UNL A   1      39.748  18.412  25.564  1.00  0.00     0.163 HD
ATOM     14  O   UNL A   1      42.125  18.728  25.875  1.00  0.00    -0.269 OA
BRANCH  12  15
ATOM     15  C   UNL A   1      41.684  20.907  26.626  1.00  0.00     0.039 A 
ATOM     16  C   UNL A   1      42.231  21.844  25.747  1.00  0.00     0.014 A 
ATOM     17  C   UNL A   1      41.540  21.215  27.981  1.00  0.00     0.014 A 
ATOM     18  C   UNL A   1      42.599  23.104  26.220  1.00  0.00     0.010 A 
ATOM     19  C   UNL A   1      41.830  22.498  28.435  1.00  0.00     0.010 A 
ATOM     20  C   UNL A   1      42.382  23.448  27.565  1.00  0.00    -0.014 A 
BRANCH  20  21
ATOM     21  C   UNL A   1      42.762  24.787  28.079  1.00  0.00     0.031 A 
ATOM     22  C   UNL A   1      41.709  25.839  28.293  1.00  0.00     0.074 A 
ATOM     23  C   UNL A   1      44.057  25.068  28.318  1.00  0.00     0.049 A 
ATOM     24  N   UNL A   1      41.843  27.063  28.739  1.00  0.00    -0.248 NA
ATOM     25  C   UNL A   1      40.326  25.480  27.937  1.00  0.00     0.031 C 
ATOM     26  C   UNL A   1      45.178  24.148  28.111  1.00  0.00     0.029 A 
ATOM     27  N   UNL A   1      44.648  26.210  28.795  1.00  0.00    -0.354 N 
ATOM     28  C   UNL A   1      40.572  27.621  28.696  1.00  0.00     0.074 A 
ATOM     29  C   UNL A   1      39.690  26.625  28.131  1.00  0.00     0.031 C 
ATOM     30  C   UNL A   1      46.315  24.748  28.502  1.00  0.00     0.029 A 
ATOM     31  C   UNL A   1      46.008  26.102  28.950  1.00  0.00     0.049 A 
ATOM     32  H   UNL A   1      44.144  27.030  29.006  1.00  0.00     0.167 HD
ATOM     33  C   UNL A   1      40.167  28.846  29.109  1.00  0.00     0.031 A 
ATOM     34  C   UNL A   1      46.907  26.992  29.408  1.00  0.00     0.031 A 
ATOM     35  C   UNL A   1      41.042  29.833  29.685  1.00  0.00     0.049 A 
ATOM     36  C   UNL A   1      46.433  28.347  29.858  1.00  0.00     0.074 A 
ATOM     37  C   UNL A   1      40.720  31.077  30.197  1.00  0.00     0.029 A 
ATOM     38  N   UNL A   1      42.413  29.685  29.821  1.00  0.00    -0.354 N 
ATOM     39  N   UNL A   1      45.215  28.830  29.889  1.00  0.00    -0.248 NA
ATOM     40  C   UNL A   1      47.462  29.273  30.352  1.00  0.00     0.031 C 
ATOM     41  C   UNL A   1      41.906  31.706  30.592  1.00  0.00     0.029 A 
ATOM     42  C   UNL A   1      42.957  30.828  30.385  1.00  0.00     0.049 A 
ATOM     43  H   UNL A   1      42.926  28.887  29.556  1.00  0.00     0.167 HD
ATOM     44  C   UNL A   1      45.327  30.102  30.438  1.00  0.00     0.074 A 
ATOM     45  C   UNL A   1      46.729  30.307  30.739  1.00  0.00     0.031 C 
ATOM     46  C   UNL A   1      44.355  31.016  30.677  1.00  0.00     0.031 A 
BRANCH  33  47
ATOM     47  C   UNL A   1      38.712  29.189  28.937  1.00  0.00    -0.014 A 
ATOM     48  C   UNL A   1      37.789  29.009  29.980  1.00  0.00     0.009 A 
ATOM     49  C   UNL A   1      38.262  29.719  27.718  1.00  0.00     0.009 A 
ATOM     50  C   UNL A   1      36.439  29.310  29.791  1.00  0.00     0.001 A 
ATOM     51  C   UNL A   1      36.917  30.051  27.542  1.00  0.00     0.001 A 
ATOM     52  C   UNL A   1      36.005  29.835  28.574  1.00  0.00     0.000 A 
ENDBRANCH  33  47
BRANCH  34  53
ATOM     53  C   UNL A   1      48.343  26.622  29.507  1.00  0.00    -0.014 A 
ATOM     54  C   UNL A   1      48.825  25.946  30.639  1.00  0.00     0.009 A 
ATOM     55  C   UNL A   1      49.241  26.951  28.481  1.00  0.00     0.009 A 
ATOM     56  C   UNL A   1      50.180  25.632  30.754  1.00  0.00     0.001 A 
ATOM     57  C   UNL A   1      50.592  26.610  28.585  1.00  0.00     0.001 A 
ATOM     58  C   UNL A   1      51.062  25.961  29.726  1.00  0.00     0.000 A 
ENDBRANCH  34  53
BRANCH  46  59
ATOM     59  C   UNL A   1      44.770  32.302  31.337  1.00  0.00    -0.014 A 
ATOM     60  C   UNL A   1      45.211  33.402  30.586  1.00  0.00     0.009 A 
ATOM     61  C   UNL A   1      44.691  32.419  32.733  1.00  0.00     0.009 A 
ATOM     62  C   UNL A   1      45.606  34.580  31.224  1.00  0.00     0.001 A 
ATOM     63  C   UNL A   1      45.055  33.607  33.366  1.00  0.00     0.001 A 
ATOM     64  C   UNL A   1      45.523  34.682  32.613  1.00  0.00     0.000 A 
ENDBRANCH  46  59
ENDBRANCH  20  21
ENDBRANCH  12  15
ENDBRANCH  10  11
ENDBRANCH   9  10
ENDBRANCH   8   9
ENDBRANCH   7   8
ENDBRANCH   5   7
ENDBRANCH   2   3
BRANCH   2  65
ATOM     65  C   UNL A   1      32.283  24.029  24.993  1.00  0.00    -0.033 A 
ATOM     66  C   UNL A   1      32.351  24.713  23.769  1.00  0.00     0.005 A 
ATOM     67  C   UNL A   1      31.203  24.277  25.846  1.00  0.00     0.044 A 
ATOM     68  C   UNL A   1      31.361  25.625  23.406  1.00  0.00     0.012 A 
ATOM     69  C   UNL A   1      30.220  25.190  25.475  1.00  0.00     0.131 A 
ATOM     70  C   UNL A   1      30.280  25.884  24.257  1.00  0.00     0.018 A 
ATOM     71  F   UNL A   1      29.205  25.401  26.327  1.00  0.00    -0.206 F 
BRANCH  70  72
ATOM     72  C   UNL A   1      29.305  26.923  23.912  1.00  0.00    -0.012 A 
ATOM     73  C   UNL A   1      27.922  26.689  23.958  1.00  0.00     0.009 A 
ATOM     74  C   UNL A   1      29.763  28.169  23.462  1.00  0.00     0.056 A 
ATOM     75  C   UNL A   1      27.019  27.677  23.555  1.00  0.00     0.004 A 
ATOM     76  C   UNL A   1      28.864  29.141  23.044  1.00  0.00     0.133 A 
ATOM     77  C   UNL A   1      27.491  28.904  23.094  1.00  0.00     0.047 A 
BRANCH  76  78
ATOM     78  O   UNL A   1      29.250  30.415  22.572  1.00  0.00    -0.410 OA
BRANCH  78  79
ATOM     79  C   UNL A   1      28.755  31.633  23.029  1.00  0.00     0.412 C 
ATOM     80  O   UNL A   1      27.808  32.263  22.574  1.00  0.00    -0.224 OA
ATOM     81  N   UNL A   1      29.435  32.107  24.115  1.00  0.00    -0.321 N 
ATOM     82  H   UNL A   1      29.216  33.016  24.423  1.00  0.00     0.167 HD
BRANCH  81  83
ATOM     83  C   UNL A   1      30.445  31.385  24.849  1.00  0.00     0.120 C 
BRANCH  83  84
ATOM     84  C   UNL A   1      31.016  32.145  26.045  1.00  0.00     0.026 C 
BRANCH  84  85
ATOM     85  C   UNL A   1      31.894  31.377  27.042  1.00  0.00     0.037 C 
BRANCH  85  86
ATOM     86  C   UNL A   1      32.294  29.945  26.774  1.00  0.00    -0.048 A 
ATOM     87  C   UNL A   1      31.687  28.825  27.351  1.00  0.00     0.004 A 
ATOM     88  C   UNL A   1      33.396  29.730  25.926  1.00  0.00     0.004 A 
ATOM     89  C   UNL A   1      32.167  27.536  27.097  1.00  0.00     0.000 A 
ATOM     90  C   UNL A   1      33.868  28.443  25.661  1.00  0.00     0.000 A 
ATOM     91  C   UNL A   1      33.255  27.344  26.252  1.00  0.00     0.000 A 
ENDBRANCH  85  86
ENDBRANCH  84  85
ENDBRANCH  83  84
ENDBRANCH  81  83
ENDBRANCH  78  79
ENDBRANCH  76  78
ENDBRANCH  70  72
ENDBRANCH   2  65
TORSDOF 19
ENDMDL
MODEL 3
REMARK VINA RESULT:     -11.5      5.091      8.643
REMARK SMILES C[C@@H](C(=O)NCCCCNC(=O)c1ccc(-c2c3nc(c(-c4ccccc4)c4ccc([nH]4)c(-c4ccccc4)c4nc(c(-c5ccccc5)c5ccc2[nH]5)C=C4)C=C3)cc1)c1ccc(-c2cccc(OC(=O)NCCCc3ccccc3)c2)c(F)c1
REMARK SMILES IDX 1 1 2 2 3 3 4 4 5 5 6 7 7 8 8 9 9 10 10 11 11 12 12 14 13 15
REMARK SMILES IDX 14 16 60 17 15 18 59 19 16 20 17 21 18 22 53 23 19 24 58 25
REMARK SMILES IDX 52 26 54 27 20 28 57 29 51 30 50 31 21 33 43 34 28 35 42 36
REMARK SMILES IDX 29 37 32 38 41 39 55 40 30 41 31 42 40 44 56 45 33 46 22 47
REMARK SMILES IDX 23 48 27 49 24 50 26 51 25 52 44 53 45 54 49 55 46 56 48 57
REMARK SMILES IDX 47 58 34 59 35 60 39 61 36 62 38 63 37 64 61 65 62 66 86 67
REMARK SMILES IDX 63 68 84 69 64 70 85 71 65 72 66 73 83 74 67 75 69 76 68 77
REMARK SMILES IDX 70 78 71 79 72 80 73 81 74 83 75 84 76 85 77 86 78 87 82 88
REMARK SMILES IDX 79 89 81 90 80 91
REMARK H PARENT 5 6 10 13 54 32 32 43 73 82
REMARK Flexibility Score: inf
ROOT
ATOM      1  C   UNL A   1      42.725  23.359  28.708  1.00  0.00     0.023 C 
ATOM      2  C   UNL A   1      42.459  24.064  27.375  1.00  0.00     0.105 C 
ENDROOT
BRANCH   2   3
ATOM      3  C   UNL A   1      41.722  23.180  26.353  1.00  0.00     0.227 C 
ATOM      4  O   UNL A   1      40.608  22.691  26.550  1.00  0.00    -0.274 OA
ATOM      5  N   UNL A   1      42.286  22.935  25.136  1.00  0.00    -0.356 N 
ATOM      6  H   UNL A   1      41.695  22.502  24.478  1.00  0.00     0.163 HD
BRANCH   5   7
ATOM      7  C   UNL A   1      43.625  23.217  24.672  1.00  0.00     0.116 C 
BRANCH   7   8
ATOM      8  C   UNL A   1      44.613  22.184  25.217  1.00  0.00     0.023 C 
BRANCH   8   9
ATOM      9  C   UNL A   1      46.056  22.682  25.327  1.00  0.00     0.023 C 
BRANCH   9  10
ATOM     10  C   UNL A   1      46.211  24.068  25.935  1.00  0.00     0.116 C 
BRANCH  10  11
ATOM     11  N   UNL A   1      46.716  25.044  24.985  1.00  0.00    -0.352 N 
ATOM     12  C   UNL A   1      46.574  26.407  24.987  1.00  0.00     0.251 C 
ATOM     13  H   UNL A   1      47.233  24.673  24.233  1.00  0.00     0.163 HD
ATOM     14  O   UNL A   1      46.950  27.065  24.023  1.00  0.00    -0.269 OA
BRANCH  12  15
ATOM     15  C   UNL A   1      45.944  27.080  26.142  1.00  0.00     0.039 A 
ATOM     16  C   UNL A   1      46.757  27.499  27.197  1.00  0.00     0.014 A 
ATOM     17  C   UNL A   1      44.563  27.287  26.195  1.00  0.00     0.014 A 
ATOM     18  C   UNL A   1      46.190  28.159  28.288  1.00  0.00     0.010 A 
ATOM     19  C   UNL A   1      44.010  28.016  27.243  1.00  0.00     0.010 A 
ATOM     20  C   UNL A   1      44.814  28.441  28.309  1.00  0.00    -0.014 A 
BRANCH  20  21
ATOM     21  C   UNL A   1      44.200  29.149  29.460  1.00  0.00     0.031 A 
ATOM     22  C   UNL A   1      43.865  30.611  29.354  1.00  0.00     0.074 A 
ATOM     23  C   UNL A   1      43.978  28.485  30.611  1.00  0.00     0.049 A 
ATOM     24  N   UNL A   1      43.321  31.400  30.247  1.00  0.00    -0.248 NA
ATOM     25  C   UNL A   1      44.208  31.283  28.090  1.00  0.00     0.031 C 
ATOM     26  C   UNL A   1      44.297  27.076  30.854  1.00  0.00     0.029 A 
ATOM     27  N   UNL A   1      43.424  28.910  31.791  1.00  0.00    -0.354 N 
ATOM     28  C   UNL A   1      43.277  32.659  29.660  1.00  0.00     0.074 A 
ATOM     29  C   UNL A   1      43.897  32.543  28.360  1.00  0.00     0.031 C 
ATOM     30  C   UNL A   1      43.892  26.743  32.091  1.00  0.00     0.029 A 
ATOM     31  C   UNL A   1      43.321  27.920  32.738  1.00  0.00     0.049 A 
ATOM     32  H   UNL A   1      43.128  29.836  31.945  1.00  0.00     0.167 HD
ATOM     33  C   UNL A   1      42.749  33.806  30.149  1.00  0.00     0.031 A 
ATOM     34  C   UNL A   1      42.816  27.955  33.985  1.00  0.00     0.031 A 
ATOM     35  C   UNL A   1      42.118  33.919  31.438  1.00  0.00     0.049 A 
ATOM     36  C   UNL A   1      42.238  29.242  34.506  1.00  0.00     0.074 A 
ATOM     37  C   UNL A   1      41.493  35.018  31.998  1.00  0.00     0.029 A 
ATOM     38  N   UNL A   1      42.037  32.894  32.367  1.00  0.00    -0.354 N 
ATOM     39  N   UNL A   1      42.129  30.403  33.908  1.00  0.00    -0.248 NA
ATOM     40  C   UNL A   1      41.699  29.214  35.873  1.00  0.00     0.031 C 
ATOM     41  C   UNL A   1      41.082  34.673  33.290  1.00  0.00     0.029 A 
ATOM     42  C   UNL A   1      41.396  33.342  33.509  1.00  0.00     0.049 A 
ATOM     43  H   UNL A   1      42.385  31.981  32.235  1.00  0.00     0.167 HD
ATOM     44  C   UNL A   1      41.478  31.234  34.811  1.00  0.00     0.074 A 
ATOM     45  C   UNL A   1      41.204  30.438  35.990  1.00  0.00     0.031 C 
ATOM     46  C   UNL A   1      41.132  32.537  34.674  1.00  0.00     0.031 A 
BRANCH  33  47
ATOM     47  C   UNL A   1      42.846  35.035  29.287  1.00  0.00    -0.014 A 
ATOM     48  C   UNL A   1      43.957  35.893  29.358  1.00  0.00     0.009 A 
ATOM     49  C   UNL A   1      41.821  35.329  28.376  1.00  0.00     0.009 A 
ATOM     50  C   UNL A   1      44.016  37.042  28.567  1.00  0.00     0.001 A 
ATOM     51  C   UNL A   1      41.897  36.461  27.562  1.00  0.00     0.001 A 
ATOM     52  C   UNL A   1      42.989  37.322  27.666  1.00  0.00     0.000 A 
ENDBRANCH  33  47
BRANCH  34  53
ATOM     53  C   UNL A   1      42.794  26.723  34.817  1.00  0.00    -0.014 A 
ATOM     54  C   UNL A   1      43.944  26.315  35.510  1.00  0.00     0.009 A 
ATOM     55  C   UNL A   1      41.632  25.943  34.913  1.00  0.00     0.009 A 
ATOM     56  C   UNL A   1      43.939  25.138  36.259  1.00  0.00     0.001 A 
ATOM     57  C   UNL A   1      41.621  24.781  35.688  1.00  0.00     0.001 A 
ATOM     58  C   UNL A   1      42.778  24.373  36.351  1.00  0.00     0.000 A 
ENDBRANCH  34  53
BRANCH  46  59
ATOM     59  C   UNL A   1      40.378  33.170  35.811  1.00  0.00    -0.014 A 
ATOM     60  C   UNL A   1      41.044  33.831  36.855  1.00  0.00     0.009 A 
ATOM     61  C   UNL A   1      38.975  33.123  35.821  1.00  0.00     0.009 A 
ATOM     62  C   UNL A   1      40.321  34.396  37.908  1.00  0.00     0.001 A 
ATOM     63  C   UNL A   1      38.254  33.717  36.857  1.00  0.00     0.001 A 
ATOM     64  C   UNL A   1      38.927  34.342  37.905  1.00  0.00     0.000 A 
ENDBRANCH  46  59
ENDBRANCH  20  21
ENDBRANCH  12  15
ENDBRANCH  10  11
ENDBRANCH   9  10
ENDBRANCH   8   9
ENDBRANCH   7   8
ENDBRANCH   5   7
ENDBRANCH   2   3
BRANCH   2  65
ATOM     65  C   UNL A   1      41.717  25.362  27.656  1.00  0.00    -0.033 A 
ATOM     66  C   UNL A   1      41.115  26.087  26.615  1.00  0.00     0.005 A 
ATOM     67  C   UNL A   1      41.612  25.846  28.964  1.00  0.00     0.044 A 
ATOM     68  C   UNL A   1      40.423  27.269  26.876  1.00  0.00     0.012 A 
ATOM     69  C   UNL A   1      40.919  27.027  29.214  1.00  0.00     0.131 A 
ATOM     70  C   UNL A   1      40.318  27.763  28.183  1.00  0.00     0.018 A 
ATOM     71  F   UNL A   1      40.849  27.457  30.484  1.00  0.00    -0.206 F 
BRANCH  70  72
ATOM     72  C   UNL A   1      39.682  29.061  28.428  1.00  0.00    -0.012 A 
ATOM     73  C   UNL A   1      40.260  30.024  29.269  1.00  0.00     0.009 A 
ATOM     74  C   UNL A   1      38.430  29.328  27.858  1.00  0.00     0.056 A 
ATOM     75  C   UNL A   1      39.596  31.223  29.541  1.00  0.00     0.004 A 
ATOM     76  C   UNL A   1      37.763  30.512  28.146  1.00  0.00     0.133 A 
ATOM     77  C   UNL A   1      38.344  31.466  28.981  1.00  0.00     0.047 A 
BRANCH  76  78
ATOM     78  O   UNL A   1      36.498  30.848  27.616  1.00  0.00    -0.410 OA
BRANCH  78  79
ATOM     79  C   UNL A   1      35.269  30.463  28.145  1.00  0.00     0.412 C 
ATOM     80  O   UNL A   1      34.769  29.346  28.112  1.00  0.00    -0.224 OA
ATOM     81  N   UNL A   1      34.617  31.489  28.769  1.00  0.00    -0.321 N 
ATOM     82  H   UNL A   1      33.694  31.322  29.067  1.00  0.00     0.167 HD
BRANCH  81  83
ATOM     83  C   UNL A   1      35.170  32.795  29.029  1.00  0.00     0.120 C 
BRANCH  83  84
ATOM     84  C   UNL A   1      35.039  33.255  30.480  1.00  0.00     0.026 C 
BRANCH  84  85
ATOM     85  C   UNL A   1      34.964  32.186  31.577  1.00  0.00     0.037 C 
BRANCH  85  86
ATOM     86  C   UNL A   1      36.195  31.409  31.981  1.00  0.00    -0.048 A 
ATOM     87  C   UNL A   1      37.280  31.941  32.684  1.00  0.00     0.004 A 
ATOM     88  C   UNL A   1      36.277  30.067  31.566  1.00  0.00     0.004 A 
ATOM     89  C   UNL A   1      38.411  31.164  32.958  1.00  0.00     0.000 A 
ATOM     90  C   UNL A   1      37.399  29.286  31.850  1.00  0.00     0.000 A 
ATOM     91  C   UNL A   1      38.470  29.837  32.543  1.00  0.00     0.000 A 
ENDBRANCH  85  86
ENDBRANCH  84  85
ENDBRANCH  83  84
ENDBRANCH  81  83
ENDBRANCH  78  79
ENDBRANCH  76  78
ENDBRANCH  70  72
ENDBRANCH   2  65
TORSDOF 19
ENDMDL
