MODEL 1
REMARK VINA RESULT:     -12.7      0.000      0.000
REMARK SMILES Cc1ccccc1/[NH+]=C1\S[C@@H](CC(=O)Nc2ccc(C(=O)NCCCCNC(=O)c3ccc(-c4c5nc(c(-c6ccccc6)c6ccc([nH]6)c(-c6ccccc6)c6nc(c(-c7ccccc7)c7ccc4[nH]7)C=C6)C=C5)cc3)cc2)C(=O)N1C
REMARK SMILES IDX 23 1 22 2 20 3 21 4 19 6 16 7 17 8 79 9 18 10 78 11 15 12
REMARK SMILES IDX 13 13 14 14 12 16 11 17 8 18 9 19 10 21 82 22 80 23 83 24
REMARK SMILES IDX 81 25 7 26 1 27 2 28 3 29 4 30 6 31 5 32 24 33 25 34 26 35
REMARK SMILES IDX 27 36 28 37 29 39 30 40 31 41 77 42 32 43 76 44 33 45 34 46
REMARK SMILES IDX 35 47 70 48 36 49 75 50 69 51 71 52 37 53 74 54 68 55 67 56
REMARK SMILES IDX 38 58 60 59 45 60 59 61 46 62 49 63 58 64 72 65 47 66 48 67
REMARK SMILES IDX 57 69 73 70 50 71 39 72 40 73 44 74 41 75 43 76 42 77 61 78
REMARK SMILES IDX 62 79 66 80 63 81 65 82 64 83 51 84 52 85 56 86 53 87 55 88
REMARK SMILES IDX 54 89
REMARK H PARENT 22 5 15 15 8 20 27 38 71 57 49 68
REMARK Flexibility Score: inf
ROOT
ATOM      1  C   UNL A   1      33.104  30.998  27.194  1.00  0.00     0.116 C 
ENDROOT
BRANCH   1   2
ATOM      2  N   UNL A   1      32.276  29.879  27.638  1.00  0.00    -0.352 N 
ATOM      3  C   UNL A   1      31.972  28.642  27.105  1.00  0.00     0.251 C 
ATOM      4  O   UNL A   1      31.424  27.826  27.846  1.00  0.00    -0.269 OA
ATOM      5  H   UNL A   1      31.840  30.042  28.505  1.00  0.00     0.163 HD
BRANCH   3   6
ATOM      6  C   UNL A   1      32.266  28.236  25.702  1.00  0.00     0.039 A 
ATOM      7  C   UNL A   1      32.715  27.420  23.039  1.00  0.00     0.041 A 
ATOM      8  C   UNL A   1      33.682  27.270  24.022  1.00  0.00     0.027 A 
ATOM      9  C   UNL A   1      31.585  28.164  23.335  1.00  0.00     0.027 A 
ATOM     10  C   UNL A   1      33.461  27.642  25.340  1.00  0.00     0.016 A 
ATOM     11  C   UNL A   1      31.358  28.557  24.670  1.00  0.00     0.016 A 
BRANCH   7  12
ATOM     12  N   UNL A   1      32.913  26.834  21.780  1.00  0.00    -0.326 N 
ATOM     13  C   UNL A   1      32.810  25.486  21.491  1.00  0.00     0.226 C 
ATOM     14  O   UNL A   1      33.279  25.022  20.452  1.00  0.00    -0.275 OA
ATOM     15  H   UNL A   1      33.146  27.436  21.036  1.00  0.00     0.169 HD
BRANCH  13  16
ATOM     16  C   UNL A   1      31.906  24.644  22.380  1.00  0.00     0.128 C 
BRANCH  16  17
ATOM     17  C   UNL A   1      32.553  23.986  23.578  1.00  0.00     0.183 C 
ATOM     18  N   UNL A   1      34.779  21.802  25.373  1.00  0.00    -0.234 N 
ATOM     19  C   UNL A   1      33.958  22.135  24.446  1.00  0.00     0.319 C 
ATOM     20  H   UNL A   1      34.404  21.206  26.062  1.00  0.00     0.313 HD
ATOM     21  S   UNL A   1      34.106  23.142  23.051  1.00  0.00    -0.022 SA
ATOM     22  N   UNL A   1      32.649  21.789  24.519  1.00  0.00    -0.193 N 
ATOM     23  C   UNL A   1      31.808  22.864  24.302  1.00  0.00     0.324 C 
ATOM     24  C   UNL A   1      32.168  20.512  25.000  1.00  0.00     0.301 C 
ATOM     25  O   UNL A   1      30.671  22.941  24.715  1.00  0.00    -0.245 OA
BRANCH  18  26
ATOM     26  C   UNL A   1      36.126  22.149  25.566  1.00  0.00     0.128 A 
ATOM     27  C   UNL A   1      37.381  20.002  24.822  1.00  0.00     0.049 C 
ATOM     28  C   UNL A   1      37.299  21.390  25.385  1.00  0.00    -0.004 A 
ATOM     29  C   UNL A   1      38.549  21.958  25.726  1.00  0.00     0.008 A 
ATOM     30  C   UNL A   1      38.666  23.286  26.120  1.00  0.00     0.001 A 
ATOM     31  C   UNL A   1      36.289  23.509  25.897  1.00  0.00     0.052 A 
ATOM     32  C   UNL A   1      37.533  24.075  26.176  1.00  0.00     0.004 A 
ENDBRANCH  18  26
ENDBRANCH  16  17
ENDBRANCH  13  16
ENDBRANCH   7  12
ENDBRANCH   3   6
ENDBRANCH   1   2
BRANCH   1  33
ATOM     33  C   UNL A   1      34.584  30.889  27.618  1.00  0.00     0.023 C 
BRANCH  33  34
ATOM     34  C   UNL A   1      35.287  32.209  27.959  1.00  0.00     0.023 C 
BRANCH  34  35
ATOM     35  C   UNL A   1      35.919  32.248  29.345  1.00  0.00     0.116 C 
BRANCH  35  36
ATOM     36  N   UNL A   1      35.922  30.995  30.099  1.00  0.00    -0.352 N 
ATOM     37  C   UNL A   1      36.848  29.957  30.045  1.00  0.00     0.251 C 
ATOM     38  H   UNL A   1      35.172  30.869  30.725  1.00  0.00     0.163 HD
ATOM     39  O   UNL A   1      36.705  28.961  30.746  1.00  0.00    -0.269 OA
BRANCH  37  40
ATOM     40  C   UNL A   1      38.093  30.134  29.251  1.00  0.00     0.039 A 
ATOM     41  C   UNL A   1      38.078  29.718  27.916  1.00  0.00     0.014 A 
ATOM     42  C   UNL A   1      39.302  30.361  29.896  1.00  0.00     0.014 A 
ATOM     43  C   UNL A   1      39.242  29.189  27.367  1.00  0.00     0.010 A 
ATOM     44  C   UNL A   1      40.419  29.715  29.418  1.00  0.00     0.010 A 
ATOM     45  C   UNL A   1      40.362  29.064  28.187  1.00  0.00    -0.014 A 
BRANCH  45  46
ATOM     46  C   UNL A   1      41.549  28.312  27.820  1.00  0.00     0.031 A 
ATOM     47  C   UNL A   1      41.600  26.897  28.182  1.00  0.00     0.074 A 
ATOM     48  C   UNL A   1      42.543  28.884  27.110  1.00  0.00     0.049 A 
ATOM     49  N   UNL A   1      42.676  26.245  28.443  1.00  0.00    -0.248 NA
ATOM     50  C   UNL A   1      40.383  26.105  28.313  1.00  0.00     0.031 C 
ATOM     51  C   UNL A   1      43.744  28.270  26.552  1.00  0.00     0.029 A 
ATOM     52  N   UNL A   1      42.781  30.248  26.992  1.00  0.00    -0.354 N 
ATOM     53  C   UNL A   1      42.339  24.914  28.404  1.00  0.00     0.074 A 
ATOM     54  C   UNL A   1      40.897  24.883  28.458  1.00  0.00     0.031 C 
ATOM     55  C   UNL A   1      44.711  29.205  26.485  1.00  0.00     0.029 A 
ATOM     56  C   UNL A   1      44.178  30.410  27.095  1.00  0.00     0.049 A 
ATOM     57  H   UNL A   1      42.110  30.957  26.864  1.00  0.00     0.167 HD
ATOM     58  C   UNL A   1      43.310  24.003  28.115  1.00  0.00     0.031 A 
ATOM     59  C   UNL A   1      44.700  31.080  28.166  1.00  0.00     0.031 A 
ATOM     60  C   UNL A   1      44.632  24.633  28.067  1.00  0.00     0.049 A 
ATOM     61  C   UNL A   1      45.597  30.197  29.002  1.00  0.00     0.074 A 
ATOM     62  C   UNL A   1      45.437  25.051  27.019  1.00  0.00     0.029 A 
ATOM     63  N   UNL A   1      45.127  25.258  29.211  1.00  0.00    -0.354 N 
ATOM     64  N   UNL A   1      45.520  28.893  28.993  1.00  0.00    -0.248 NA
ATOM     65  C   UNL A   1      46.647  30.686  29.891  1.00  0.00     0.031 C 
ATOM     66  C   UNL A   1      46.333  26.033  27.523  1.00  0.00     0.029 A 
ATOM     67  C   UNL A   1      46.100  26.182  28.878  1.00  0.00     0.049 A 
ATOM     68  H   UNL A   1      44.826  25.067  30.130  1.00  0.00     0.167 HD
ATOM     69  C   UNL A   1      46.502  28.370  29.786  1.00  0.00     0.074 A 
ATOM     70  C   UNL A   1      47.171  29.533  30.347  1.00  0.00     0.031 C 
ATOM     71  C   UNL A   1      46.708  27.026  29.900  1.00  0.00     0.031 A 
BRANCH  58  72
ATOM     72  C   UNL A   1      42.984  22.648  27.530  1.00  0.00    -0.014 A 
ATOM     73  C   UNL A   1      43.593  22.246  26.328  1.00  0.00     0.009 A 
ATOM     74  C   UNL A   1      42.038  21.755  28.064  1.00  0.00     0.009 A 
ATOM     75  C   UNL A   1      43.215  21.074  25.658  1.00  0.00     0.001 A 
ATOM     76  C   UNL A   1      41.623  20.603  27.381  1.00  0.00     0.001 A 
ATOM     77  C   UNL A   1      42.209  20.265  26.171  1.00  0.00     0.000 A 
ENDBRANCH  58  72
BRANCH  59  78
ATOM     78  C   UNL A   1      43.761  32.136  28.657  1.00  0.00    -0.014 A 
ATOM     79  C   UNL A   1      43.141  31.879  29.905  1.00  0.00     0.009 A 
ATOM     80  C   UNL A   1      43.789  33.456  28.201  1.00  0.00     0.009 A 
ATOM     81  C   UNL A   1      42.749  32.912  30.756  1.00  0.00     0.001 A 
ATOM     82  C   UNL A   1      43.333  34.489  29.036  1.00  0.00     0.001 A 
ATOM     83  C   UNL A   1      42.871  34.224  30.330  1.00  0.00     0.000 A 
ENDBRANCH  59  78
BRANCH  71  84
ATOM     84  C   UNL A   1      47.598  26.385  30.928  1.00  0.00    -0.014 A 
ATOM     85  C   UNL A   1      47.200  26.132  32.248  1.00  0.00     0.009 A 
ATOM     86  C   UNL A   1      48.854  25.882  30.529  1.00  0.00     0.009 A 
ATOM     87  C   UNL A   1      48.048  25.473  33.145  1.00  0.00     0.001 A 
ATOM     88  C   UNL A   1      49.681  25.180  31.406  1.00  0.00     0.001 A 
ATOM     89  C   UNL A   1      49.284  24.993  32.723  1.00  0.00     0.000 A 
ENDBRANCH  71  84
ENDBRANCH  45  46
ENDBRANCH  37  40
ENDBRANCH  35  36
ENDBRANCH  34  35
ENDBRANCH  33  34
ENDBRANCH   1  33
TORSDOF 15
ENDMDL
MODEL 2
REMARK VINA RESULT:     -12.4      3.675      5.457
REMARK SMILES Cc1ccccc1/[NH+]=C1\S[C@@H](CC(=O)Nc2ccc(C(=O)NCCCCNC(=O)c3ccc(-c4c5nc(c(-c6ccccc6)c6ccc([nH]6)c(-c6ccccc6)c6nc(c(-c7ccccc7)c7ccc4[nH]7)C=C6)C=C5)cc3)cc2)C(=O)N1C
REMARK SMILES IDX 23 1 22 2 20 3 21 4 19 6 16 7 17 8 79 9 18 10 78 11 15 12
REMARK SMILES IDX 13 13 14 14 12 16 11 17 8 18 9 19 10 21 82 22 80 23 83 24
REMARK SMILES IDX 81 25 7 26 1 27 2 28 3 29 4 30 6 31 5 32 24 33 25 34 26 35
REMARK SMILES IDX 27 36 28 37 29 39 30 40 31 41 77 42 32 43 76 44 33 45 34 46
REMARK SMILES IDX 35 47 70 48 36 49 75 50 69 51 71 52 37 53 74 54 68 55 67 56
REMARK SMILES IDX 38 58 60 59 45 60 59 61 46 62 49 63 58 64 72 65 47 66 48 67
REMARK SMILES IDX 57 69 73 70 50 71 39 72 40 73 44 74 41 75 43 76 42 77 61 78
REMARK SMILES IDX 62 79 66 80 63 81 65 82 64 83 51 84 52 85 56 86 53 87 55 88
REMARK SMILES IDX 54 89
REMARK H PARENT 22 5 15 15 8 20 27 38 71 57 49 68
REMARK Flexibility Score: inf
ROOT
ATOM      1  C   UNL A   1      34.717  30.196  27.659  1.00  0.00     0.116 C 
ENDROOT
BRANCH   1   2
ATOM      2  N   UNL A   1      33.314  29.833  27.844  1.00  0.00    -0.352 N 
ATOM      3  C   UNL A   1      32.423  29.059  27.129  1.00  0.00     0.251 C 
ATOM      4  O   UNL A   1      31.365  28.756  27.682  1.00  0.00    -0.269 OA
ATOM      5  H   UNL A   1      32.918  30.226  28.656  1.00  0.00     0.163 HD
BRANCH   3   6
ATOM      6  C   UNL A   1      32.659  28.571  25.742  1.00  0.00     0.039 A 
ATOM      7  C   UNL A   1      32.993  27.620  23.106  1.00  0.00     0.041 A 
ATOM      8  C   UNL A   1      33.894  27.311  24.115  1.00  0.00     0.027 A 
ATOM      9  C   UNL A   1      32.022  28.573  23.361  1.00  0.00     0.027 A 
ATOM     10  C   UNL A   1      33.724  27.750  25.419  1.00  0.00     0.016 A 
ATOM     11  C   UNL A   1      31.849  29.034  24.682  1.00  0.00     0.016 A 
BRANCH   7  12
ATOM     12  N   UNL A   1      33.099  26.976  21.864  1.00  0.00    -0.326 N 
ATOM     13  C   UNL A   1      32.725  25.672  21.596  1.00  0.00     0.226 C 
ATOM     14  O   UNL A   1      33.115  25.097  20.580  1.00  0.00    -0.275 OA
ATOM     15  H   UNL A   1      33.470  27.499  21.118  1.00  0.00     0.169 HD
BRANCH  13  16
ATOM     16  C   UNL A   1      31.644  25.056  22.471  1.00  0.00     0.128 C 
BRANCH  16  17
ATOM     17  C   UNL A   1      32.109  24.178  23.610  1.00  0.00     0.183 C 
ATOM     18  N   UNL A   1      32.427  21.188  25.589  1.00  0.00    -0.234 N 
ATOM     19  C   UNL A   1      31.817  22.069  24.883  1.00  0.00     0.319 C 
ATOM     20  H   UNL A   1      32.251  21.241  26.556  1.00  0.00     0.313 HD
ATOM     21  S   UNL A   1      31.794  22.410  23.191  1.00  0.00    -0.022 SA
ATOM     22  N   UNL A   1      31.106  23.061  25.473  1.00  0.00    -0.193 N 
ATOM     23  C   UNL A   1      31.432  24.309  24.975  1.00  0.00     0.324 C 
ATOM     24  C   UNL A   1      30.278  22.887  26.647  1.00  0.00     0.301 C 
ATOM     25  O   UNL A   1      31.288  25.350  25.580  1.00  0.00    -0.245 OA
BRANCH  18  26
ATOM     26  C   UNL A   1      33.307  20.163  25.205  1.00  0.00     0.128 A 
ATOM     27  C   UNL A   1      35.629  21.309  25.376  1.00  0.00     0.049 C 
ATOM     28  C   UNL A   1      34.707  20.171  25.051  1.00  0.00    -0.004 A 
ATOM     29  C   UNL A   1      35.357  19.010  24.574  1.00  0.00     0.008 A 
ATOM     30  C   UNL A   1      34.669  17.820  24.367  1.00  0.00     0.001 A 
ATOM     31  C   UNL A   1      32.655  18.922  25.056  1.00  0.00     0.052 A 
ATOM     32  C   UNL A   1      33.315  17.767  24.639  1.00  0.00     0.004 A 
ENDBRANCH  18  26
ENDBRANCH  16  17
ENDBRANCH  13  16
ENDBRANCH   7  12
ENDBRANCH   3   6
ENDBRANCH   1   2
BRANCH   1  33
ATOM     33  C   UNL A   1      34.985  31.715  27.714  1.00  0.00     0.023 C 
BRANCH  33  34
ATOM     34  C   UNL A   1      35.277  32.299  29.102  1.00  0.00     0.023 C 
BRANCH  34  35
ATOM     35  C   UNL A   1      35.001  33.792  29.229  1.00  0.00     0.116 C 
BRANCH  35  36
ATOM     36  N   UNL A   1      33.966  34.188  30.183  1.00  0.00    -0.352 N 
ATOM     37  C   UNL A   1      34.018  34.158  31.575  1.00  0.00     0.251 C 
ATOM     38  H   UNL A   1      33.124  34.517  29.793  1.00  0.00     0.163 HD
ATOM     39  O   UNL A   1      33.054  34.525  32.239  1.00  0.00    -0.269 OA
BRANCH  37  40
ATOM     40  C   UNL A   1      35.303  33.831  32.247  1.00  0.00     0.039 A 
ATOM     41  C   UNL A   1      36.391  34.680  32.019  1.00  0.00     0.014 A 
ATOM     42  C   UNL A   1      35.509  32.563  32.776  1.00  0.00     0.014 A 
ATOM     43  C   UNL A   1      37.669  34.132  31.972  1.00  0.00     0.010 A 
ATOM     44  C   UNL A   1      36.743  31.982  32.596  1.00  0.00     0.010 A 
ATOM     45  C   UNL A   1      37.803  32.752  32.120  1.00  0.00    -0.014 A 
BRANCH  45  46
ATOM     46  C   UNL A   1      39.032  32.029  31.851  1.00  0.00     0.031 A 
ATOM     47  C   UNL A   1      38.935  30.767  31.120  1.00  0.00     0.074 A 
ATOM     48  C   UNL A   1      40.231  32.538  32.204  1.00  0.00     0.049 A 
ATOM     49  N   UNL A   1      39.742  29.776  31.258  1.00  0.00    -0.248 NA
ATOM     50  C   UNL A   1      37.854  30.520  30.174  1.00  0.00     0.031 C 
ATOM     51  C   UNL A   1      41.567  32.024  31.919  1.00  0.00     0.029 A 
ATOM     52  N   UNL A   1      40.449  33.519  33.163  1.00  0.00    -0.354 N 
ATOM     53  C   UNL A   1      39.520  28.945  30.187  1.00  0.00     0.074 A 
ATOM     54  C   UNL A   1      38.259  29.373  29.627  1.00  0.00     0.031 C 
ATOM     55  C   UNL A   1      42.397  32.419  32.902  1.00  0.00     0.029 A 
ATOM     56  C   UNL A   1      41.584  33.107  33.890  1.00  0.00     0.049 A 
ATOM     57  H   UNL A   1      39.918  34.336  33.305  1.00  0.00     0.167 HD
ATOM     58  C   UNL A   1      40.529  28.131  29.770  1.00  0.00     0.031 A 
ATOM     59  C   UNL A   1      41.455  32.776  35.210  1.00  0.00     0.031 A 
ATOM     60  C   UNL A   1      41.663  28.175  30.698  1.00  0.00     0.049 A 
ATOM     61  C   UNL A   1      41.817  31.333  35.469  1.00  0.00     0.074 A 
ATOM     62  C   UNL A   1      42.880  28.838  30.665  1.00  0.00     0.029 A 
ATOM     63  N   UNL A   1      41.473  27.777  32.020  1.00  0.00    -0.354 N 
ATOM     64  N   UNL A   1      41.800  30.417  34.538  1.00  0.00    -0.248 NA
ATOM     65  C   UNL A   1      42.239  30.803  36.763  1.00  0.00     0.031 C 
ATOM     66  C   UNL A   1      43.353  28.949  32.001  1.00  0.00     0.029 A 
ATOM     67  C   UNL A   1      42.446  28.322  32.837  1.00  0.00     0.049 A 
ATOM     68  H   UNL A   1      40.746  27.188  32.330  1.00  0.00     0.167 HD
ATOM     69  C   UNL A   1      42.247  29.232  35.052  1.00  0.00     0.074 A 
ATOM     70  C   UNL A   1      42.489  29.516  36.457  1.00  0.00     0.031 C 
ATOM     71  C   UNL A   1      42.408  28.118  34.280  1.00  0.00     0.031 A 
BRANCH  58  72
ATOM     72  C   UNL A   1      40.599  27.607  28.355  1.00  0.00    -0.014 A 
ATOM     73  C   UNL A   1      40.166  26.298  28.077  1.00  0.00     0.009 A 
ATOM     74  C   UNL A   1      41.145  28.313  27.269  1.00  0.00     0.009 A 
ATOM     75  C   UNL A   1      40.352  25.704  26.821  1.00  0.00     0.001 A 
ATOM     76  C   UNL A   1      41.372  27.715  26.021  1.00  0.00     0.001 A 
ATOM     77  C   UNL A   1      40.980  26.404  25.799  1.00  0.00     0.000 A 
ENDBRANCH  58  72
BRANCH  59  78
ATOM     78  C   UNL A   1      40.362  33.563  35.863  1.00  0.00    -0.014 A 
ATOM     79  C   UNL A   1      39.254  32.813  36.327  1.00  0.00     0.009 A 
ATOM     80  C   UNL A   1      40.551  34.843  36.388  1.00  0.00     0.009 A 
ATOM     81  C   UNL A   1      38.487  33.233  37.414  1.00  0.00     0.001 A 
ATOM     82  C   UNL A   1      39.735  35.290  37.441  1.00  0.00     0.001 A 
ATOM     83  C   UNL A   1      38.747  34.465  37.990  1.00  0.00     0.000 A 
ENDBRANCH  59  78
BRANCH  71  84
ATOM     84  C   UNL A   1      42.659  26.738  34.820  1.00  0.00    -0.014 A 
ATOM     85  C   UNL A   1      41.656  25.928  35.370  1.00  0.00     0.009 A 
ATOM     86  C   UNL A   1      43.933  26.156  34.650  1.00  0.00     0.009 A 
ATOM     87  C   UNL A   1      41.933  24.624  35.798  1.00  0.00     0.001 A 
ATOM     88  C   UNL A   1      44.200  24.840  35.028  1.00  0.00     0.001 A 
ATOM     89  C   UNL A   1      43.202  24.080  35.622  1.00  0.00     0.000 A 
ENDBRANCH  71  84
ENDBRANCH  45  46
ENDBRANCH  37  40
ENDBRANCH  35  36
ENDBRANCH  34  35
ENDBRANCH  33  34
ENDBRANCH   1  33
TORSDOF 15
ENDMDL
MODEL 3
REMARK VINA RESULT:     -12.3      3.561      5.208
REMARK SMILES Cc1ccccc1/[NH+]=C1\S[C@@H](CC(=O)Nc2ccc(C(=O)NCCCCNC(=O)c3ccc(-c4c5nc(c(-c6ccccc6)c6ccc([nH]6)c(-c6ccccc6)c6nc(c(-c7ccccc7)c7ccc4[nH]7)C=C6)C=C5)cc3)cc2)C(=O)N1C
REMARK SMILES IDX 23 1 22 2 20 3 21 4 19 6 16 7 17 8 79 9 18 10 78 11 15 12
REMARK SMILES IDX 13 13 14 14 12 16 11 17 8 18 9 19 10 21 82 22 80 23 83 24
REMARK SMILES IDX 81 25 7 26 1 27 2 28 3 29 4 30 6 31 5 32 24 33 25 34 26 35
REMARK SMILES IDX 27 36 28 37 29 39 30 40 31 41 77 42 32 43 76 44 33 45 34 46
REMARK SMILES IDX 35 47 70 48 36 49 75 50 69 51 71 52 37 53 74 54 68 55 67 56
REMARK SMILES IDX 38 58 60 59 45 60 59 61 46 62 49 63 58 64 72 65 47 66 48 67
REMARK SMILES IDX 57 69 73 70 50 71 39 72 40 73 44 74 41 75 43 76 42 77 61 78
REMARK SMILES IDX 62 79 66 80 63 81 65 82 64 83 51 84 52 85 56 86 53 87 55 88
REMARK SMILES IDX 54 89
REMARK H PARENT 22 5 15 15 8 20 27 38 71 57 49 68
REMARK Flexibility Score: inf
ROOT
ATOM      1  C   UNL A   1      34.953  29.865  27.665  1.00  0.00     0.116 C 
ENDROOT
BRANCH   1   2
ATOM      2  N   UNL A   1      33.520  29.642  27.842  1.00  0.00    -0.352 N 
ATOM      3  C   UNL A   1      32.555  28.989  27.103  1.00  0.00     0.251 C 
ATOM      4  O   UNL A   1      31.472  28.777  27.649  1.00  0.00    -0.269 OA
ATOM      5  H   UNL A   1      33.167  30.044  28.669  1.00  0.00     0.163 HD
BRANCH   3   6
ATOM      6  C   UNL A   1      32.740  28.528  25.699  1.00  0.00     0.039 A 
ATOM      7  C   UNL A   1      32.980  27.613  23.041  1.00  0.00     0.041 A 
ATOM      8  C   UNL A   1      33.995  27.434  23.970  1.00  0.00     0.027 A 
ATOM      9  C   UNL A   1      31.915  28.431  23.379  1.00  0.00     0.027 A 
ATOM     10  C   UNL A   1      33.875  27.854  25.286  1.00  0.00     0.016 A 
ATOM     11  C   UNL A   1      31.791  28.873  24.712  1.00  0.00     0.016 A 
BRANCH   7  12
ATOM     12  N   UNL A   1      33.069  26.982  21.791  1.00  0.00    -0.326 N 
ATOM     13  C   UNL A   1      32.838  25.641  21.545  1.00  0.00     0.226 C 
ATOM     14  O   UNL A   1      33.216  25.113  20.500  1.00  0.00    -0.275 OA
ATOM     15  H   UNL A   1      33.317  27.543  21.021  1.00  0.00     0.169 HD
BRANCH  13  16
ATOM     16  C   UNL A   1      31.908  24.902  22.497  1.00  0.00     0.128 C 
BRANCH  16  17
ATOM     17  C   UNL A   1      32.553  24.210  23.677  1.00  0.00     0.183 C 
ATOM     18  N   UNL A   1      34.754  21.951  25.411  1.00  0.00    -0.234 N 
ATOM     19  C   UNL A   1      33.931  22.317  24.497  1.00  0.00     0.319 C 
ATOM     20  H   UNL A   1      34.373  21.350  26.091  1.00  0.00     0.313 HD
ATOM     21  S   UNL A   1      34.085  23.347  23.120  1.00  0.00    -0.022 SA
ATOM     22  N   UNL A   1      32.616  21.995  24.576  1.00  0.00    -0.193 N 
ATOM     23  C   UNL A   1      31.793  23.089  24.387  1.00  0.00     0.324 C 
ATOM     24  C   UNL A   1      32.115  20.718  25.039  1.00  0.00     0.301 C 
ATOM     25  O   UNL A   1      30.662  23.180  24.812  1.00  0.00    -0.245 OA
BRANCH  18  26
ATOM     26  C   UNL A   1      36.109  22.270  25.597  1.00  0.00     0.128 A 
ATOM     27  C   UNL A   1      37.317  20.128  24.765  1.00  0.00     0.049 C 
ATOM     28  C   UNL A   1      37.266  21.498  25.376  1.00  0.00    -0.004 A 
ATOM     29  C   UNL A   1      38.530  22.033  25.718  1.00  0.00     0.008 A 
ATOM     30  C   UNL A   1      38.674  23.344  26.154  1.00  0.00     0.001 A 
ATOM     31  C   UNL A   1      36.299  23.615  25.970  1.00  0.00     0.052 A 
ATOM     32  C   UNL A   1      37.556  24.151  26.251  1.00  0.00     0.004 A 
ENDBRANCH  18  26
ENDBRANCH  16  17
ENDBRANCH  13  16
ENDBRANCH   7  12
ENDBRANCH   3   6
ENDBRANCH   1   2
BRANCH   1  33
ATOM     33  C   UNL A   1      35.360  31.354  27.651  1.00  0.00     0.023 C 
BRANCH  33  34
ATOM     34  C   UNL A   1      34.453  32.309  28.437  1.00  0.00     0.023 C 
BRANCH  34  35
ATOM     35  C   UNL A   1      34.760  32.388  29.927  1.00  0.00     0.116 C 
BRANCH  35  36
ATOM     36  N   UNL A   1      33.954  33.320  30.713  1.00  0.00    -0.352 N 
ATOM     37  C   UNL A   1      34.313  34.014  31.866  1.00  0.00     0.251 C 
ATOM     38  H   UNL A   1      33.038  33.477  30.387  1.00  0.00     0.163 HD
ATOM     39  O   UNL A   1      33.512  34.763  32.415  1.00  0.00    -0.269 OA
BRANCH  37  40
ATOM     40  C   UNL A   1      35.724  33.963  32.335  1.00  0.00     0.039 A 
ATOM     41  C   UNL A   1      36.670  34.715  31.632  1.00  0.00     0.014 A 
ATOM     42  C   UNL A   1      36.136  32.949  33.189  1.00  0.00     0.014 A 
ATOM     43  C   UNL A   1      37.963  34.217  31.507  1.00  0.00     0.010 A 
ATOM     44  C   UNL A   1      37.365  32.374  32.961  1.00  0.00     0.010 A 
ATOM     45  C   UNL A   1      38.246  32.969  32.060  1.00  0.00    -0.014 A 
BRANCH  45  46
ATOM     46  C   UNL A   1      39.467  32.230  31.795  1.00  0.00     0.031 A 
ATOM     47  C   UNL A   1      39.377  31.048  30.939  1.00  0.00     0.074 A 
ATOM     48  C   UNL A   1      40.656  32.657  32.268  1.00  0.00     0.049 A 
ATOM     49  N   UNL A   1      40.142  30.019  31.028  1.00  0.00    -0.248 NA
ATOM     50  C   UNL A   1      38.351  30.934  29.910  1.00  0.00     0.031 C 
ATOM     51  C   UNL A   1      41.991  32.123  32.014  1.00  0.00     0.029 A 
ATOM     52  N   UNL A   1      40.844  33.532  33.330  1.00  0.00    -0.354 N 
ATOM     53  C   UNL A   1      39.962  29.304  29.868  1.00  0.00     0.074 A 
ATOM     54  C   UNL A   1      38.754  29.831  29.279  1.00  0.00     0.031 C 
ATOM     55  C   UNL A   1      42.769  32.390  33.080  1.00  0.00     0.029 A 
ATOM     56  C   UNL A   1      41.917  33.010  34.080  1.00  0.00     0.049 A 
ATOM     57  H   UNL A   1      40.331  34.351  33.520  1.00  0.00     0.167 HD
ATOM     58  C   UNL A   1      40.970  28.497  29.435  1.00  0.00     0.031 A 
ATOM     59  C   UNL A   1      41.694  32.559  35.351  1.00  0.00     0.031 A 
ATOM     60  C   UNL A   1      42.044  28.409  30.429  1.00  0.00     0.049 A 
ATOM     61  C   UNL A   1      41.994  31.085  35.488  1.00  0.00     0.074 A 
ATOM     62  C   UNL A   1      43.280  29.025  30.534  1.00  0.00     0.029 A 
ATOM     63  N   UNL A   1      41.757  27.892  31.692  1.00  0.00    -0.354 N 
ATOM     64  N   UNL A   1      42.007  30.264  34.472  1.00  0.00    -0.248 NA
ATOM     65  C   UNL A   1      42.316  30.418  36.747  1.00  0.00     0.031 C 
ATOM     66  C   UNL A   1      43.670  28.990  31.901  1.00  0.00     0.029 A 
ATOM     67  C   UNL A   1      42.693  28.320  32.615  1.00  0.00     0.049 A 
ATOM     68  H   UNL A   1      40.995  27.304  31.898  1.00  0.00     0.167 HD
ATOM     69  C   UNL A   1      42.383  29.019  34.893  1.00  0.00     0.074 A 
ATOM     70  C   UNL A   1      42.544  29.157  36.331  1.00  0.00     0.031 C 
ATOM     71  C   UNL A   1      42.558  27.979  34.027  1.00  0.00     0.031 A 
BRANCH  58  72
ATOM     72  C   UNL A   1      41.113  28.109  27.982  1.00  0.00    -0.014 A 
ATOM     73  C   UNL A   1      40.789  26.801  27.577  1.00  0.00     0.009 A 
ATOM     74  C   UNL A   1      41.627  28.949  26.979  1.00  0.00     0.009 A 
ATOM     75  C   UNL A   1      41.049  26.338  26.280  1.00  0.00     0.001 A 
ATOM     76  C   UNL A   1      41.929  28.484  25.690  1.00  0.00     0.001 A 
ATOM     77  C   UNL A   1      41.645  27.173  25.343  1.00  0.00     0.000 A 
ENDBRANCH  58  72
BRANCH  59  78
ATOM     78  C   UNL A   1      40.587  33.320  36.011  1.00  0.00    -0.014 A 
ATOM     79  C   UNL A   1      39.352  32.636  36.128  1.00  0.00     0.009 A 
ATOM     80  C   UNL A   1      40.806  34.421  36.842  1.00  0.00     0.009 A 
ATOM     81  C   UNL A   1      38.459  32.905  37.165  1.00  0.00     0.001 A 
ATOM     82  C   UNL A   1      39.873  34.730  37.846  1.00  0.00     0.001 A 
ATOM     83  C   UNL A   1      38.736  33.940  38.044  1.00  0.00     0.000 A 
ENDBRANCH  59  78
BRANCH  71  84
ATOM     84  C   UNL A   1      42.730  26.545  34.442  1.00  0.00    -0.014 A 
ATOM     85  C   UNL A   1      43.923  25.829  34.277  1.00  0.00     0.009 A 
ATOM     86  C   UNL A   1      41.694  25.910  35.159  1.00  0.00     0.009 A 
ATOM     87  C   UNL A   1      44.048  24.515  34.741  1.00  0.00     0.001 A 
ATOM     88  C   UNL A   1      41.832  24.618  35.667  1.00  0.00     0.001 A 
ATOM     89  C   UNL A   1      43.006  23.912  35.440  1.00  0.00     0.000 A 
ENDBRANCH  71  84
ENDBRANCH  45  46
ENDBRANCH  37  40
ENDBRANCH  35  36
ENDBRANCH  34  35
ENDBRANCH  33  34
ENDBRANCH   1  33
TORSDOF 15
ENDMDL
