MODEL 1
REMARK VINA RESULT:     -11.4      0.000      0.000
REMARK SMILES CC1=C(C(=O)OCC(C)C)[C@@H](c2ccc(C(=O)NCCCCNC(=O)c3ccc(-c4c5nc(c(-c6ccccc6)c6ccc([nH]6)c(-c6ccccc6)c6nc(c(-c7ccccc7)c7ccc4[nH]7)C=C6)C=C5)cc3)cc2)c2c(n(C)c(=O)n(C)c2=O)N1
REMARK SMILES IDX 19 1 18 2 16 3 17 4 15 6 12 7 13 8 75 9 14 10 74 11 11 12
REMARK SMILES IDX 1 13 2 14 3 15 86 16 77 17 76 19 78 20 84 21 79 22 80 23
REMARK SMILES IDX 82 24 85 25 81 26 83 27 4 28 5 29 6 30 7 31 8 32 9 33 10 34
REMARK SMILES IDX 20 35 21 36 22 37 23 38 24 39 25 41 26 42 27 43 73 44 28 45
REMARK SMILES IDX 72 46 29 47 30 48 31 49 66 50 32 51 71 52 65 53 67 54 33 55
REMARK SMILES IDX 70 56 64 57 63 58 34 60 56 61 41 62 55 63 42 64 45 65 54 66
REMARK SMILES IDX 68 67 43 68 44 69 53 71 69 72 46 73 35 74 36 75 40 76 37 77
REMARK SMILES IDX 39 78 38 79 57 80 58 81 62 82 59 83 61 84 60 85 47 86 48 87
REMARK SMILES IDX 52 88 49 89 51 90 50 91
REMARK H PARENT 18 5 86 18 23 40 67 59 45 70
REMARK Flexibility Score: inf
ROOT
ATOM      1  C   UNL A   1      35.902  30.218  28.794  1.00  0.00     0.116 C 
ENDROOT
BRANCH   1   2
ATOM      2  N   UNL A   1      34.943  31.255  28.477  1.00  0.00    -0.352 N 
ATOM      3  C   UNL A   1      33.834  31.260  27.672  1.00  0.00     0.251 C 
ATOM      4  O   UNL A   1      33.205  32.317  27.591  1.00  0.00    -0.269 OA
ATOM      5  H   UNL A   1      35.121  32.115  28.922  1.00  0.00     0.163 HD
BRANCH   3   6
ATOM      6  C   UNL A   1      33.330  30.056  26.947  1.00  0.00     0.039 A 
ATOM      7  C   UNL A   1      32.456  27.874  25.374  1.00  0.00    -0.035 A 
ATOM      8  C   UNL A   1      33.593  28.609  25.005  1.00  0.00     0.005 A 
ATOM      9  C   UNL A   1      31.802  28.203  26.563  1.00  0.00     0.005 A 
ATOM     10  C   UNL A   1      34.014  29.693  25.779  1.00  0.00     0.014 A 
ATOM     11  C   UNL A   1      32.255  29.262  27.353  1.00  0.00     0.014 A 
BRANCH   7  12
ATOM     12  C   UNL A   1      31.931  26.714  24.525  1.00  0.00     0.098 C 
ATOM     13  C   UNL A   1      28.052  26.513  23.973  1.00  0.00     0.065 C 
ATOM     14  C   UNL A   1      29.473  26.290  24.423  1.00  0.00     0.025 C 
ATOM     15  C   UNL A   1      30.528  27.032  24.025  1.00  0.00     0.068 C 
ATOM     16  N   UNL A   1      29.681  25.203  25.264  1.00  0.00    -0.344 N 
ATOM     17  C   UNL A   1      30.918  24.712  25.659  1.00  0.00     0.123 A 
ATOM     18  H   UNL A   1      28.882  24.742  25.610  1.00  0.00     0.168 HD
ATOM     19  C   UNL A   1      32.011  25.405  25.293  1.00  0.00     0.071 A 
ATOM     20  N   UNL A   1      31.064  23.549  26.399  1.00  0.00    -0.282 N 
ATOM     21  C   UNL A   1      33.359  24.901  25.625  1.00  0.00     0.262 A 
ATOM     22  C   UNL A   1      29.887  22.759  26.740  1.00  0.00     0.157 C 
ATOM     23  C   UNL A   1      32.297  23.090  26.860  1.00  0.00     0.332 A 
ATOM     24  N   UNL A   1      33.406  23.833  26.492  1.00  0.00    -0.263 N 
ATOM     25  O   UNL A   1      34.355  25.422  25.127  1.00  0.00    -0.269 OA
ATOM     26  O   UNL A   1      32.407  22.070  27.546  1.00  0.00    -0.247 OA
ATOM     27  C   UNL A   1      34.700  23.375  26.962  1.00  0.00     0.158 C 
BRANCH  15  28
ATOM     28  C   UNL A   1      30.470  28.158  23.059  1.00  0.00     0.336 C 
ATOM     29  O   UNL A   1      30.875  28.061  21.913  1.00  0.00    -0.246 OA
BRANCH  28  30
ATOM     30  O   UNL A   1      29.986  29.281  23.645  1.00  0.00    -0.462 OA
BRANCH  30  31
ATOM     31  C   UNL A   1      29.308  30.209  22.779  1.00  0.00     0.236 C 
BRANCH  31  32
ATOM     32  C   UNL A   1      28.756  31.397  23.578  1.00  0.00     0.021 C 
ATOM     33  C   UNL A   1      28.971  32.723  22.848  1.00  0.00     0.011 C 
ATOM     34  C   UNL A   1      27.271  31.196  23.871  1.00  0.00     0.011 C 
ENDBRANCH  31  32
ENDBRANCH  30  31
ENDBRANCH  28  30
ENDBRANCH  15  28
ENDBRANCH   7  12
ENDBRANCH   3   6
ENDBRANCH   1   2
BRANCH   1  35
ATOM     35  C   UNL A   1      36.250  30.255  30.284  1.00  0.00     0.023 C 
BRANCH  35  36
ATOM     36  C   UNL A   1      35.543  31.367  31.057  1.00  0.00     0.023 C 
BRANCH  36  37
ATOM     37  C   UNL A   1      35.946  31.473  32.520  1.00  0.00     0.116 C 
BRANCH  37  38
ATOM     38  N   UNL A   1      36.055  32.847  32.991  1.00  0.00    -0.352 N 
ATOM     39  C   UNL A   1      37.130  33.693  32.872  1.00  0.00     0.251 C 
ATOM     40  H   UNL A   1      35.264  33.213  33.447  1.00  0.00     0.163 HD
ATOM     41  O   UNL A   1      37.133  34.796  33.405  1.00  0.00    -0.269 OA
BRANCH  39  42
ATOM     42  C   UNL A   1      38.307  33.220  32.122  1.00  0.00     0.039 A 
ATOM     43  C   UNL A   1      39.254  32.436  32.780  1.00  0.00     0.014 A 
ATOM     44  C   UNL A   1      38.410  33.479  30.753  1.00  0.00     0.014 A 
ATOM     45  C   UNL A   1      40.283  31.855  32.043  1.00  0.00     0.010 A 
ATOM     46  C   UNL A   1      39.390  32.834  30.009  1.00  0.00     0.010 A 
ATOM     47  C   UNL A   1      40.339  32.022  30.649  1.00  0.00    -0.014 A 
BRANCH  47  48
ATOM     48  C   UNL A   1      41.398  31.367  29.848  1.00  0.00     0.031 A 
ATOM     49  C   UNL A   1      42.680  32.098  29.568  1.00  0.00     0.074 A 
ATOM     50  C   UNL A   1      41.194  30.131  29.352  1.00  0.00     0.049 A 
ATOM     51  N   UNL A   1      43.724  31.697  28.891  1.00  0.00    -0.248 NA
ATOM     52  C   UNL A   1      42.798  33.465  30.102  1.00  0.00     0.031 C 
ATOM     53  C   UNL A   1      39.978  29.336  29.529  1.00  0.00     0.029 A 
ATOM     54  N   UNL A   1      42.014  29.323  28.604  1.00  0.00    -0.354 N 
ATOM     55  C   UNL A   1      44.618  32.758  28.917  1.00  0.00     0.074 A 
ATOM     56  C   UNL A   1      43.971  33.844  29.618  1.00  0.00     0.031 C 
ATOM     57  C   UNL A   1      40.150  28.137  28.950  1.00  0.00     0.029 A 
ATOM     58  C   UNL A   1      41.469  28.092  28.328  1.00  0.00     0.049 A 
ATOM     59  H   UNL A   1      42.907  29.599  28.296  1.00  0.00     0.167 HD
ATOM     60  C   UNL A   1      45.880  32.812  28.432  1.00  0.00     0.031 A 
ATOM     61  C   UNL A   1      41.980  27.044  27.654  1.00  0.00     0.031 A 
ATOM     62  C   UNL A   1      46.524  31.729  27.744  1.00  0.00     0.049 A 
ATOM     63  C   UNL A   1      43.369  27.146  27.087  1.00  0.00     0.074 A 
ATOM     64  C   UNL A   1      47.814  31.672  27.247  1.00  0.00     0.029 A 
ATOM     65  N   UNL A   1      45.926  30.512  27.457  1.00  0.00    -0.354 N 
ATOM     66  N   UNL A   1      44.224  28.135  27.173  1.00  0.00    -0.248 NA
ATOM     67  C   UNL A   1      43.865  25.984  26.335  1.00  0.00     0.031 C 
ATOM     68  C   UNL A   1      47.980  30.440  26.611  1.00  0.00     0.029 A 
ATOM     69  C   UNL A   1      46.813  29.706  26.764  1.00  0.00     0.049 A 
ATOM     70  H   UNL A   1      45.010  30.258  27.707  1.00  0.00     0.167 HD
ATOM     71  C   UNL A   1      45.367  27.708  26.508  1.00  0.00     0.074 A 
ATOM     72  C   UNL A   1      45.101  26.364  26.039  1.00  0.00     0.031 C 
ATOM     73  C   UNL A   1      46.531  28.372  26.303  1.00  0.00     0.031 A 
BRANCH  60  74
ATOM     74  C   UNL A   1      46.649  34.086  28.642  1.00  0.00    -0.014 A 
ATOM     75  C   UNL A   1      47.456  34.263  29.777  1.00  0.00     0.009 A 
ATOM     76  C   UNL A   1      46.609  35.098  27.671  1.00  0.00     0.009 A 
ATOM     77  C   UNL A   1      48.185  35.440  29.950  1.00  0.00     0.001 A 
ATOM     78  C   UNL A   1      47.364  36.261  27.832  1.00  0.00     0.001 A 
ATOM     79  C   UNL A   1      48.145  36.435  28.974  1.00  0.00     0.000 A 
ENDBRANCH  60  74
BRANCH  61  80
ATOM     80  C   UNL A   1      41.186  25.796  27.511  1.00  0.00    -0.014 A 
ATOM     81  C   UNL A   1      41.484  24.672  28.299  1.00  0.00     0.009 A 
ATOM     82  C   UNL A   1      40.119  25.722  26.602  1.00  0.00     0.009 A 
ATOM     83  C   UNL A   1      40.740  23.496  28.167  1.00  0.00     0.001 A 
ATOM     84  C   UNL A   1      39.359  24.555  26.493  1.00  0.00     0.001 A 
ATOM     85  C   UNL A   1      39.675  23.441  27.270  1.00  0.00     0.000 A 
ENDBRANCH  61  80
BRANCH  73  86
ATOM     86  C   UNL A   1      47.618  27.657  25.553  1.00  0.00    -0.014 A 
ATOM     87  C   UNL A   1      48.637  26.974  26.232  1.00  0.00     0.009 A 
ATOM     88  C   UNL A   1      47.568  27.590  24.151  1.00  0.00     0.009 A 
ATOM     89  C   UNL A   1      49.596  26.250  25.521  1.00  0.00     0.001 A 
ATOM     90  C   UNL A   1      48.509  26.841  23.445  1.00  0.00     0.001 A 
ATOM     91  C   UNL A   1      49.525  26.176  24.130  1.00  0.00     0.000 A 
ENDBRANCH  73  86
ENDBRANCH  47  48
ENDBRANCH  39  42
ENDBRANCH  37  38
ENDBRANCH  36  37
ENDBRANCH  35  36
ENDBRANCH   1  35
TORSDOF 16
ENDMDL
MODEL 2
REMARK VINA RESULT:     -11.3      4.497      7.764
REMARK SMILES CC1=C(C(=O)OCC(C)C)[C@@H](c2ccc(C(=O)NCCCCNC(=O)c3ccc(-c4c5nc(c(-c6ccccc6)c6ccc([nH]6)c(-c6ccccc6)c6nc(c(-c7ccccc7)c7ccc4[nH]7)C=C6)C=C5)cc3)cc2)c2c(n(C)c(=O)n(C)c2=O)N1
REMARK SMILES IDX 19 1 18 2 16 3 17 4 15 6 12 7 13 8 75 9 14 10 74 11 11 12
REMARK SMILES IDX 1 13 2 14 3 15 86 16 77 17 76 19 78 20 84 21 79 22 80 23
REMARK SMILES IDX 82 24 85 25 81 26 83 27 4 28 5 29 6 30 7 31 8 32 9 33 10 34
REMARK SMILES IDX 20 35 21 36 22 37 23 38 24 39 25 41 26 42 27 43 73 44 28 45
REMARK SMILES IDX 72 46 29 47 30 48 31 49 66 50 32 51 71 52 65 53 67 54 33 55
REMARK SMILES IDX 70 56 64 57 63 58 34 60 56 61 41 62 55 63 42 64 45 65 54 66
REMARK SMILES IDX 68 67 43 68 44 69 53 71 69 72 46 73 35 74 36 75 40 76 37 77
REMARK SMILES IDX 39 78 38 79 57 80 58 81 62 82 59 83 61 84 60 85 47 86 48 87
REMARK SMILES IDX 52 88 49 89 51 90 50 91
REMARK H PARENT 18 5 86 18 23 40 67 59 45 70
REMARK Flexibility Score: inf
ROOT
ATOM      1  C   UNL A   1      33.388  32.215  27.678  1.00  0.00     0.116 C 
ENDROOT
BRANCH   1   2
ATOM      2  N   UNL A   1      34.419  31.388  28.268  1.00  0.00    -0.352 N 
ATOM      3  C   UNL A   1      34.776  30.082  28.054  1.00  0.00     0.251 C 
ATOM      4  O   UNL A   1      35.709  29.639  28.727  1.00  0.00    -0.269 OA
ATOM      5  H   UNL A   1      34.962  31.847  28.948  1.00  0.00     0.163 HD
BRANCH   3   6
ATOM      6  C   UNL A   1      34.139  29.205  27.027  1.00  0.00     0.039 A 
ATOM      7  C   UNL A   1      32.882  27.391  25.258  1.00  0.00    -0.035 A 
ATOM      8  C   UNL A   1      32.448  27.508  26.587  1.00  0.00     0.005 A 
ATOM      9  C   UNL A   1      33.904  28.231  24.810  1.00  0.00     0.005 A 
ATOM     10  C   UNL A   1      33.080  28.396  27.461  1.00  0.00     0.014 A 
ATOM     11  C   UNL A   1      34.503  29.146  25.680  1.00  0.00     0.014 A 
BRANCH   7  12
ATOM     12  C   UNL A   1      32.251  26.393  24.285  1.00  0.00     0.098 C 
ATOM     13  C   UNL A   1      28.332  26.276  24.132  1.00  0.00     0.065 C 
ATOM     14  C   UNL A   1      29.790  25.985  24.380  1.00  0.00     0.025 C 
ATOM     15  C   UNL A   1      30.808  26.787  24.002  1.00  0.00     0.068 C 
ATOM     16  N   UNL A   1      30.070  24.770  24.995  1.00  0.00    -0.344 N 
ATOM     17  C   UNL A   1      31.335  24.222  25.162  1.00  0.00     0.123 A 
ATOM     18  H   UNL A   1      29.306  24.253  25.341  1.00  0.00     0.168 HD
ATOM     19  C   UNL A   1      32.393  24.971  24.805  1.00  0.00     0.071 A 
ATOM     20  N   UNL A   1      31.542  22.950  25.672  1.00  0.00    -0.282 N 
ATOM     21  C   UNL A   1      33.761  24.422  24.897  1.00  0.00     0.262 A 
ATOM     22  C   UNL A   1      30.396  22.109  26.000  1.00  0.00     0.157 C 
ATOM     23  C   UNL A   1      32.810  22.422  25.911  1.00  0.00     0.332 A 
ATOM     24  N   UNL A   1      33.884  23.221  25.558  1.00  0.00    -0.263 N 
ATOM     25  O   UNL A   1      34.705  25.024  24.390  1.00  0.00    -0.269 OA
ATOM     26  O   UNL A   1      32.977  21.301  26.397  1.00  0.00    -0.247 OA
ATOM     27  C   UNL A   1      35.214  22.694  25.799  1.00  0.00     0.158 C 
BRANCH  15  28
ATOM     28  C   UNL A   1      30.663  28.062  23.256  1.00  0.00     0.336 C 
ATOM     29  O   UNL A   1      31.320  28.319  22.261  1.00  0.00    -0.246 OA
BRANCH  28  30
ATOM     30  O   UNL A   1      29.780  28.890  23.868  1.00  0.00    -0.462 OA
BRANCH  30  31
ATOM     31  C   UNL A   1      29.621  30.194  23.282  1.00  0.00     0.236 C 
BRANCH  31  32
ATOM     32  C   UNL A   1      28.174  30.412  22.819  1.00  0.00     0.021 C 
ATOM     33  C   UNL A   1      27.565  31.675  23.429  1.00  0.00     0.011 C 
ATOM     34  C   UNL A   1      28.109  30.483  21.295  1.00  0.00     0.011 C 
ENDBRANCH  31  32
ENDBRANCH  30  31
ENDBRANCH  28  30
ENDBRANCH  15  28
ENDBRANCH   7  12
ENDBRANCH   3   6
ENDBRANCH   1   2
BRANCH   1  35
ATOM     35  C   UNL A   1      33.787  33.692  27.754  1.00  0.00     0.023 C 
BRANCH  35  36
ATOM     36  C   UNL A   1      32.869  34.536  28.636  1.00  0.00     0.023 C 
BRANCH  36  37
ATOM     37  C   UNL A   1      33.560  35.190  29.822  1.00  0.00     0.116 C 
BRANCH  37  38
ATOM     38  N   UNL A   1      32.633  35.669  30.838  1.00  0.00    -0.352 N 
ATOM     39  C   UNL A   1      32.740  35.539  32.201  1.00  0.00     0.251 C 
ATOM     40  H   UNL A   1      31.836  36.142  30.509  1.00  0.00     0.163 HD
ATOM     41  O   UNL A   1      31.836  35.897  32.947  1.00  0.00    -0.269 OA
BRANCH  39  42
ATOM     42  C   UNL A   1      33.957  34.913  32.746  1.00  0.00     0.039 A 
ATOM     43  C   UNL A   1      33.878  33.616  33.252  1.00  0.00     0.014 A 
ATOM     44  C   UNL A   1      35.182  35.581  32.664  1.00  0.00     0.014 A 
ATOM     45  C   UNL A   1      35.050  32.960  33.622  1.00  0.00     0.010 A 
ATOM     46  C   UNL A   1      36.353  34.897  32.958  1.00  0.00     0.010 A 
ATOM     47  C   UNL A   1      36.297  33.582  33.446  1.00  0.00    -0.014 A 
BRANCH  47  48
ATOM     48  C   UNL A   1      37.553  32.876  33.787  1.00  0.00     0.031 A 
ATOM     49  C   UNL A   1      38.130  31.876  32.828  1.00  0.00     0.074 A 
ATOM     50  C   UNL A   1      38.155  33.116  34.968  1.00  0.00     0.049 A 
ATOM     51  N   UNL A   1      39.217  31.158  32.943  1.00  0.00    -0.248 NA
ATOM     52  C   UNL A   1      37.379  31.635  31.584  1.00  0.00     0.031 C 
ATOM     53  C   UNL A   1      37.672  34.041  35.995  1.00  0.00     0.029 A 
ATOM     54  N   UNL A   1      39.314  32.606  35.499  1.00  0.00    -0.354 N 
ATOM     55  C   UNL A   1      39.278  30.384  31.792  1.00  0.00     0.074 A 
ATOM     56  C   UNL A   1      38.088  30.668  31.022  1.00  0.00     0.031 C 
ATOM     57  C   UNL A   1      38.552  34.069  37.009  1.00  0.00     0.029 A 
ATOM     58  C   UNL A   1      39.638  33.137  36.724  1.00  0.00     0.049 A 
ATOM     59  H   UNL A   1      39.861  31.925  35.045  1.00  0.00     0.167 HD
ATOM     60  C   UNL A   1      40.256  29.538  31.394  1.00  0.00     0.031 A 
ATOM     61  C   UNL A   1      40.697  32.904  37.523  1.00  0.00     0.031 A 
ATOM     62  C   UNL A   1      41.442  29.264  32.156  1.00  0.00     0.049 A 
ATOM     63  C   UNL A   1      41.748  31.925  37.078  1.00  0.00     0.074 A 
ATOM     64  C   UNL A   1      42.510  28.451  31.822  1.00  0.00     0.029 A 
ATOM     65  N   UNL A   1      41.716  29.798  33.406  1.00  0.00    -0.354 N 
ATOM     66  N   UNL A   1      41.822  31.247  35.959  1.00  0.00    -0.248 NA
ATOM     67  C   UNL A   1      42.866  31.686  38.002  1.00  0.00     0.031 C 
ATOM     68  C   UNL A   1      43.406  28.450  32.893  1.00  0.00     0.029 A 
ATOM     69  C   UNL A   1      42.926  29.310  33.869  1.00  0.00     0.049 A 
ATOM     70  H   UNL A   1      41.139  30.429  33.891  1.00  0.00     0.167 HD
ATOM     71  C   UNL A   1      43.002  30.518  36.033  1.00  0.00     0.074 A 
ATOM     72  C   UNL A   1      43.620  30.851  37.300  1.00  0.00     0.031 C 
ATOM     73  C   UNL A   1      43.525  29.650  35.133  1.00  0.00     0.031 A 
BRANCH  60  74
ATOM     74  C   UNL A   1      40.085  28.857  30.065  1.00  0.00    -0.014 A 
ATOM     75  C   UNL A   1      39.440  27.614  29.970  1.00  0.00     0.009 A 
ATOM     76  C   UNL A   1      40.528  29.486  28.892  1.00  0.00     0.009 A 
ATOM     77  C   UNL A   1      39.265  27.001  28.729  1.00  0.00     0.001 A 
ATOM     78  C   UNL A   1      40.324  28.885  27.648  1.00  0.00     0.001 A 
ATOM     79  C   UNL A   1      39.700  27.640  27.568  1.00  0.00     0.000 A 
ENDBRANCH  60  74
BRANCH  61  80
ATOM     80  C   UNL A   1      40.831  33.636  38.810  1.00  0.00    -0.014 A 
ATOM     81  C   UNL A   1      40.292  33.101  39.990  1.00  0.00     0.009 A 
ATOM     82  C   UNL A   1      41.512  34.862  38.871  1.00  0.00     0.009 A 
ATOM     83  C   UNL A   1      40.416  33.786  41.201  1.00  0.00     0.001 A 
ATOM     84  C   UNL A   1      41.659  35.532  40.088  1.00  0.00     0.001 A 
ATOM     85  C   UNL A   1      41.105  34.997  41.251  1.00  0.00     0.000 A 
ENDBRANCH  61  80
BRANCH  73  86
ATOM     86  C   UNL A   1      44.838  29.004  35.469  1.00  0.00    -0.014 A 
ATOM     87  C   UNL A   1      44.888  27.749  36.095  1.00  0.00     0.009 A 
ATOM     88  C   UNL A   1      46.038  29.615  35.071  1.00  0.00     0.009 A 
ATOM     89  C   UNL A   1      46.114  27.126  36.330  1.00  0.00     0.001 A 
ATOM     90  C   UNL A   1      47.261  28.978  35.280  1.00  0.00     0.001 A 
ATOM     91  C   UNL A   1      47.298  27.737  35.913  1.00  0.00     0.000 A 
ENDBRANCH  73  86
ENDBRANCH  47  48
ENDBRANCH  39  42
ENDBRANCH  37  38
ENDBRANCH  36  37
ENDBRANCH  35  36
ENDBRANCH   1  35
TORSDOF 16
ENDMDL
MODEL 3
REMARK VINA RESULT:     -11.3      4.381      6.506
REMARK SMILES CC1=C(C(=O)OCC(C)C)[C@@H](c2ccc(C(=O)NCCCCNC(=O)c3ccc(-c4c5nc(c(-c6ccccc6)c6ccc([nH]6)c(-c6ccccc6)c6nc(c(-c7ccccc7)c7ccc4[nH]7)C=C6)C=C5)cc3)cc2)c2c(n(C)c(=O)n(C)c2=O)N1
REMARK SMILES IDX 19 1 18 2 16 3 17 4 15 6 12 7 13 8 75 9 14 10 74 11 11 12
REMARK SMILES IDX 1 13 2 14 3 15 86 16 77 17 76 19 78 20 84 21 79 22 80 23
REMARK SMILES IDX 82 24 85 25 81 26 83 27 4 28 5 29 6 30 7 31 8 32 9 33 10 34
REMARK SMILES IDX 20 35 21 36 22 37 23 38 24 39 25 41 26 42 27 43 73 44 28 45
REMARK SMILES IDX 72 46 29 47 30 48 31 49 66 50 32 51 71 52 65 53 67 54 33 55
REMARK SMILES IDX 70 56 64 57 63 58 34 60 56 61 41 62 55 63 42 64 45 65 54 66
REMARK SMILES IDX 68 67 43 68 44 69 53 71 69 72 46 73 35 74 36 75 40 76 37 77
REMARK SMILES IDX 39 78 38 79 57 80 58 81 62 82 59 83 61 84 60 85 47 86 48 87
REMARK SMILES IDX 52 88 49 89 51 90 50 91
REMARK H PARENT 18 5 86 18 23 40 67 59 45 70
REMARK Flexibility Score: inf
ROOT
ATOM      1  C   UNL A   1      33.276  32.232  27.648  1.00  0.00     0.116 C 
ENDROOT
BRANCH   1   2
ATOM      2  N   UNL A   1      34.389  31.438  28.121  1.00  0.00    -0.352 N 
ATOM      3  C   UNL A   1      34.786  30.157  27.836  1.00  0.00     0.251 C 
ATOM      4  O   UNL A   1      35.792  29.740  28.412  1.00  0.00    -0.269 OA
ATOM      5  H   UNL A   1      34.969  31.903  28.767  1.00  0.00     0.163 HD
BRANCH   3   6
ATOM      6  C   UNL A   1      34.102  29.280  26.839  1.00  0.00     0.039 A 
ATOM      7  C   UNL A   1      32.771  27.463  25.127  1.00  0.00    -0.035 A 
ATOM      8  C   UNL A   1      32.426  27.548  26.485  1.00  0.00     0.005 A 
ATOM      9  C   UNL A   1      33.741  28.334  24.627  1.00  0.00     0.005 A 
ATOM     10  C   UNL A   1      33.093  28.439  27.329  1.00  0.00     0.014 A 
ATOM     11  C   UNL A   1      34.375  29.251  25.469  1.00  0.00     0.014 A 
BRANCH   7  12
ATOM     12  C   UNL A   1      32.101  26.464  24.182  1.00  0.00     0.098 C 
ATOM     13  C   UNL A   1      28.179  26.350  24.190  1.00  0.00     0.065 C 
ATOM     14  C   UNL A   1      29.645  26.058  24.378  1.00  0.00     0.025 C 
ATOM     15  C   UNL A   1      30.647  26.859  23.958  1.00  0.00     0.068 C 
ATOM     16  N   UNL A   1      29.950  24.843  24.982  1.00  0.00    -0.344 N 
ATOM     17  C   UNL A   1      31.220  24.295  25.099  1.00  0.00     0.123 A 
ATOM     18  H   UNL A   1      29.200  24.328  25.360  1.00  0.00     0.168 HD
ATOM     19  C   UNL A   1      32.263  25.043  24.697  1.00  0.00     0.071 A 
ATOM     20  N   UNL A   1      31.447  23.023  25.601  1.00  0.00    -0.282 N 
ATOM     21  C   UNL A   1      33.633  24.493  24.733  1.00  0.00     0.262 A 
ATOM     22  C   UNL A   1      30.315  22.183  25.975  1.00  0.00     0.157 C 
ATOM     23  C   UNL A   1      32.724  22.494  25.788  1.00  0.00     0.332 A 
ATOM     24  N   UNL A   1      33.783  23.292  25.390  1.00  0.00    -0.263 N 
ATOM     25  O   UNL A   1      34.556  25.094  24.188  1.00  0.00    -0.269 OA
ATOM     26  O   UNL A   1      32.910  21.373  26.267  1.00  0.00    -0.247 OA
ATOM     27  C   UNL A   1      35.121  22.764  25.577  1.00  0.00     0.158 C 
BRANCH  15  28
ATOM     28  C   UNL A   1      30.473  28.133  23.217  1.00  0.00     0.336 C 
ATOM     29  O   UNL A   1      30.883  28.293  22.080  1.00  0.00    -0.246 OA
BRANCH  28  30
ATOM     30  O   UNL A   1      29.880  29.074  23.994  1.00  0.00    -0.462 OA
BRANCH  30  31
ATOM     31  C   UNL A   1      29.967  30.432  23.526  1.00  0.00     0.236 C 
BRANCH  31  32
ATOM     32  C   UNL A   1      28.591  31.109  23.557  1.00  0.00     0.021 C 
ATOM     33  C   UNL A   1      28.536  32.331  22.640  1.00  0.00     0.011 C 
ATOM     34  C   UNL A   1      27.500  30.113  23.169  1.00  0.00     0.011 C 
ENDBRANCH  31  32
ENDBRANCH  30  31
ENDBRANCH  28  30
ENDBRANCH  15  28
ENDBRANCH   7  12
ENDBRANCH   3   6
ENDBRANCH   1   2
BRANCH   1  35
ATOM     35  C   UNL A   1      33.619  33.722  27.722  1.00  0.00     0.023 C 
BRANCH  35  36
ATOM     36  C   UNL A   1      32.722  34.517  28.670  1.00  0.00     0.023 C 
BRANCH  36  37
ATOM     37  C   UNL A   1      33.464  35.232  29.789  1.00  0.00     0.116 C 
BRANCH  37  38
ATOM     38  N   UNL A   1      32.590  35.690  30.860  1.00  0.00    -0.352 N 
ATOM     39  C   UNL A   1      32.758  35.521  32.212  1.00  0.00     0.251 C 
ATOM     40  H   UNL A   1      31.783  36.179  30.581  1.00  0.00     0.163 HD
ATOM     41  O   UNL A   1      31.893  35.865  33.009  1.00  0.00    -0.269 OA
BRANCH  39  42
ATOM     42  C   UNL A   1      33.993  34.870  32.682  1.00  0.00     0.039 A 
ATOM     43  C   UNL A   1      33.936  33.541  33.102  1.00  0.00     0.014 A 
ATOM     44  C   UNL A   1      35.211  35.552  32.612  1.00  0.00     0.014 A 
ATOM     45  C   UNL A   1      35.121  32.872  33.397  1.00  0.00     0.010 A 
ATOM     46  C   UNL A   1      36.395  34.859  32.830  1.00  0.00     0.010 A 
ATOM     47  C   UNL A   1      36.359  33.515  33.231  1.00  0.00    -0.014 A 
BRANCH  47  48
ATOM     48  C   UNL A   1      37.629  32.798  33.491  1.00  0.00     0.031 A 
ATOM     49  C   UNL A   1      38.384  33.057  34.763  1.00  0.00     0.074 A 
ATOM     50  C   UNL A   1      38.112  31.939  32.573  1.00  0.00     0.049 A 
ATOM     51  N   UNL A   1      39.508  32.530  35.175  1.00  0.00    -0.248 NA
ATOM     52  C   UNL A   1      37.812  34.052  35.687  1.00  0.00     0.031 C 
ATOM     53  C   UNL A   1      37.485  31.630  31.287  1.00  0.00     0.029 A 
ATOM     54  N   UNL A   1      39.241  31.158  32.589  1.00  0.00    -0.354 N 
ATOM     55  C   UNL A   1      39.776  33.128  36.398  1.00  0.00     0.074 A 
ATOM     56  C   UNL A   1      38.736  34.104  36.634  1.00  0.00     0.031 C 
ATOM     57  C   UNL A   1      38.211  30.691  30.659  1.00  0.00     0.029 A 
ATOM     58  C   UNL A   1      39.373  30.360  31.478  1.00  0.00     0.049 A 
ATOM     59  H   UNL A   1      39.893  31.168  33.326  1.00  0.00     0.167 HD
ATOM     60  C   UNL A   1      40.779  32.863  37.266  1.00  0.00     0.031 A 
ATOM     61  C   UNL A   1      40.322  29.459  31.159  1.00  0.00     0.031 A 
ATOM     62  C   UNL A   1      41.806  31.887  37.034  1.00  0.00     0.049 A 
ATOM     63  C   UNL A   1      41.451  29.214  32.122  1.00  0.00     0.074 A 
ATOM     64  C   UNL A   1      42.845  31.517  37.868  1.00  0.00     0.029 A 
ATOM     65  N   UNL A   1      41.922  31.123  35.882  1.00  0.00    -0.354 N 
ATOM     66  N   UNL A   1      41.657  29.744  33.303  1.00  0.00    -0.248 NA
ATOM     67  C   UNL A   1      42.474  28.242  31.711  1.00  0.00     0.031 C 
ATOM     68  C   UNL A   1      43.623  30.569  37.200  1.00  0.00     0.029 A 
ATOM     69  C   UNL A   1      43.033  30.303  35.974  1.00  0.00     0.049 A 
ATOM     70  H   UNL A   1      41.307  31.159  35.116  1.00  0.00     0.167 HD
ATOM     71  C   UNL A   1      42.819  29.155  33.786  1.00  0.00     0.074 A 
ATOM     72  C   UNL A   1      43.262  28.215  32.777  1.00  0.00     0.031 C 
ATOM     73  C   UNL A   1      43.461  29.375  34.959  1.00  0.00     0.031 A 
BRANCH  60  74
ATOM     74  C   UNL A   1      40.805  33.637  38.554  1.00  0.00    -0.014 A 
ATOM     75  C   UNL A   1      40.149  33.154  39.698  1.00  0.00     0.009 A 
ATOM     76  C   UNL A   1      41.533  34.832  38.640  1.00  0.00     0.009 A 
ATOM     77  C   UNL A   1      40.200  33.869  40.896  1.00  0.00     0.001 A 
ATOM     78  C   UNL A   1      41.607  35.529  39.848  1.00  0.00     0.001 A 
ATOM     79  C   UNL A   1      40.935  35.052  40.972  1.00  0.00     0.000 A 
ENDBRANCH  60  74
BRANCH  61  80
ATOM     80  C   UNL A   1      40.224  28.696  29.888  1.00  0.00    -0.014 A 
ATOM     81  C   UNL A   1      40.783  29.210  28.708  1.00  0.00     0.009 A 
ATOM     82  C   UNL A   1      39.587  27.445  29.847  1.00  0.00     0.009 A 
ATOM     83  C   UNL A   1      40.692  28.495  27.510  1.00  0.00     0.001 A 
ATOM     84  C   UNL A   1      39.523  26.720  28.654  1.00  0.00     0.001 A 
ATOM     85  C   UNL A   1      40.069  27.249  27.485  1.00  0.00     0.000 A 
ENDBRANCH  61  80
BRANCH  73  86
ATOM     86  C   UNL A   1      44.705  28.580  35.233  1.00  0.00    -0.014 A 
ATOM     87  C   UNL A   1      44.644  27.351  35.906  1.00  0.00     0.009 A 
ATOM     88  C   UNL A   1      45.939  29.022  34.730  1.00  0.00     0.009 A 
ATOM     89  C   UNL A   1      45.799  26.587  36.084  1.00  0.00     0.001 A 
ATOM     90  C   UNL A   1      47.086  28.243  34.882  1.00  0.00     0.001 A 
ATOM     91  C   UNL A   1      47.016  27.029  35.563  1.00  0.00     0.000 A 
ENDBRANCH  73  86
ENDBRANCH  47  48
ENDBRANCH  39  42
ENDBRANCH  37  38
ENDBRANCH  36  37
ENDBRANCH  35  36
ENDBRANCH   1  35
TORSDOF 16
ENDMDL
