MODEL 1
REMARK VINA RESULT:     -10.2      0.000      0.000
REMARK SMILES COc1cc(/C=C/C(=O)NCCCCNC(=O)c2ccc(-c3c4nc(c(-c5ccccc5)c5ccc([nH]5)c(-c5ccccc5)c5nc(c(-c6ccccc6)c6ccc3[nH]6)C=C5)C=C4)cc2)cc(OC)c1O
REMARK SMILES IDX 12 1 11 2 10 3 8 4 9 5 7 7 6 8 5 9 3 10 4 11 70 12 67 13
REMARK SMILES IDX 66 14 2 15 1 16 71 17 68 19 69 20 13 21 14 22 15 23 16 24
REMARK SMILES IDX 17 26 18 27 19 28 65 29 20 30 64 31 21 32 22 33 23 34 58 35
REMARK SMILES IDX 24 36 63 37 57 38 59 39 25 40 62 41 56 42 55 43 26 45 48 46
REMARK SMILES IDX 33 47 47 48 34 49 37 50 46 51 60 52 35 53 36 54 45 56 61 57
REMARK SMILES IDX 38 58 27 59 28 60 32 61 29 62 31 63 30 64 49 65 50 66 54 67
REMARK SMILES IDX 51 68 53 69 52 70 39 71 40 72 44 73 41 74 43 75 42 76
REMARK H PARENT 10 6 71 18 15 25 59 44 37 55
REMARK Flexibility Score: inf
ROOT
ATOM      1  C   UNL A   1      36.388  19.998  25.004  1.00  0.00     0.023 C 
ENDROOT
BRANCH   1   2
ATOM      2  C   UNL A   1      35.548  21.272  25.104  1.00  0.00     0.116 C 
BRANCH   2   3
ATOM      3  N   UNL A   1      34.908  21.373  26.402  1.00  0.00    -0.353 N 
ATOM      4  C   UNL A   1      34.073  22.320  26.906  1.00  0.00     0.243 C 
ATOM      5  O   UNL A   1      33.571  22.154  28.016  1.00  0.00    -0.270 OA
ATOM      6  H   UNL A   1      35.111  20.632  27.019  1.00  0.00     0.163 HD
BRANCH   4   7
ATOM      7  C   UNL A   1      33.688  23.509  26.111  1.00  0.00     0.072 C 
ATOM      8  C   UNL A   1      34.392  24.648  26.058  1.00  0.00     0.014 C 
BRANCH   8   9
ATOM      9  C   UNL A   1      33.983  25.838  25.302  1.00  0.00    -0.018 A 
ATOM     10  C   UNL A   1      33.469  28.211  25.161  1.00  0.00     0.165 A 
ATOM     11  C   UNL A   1      33.739  27.065  25.921  1.00  0.00     0.058 A 
ATOM     12  C   UNL A   1      33.471  28.131  23.759  1.00  0.00     0.200 A 
ATOM     13  C   UNL A   1      33.670  26.898  23.121  1.00  0.00     0.165 A 
ATOM     14  C   UNL A   1      33.933  25.767  23.905  1.00  0.00     0.058 A 
BRANCH  10  15
ATOM     15  O   UNL A   1      33.321  29.351  25.907  1.00  0.00    -0.493 OA
ATOM     16  C   UNL A   1      32.446  29.293  27.029  1.00  0.00     0.278 C 
ENDBRANCH  10  15
BRANCH  12  17
ATOM     17  O   UNL A   1      33.382  29.277  23.017  1.00  0.00    -0.502 OA
ATOM     18  H   UNL A   1      34.052  29.486  22.396  1.00  0.00     0.293 HD
ENDBRANCH  12  17
BRANCH  13  19
ATOM     19  O   UNL A   1      33.708  26.626  21.780  1.00  0.00    -0.493 OA
ATOM     20  C   UNL A   1      32.754  25.724  21.239  1.00  0.00     0.278 C 
ENDBRANCH  13  19
ENDBRANCH   8   9
ENDBRANCH   4   7
ENDBRANCH   2   3
ENDBRANCH   1   2
BRANCH   1  21
ATOM     21  C   UNL A   1      37.853  20.233  24.620  1.00  0.00     0.023 C 
BRANCH  21  22
ATOM     22  C   UNL A   1      38.819  20.370  25.793  1.00  0.00     0.116 C 
BRANCH  22  23
ATOM     23  N   UNL A   1      39.897  19.395  25.772  1.00  0.00    -0.352 N 
ATOM     24  C   UNL A   1      41.217  19.567  26.112  1.00  0.00     0.251 C 
ATOM     25  H   UNL A   1      39.647  18.490  25.476  1.00  0.00     0.163 HD
ATOM     26  O   UNL A   1      42.024  18.662  25.943  1.00  0.00    -0.269 OA
BRANCH  24  27
ATOM     27  C   UNL A   1      41.667  20.871  26.643  1.00  0.00     0.039 A 
ATOM     28  C   UNL A   1      42.109  21.842  25.741  1.00  0.00     0.014 A 
ATOM     29  C   UNL A   1      41.633  21.141  28.012  1.00  0.00     0.014 A 
ATOM     30  C   UNL A   1      42.457  23.110  26.210  1.00  0.00     0.010 A 
ATOM     31  C   UNL A   1      41.917  22.424  28.470  1.00  0.00     0.010 A 
ATOM     32  C   UNL A   1      42.330  23.420  27.573  1.00  0.00    -0.014 A 
BRANCH  32  33
ATOM     33  C   UNL A   1      42.617  24.786  28.076  1.00  0.00     0.031 A 
ATOM     34  C   UNL A   1      44.011  25.162  28.494  1.00  0.00     0.074 A 
ATOM     35  C   UNL A   1      41.609  25.668  28.215  1.00  0.00     0.049 A 
ATOM     36  N   UNL A   1      44.444  26.290  28.997  1.00  0.00    -0.248 NA
ATOM     37  C   UNL A   1      45.048  24.127  28.352  1.00  0.00     0.031 C 
ATOM     38  C   UNL A   1      40.204  25.410  27.889  1.00  0.00     0.029 A 
ATOM     39  N   UNL A   1      41.611  26.961  28.675  1.00  0.00    -0.354 N 
ATOM     40  C   UNL A   1      45.796  26.095  29.246  1.00  0.00     0.074 A 
ATOM     41  C   UNL A   1      46.101  24.728  28.885  1.00  0.00     0.031 C 
ATOM     42  C   UNL A   1      39.487  26.518  28.132  1.00  0.00     0.029 A 
ATOM     43  C   UNL A   1      40.371  27.552  28.661  1.00  0.00     0.049 A 
ATOM     44  H   UNL A   1      42.424  27.422  28.983  1.00  0.00     0.167 HD
ATOM     45  C   UNL A   1      46.708  26.980  29.718  1.00  0.00     0.031 A 
ATOM     46  C   UNL A   1      39.989  28.787  29.035  1.00  0.00     0.031 A 
ATOM     47  C   UNL A   1      46.409  28.342  30.065  1.00  0.00     0.049 A 
ATOM     48  C   UNL A   1      41.019  29.750  29.552  1.00  0.00     0.074 A 
ATOM     49  C   UNL A   1      47.275  29.333  30.495  1.00  0.00     0.029 A 
ATOM     50  N   UNL A   1      45.143  28.907  30.024  1.00  0.00    -0.354 N 
ATOM     51  N   UNL A   1      42.308  29.573  29.714  1.00  0.00    -0.248 NA
ATOM     52  C   UNL A   1      40.543  31.090  29.923  1.00  0.00     0.031 C 
ATOM     53  C   UNL A   1      46.526  30.486  30.753  1.00  0.00     0.029 A 
ATOM     54  C   UNL A   1      45.201  30.226  30.439  1.00  0.00     0.049 A 
ATOM     55  H   UNL A   1      44.324  28.438  29.742  1.00  0.00     0.167 HD
ATOM     56  C   UNL A   1      42.801  30.784  30.181  1.00  0.00     0.074 A 
ATOM     57  C   UNL A   1      41.675  31.692  30.261  1.00  0.00     0.031 C 
ATOM     58  C   UNL A   1      44.072  31.115  30.513  1.00  0.00     0.031 A 
BRANCH  45  59
ATOM     59  C   UNL A   1      48.119  26.491  29.886  1.00  0.00    -0.014 A 
ATOM     60  C   UNL A   1      49.062  26.626  28.854  1.00  0.00     0.009 A 
ATOM     61  C   UNL A   1      48.519  25.912  31.100  1.00  0.00     0.009 A 
ATOM     62  C   UNL A   1      50.367  26.158  29.022  1.00  0.00     0.001 A 
ATOM     63  C   UNL A   1      49.831  25.469  31.276  1.00  0.00     0.001 A 
ATOM     64  C   UNL A   1      50.751  25.584  30.234  1.00  0.00     0.000 A 
ENDBRANCH  45  59
BRANCH  46  65
ATOM     65  C   UNL A   1      38.566  29.194  28.911  1.00  0.00    -0.014 A 
ATOM     66  C   UNL A   1      37.693  29.068  30.003  1.00  0.00     0.009 A 
ATOM     67  C   UNL A   1      38.071  29.705  27.701  1.00  0.00     0.009 A 
ATOM     68  C   UNL A   1      36.348  29.421  29.878  1.00  0.00     0.001 A 
ATOM     69  C   UNL A   1      36.731  30.083  27.588  1.00  0.00     0.001 A 
ATOM     70  C   UNL A   1      35.870  29.932  28.673  1.00  0.00     0.000 A 
ENDBRANCH  46  65
BRANCH  58  71
ATOM     71  C   UNL A   1      44.317  32.527  30.962  1.00  0.00    -0.014 A 
ATOM     72  C   UNL A   1      44.266  32.879  32.319  1.00  0.00     0.009 A 
ATOM     73  C   UNL A   1      44.638  33.511  30.013  1.00  0.00     0.009 A 
ATOM     74  C   UNL A   1      44.502  34.197  32.714  1.00  0.00     0.001 A 
ATOM     75  C   UNL A   1      44.900  34.821  30.414  1.00  0.00     0.001 A 
ATOM     76  C   UNL A   1      44.824  35.165  31.763  1.00  0.00     0.000 A 
ENDBRANCH  58  71
ENDBRANCH  32  33
ENDBRANCH  24  27
ENDBRANCH  22  23
ENDBRANCH  21  22
ENDBRANCH   1  21
TORSDOF 15
ENDMDL
MODEL 2
REMARK VINA RESULT:     -10.0      1.814      6.473
REMARK SMILES COc1cc(/C=C/C(=O)NCCCCNC(=O)c2ccc(-c3c4nc(c(-c5ccccc5)c5ccc([nH]5)c(-c5ccccc5)c5nc(c(-c6ccccc6)c6ccc3[nH]6)C=C5)C=C4)cc2)cc(OC)c1O
REMARK SMILES IDX 12 1 11 2 10 3 8 4 9 5 7 7 6 8 5 9 3 10 4 11 70 12 67 13
REMARK SMILES IDX 66 14 2 15 1 16 71 17 68 19 69 20 13 21 14 22 15 23 16 24
REMARK SMILES IDX 17 26 18 27 19 28 65 29 20 30 64 31 21 32 22 33 23 34 58 35
REMARK SMILES IDX 24 36 63 37 57 38 59 39 25 40 62 41 56 42 55 43 26 45 48 46
REMARK SMILES IDX 33 47 47 48 34 49 37 50 46 51 60 52 35 53 36 54 45 56 61 57
REMARK SMILES IDX 38 58 27 59 28 60 32 61 29 62 31 63 30 64 49 65 50 66 54 67
REMARK SMILES IDX 51 68 53 69 52 70 39 71 40 72 44 73 41 74 43 75 42 76
REMARK H PARENT 10 6 71 18 15 25 59 44 37 55
REMARK Flexibility Score: inf
ROOT
ATOM      1  C   UNL A   1      36.921  20.159  24.978  1.00  0.00     0.023 C 
ENDROOT
BRANCH   1   2
ATOM      2  C   UNL A   1      37.009  21.473  24.200  1.00  0.00     0.116 C 
BRANCH   2   3
ATOM      3  N   UNL A   1      37.875  22.421  24.877  1.00  0.00    -0.353 N 
ATOM      4  C   UNL A   1      37.575  23.487  25.666  1.00  0.00     0.243 C 
ATOM      5  O   UNL A   1      38.483  24.106  26.214  1.00  0.00    -0.270 OA
ATOM      6  H   UNL A   1      38.838  22.266  24.742  1.00  0.00     0.163 HD
BRANCH   4   7
ATOM      7  C   UNL A   1      36.171  23.866  25.946  1.00  0.00     0.072 C 
ATOM      8  C   UNL A   1      35.375  24.520  25.089  1.00  0.00     0.014 C 
BRANCH   8   9
ATOM      9  C   UNL A   1      33.998  24.930  25.390  1.00  0.00    -0.018 A 
ATOM     10  C   UNL A   1      31.881  24.628  26.548  1.00  0.00     0.165 A 
ATOM     11  C   UNL A   1      33.146  24.155  26.179  1.00  0.00     0.058 A 
ATOM     12  C   UNL A   1      31.474  25.911  26.146  1.00  0.00     0.200 A 
ATOM     13  C   UNL A   1      32.298  26.687  25.318  1.00  0.00     0.165 A 
ATOM     14  C   UNL A   1      33.557  26.186  24.958  1.00  0.00     0.058 A 
BRANCH  10  15
ATOM     15  O   UNL A   1      31.191  23.784  27.380  1.00  0.00    -0.493 OA
ATOM     16  C   UNL A   1      30.240  22.909  26.783  1.00  0.00     0.278 C 
ENDBRANCH  10  15
BRANCH  12  17
ATOM     17  O   UNL A   1      30.319  26.443  26.650  1.00  0.00    -0.502 OA
ATOM     18  H   UNL A   1      29.574  26.558  26.093  1.00  0.00     0.293 HD
ENDBRANCH  12  17
BRANCH  13  19
ATOM     19  O   UNL A   1      32.077  27.947  24.830  1.00  0.00    -0.493 OA
ATOM     20  C   UNL A   1      32.971  28.987  25.199  1.00  0.00     0.278 C 
ENDBRANCH  13  19
ENDBRANCH   8   9
ENDBRANCH   4   7
ENDBRANCH   2   3
ENDBRANCH   1   2
BRANCH   1  21
ATOM     21  C   UNL A   1      38.205  19.322  24.957  1.00  0.00     0.023 C 
BRANCH  21  22
ATOM     22  C   UNL A   1      39.274  19.748  25.960  1.00  0.00     0.116 C 
BRANCH  22  23
ATOM     23  N   UNL A   1      40.476  18.933  25.903  1.00  0.00    -0.352 N 
ATOM     24  C   UNL A   1      41.783  19.316  26.091  1.00  0.00     0.251 C 
ATOM     25  H   UNL A   1      40.336  17.980  25.704  1.00  0.00     0.163 HD
ATOM     26  O   UNL A   1      42.694  18.520  25.910  1.00  0.00    -0.269 OA
BRANCH  24  27
ATOM     27  C   UNL A   1      42.083  20.712  26.472  1.00  0.00     0.039 A 
ATOM     28  C   UNL A   1      42.196  21.025  27.829  1.00  0.00     0.014 A 
ATOM     29  C   UNL A   1      42.271  21.698  25.501  1.00  0.00     0.014 A 
ATOM     30  C   UNL A   1      42.563  22.317  28.210  1.00  0.00     0.010 A 
ATOM     31  C   UNL A   1      42.700  22.966  25.879  1.00  0.00     0.010 A 
ATOM     32  C   UNL A   1      42.852  23.287  27.236  1.00  0.00    -0.014 A 
BRANCH  32  33
ATOM     33  C   UNL A   1      43.322  24.640  27.622  1.00  0.00     0.031 A 
ATOM     34  C   UNL A   1      42.338  25.688  28.057  1.00  0.00     0.074 A 
ATOM     35  C   UNL A   1      44.631  24.942  27.519  1.00  0.00     0.049 A 
ATOM     36  N   UNL A   1      42.555  26.935  28.389  1.00  0.00    -0.248 NA
ATOM     37  C   UNL A   1      40.921  25.291  28.100  1.00  0.00     0.031 C 
ATOM     38  C   UNL A   1      45.680  24.027  27.066  1.00  0.00     0.029 A 
ATOM     39  N   UNL A   1      45.300  26.110  27.786  1.00  0.00    -0.354 N 
ATOM     40  C   UNL A   1      41.305  27.475  28.664  1.00  0.00     0.074 A 
ATOM     41  C   UNL A   1      40.331  26.435  28.414  1.00  0.00     0.031 C 
ATOM     42  C   UNL A   1      46.863  24.659  27.112  1.00  0.00     0.029 A 
ATOM     43  C   UNL A   1      46.653  26.030  27.565  1.00  0.00     0.049 A 
ATOM     44  H   UNL A   1      44.853  26.926  28.105  1.00  0.00     0.167 HD
ATOM     45  C   UNL A   1      40.996  28.719  29.102  1.00  0.00     0.031 A 
ATOM     46  C   UNL A   1      47.617  26.959  27.710  1.00  0.00     0.031 A 
ATOM     47  C   UNL A   1      41.963  29.749  29.362  1.00  0.00     0.049 A 
ATOM     48  C   UNL A   1      47.248  28.330  28.201  1.00  0.00     0.074 A 
ATOM     49  C   UNL A   1      41.755  31.022  29.865  1.00  0.00     0.029 A 
ATOM     50  N   UNL A   1      43.327  29.625  29.141  1.00  0.00    -0.354 N 
ATOM     51  N   UNL A   1      46.069  28.803  28.524  1.00  0.00    -0.248 NA
ATOM     52  C   UNL A   1      48.348  29.293  28.358  1.00  0.00     0.031 C 
ATOM     53  C   UNL A   1      42.987  31.682  29.908  1.00  0.00     0.029 A 
ATOM     54  C   UNL A   1      43.969  30.803  29.477  1.00  0.00     0.049 A 
ATOM     55  H   UNL A   1      43.771  28.817  28.794  1.00  0.00     0.167 HD
ATOM     56  C   UNL A   1      46.287  30.106  28.949  1.00  0.00     0.074 A 
ATOM     57  C   UNL A   1      47.713  30.345  28.855  1.00  0.00     0.031 C 
ATOM     58  C   UNL A   1      45.388  31.024  29.378  1.00  0.00     0.031 A 
BRANCH  45  59
ATOM     59  C   UNL A   1      39.542  29.030  29.323  1.00  0.00    -0.014 A 
ATOM     60  C   UNL A   1      38.753  29.582  28.300  1.00  0.00     0.009 A 
ATOM     61  C   UNL A   1      38.946  28.743  30.560  1.00  0.00     0.009 A 
ATOM     62  C   UNL A   1      37.407  29.875  28.526  1.00  0.00     0.001 A 
ATOM     63  C   UNL A   1      37.592  29.010  30.774  1.00  0.00     0.001 A 
ATOM     64  C   UNL A   1      36.827  29.585  29.760  1.00  0.00     0.000 A 
ENDBRANCH  45  59
BRANCH  46  65
ATOM     65  C   UNL A   1      49.031  26.616  27.412  1.00  0.00    -0.014 A 
ATOM     66  C   UNL A   1      49.558  26.831  26.128  1.00  0.00     0.009 A 
ATOM     67  C   UNL A   1      49.858  26.067  28.403  1.00  0.00     0.009 A 
ATOM     68  C   UNL A   1      50.878  26.480  25.838  1.00  0.00     0.001 A 
ATOM     69  C   UNL A   1      51.186  25.741  28.116  1.00  0.00     0.001 A 
ATOM     70  C   UNL A   1      51.691  25.939  26.833  1.00  0.00     0.000 A 
ENDBRANCH  46  65
BRANCH  58  71
ATOM     71  C   UNL A   1      45.924  32.358  29.810  1.00  0.00    -0.014 A 
ATOM     72  C   UNL A   1      46.030  33.428  28.908  1.00  0.00     0.009 A 
ATOM     73  C   UNL A   1      46.294  32.557  31.150  1.00  0.00     0.009 A 
ATOM     74  C   UNL A   1      46.526  34.661  29.332  1.00  0.00     0.001 A 
ATOM     75  C   UNL A   1      46.765  33.799  31.577  1.00  0.00     0.001 A 
ATOM     76  C   UNL A   1      46.888  34.848  30.666  1.00  0.00     0.000 A 
ENDBRANCH  58  71
ENDBRANCH  32  33
ENDBRANCH  24  27
ENDBRANCH  22  23
ENDBRANCH  21  22
ENDBRANCH   1  21
TORSDOF 15
ENDMDL
MODEL 3
REMARK VINA RESULT:      -9.9      5.195     10.238
REMARK SMILES COc1cc(/C=C/C(=O)NCCCCNC(=O)c2ccc(-c3c4nc(c(-c5ccccc5)c5ccc([nH]5)c(-c5ccccc5)c5nc(c(-c6ccccc6)c6ccc3[nH]6)C=C5)C=C4)cc2)cc(OC)c1O
REMARK SMILES IDX 12 1 11 2 10 3 8 4 9 5 7 7 6 8 5 9 3 10 4 11 70 12 67 13
REMARK SMILES IDX 66 14 2 15 1 16 71 17 68 19 69 20 13 21 14 22 15 23 16 24
REMARK SMILES IDX 17 26 18 27 19 28 65 29 20 30 64 31 21 32 22 33 23 34 58 35
REMARK SMILES IDX 24 36 63 37 57 38 59 39 25 40 62 41 56 42 55 43 26 45 48 46
REMARK SMILES IDX 33 47 47 48 34 49 37 50 46 51 60 52 35 53 36 54 45 56 61 57
REMARK SMILES IDX 38 58 27 59 28 60 32 61 29 62 31 63 30 64 49 65 50 66 54 67
REMARK SMILES IDX 51 68 53 69 52 70 39 71 40 72 44 73 41 74 43 75 42 76
REMARK H PARENT 10 6 71 18 15 25 59 44 37 55
REMARK Flexibility Score: inf
ROOT
ATOM      1  C   UNL A   1      34.151  33.604  28.798  1.00  0.00     0.023 C 
ENDROOT
BRANCH   1   2
ATOM      2  C   UNL A   1      33.652  32.320  28.133  1.00  0.00     0.116 C 
BRANCH   2   3
ATOM      3  N   UNL A   1      34.707  31.326  28.065  1.00  0.00    -0.353 N 
ATOM      4  C   UNL A   1      34.693  30.053  27.590  1.00  0.00     0.243 C 
ATOM      5  O   UNL A   1      35.741  29.412  27.549  1.00  0.00    -0.270 OA
ATOM      6  H   UNL A   1      35.576  31.623  28.421  1.00  0.00     0.163 HD
BRANCH   4   7
ATOM      7  C   UNL A   1      33.457  29.448  27.041  1.00  0.00     0.072 C 
ATOM      8  C   UNL A   1      33.409  28.284  26.380  1.00  0.00     0.014 C 
BRANCH   8   9
ATOM      9  C   UNL A   1      32.187  27.712  25.802  1.00  0.00    -0.018 A 
ATOM     10  C   UNL A   1      30.577  27.490  23.993  1.00  0.00     0.165 A 
ATOM     11  C   UNL A   1      31.674  28.137  24.575  1.00  0.00     0.058 A 
ATOM     12  C   UNL A   1      30.002  26.382  24.636  1.00  0.00     0.200 A 
ATOM     13  C   UNL A   1      30.475  25.968  25.889  1.00  0.00     0.165 A 
ATOM     14  C   UNL A   1      31.571  26.636  26.452  1.00  0.00     0.058 A 
BRANCH  10  15
ATOM     15  O   UNL A   1      30.235  27.977  22.757  1.00  0.00    -0.493 OA
ATOM     16  C   UNL A   1      29.367  29.104  22.714  1.00  0.00     0.278 C 
ENDBRANCH  10  15
BRANCH  12  17
ATOM     17  O   UNL A   1      29.050  25.644  23.988  1.00  0.00    -0.502 OA
ATOM     18  H   UNL A   1      29.111  24.710  23.971  1.00  0.00     0.293 HD
ENDBRANCH  12  17
BRANCH  13  19
ATOM     19  O   UNL A   1      30.049  24.920  26.660  1.00  0.00    -0.493 OA
ATOM     20  C   UNL A   1      30.716  23.672  26.544  1.00  0.00     0.278 C 
ENDBRANCH  13  19
ENDBRANCH   8   9
ENDBRANCH   4   7
ENDBRANCH   2   3
ENDBRANCH   1   2
BRANCH   1  21
ATOM     21  C   UNL A   1      33.201  34.799  28.662  1.00  0.00     0.023 C 
BRANCH  21  22
ATOM     22  C   UNL A   1      33.509  35.981  29.578  1.00  0.00     0.116 C 
BRANCH  22  23
ATOM     23  N   UNL A   1      32.547  36.142  30.656  1.00  0.00    -0.352 N 
ATOM     24  C   UNL A   1      32.622  35.687  31.951  1.00  0.00     0.251 C 
ATOM     25  H   UNL A   1      31.732  36.646  30.429  1.00  0.00     0.163 HD
ATOM     26  O   UNL A   1      31.675  35.824  32.712  1.00  0.00    -0.269 OA
BRANCH  24  27
ATOM     27  C   UNL A   1      33.843  34.988  32.404  1.00  0.00     0.039 A 
ATOM     28  C   UNL A   1      33.733  33.663  32.834  1.00  0.00     0.014 A 
ATOM     29  C   UNL A   1      35.085  35.625  32.387  1.00  0.00     0.014 A 
ATOM     30  C   UNL A   1      34.884  32.955  33.185  1.00  0.00     0.010 A 
ATOM     31  C   UNL A   1      36.237  34.900  32.675  1.00  0.00     0.010 A 
ATOM     32  C   UNL A   1      36.148  33.558  33.075  1.00  0.00    -0.014 A 
BRANCH  32  33
ATOM     33  C   UNL A   1      37.386  32.796  33.366  1.00  0.00     0.031 A 
ATOM     34  C   UNL A   1      38.144  33.039  34.640  1.00  0.00     0.074 A 
ATOM     35  C   UNL A   1      37.862  31.928  32.452  1.00  0.00     0.049 A 
ATOM     36  N   UNL A   1      39.266  32.502  35.047  1.00  0.00    -0.248 NA
ATOM     37  C   UNL A   1      37.581  34.035  35.567  1.00  0.00     0.031 C 
ATOM     38  C   UNL A   1      37.244  31.637  31.156  1.00  0.00     0.029 A 
ATOM     39  N   UNL A   1      38.982  31.135  32.472  1.00  0.00    -0.354 N 
ATOM     40  C   UNL A   1      39.551  33.105  36.266  1.00  0.00     0.074 A 
ATOM     41  C   UNL A   1      38.512  34.081  36.509  1.00  0.00     0.031 C 
ATOM     42  C   UNL A   1      37.978  30.710  30.519  1.00  0.00     0.029 A 
ATOM     43  C   UNL A   1      39.132  30.367  31.343  1.00  0.00     0.049 A 
ATOM     44  H   UNL A   1      39.616  31.118  33.224  1.00  0.00     0.167 HD
ATOM     45  C   UNL A   1      40.576  32.856  37.115  1.00  0.00     0.031 A 
ATOM     46  C   UNL A   1      40.093  29.486  31.009  1.00  0.00     0.031 A 
ATOM     47  C   UNL A   1      41.602  31.877  36.881  1.00  0.00     0.049 A 
ATOM     48  C   UNL A   1      41.218  29.226  31.970  1.00  0.00     0.074 A 
ATOM     49  C   UNL A   1      42.650  31.509  37.709  1.00  0.00     0.029 A 
ATOM     50  N   UNL A   1      41.712  31.109  35.732  1.00  0.00    -0.354 N 
ATOM     51  N   UNL A   1      41.435  29.753  33.151  1.00  0.00    -0.248 NA
ATOM     52  C   UNL A   1      42.224  28.238  31.557  1.00  0.00     0.031 C 
ATOM     53  C   UNL A   1      43.416  30.549  37.042  1.00  0.00     0.029 A 
ATOM     54  C   UNL A   1      42.819  30.284  35.820  1.00  0.00     0.049 A 
ATOM     55  H   UNL A   1      41.093  31.146  34.967  1.00  0.00     0.167 HD
ATOM     56  C   UNL A   1      42.584  29.142  33.633  1.00  0.00     0.074 A 
ATOM     57  C   UNL A   1      43.011  28.195  32.623  1.00  0.00     0.031 C 
ATOM     58  C   UNL A   1      43.230  29.348  34.807  1.00  0.00     0.031 A 
BRANCH  45  59
ATOM     59  C   UNL A   1      40.634  33.665  38.381  1.00  0.00    -0.014 A 
ATOM     60  C   UNL A   1      41.383  34.851  38.452  1.00  0.00     0.009 A 
ATOM     61  C   UNL A   1      39.909  33.252  39.509  1.00  0.00     0.009 A 
ATOM     62  C   UNL A   1      41.434  35.585  39.638  1.00  0.00     0.001 A 
ATOM     63  C   UNL A   1      39.940  34.002  40.686  1.00  0.00     0.001 A 
ATOM     64  C   UNL A   1      40.710  35.163  40.752  1.00  0.00     0.000 A 
ENDBRANCH  45  59
BRANCH  46  65
ATOM     65  C   UNL A   1      40.022  28.764  29.713  1.00  0.00    -0.014 A 
ATOM     66  C   UNL A   1      39.443  27.486  29.644  1.00  0.00     0.009 A 
ATOM     67  C   UNL A   1      40.535  29.342  28.542  1.00  0.00     0.009 A 
ATOM     68  C   UNL A   1      39.402  26.793  28.433  1.00  0.00     0.001 A 
ATOM     69  C   UNL A   1      40.469  28.656  27.327  1.00  0.00     0.001 A 
ATOM     70  C   UNL A   1      39.912  27.380  27.276  1.00  0.00     0.000 A 
ENDBRANCH  46  65
BRANCH  58  71
ATOM     71  C   UNL A   1      44.445  28.508  35.075  1.00  0.00    -0.014 A 
ATOM     72  C   UNL A   1      44.342  27.255  35.697  1.00  0.00     0.009 A 
ATOM     73  C   UNL A   1      45.709  28.965  34.667  1.00  0.00     0.009 A 
ATOM     74  C   UNL A   1      45.484  26.488  35.933  1.00  0.00     0.001 A 
ATOM     75  C   UNL A   1      46.846  28.185  34.880  1.00  0.00     0.001 A 
ATOM     76  C   UNL A   1      46.734  26.951  35.520  1.00  0.00     0.000 A 
ENDBRANCH  58  71
ENDBRANCH  32  33
ENDBRANCH  24  27
ENDBRANCH  22  23
ENDBRANCH  21  22
ENDBRANCH   1  21
TORSDOF 15
ENDMDL
