MODEL 1
REMARK VINA RESULT:     -11.8      0.000      0.000
REMARK SMILES O=C(NCCCCNC(=O)[C@H]1CCCCN1C(=O)c1cn2ccccc2n1)c1ccc(-c2c3nc(c(-c4ccccc4)c4ccc([nH]4)c(-c4ccccc4)c4nc(c(-c5ccccc5)c5ccc2[nH]5)C=C4)C=C3)cc1
REMARK SMILES IDX 5 1 4 2 3 3 1 4 2 5 28 7 29 8 75 9 30 10 74 11 31 12 32 13
REMARK SMILES IDX 33 14 68 15 34 16 73 17 67 18 69 19 35 20 72 21 66 22 65 23
REMARK SMILES IDX 36 25 58 26 43 27 57 28 44 29 47 30 56 31 70 32 45 33 46 34
REMARK SMILES IDX 55 36 71 37 48 38 37 39 38 40 42 41 39 42 41 43 40 44 59 45
REMARK SMILES IDX 60 46 64 47 61 48 63 49 62 50 49 51 50 52 54 53 51 54 53 55
REMARK SMILES IDX 52 56 6 57 7 58 8 59 9 60 10 62 11 63 12 64 16 65 13 66
REMARK SMILES IDX 15 67 14 68 17 69 18 70 19 71 20 72 27 73 21 74 26 75 22 76
REMARK SMILES IDX 25 77 23 78 24 79
REMARK H PARENT 3 6 69 24 47 35 8 61
REMARK Flexibility Score: inf
ROOT
ATOM      1  C   UNL A   1      37.729  20.063  24.988  1.00  0.00     0.023 C 
ENDROOT
BRANCH   1   2
ATOM      2  C   UNL A   1      38.948  20.466  25.808  1.00  0.00     0.116 C 
BRANCH   2   3
ATOM      3  N   UNL A   1      40.004  19.461  25.817  1.00  0.00    -0.352 N 
ATOM      4  O   UNL A   1      42.101  18.639  25.982  1.00  0.00    -0.269 OA
ATOM      5  C   UNL A   1      41.341  19.581  26.133  1.00  0.00     0.251 C 
ATOM      6  H   UNL A   1      39.719  18.556  25.557  1.00  0.00     0.163 HD
BRANCH   5   7
ATOM      7  C   UNL A   1      41.855  20.879  26.622  1.00  0.00     0.039 A 
ATOM      8  C   UNL A   1      41.856  21.165  27.986  1.00  0.00     0.014 A 
ATOM      9  C   UNL A   1      42.298  21.830  25.699  1.00  0.00     0.014 A 
ATOM     10  C   UNL A   1      42.104  22.463  28.410  1.00  0.00     0.010 A 
ATOM     11  C   UNL A   1      42.655  23.108  26.141  1.00  0.00     0.010 A 
ATOM     12  C   UNL A   1      42.515  23.448  27.496  1.00  0.00    -0.014 A 
BRANCH  12  13
ATOM     13  C   UNL A   1      42.838  24.805  28.001  1.00  0.00     0.031 A 
ATOM     14  C   UNL A   1      41.761  25.823  28.263  1.00  0.00     0.074 A 
ATOM     15  C   UNL A   1      44.125  25.094  28.275  1.00  0.00     0.049 A 
ATOM     16  N   UNL A   1      41.882  27.039  28.733  1.00  0.00    -0.248 NA
ATOM     17  C   UNL A   1      40.375  25.435  27.957  1.00  0.00     0.031 C 
ATOM     18  C   UNL A   1      45.257  24.187  28.062  1.00  0.00     0.029 A 
ATOM     19  N   UNL A   1      44.697  26.214  28.819  1.00  0.00    -0.354 N 
ATOM     20  C   UNL A   1      40.599  27.571  28.751  1.00  0.00     0.074 A 
ATOM     21  C   UNL A   1      39.712  26.551  28.236  1.00  0.00     0.031 C 
ATOM     22  C   UNL A   1      46.374  24.760  28.530  1.00  0.00     0.029 A 
ATOM     23  C   UNL A   1      46.052  26.099  29.004  1.00  0.00     0.049 A 
ATOM     24  H   UNL A   1      44.186  27.021  29.055  1.00  0.00     0.167 HD
ATOM     25  C   UNL A   1      40.198  28.800  29.159  1.00  0.00     0.031 A 
ATOM     26  C   UNL A   1      46.949  26.979  29.483  1.00  0.00     0.031 A 
ATOM     27  C   UNL A   1      41.081  29.807  29.688  1.00  0.00     0.049 A 
ATOM     28  C   UNL A   1      46.477  28.335  29.912  1.00  0.00     0.074 A 
ATOM     29  C   UNL A   1      40.763  31.071  30.158  1.00  0.00     0.029 A 
ATOM     30  N   UNL A   1      42.454  29.667  29.817  1.00  0.00    -0.354 N 
ATOM     31  N   UNL A   1      45.257  28.813  29.935  1.00  0.00    -0.248 NA
ATOM     32  C   UNL A   1      47.507  29.275  30.371  1.00  0.00     0.031 C 
ATOM     33  C   UNL A   1      41.950  31.711  30.530  1.00  0.00     0.029 A 
ATOM     34  C   UNL A   1      43.000  30.829  30.337  1.00  0.00     0.049 A 
ATOM     35  H   UNL A   1      42.965  28.861  29.576  1.00  0.00     0.167 HD
ATOM     36  C   UNL A   1      45.370  30.108  30.417  1.00  0.00     0.074 A 
ATOM     37  C   UNL A   1      46.774  30.330  30.700  1.00  0.00     0.031 C 
ATOM     38  C   UNL A   1      44.399  31.034  30.602  1.00  0.00     0.031 A 
BRANCH  25  39
ATOM     39  C   UNL A   1      38.741  29.145  29.029  1.00  0.00    -0.014 A 
ATOM     40  C   UNL A   1      37.854  28.989  30.104  1.00  0.00     0.009 A 
ATOM     41  C   UNL A   1      38.267  29.707  27.833  1.00  0.00     0.009 A 
ATOM     42  C   UNL A   1      36.517  29.373  29.978  1.00  0.00     0.001 A 
ATOM     43  C   UNL A   1      36.935  30.109  27.716  1.00  0.00     0.001 A 
ATOM     44  C   UNL A   1      36.059  29.938  28.787  1.00  0.00     0.000 A 
ENDBRANCH  25  39
BRANCH  26  45
ATOM     45  C   UNL A   1      48.385  26.608  29.549  1.00  0.00    -0.014 A 
ATOM     46  C   UNL A   1      48.888  25.879  30.635  1.00  0.00     0.009 A 
ATOM     47  C   UNL A   1      49.256  26.970  28.508  1.00  0.00     0.009 A 
ATOM     48  C   UNL A   1      50.241  25.535  30.686  1.00  0.00     0.001 A 
ATOM     49  C   UNL A   1      50.600  26.598  28.548  1.00  0.00     0.001 A 
ATOM     50  C   UNL A   1      51.093  25.888  29.641  1.00  0.00     0.000 A 
ENDBRANCH  26  45
BRANCH  38  51
ATOM     51  C   UNL A   1      44.831  32.361  31.151  1.00  0.00    -0.014 A 
ATOM     52  C   UNL A   1      45.189  33.414  30.295  1.00  0.00     0.009 A 
ATOM     53  C   UNL A   1      44.864  32.565  32.539  1.00  0.00     0.009 A 
ATOM     54  C   UNL A   1      45.608  34.636  30.822  1.00  0.00     0.001 A 
ATOM     55  C   UNL A   1      45.260  33.796  33.061  1.00  0.00     0.001 A 
ATOM     56  C   UNL A   1      45.640  34.827  32.204  1.00  0.00     0.000 A 
ENDBRANCH  38  51
ENDBRANCH  12  13
ENDBRANCH   5   7
ENDBRANCH   2   3
ENDBRANCH   1   2
BRANCH   1  57
ATOM     57  C   UNL A   1      36.805  21.204  24.583  1.00  0.00     0.023 C 
BRANCH  57  58
ATOM     58  C   UNL A   1      36.524  22.248  25.657  1.00  0.00     0.116 C 
BRANCH  58  59
ATOM     59  N   UNL A   1      35.574  21.832  26.659  1.00  0.00    -0.354 N 
ATOM     60  C   UNL A   1      34.275  22.173  26.867  1.00  0.00     0.242 C 
ATOM     61  H   UNL A   1      35.931  21.186  27.310  1.00  0.00     0.163 HD
ATOM     62  O   UNL A   1      33.683  21.456  27.688  1.00  0.00    -0.273 OA
BRANCH  60  63
ATOM     63  C   UNL A   1      33.503  23.322  26.151  1.00  0.00     0.174 C 
ATOM     64  C   UNL A   1      33.967  24.000  24.854  1.00  0.00     0.035 C 
ATOM     65  N   UNL A   1      32.093  22.941  25.965  1.00  0.00    -0.325 N 
ATOM     66  C   UNL A   1      33.600  23.251  23.559  1.00  0.00     0.004 C 
ATOM     67  C   UNL A   1      31.866  21.989  24.886  1.00  0.00     0.121 C 
ATOM     68  C   UNL A   1      32.184  22.672  23.561  1.00  0.00     0.022 C 
BRANCH  65  69
ATOM     69  C   UNL A   1      31.110  23.775  26.515  1.00  0.00     0.274 C 
ATOM     70  O   UNL A   1      30.324  23.388  27.377  1.00  0.00    -0.267 OA
BRANCH  69  71
ATOM     71  C   UNL A   1      31.107  25.174  26.085  1.00  0.00     0.147 A 
ATOM     72  C   UNL A   1      30.632  25.679  24.888  1.00  0.00     0.127 A 
ATOM     73  N   UNL A   1      31.620  26.195  26.867  1.00  0.00    -0.223 NA
ATOM     74  N   UNL A   1      30.875  27.026  24.931  1.00  0.00    -0.306 N 
ATOM     75  C   UNL A   1      31.459  27.295  26.164  1.00  0.00     0.137 A 
ATOM     76  C   UNL A   1      30.632  28.002  23.967  1.00  0.00     0.093 A 
ATOM     77  C   UNL A   1      31.784  28.652  26.448  1.00  0.00     0.048 A 
ATOM     78  C   UNL A   1      30.958  29.279  24.230  1.00  0.00     0.018 A 
ATOM     79  C   UNL A   1      31.546  29.602  25.523  1.00  0.00     0.005 A 
ENDBRANCH  69  71
ENDBRANCH  65  69
ENDBRANCH  60  63
ENDBRANCH  58  59
ENDBRANCH  57  58
ENDBRANCH   1  57
TORSDOF 13
ENDMDL
MODEL 2
REMARK VINA RESULT:     -11.8      0.226      5.959
REMARK SMILES O=C(NCCCCNC(=O)[C@H]1CCCCN1C(=O)c1cn2ccccc2n1)c1ccc(-c2c3nc(c(-c4ccccc4)c4ccc([nH]4)c(-c4ccccc4)c4nc(c(-c5ccccc5)c5ccc2[nH]5)C=C4)C=C3)cc1
REMARK SMILES IDX 5 1 4 2 3 3 1 4 2 5 28 7 29 8 75 9 30 10 74 11 31 12 32 13
REMARK SMILES IDX 33 14 68 15 34 16 73 17 67 18 69 19 35 20 72 21 66 22 65 23
REMARK SMILES IDX 36 25 58 26 43 27 57 28 44 29 47 30 56 31 70 32 45 33 46 34
REMARK SMILES IDX 55 36 71 37 48 38 37 39 38 40 42 41 39 42 41 43 40 44 59 45
REMARK SMILES IDX 60 46 64 47 61 48 63 49 62 50 49 51 50 52 54 53 51 54 53 55
REMARK SMILES IDX 52 56 6 57 7 58 8 59 9 60 10 62 11 63 12 64 16 65 13 66
REMARK SMILES IDX 15 67 14 68 17 69 18 70 19 71 20 72 27 73 21 74 26 75 22 76
REMARK SMILES IDX 25 77 23 78 24 79
REMARK H PARENT 3 6 69 24 47 35 8 61
REMARK Flexibility Score: inf
ROOT
ATOM      1  C   UNL A   1      37.758  20.199  24.974  1.00  0.00     0.023 C 
ENDROOT
BRANCH   1   2
ATOM      2  C   UNL A   1      38.931  20.487  25.902  1.00  0.00     0.116 C 
BRANCH   2   3
ATOM      3  N   UNL A   1      40.003  19.502  25.813  1.00  0.00    -0.352 N 
ATOM      4  O   UNL A   1      42.117  18.709  25.850  1.00  0.00    -0.269 OA
ATOM      5  C   UNL A   1      41.349  19.627  26.084  1.00  0.00     0.251 C 
ATOM      6  H   UNL A   1      39.722  18.609  25.512  1.00  0.00     0.163 HD
BRANCH   5   7
ATOM      7  C   UNL A   1      41.861  20.903  26.628  1.00  0.00     0.039 A 
ATOM      8  C   UNL A   1      41.856  21.134  28.002  1.00  0.00     0.014 A 
ATOM      9  C   UNL A   1      42.309  21.891  25.746  1.00  0.00     0.014 A 
ATOM     10  C   UNL A   1      42.103  22.413  28.481  1.00  0.00     0.010 A 
ATOM     11  C   UNL A   1      42.665  23.150  26.242  1.00  0.00     0.010 A 
ATOM     12  C   UNL A   1      42.519  23.434  27.609  1.00  0.00    -0.014 A 
BRANCH  12  13
ATOM     13  C   UNL A   1      42.841  24.770  28.170  1.00  0.00     0.031 A 
ATOM     14  C   UNL A   1      44.256  25.169  28.487  1.00  0.00     0.074 A 
ATOM     15  C   UNL A   1      41.834  25.648  28.342  1.00  0.00     0.049 A 
ATOM     16  N   UNL A   1      44.699  26.310  28.954  1.00  0.00    -0.248 NA
ATOM     17  C   UNL A   1      45.309  24.166  28.260  1.00  0.00     0.031 C 
ATOM     18  C   UNL A   1      40.420  25.374  28.068  1.00  0.00     0.029 A 
ATOM     19  N   UNL A   1      41.844  26.955  28.755  1.00  0.00    -0.354 N 
ATOM     20  C   UNL A   1      46.072  26.153  29.104  1.00  0.00     0.074 A 
ATOM     21  C   UNL A   1      46.391  24.805  28.689  1.00  0.00     0.031 C 
ATOM     22  C   UNL A   1      39.710  26.495  28.258  1.00  0.00     0.029 A 
ATOM     23  C   UNL A   1      40.603  27.541  28.738  1.00  0.00     0.049 A 
ATOM     24  H   UNL A   1      42.661  27.426  29.035  1.00  0.00     0.167 HD
ATOM     25  C   UNL A   1      46.982  27.054  29.549  1.00  0.00     0.031 A 
ATOM     26  C   UNL A   1      40.214  28.780  29.089  1.00  0.00     0.031 A 
ATOM     27  C   UNL A   1      46.664  28.402  29.944  1.00  0.00     0.049 A 
ATOM     28  C   UNL A   1      41.242  29.747  29.592  1.00  0.00     0.074 A 
ATOM     29  C   UNL A   1      47.523  29.398  30.378  1.00  0.00     0.029 A 
ATOM     30  N   UNL A   1      45.388  28.943  29.954  1.00  0.00    -0.354 N 
ATOM     31  N   UNL A   1      42.537  29.585  29.711  1.00  0.00    -0.248 NA
ATOM     32  C   UNL A   1      40.753  31.065  30.016  1.00  0.00     0.031 C 
ATOM     33  C   UNL A   1      46.760  30.528  30.693  1.00  0.00     0.029 A 
ATOM     34  C   UNL A   1      45.434  30.250  30.409  1.00  0.00     0.049 A 
ATOM     35  H   UNL A   1      44.571  28.468  29.678  1.00  0.00     0.167 HD
ATOM     36  C   UNL A   1      43.020  30.781  30.219  1.00  0.00     0.074 A 
ATOM     37  C   UNL A   1      41.883  31.669  30.357  1.00  0.00     0.031 C 
ATOM     38  C   UNL A   1      44.291  31.113  30.549  1.00  0.00     0.031 A 
BRANCH  25  39
ATOM     39  C   UNL A   1      48.414  26.611  29.661  1.00  0.00    -0.014 A 
ATOM     40  C   UNL A   1      49.337  26.856  28.634  1.00  0.00     0.009 A 
ATOM     41  C   UNL A   1      48.861  26.007  30.847  1.00  0.00     0.009 A 
ATOM     42  C   UNL A   1      50.677  26.489  28.787  1.00  0.00     0.001 A 
ATOM     43  C   UNL A   1      50.204  25.660  31.006  1.00  0.00     0.001 A 
ATOM     44  C   UNL A   1      51.110  25.897  29.973  1.00  0.00     0.000 A 
ENDBRANCH  25  39
BRANCH  26  45
ATOM     45  C   UNL A   1      38.781  29.155  29.004  1.00  0.00    -0.014 A 
ATOM     46  C   UNL A   1      38.240  29.657  27.812  1.00  0.00     0.009 A 
ATOM     47  C   UNL A   1      37.942  28.994  30.119  1.00  0.00     0.009 A 
ATOM     48  C   UNL A   1      36.889  30.007  27.744  1.00  0.00     0.001 A 
ATOM     49  C   UNL A   1      36.586  29.315  30.038  1.00  0.00     0.001 A 
ATOM     50  C   UNL A   1      36.063  29.829  28.853  1.00  0.00     0.000 A 
ENDBRANCH  26  45
BRANCH  38  51
ATOM     51  C   UNL A   1      44.509  32.501  31.074  1.00  0.00    -0.014 A 
ATOM     52  C   UNL A   1      44.460  32.768  32.451  1.00  0.00     0.009 A 
ATOM     53  C   UNL A   1      44.783  33.549  30.182  1.00  0.00     0.009 A 
ATOM     54  C   UNL A   1      44.645  34.068  32.922  1.00  0.00     0.001 A 
ATOM     55  C   UNL A   1      44.992  34.843  30.659  1.00  0.00     0.001 A 
ATOM     56  C   UNL A   1      44.913  35.103  32.026  1.00  0.00     0.000 A 
ENDBRANCH  38  51
ENDBRANCH  12  13
ENDBRANCH   5   7
ENDBRANCH   2   3
ENDBRANCH   1   2
BRANCH   1  57
ATOM     57  C   UNL A   1      37.013  21.424  24.460  1.00  0.00     0.023 C 
BRANCH  57  58
ATOM     58  C   UNL A   1      36.660  22.477  25.502  1.00  0.00     0.116 C 
BRANCH  58  59
ATOM     59  N   UNL A   1      35.750  22.023  26.524  1.00  0.00    -0.354 N 
ATOM     60  C   UNL A   1      34.437  22.296  26.748  1.00  0.00     0.242 C 
ATOM     61  H   UNL A   1      36.150  21.405  27.177  1.00  0.00     0.163 HD
ATOM     62  O   UNL A   1      33.896  21.558  27.586  1.00  0.00    -0.273 OA
BRANCH  60  63
ATOM     63  C   UNL A   1      33.594  23.393  26.031  1.00  0.00     0.174 C 
ATOM     64  C   UNL A   1      33.978  24.045  24.695  1.00  0.00     0.035 C 
ATOM     65  N   UNL A   1      32.193  22.957  25.918  1.00  0.00    -0.325 N 
ATOM     66  C   UNL A   1      33.584  23.242  23.440  1.00  0.00     0.004 C 
ATOM     67  C   UNL A   1      31.955  21.963  24.879  1.00  0.00     0.121 C 
ATOM     68  C   UNL A   1      32.192  22.613  23.522  1.00  0.00     0.022 C 
BRANCH  65  69
ATOM     69  C   UNL A   1      31.203  23.772  26.483  1.00  0.00     0.274 C 
ATOM     70  O   UNL A   1      30.433  23.369  27.353  1.00  0.00    -0.267 OA
BRANCH  69  71
ATOM     71  C   UNL A   1      31.173  25.173  26.061  1.00  0.00     0.147 A 
ATOM     72  C   UNL A   1      30.675  25.677  24.873  1.00  0.00     0.127 A 
ATOM     73  N   UNL A   1      31.681  26.199  26.842  1.00  0.00    -0.223 NA
ATOM     74  N   UNL A   1      30.898  27.028  24.919  1.00  0.00    -0.306 N 
ATOM     75  C   UNL A   1      31.493  27.299  26.146  1.00  0.00     0.137 A 
ATOM     76  C   UNL A   1      30.627  28.004  23.964  1.00  0.00     0.093 A 
ATOM     77  C   UNL A   1      31.801  28.660  26.433  1.00  0.00     0.048 A 
ATOM     78  C   UNL A   1      30.938  29.285  24.230  1.00  0.00     0.018 A 
ATOM     79  C   UNL A   1      31.537  29.611  25.516  1.00  0.00     0.005 A 
ENDBRANCH  69  71
ENDBRANCH  65  69
ENDBRANCH  60  63
ENDBRANCH  58  59
ENDBRANCH  57  58
ENDBRANCH   1  57
TORSDOF 13
ENDMDL
MODEL 3
REMARK VINA RESULT:     -11.8      1.718      3.572
REMARK SMILES O=C(NCCCCNC(=O)[C@H]1CCCCN1C(=O)c1cn2ccccc2n1)c1ccc(-c2c3nc(c(-c4ccccc4)c4ccc([nH]4)c(-c4ccccc4)c4nc(c(-c5ccccc5)c5ccc2[nH]5)C=C4)C=C3)cc1
REMARK SMILES IDX 5 1 4 2 3 3 1 4 2 5 28 7 29 8 75 9 30 10 74 11 31 12 32 13
REMARK SMILES IDX 33 14 68 15 34 16 73 17 67 18 69 19 35 20 72 21 66 22 65 23
REMARK SMILES IDX 36 25 58 26 43 27 57 28 44 29 47 30 56 31 70 32 45 33 46 34
REMARK SMILES IDX 55 36 71 37 48 38 37 39 38 40 42 41 39 42 41 43 40 44 59 45
REMARK SMILES IDX 60 46 64 47 61 48 63 49 62 50 49 51 50 52 54 53 51 54 53 55
REMARK SMILES IDX 52 56 6 57 7 58 8 59 9 60 10 62 11 63 12 64 16 65 13 66
REMARK SMILES IDX 15 67 14 68 17 69 18 70 19 71 20 72 27 73 21 74 26 75 22 76
REMARK SMILES IDX 25 77 23 78 24 79
REMARK H PARENT 3 6 69 24 47 35 8 61
REMARK Flexibility Score: inf
ROOT
ATOM      1  C   UNL A   1      37.539  20.490  24.606  1.00  0.00     0.023 C 
ENDROOT
BRANCH   1   2
ATOM      2  C   UNL A   1      38.572  20.639  25.716  1.00  0.00     0.116 C 
BRANCH   2   3
ATOM      3  N   UNL A   1      39.610  19.616  25.691  1.00  0.00    -0.352 N 
ATOM      4  O   UNL A   1      41.691  18.749  25.832  1.00  0.00    -0.269 OA
ATOM      5  C   UNL A   1      40.947  19.698  26.016  1.00  0.00     0.251 C 
ATOM      6  H   UNL A   1      39.310  18.727  25.395  1.00  0.00     0.163 HD
BRANCH   5   7
ATOM      7  C   UNL A   1      41.482  20.967  26.557  1.00  0.00     0.039 A 
ATOM      8  C   UNL A   1      41.448  21.216  27.927  1.00  0.00     0.014 A 
ATOM      9  C   UNL A   1      41.982  21.929  25.675  1.00  0.00     0.014 A 
ATOM     10  C   UNL A   1      41.720  22.493  28.396  1.00  0.00     0.010 A 
ATOM     11  C   UNL A   1      42.361  23.184  26.164  1.00  0.00     0.010 A 
ATOM     12  C   UNL A   1      42.188  23.490  27.523  1.00  0.00    -0.014 A 
BRANCH  12  13
ATOM     13  C   UNL A   1      42.533  24.823  28.076  1.00  0.00     0.031 A 
ATOM     14  C   UNL A   1      41.480  25.868  28.324  1.00  0.00     0.074 A 
ATOM     15  C   UNL A   1      43.817  25.063  28.406  1.00  0.00     0.049 A 
ATOM     16  N   UNL A   1      41.621  27.068  28.830  1.00  0.00    -0.248 NA
ATOM     17  C   UNL A   1      40.095  25.533  27.955  1.00  0.00     0.031 C 
ATOM     18  C   UNL A   1      44.927  24.125  28.212  1.00  0.00     0.029 A 
ATOM     19  N   UNL A   1      44.402  26.150  29.001  1.00  0.00    -0.354 N 
ATOM     20  C   UNL A   1      40.354  27.641  28.813  1.00  0.00     0.074 A 
ATOM     21  C   UNL A   1      39.457  26.663  28.238  1.00  0.00     0.031 C 
ATOM     22  C   UNL A   1      46.043  24.650  28.737  1.00  0.00     0.029 A 
ATOM     23  C   UNL A   1      45.745  25.987  29.234  1.00  0.00     0.049 A 
ATOM     24  H   UNL A   1      43.908  26.967  29.238  1.00  0.00     0.167 HD
ATOM     25  C   UNL A   1      39.978  28.871  29.238  1.00  0.00     0.031 A 
ATOM     26  C   UNL A   1      46.650  26.825  29.770  1.00  0.00     0.031 A 
ATOM     27  C   UNL A   1      40.870  29.836  29.827  1.00  0.00     0.049 A 
ATOM     28  C   UNL A   1      46.204  28.184  30.216  1.00  0.00     0.074 A 
ATOM     29  C   UNL A   1      40.574  31.097  30.318  1.00  0.00     0.029 A 
ATOM     30  N   UNL A   1      42.232  29.648  30.005  1.00  0.00    -0.354 N 
ATOM     31  N   UNL A   1      45.000  28.700  30.206  1.00  0.00    -0.248 NA
ATOM     32  C   UNL A   1      47.245  29.078  30.739  1.00  0.00     0.031 C 
ATOM     33  C   UNL A   1      41.765  31.689  30.752  1.00  0.00     0.029 A 
ATOM     34  C   UNL A   1      42.794  30.778  30.575  1.00  0.00     0.049 A 
ATOM     35  H   UNL A   1      42.726  28.832  29.762  1.00  0.00     0.167 HD
ATOM     36  C   UNL A   1      45.135  29.979  30.726  1.00  0.00     0.074 A 
ATOM     37  C   UNL A   1      46.533  30.148  31.068  1.00  0.00     0.031 C 
ATOM     38  C   UNL A   1      44.187  30.930  30.898  1.00  0.00     0.031 A 
BRANCH  25  39
ATOM     39  C   UNL A   1      38.538  29.266  29.062  1.00  0.00    -0.014 A 
ATOM     40  C   UNL A   1      37.629  29.213  30.129  1.00  0.00     0.009 A 
ATOM     41  C   UNL A   1      38.105  29.773  27.826  1.00  0.00     0.009 A 
ATOM     42  C   UNL A   1      36.311  29.642  29.957  1.00  0.00     0.001 A 
ATOM     43  C   UNL A   1      36.793  30.221  27.661  1.00  0.00     0.001 A 
ATOM     44  C   UNL A   1      35.895  30.151  28.726  1.00  0.00     0.000 A 
ENDBRANCH  25  39
BRANCH  26  45
ATOM     45  C   UNL A   1      48.070  26.406  29.880  1.00  0.00    -0.014 A 
ATOM     46  C   UNL A   1      48.544  25.777  31.040  1.00  0.00     0.009 A 
ATOM     47  C   UNL A   1      48.954  26.620  28.811  1.00  0.00     0.009 A 
ATOM     48  C   UNL A   1      49.882  25.387  31.133  1.00  0.00     0.001 A 
ATOM     49  C   UNL A   1      50.282  26.201  28.895  1.00  0.00     0.001 A 
ATOM     50  C   UNL A   1      50.747  25.592  30.059  1.00  0.00     0.000 A 
ENDBRANCH  26  45
BRANCH  38  51
ATOM     51  C   UNL A   1      44.639  32.229  31.498  1.00  0.00    -0.014 A 
ATOM     52  C   UNL A   1      45.064  33.291  30.685  1.00  0.00     0.009 A 
ATOM     53  C   UNL A   1      44.623  32.396  32.891  1.00  0.00     0.009 A 
ATOM     54  C   UNL A   1      45.500  34.485  31.260  1.00  0.00     0.001 A 
ATOM     55  C   UNL A   1      45.037  33.600  33.461  1.00  0.00     0.001 A 
ATOM     56  C   UNL A   1      45.484  34.639  32.646  1.00  0.00     0.000 A 
ENDBRANCH  38  51
ENDBRANCH  12  13
ENDBRANCH   5   7
ENDBRANCH   2   3
ENDBRANCH   1   2
BRANCH   1  57
ATOM     57  C   UNL A   1      36.096  20.341  25.070  1.00  0.00     0.023 C 
BRANCH  57  58
ATOM     58  C   UNL A   1      35.533  21.502  25.880  1.00  0.00     0.116 C 
BRANCH  58  59
ATOM     59  N   UNL A   1      35.516  22.763  25.183  1.00  0.00    -0.354 N 
ATOM     60  C   UNL A   1      34.582  23.749  25.122  1.00  0.00     0.242 C 
ATOM     61  H   UNL A   1      36.327  22.944  24.655  1.00  0.00     0.163 HD
ATOM     62  O   UNL A   1      34.983  24.805  24.610  1.00  0.00    -0.273 OA
BRANCH  60  63
ATOM     63  C   UNL A   1      33.122  23.661  25.662  1.00  0.00     0.174 C 
ATOM     64  C   UNL A   1      32.277  24.874  26.075  1.00  0.00     0.035 C 
ATOM     65  N   UNL A   1      32.300  22.842  24.756  1.00  0.00    -0.325 N 
ATOM     66  C   UNL A   1      31.564  25.597  24.917  1.00  0.00     0.004 C 
ATOM     67  C   UNL A   1      31.904  23.519  23.528  1.00  0.00     0.121 C 
ATOM     68  C   UNL A   1      30.947  24.651  23.884  1.00  0.00     0.022 C 
BRANCH  65  69
ATOM     69  C   UNL A   1      31.658  21.716  25.289  1.00  0.00     0.274 C 
ATOM     70  O   UNL A   1      30.636  21.797  25.967  1.00  0.00    -0.267 OA
BRANCH  69  71
ATOM     71  C   UNL A   1      32.205  20.407  24.929  1.00  0.00     0.147 A 
ATOM     72  C   UNL A   1      32.515  19.951  23.661  1.00  0.00     0.127 A 
ATOM     73  N   UNL A   1      32.474  19.427  25.871  1.00  0.00    -0.223 NA
ATOM     74  N   UNL A   1      32.962  18.666  23.827  1.00  0.00    -0.306 N 
ATOM     75  C   UNL A   1      32.938  18.401  25.191  1.00  0.00     0.137 A 
ATOM     76  C   UNL A   1      33.364  17.738  22.870  1.00  0.00     0.093 A 
ATOM     77  C   UNL A   1      33.386  17.116  25.612  1.00  0.00     0.048 A 
ATOM     78  C   UNL A   1      33.768  16.519  23.269  1.00  0.00     0.018 A 
ATOM     79  C   UNL A   1      33.782  16.214  24.693  1.00  0.00     0.005 A 
ENDBRANCH  69  71
ENDBRANCH  65  69
ENDBRANCH  60  63
ENDBRANCH  58  59
ENDBRANCH  57  58
ENDBRANCH   1  57
TORSDOF 13
ENDMDL
