MODEL 1
REMARK VINA RESULT:      -7.9      0.000      0.000
REMARK SMILES COc1ccc(/C=C/c2cc(OC)cc(OC)c2/C=C/C(=O)NCCCCNC(=O)c2ccc(-c3c4nc(c(-c5ccccc5)c5ccc([nH]5)c(-c5ccccc5)c5nc(c(-c6ccccc6)c6ccc3[nH]6)C=C5)C=C4)cc2)cc1
REMARK SMILES IDX 24 1 23 2 21 3 22 4 20 6 19 7 18 8 9 9 10 10 11 11 15 12
REMARK SMILES IDX 14 13 8 14 7 15 6 16 3 17 4 18 80 19 5 20 79 21 2 22 1 23
REMARK SMILES IDX 12 24 13 25 16 26 17 27 25 28 26 29 27 30 28 31 29 32 30 34
REMARK SMILES IDX 31 35 32 36 78 37 33 38 77 39 34 40 35 41 36 42 71 43 37 44
REMARK SMILES IDX 76 45 70 46 72 47 38 48 75 49 69 50 68 51 39 53 61 54 46 55
REMARK SMILES IDX 60 56 47 57 50 58 59 59 73 60 48 61 49 62 58 64 74 65 51 66
REMARK SMILES IDX 40 67 41 68 45 69 42 70 44 71 43 72 62 73 63 74 67 75 64 76
REMARK SMILES IDX 66 77 65 78 52 79 53 80 57 81 54 82 56 83 55 84
REMARK H PARENT 23 5 28 33 72 52 50 63
REMARK Flexibility Score: inf
ROOT
ATOM      1  C   UNL A   1      44.526  23.877  31.540  1.00  0.00     0.116 C 
ENDROOT
BRANCH   1   2
ATOM      2  N   UNL A   1      43.405  23.421  30.748  1.00  0.00    -0.353 N 
ATOM      3  C   UNL A   1      43.253  23.501  29.398  1.00  0.00     0.244 C 
ATOM      4  O   UNL A   1      42.279  23.007  28.839  1.00  0.00    -0.270 OA
ATOM      5  H   UNL A   1      42.665  23.002  31.244  1.00  0.00     0.163 HD
BRANCH   3   6
ATOM      6  C   UNL A   1      44.311  24.153  28.602  1.00  0.00     0.072 C 
ATOM      7  C   UNL A   1      44.007  25.154  27.763  1.00  0.00     0.018 C 
BRANCH   7   8
ATOM      8  C   UNL A   1      44.989  25.746  26.842  1.00  0.00     0.024 A 
ATOM      9  C   UNL A   1      45.440  27.072  27.102  1.00  0.00    -0.011 A 
ATOM     10  C   UNL A   1      46.329  27.703  26.215  1.00  0.00     0.055 A 
ATOM     11  C   UNL A   1      46.765  27.062  25.060  1.00  0.00     0.123 A 
ATOM     12  C   UNL A   1      45.453  25.093  25.679  1.00  0.00     0.130 A 
ATOM     13  C   UNL A   1      46.343  25.762  24.816  1.00  0.00     0.093 A 
BRANCH   9  14
ATOM     14  C   UNL A   1      44.983  27.917  28.227  1.00  0.00     0.009 C 
ATOM     15  C   UNL A   1      44.791  29.244  28.135  1.00  0.00     0.009 C 
BRANCH  15  16
ATOM     16  C   UNL A   1      44.253  30.109  29.207  1.00  0.00    -0.025 A 
ATOM     17  C   UNL A   1      43.029  31.644  31.252  1.00  0.00     0.118 A 
ATOM     18  C   UNL A   1      44.200  30.927  31.499  1.00  0.00     0.047 A 
ATOM     19  C   UNL A   1      42.494  31.633  29.967  1.00  0.00     0.047 A 
ATOM     20  C   UNL A   1      44.802  30.162  30.493  1.00  0.00     0.012 A 
ATOM     21  C   UNL A   1      43.099  30.869  28.957  1.00  0.00     0.012 A 
BRANCH  17  22
ATOM     22  O   UNL A   1      42.520  32.290  32.342  1.00  0.00    -0.497 OA
ATOM     23  C   UNL A   1      41.461  33.212  32.121  1.00  0.00     0.278 C 
ENDBRANCH  17  22
ENDBRANCH  15  16
ENDBRANCH   9  14
BRANCH  11  24
ATOM     24  O   UNL A   1      47.582  27.799  24.249  1.00  0.00    -0.497 OA
ATOM     25  C   UNL A   1      48.551  27.066  23.505  1.00  0.00     0.278 C 
ENDBRANCH  11  24
BRANCH  12  26
ATOM     26  O   UNL A   1      45.157  23.862  25.158  1.00  0.00    -0.496 OA
ATOM     27  C   UNL A   1      46.145  22.902  24.839  1.00  0.00     0.278 C 
ENDBRANCH  12  26
ENDBRANCH   7   8
ENDBRANCH   3   6
ENDBRANCH   1   2
BRANCH   1  28
ATOM     28  C   UNL A   1      44.225  23.806  33.033  1.00  0.00     0.023 C 
BRANCH  28  29
ATOM     29  C   UNL A   1      45.407  23.328  33.876  1.00  0.00     0.023 C 
BRANCH  29  30
ATOM     30  C   UNL A   1      46.611  24.263  33.866  1.00  0.00     0.116 C 
BRANCH  30  31
ATOM     31  N   UNL A   1      47.059  24.635  35.197  1.00  0.00    -0.352 N 
ATOM     32  C   UNL A   1      46.660  25.713  35.954  1.00  0.00     0.251 C 
ATOM     33  H   UNL A   1      47.732  24.045  35.607  1.00  0.00     0.163 HD
ATOM     34  O   UNL A   1      47.263  26.042  36.958  1.00  0.00    -0.269 OA
BRANCH  32  35
ATOM     35  C   UNL A   1      45.510  26.519  35.506  1.00  0.00     0.039 A 
ATOM     36  C   UNL A   1      45.773  27.641  34.720  1.00  0.00     0.014 A 
ATOM     37  C   UNL A   1      44.200  26.152  35.819  1.00  0.00     0.014 A 
ATOM     38  C   UNL A   1      44.711  28.346  34.165  1.00  0.00     0.010 A 
ATOM     39  C   UNL A   1      43.144  26.806  35.200  1.00  0.00     0.010 A 
ATOM     40  C   UNL A   1      43.395  27.898  34.357  1.00  0.00    -0.014 A 
BRANCH  40  41
ATOM     41  C   UNL A   1      42.277  28.548  33.642  1.00  0.00     0.031 A 
ATOM     42  C   UNL A   1      41.401  29.535  34.348  1.00  0.00     0.074 A 
ATOM     43  C   UNL A   1      42.041  28.201  32.362  1.00  0.00     0.049 A 
ATOM     44  N   UNL A   1      40.381  30.209  33.883  1.00  0.00    -0.248 NA
ATOM     45  C   UNL A   1      41.692  29.786  35.770  1.00  0.00     0.031 C 
ATOM     46  C   UNL A   1      42.805  27.211  31.596  1.00  0.00     0.029 A 
ATOM     47  N   UNL A   1      41.097  28.649  31.475  1.00  0.00    -0.354 N 
ATOM     48  C   UNL A   1      39.904  30.953  34.952  1.00  0.00     0.074 A 
ATOM     49  C   UNL A   1      40.709  30.608  36.104  1.00  0.00     0.031 C 
ATOM     50  C   UNL A   1      42.326  27.160  30.343  1.00  0.00     0.029 A 
ATOM     51  C   UNL A   1      41.202  28.081  30.229  1.00  0.00     0.049 A 
ATOM     52  H   UNL A   1      40.410  29.314  31.709  1.00  0.00     0.167 HD
ATOM     53  C   UNL A   1      38.900  31.859  34.966  1.00  0.00     0.031 A 
ATOM     54  C   UNL A   1      40.473  28.285  29.118  1.00  0.00     0.031 A 
ATOM     55  C   UNL A   1      38.107  32.192  33.813  1.00  0.00     0.049 A 
ATOM     56  C   UNL A   1      39.358  29.291  29.163  1.00  0.00     0.074 A 
ATOM     57  C   UNL A   1      37.093  33.127  33.704  1.00  0.00     0.029 A 
ATOM     58  N   UNL A   1      38.240  31.595  32.568  1.00  0.00    -0.354 N 
ATOM     59  N   UNL A   1      38.965  30.043  30.163  1.00  0.00    -0.248 NA
ATOM     60  C   UNL A   1      38.597  29.486  27.922  1.00  0.00     0.031 C 
ATOM     61  C   UNL A   1      36.579  33.059  32.404  1.00  0.00     0.029 A 
ATOM     62  C   UNL A   1      37.311  32.124  31.690  1.00  0.00     0.049 A 
ATOM     63  H   UNL A   1      38.897  30.897  32.344  1.00  0.00     0.167 HD
ATOM     64  C   UNL A   1      37.926  30.818  29.667  1.00  0.00     0.074 A 
ATOM     65  C   UNL A   1      37.766  30.458  28.272  1.00  0.00     0.031 C 
ATOM     66  C   UNL A   1      37.170  31.745  30.308  1.00  0.00     0.031 A 
BRANCH  53  67
ATOM     67  C   UNL A   1      38.604  32.539  36.273  1.00  0.00    -0.014 A 
ATOM     68  C   UNL A   1      37.777  31.936  37.235  1.00  0.00     0.009 A 
ATOM     69  C   UNL A   1      39.170  33.791  36.556  1.00  0.00     0.009 A 
ATOM     70  C   UNL A   1      37.490  32.591  38.435  1.00  0.00     0.001 A 
ATOM     71  C   UNL A   1      38.906  34.431  37.768  1.00  0.00     0.001 A 
ATOM     72  C   UNL A   1      38.059  33.836  38.702  1.00  0.00     0.000 A 
ENDBRANCH  53  67
BRANCH  54  73
ATOM     73  C   UNL A   1      40.789  27.544  27.870  1.00  0.00    -0.014 A 
ATOM     74  C   UNL A   1      41.617  28.116  26.891  1.00  0.00     0.009 A 
ATOM     75  C   UNL A   1      40.267  26.260  27.649  1.00  0.00     0.009 A 
ATOM     76  C   UNL A   1      41.892  27.428  25.706  1.00  0.00     0.001 A 
ATOM     77  C   UNL A   1      40.568  25.563  26.476  1.00  0.00     0.001 A 
ATOM     78  C   UNL A   1      41.370  26.152  25.501  1.00  0.00     0.000 A 
ENDBRANCH  54  73
BRANCH  66  79
ATOM     79  C   UNL A   1      36.126  32.451  29.491  1.00  0.00    -0.014 A 
ATOM     80  C   UNL A   1      34.960  31.793  29.073  1.00  0.00     0.009 A 
ATOM     81  C   UNL A   1      36.299  33.805  29.168  1.00  0.00     0.009 A 
ATOM     82  C   UNL A   1      34.003  32.469  28.315  1.00  0.00     0.001 A 
ATOM     83  C   UNL A   1      35.326  34.488  28.437  1.00  0.00     0.001 A 
ATOM     84  C   UNL A   1      34.184  33.816  28.003  1.00  0.00     0.000 A 
ENDBRANCH  66  79
ENDBRANCH  40  41
ENDBRANCH  32  35
ENDBRANCH  30  31
ENDBRANCH  29  30
ENDBRANCH  28  29
ENDBRANCH   1  28
TORSDOF 17
ENDMDL
MODEL 2
REMARK VINA RESULT:      -7.2      3.500     10.339
REMARK SMILES COc1ccc(/C=C/c2cc(OC)cc(OC)c2/C=C/C(=O)NCCCCNC(=O)c2ccc(-c3c4nc(c(-c5ccccc5)c5ccc([nH]5)c(-c5ccccc5)c5nc(c(-c6ccccc6)c6ccc3[nH]6)C=C5)C=C4)cc2)cc1
REMARK SMILES IDX 24 1 23 2 21 3 22 4 20 6 19 7 18 8 9 9 10 10 11 11 15 12
REMARK SMILES IDX 14 13 8 14 7 15 6 16 3 17 4 18 80 19 5 20 79 21 2 22 1 23
REMARK SMILES IDX 12 24 13 25 16 26 17 27 25 28 26 29 27 30 28 31 29 32 30 34
REMARK SMILES IDX 31 35 32 36 78 37 33 38 77 39 34 40 35 41 36 42 71 43 37 44
REMARK SMILES IDX 76 45 70 46 72 47 38 48 75 49 69 50 68 51 39 53 61 54 46 55
REMARK SMILES IDX 60 56 47 57 50 58 59 59 73 60 48 61 49 62 58 64 74 65 51 66
REMARK SMILES IDX 40 67 41 68 45 69 42 70 44 71 43 72 62 73 63 74 67 75 64 76
REMARK SMILES IDX 66 77 65 78 52 79 53 80 57 81 54 82 56 83 55 84
REMARK H PARENT 23 5 28 33 72 52 50 63
REMARK Flexibility Score: inf
ROOT
ATOM      1  C   UNL A   1      41.357  35.022  29.257  1.00  0.00     0.116 C 
ENDROOT
BRANCH   1   2
ATOM      2  N   UNL A   1      41.227  34.580  30.629  1.00  0.00    -0.353 N 
ATOM      3  C   UNL A   1      40.187  33.906  31.191  1.00  0.00     0.244 C 
ATOM      4  O   UNL A   1      40.235  33.523  32.355  1.00  0.00    -0.270 OA
ATOM      5  H   UNL A   1      41.980  34.792  31.226  1.00  0.00     0.163 HD
BRANCH   3   6
ATOM      6  C   UNL A   1      39.011  33.593  30.356  1.00  0.00     0.072 C 
ATOM      7  C   UNL A   1      38.138  32.651  30.744  1.00  0.00     0.018 C 
BRANCH   7   8
ATOM      8  C   UNL A   1      37.029  32.196  29.892  1.00  0.00     0.024 A 
ATOM      9  C   UNL A   1      37.253  31.078  29.038  1.00  0.00    -0.011 A 
ATOM     10  C   UNL A   1      36.243  30.646  28.159  1.00  0.00     0.055 A 
ATOM     11  C   UNL A   1      35.024  31.310  28.087  1.00  0.00     0.123 A 
ATOM     12  C   UNL A   1      35.780  32.851  29.830  1.00  0.00     0.130 A 
ATOM     13  C   UNL A   1      34.797  32.386  28.935  1.00  0.00     0.093 A 
BRANCH   9  14
ATOM     14  C   UNL A   1      38.530  30.341  28.924  1.00  0.00     0.009 C 
ATOM     15  C   UNL A   1      38.791  29.441  27.961  1.00  0.00     0.009 C 
BRANCH  15  16
ATOM     16  C   UNL A   1      40.083  28.749  27.761  1.00  0.00    -0.025 A 
ATOM     17  C   UNL A   1      42.441  27.226  27.369  1.00  0.00     0.118 A 
ATOM     18  C   UNL A   1      42.060  28.204  26.451  1.00  0.00     0.047 A 
ATOM     19  C   UNL A   1      41.667  27.039  28.511  1.00  0.00     0.047 A 
ATOM     20  C   UNL A   1      40.892  28.952  26.638  1.00  0.00     0.012 A 
ATOM     21  C   UNL A   1      40.497  27.791  28.701  1.00  0.00     0.012 A 
BRANCH  17  22
ATOM     22  O   UNL A   1      43.565  26.532  27.024  1.00  0.00    -0.497 OA
ATOM     23  C   UNL A   1      44.700  26.660  27.871  1.00  0.00     0.278 C 
ENDBRANCH  17  22
ENDBRANCH  15  16
ENDBRANCH   9  14
BRANCH  11  24
ATOM     24  O   UNL A   1      34.145  30.831  27.156  1.00  0.00    -0.497 OA
ATOM     25  C   UNL A   1      33.818  29.448  27.257  1.00  0.00     0.278 C 
ENDBRANCH  11  24
BRANCH  12  26
ATOM     26  O   UNL A   1      35.309  33.959  30.482  1.00  0.00    -0.496 OA
ATOM     27  C   UNL A   1      34.760  33.912  31.784  1.00  0.00     0.278 C 
ENDBRANCH  12  26
ENDBRANCH   7   8
ENDBRANCH   3   6
ENDBRANCH   1   2
BRANCH   1  28
ATOM     28  C   UNL A   1      42.581  35.910  29.068  1.00  0.00     0.023 C 
BRANCH  28  29
ATOM     29  C   UNL A   1      42.840  36.296  27.611  1.00  0.00     0.023 C 
BRANCH  29  30
ATOM     30  C   UNL A   1      42.280  35.315  26.587  1.00  0.00     0.116 C 
BRANCH  30  31
ATOM     31  N   UNL A   1      43.078  35.231  25.376  1.00  0.00    -0.352 N 
ATOM     32  C   UNL A   1      44.147  34.403  25.122  1.00  0.00     0.251 C 
ATOM     33  H   UNL A   1      42.822  35.842  24.647  1.00  0.00     0.163 HD
ATOM     34  O   UNL A   1      44.869  34.576  24.158  1.00  0.00    -0.269 OA
BRANCH  32  35
ATOM     35  C   UNL A   1      44.459  33.320  26.071  1.00  0.00     0.039 A 
ATOM     36  C   UNL A   1      45.148  33.658  27.236  1.00  0.00     0.014 A 
ATOM     37  C   UNL A   1      44.042  32.008  25.838  1.00  0.00     0.014 A 
ATOM     38  C   UNL A   1      45.339  32.692  28.218  1.00  0.00     0.010 A 
ATOM     39  C   UNL A   1      44.161  31.066  26.850  1.00  0.00     0.010 A 
ATOM     40  C   UNL A   1      44.797  31.408  28.053  1.00  0.00    -0.014 A 
BRANCH  40  41
ATOM     41  C   UNL A   1      44.859  30.428  29.157  1.00  0.00     0.031 A 
ATOM     42  C   UNL A   1      43.653  30.175  30.009  1.00  0.00     0.074 A 
ATOM     43  C   UNL A   1      46.027  29.805  29.403  1.00  0.00     0.049 A 
ATOM     44  N   UNL A   1      43.518  29.349  31.015  1.00  0.00    -0.248 NA
ATOM     45  C   UNL A   1      42.448  30.965  29.710  1.00  0.00     0.031 C 
ATOM     46  C   UNL A   1      47.275  30.018  28.664  1.00  0.00     0.029 A 
ATOM     47  N   UNL A   1      46.354  28.859  30.339  1.00  0.00    -0.354 N 
ATOM     48  C   UNL A   1      42.220  29.528  31.472  1.00  0.00     0.074 A 
ATOM     49  C   UNL A   1      41.627  30.577  30.672  1.00  0.00     0.031 C 
ATOM     50  C   UNL A   1      48.218  29.194  29.146  1.00  0.00     0.029 A 
ATOM     51  C   UNL A   1      47.655  28.426  30.249  1.00  0.00     0.049 A 
ATOM     52  H   UNL A   1      45.718  28.521  31.010  1.00  0.00     0.167 HD
ATOM     53  C   UNL A   1      41.575  28.859  32.455  1.00  0.00     0.031 A 
ATOM     54  C   UNL A   1      48.315  27.508  30.976  1.00  0.00     0.031 A 
ATOM     55  C   UNL A   1      42.177  27.817  33.243  1.00  0.00     0.049 A 
ATOM     56  C   UNL A   1      47.577  26.786  32.068  1.00  0.00     0.074 A 
ATOM     57  C   UNL A   1      41.603  27.044  34.236  1.00  0.00     0.029 A 
ATOM     58  N   UNL A   1      43.498  27.407  33.126  1.00  0.00    -0.354 N 
ATOM     59  N   UNL A   1      46.327  26.913  32.442  1.00  0.00    -0.248 NA
ATOM     60  C   UNL A   1      48.339  25.786  32.827  1.00  0.00     0.031 C 
ATOM     61  C   UNL A   1      42.591  26.199  34.753  1.00  0.00     0.029 A 
ATOM     62  C   UNL A   1      43.763  26.407  34.045  1.00  0.00     0.049 A 
ATOM     63  H   UNL A   1      44.149  27.774  32.486  1.00  0.00     0.167 HD
ATOM     64  C   UNL A   1      46.143  25.991  33.464  1.00  0.00     0.074 A 
ATOM     65  C   UNL A   1      47.406  25.301  33.635  1.00  0.00     0.031 C 
ATOM     66  C   UNL A   1      45.030  25.740  34.197  1.00  0.00     0.031 A 
BRANCH  53  67
ATOM     67  C   UNL A   1      40.151  29.249  32.733  1.00  0.00    -0.014 A 
ATOM     68  C   UNL A   1      39.842  30.288  33.627  1.00  0.00     0.009 A 
ATOM     69  C   UNL A   1      39.102  28.581  32.082  1.00  0.00     0.009 A 
ATOM     70  C   UNL A   1      38.512  30.622  33.894  1.00  0.00     0.001 A 
ATOM     71  C   UNL A   1      37.775  28.937  32.329  1.00  0.00     0.001 A 
ATOM     72  C   UNL A   1      37.480  29.950  33.241  1.00  0.00     0.000 A 
ENDBRANCH  53  67
BRANCH  54  73
ATOM     73  C   UNL A   1      49.739  27.203  30.680  1.00  0.00    -0.014 A 
ATOM     74  C   UNL A   1      50.077  26.248  29.708  1.00  0.00     0.009 A 
ATOM     75  C   UNL A   1      50.770  27.866  31.365  1.00  0.00     0.009 A 
ATOM     76  C   UNL A   1      51.416  25.944  29.450  1.00  0.00     0.001 A 
ATOM     77  C   UNL A   1      52.108  27.582  31.082  1.00  0.00     0.001 A 
ATOM     78  C   UNL A   1      52.429  26.613  30.134  1.00  0.00     0.000 A 
ENDBRANCH  54  73
BRANCH  66  79
ATOM     79  C   UNL A   1      45.128  24.651  35.227  1.00  0.00    -0.014 A 
ATOM     80  C   UNL A   1      44.920  23.305  34.887  1.00  0.00     0.009 A 
ATOM     81  C   UNL A   1      45.468  24.977  36.549  1.00  0.00     0.009 A 
ATOM     82  C   UNL A   1      45.016  22.310  35.861  1.00  0.00     0.001 A 
ATOM     83  C   UNL A   1      45.594  23.977  37.513  1.00  0.00     0.001 A 
ATOM     84  C   UNL A   1      45.357  22.646  37.171  1.00  0.00     0.000 A 
ENDBRANCH  66  79
ENDBRANCH  40  41
ENDBRANCH  32  35
ENDBRANCH  30  31
ENDBRANCH  29  30
ENDBRANCH  28  29
ENDBRANCH   1  28
TORSDOF 17
ENDMDL
MODEL 3
REMARK VINA RESULT:      -7.1      3.135     10.291
REMARK SMILES COc1ccc(/C=C/c2cc(OC)cc(OC)c2/C=C/C(=O)NCCCCNC(=O)c2ccc(-c3c4nc(c(-c5ccccc5)c5ccc([nH]5)c(-c5ccccc5)c5nc(c(-c6ccccc6)c6ccc3[nH]6)C=C5)C=C4)cc2)cc1
REMARK SMILES IDX 24 1 23 2 21 3 22 4 20 6 19 7 18 8 9 9 10 10 11 11 15 12
REMARK SMILES IDX 14 13 8 14 7 15 6 16 3 17 4 18 80 19 5 20 79 21 2 22 1 23
REMARK SMILES IDX 12 24 13 25 16 26 17 27 25 28 26 29 27 30 28 31 29 32 30 34
REMARK SMILES IDX 31 35 32 36 78 37 33 38 77 39 34 40 35 41 36 42 71 43 37 44
REMARK SMILES IDX 76 45 70 46 72 47 38 48 75 49 69 50 68 51 39 53 61 54 46 55
REMARK SMILES IDX 60 56 47 57 50 58 59 59 73 60 48 61 49 62 58 64 74 65 51 66
REMARK SMILES IDX 40 67 41 68 45 69 42 70 44 71 43 72 62 73 63 74 67 75 64 76
REMARK SMILES IDX 66 77 65 78 52 79 53 80 57 81 54 82 56 83 55 84
REMARK H PARENT 23 5 28 33 72 52 50 63
REMARK Flexibility Score: inf
ROOT
ATOM      1  C   UNL A   1      36.919  32.436  32.576  1.00  0.00     0.116 C 
ENDROOT
BRANCH   1   2
ATOM      2  N   UNL A   1      36.984  30.993  32.649  1.00  0.00    -0.353 N 
ATOM      3  C   UNL A   1      37.896  30.234  33.316  1.00  0.00     0.244 C 
ATOM      4  O   UNL A   1      37.794  29.012  33.358  1.00  0.00    -0.270 OA
ATOM      5  H   UNL A   1      36.287  30.502  32.158  1.00  0.00     0.163 HD
BRANCH   3   6
ATOM      6  C   UNL A   1      38.990  30.911  34.039  1.00  0.00     0.072 C 
ATOM      7  C   UNL A   1      39.469  30.393  35.180  1.00  0.00     0.018 C 
BRANCH   7   8
ATOM      8  C   UNL A   1      40.455  31.090  36.018  1.00  0.00     0.024 A 
ATOM      9  C   UNL A   1      41.724  30.476  36.215  1.00  0.00    -0.011 A 
ATOM     10  C   UNL A   1      42.676  31.074  37.060  1.00  0.00     0.055 A 
ATOM     11  C   UNL A   1      42.393  32.255  37.735  1.00  0.00     0.123 A 
ATOM     12  C   UNL A   1      40.183  32.303  36.690  1.00  0.00     0.130 A 
ATOM     13  C   UNL A   1      41.164  32.867  37.527  1.00  0.00     0.093 A 
BRANCH   9  14
ATOM     14  C   UNL A   1      42.130  29.169  35.653  1.00  0.00     0.009 C 
ATOM     15  C   UNL A   1      41.885  27.990  36.249  1.00  0.00     0.009 C 
BRANCH  15  16
ATOM     16  C   UNL A   1      42.195  26.660  35.680  1.00  0.00    -0.025 A 
ATOM     17  C   UNL A   1      42.995  24.129  34.686  1.00  0.00     0.118 A 
ATOM     18  C   UNL A   1      41.905  24.247  35.547  1.00  0.00     0.047 A 
ATOM     19  C   UNL A   1      43.660  25.284  34.282  1.00  0.00     0.047 A 
ATOM     20  C   UNL A   1      41.512  25.496  36.045  1.00  0.00     0.012 A 
ATOM     21  C   UNL A   1      43.265  26.536  34.778  1.00  0.00     0.012 A 
BRANCH  17  22
ATOM     22  O   UNL A   1      43.302  22.847  34.332  1.00  0.00    -0.497 OA
ATOM     23  C   UNL A   1      44.547  22.324  34.777  1.00  0.00     0.278 C 
ENDBRANCH  17  22
ENDBRANCH  15  16
ENDBRANCH   9  14
BRANCH  11  24
ATOM     24  O   UNL A   1      43.377  32.708  38.570  1.00  0.00    -0.497 OA
ATOM     25  C   UNL A   1      44.674  32.837  37.997  1.00  0.00     0.278 C 
ENDBRANCH  11  24
BRANCH  12  26
ATOM     26  O   UNL A   1      39.055  33.078  36.729  1.00  0.00    -0.496 OA
ATOM     27  C   UNL A   1      37.942  32.780  37.549  1.00  0.00     0.278 C 
ENDBRANCH  12  26
ENDBRANCH   7   8
ENDBRANCH   3   6
ENDBRANCH   1   2
BRANCH   1  28
ATOM     28  C   UNL A   1      37.301  32.946  31.191  1.00  0.00     0.023 C 
BRANCH  28  29
ATOM     29  C   UNL A   1      36.099  33.286  30.309  1.00  0.00     0.023 C 
BRANCH  29  30
ATOM     30  C   UNL A   1      34.874  32.410  30.543  1.00  0.00     0.116 C 
BRANCH  30  31
ATOM     31  N   UNL A   1      34.198  32.027  29.315  1.00  0.00    -0.352 N 
ATOM     32  C   UNL A   1      34.671  31.224  28.303  1.00  0.00     0.251 C 
ATOM     33  H   UNL A   1      33.290  32.387  29.191  1.00  0.00     0.163 HD
ATOM     34  O   UNL A   1      34.103  31.154  27.229  1.00  0.00    -0.269 OA
BRANCH  32  35
ATOM     35  C   UNL A   1      35.927  30.479  28.504  1.00  0.00     0.039 A 
ATOM     36  C   UNL A   1      36.976  30.725  27.617  1.00  0.00     0.014 A 
ATOM     37  C   UNL A   1      36.080  29.589  29.570  1.00  0.00     0.014 A 
ATOM     38  C   UNL A   1      38.217  30.146  27.856  1.00  0.00     0.010 A 
ATOM     39  C   UNL A   1      37.339  29.078  29.853  1.00  0.00     0.010 A 
ATOM     40  C   UNL A   1      38.418  29.365  29.005  1.00  0.00    -0.014 A 
BRANCH  40  41
ATOM     41  C   UNL A   1      39.772  28.881  29.347  1.00  0.00     0.031 A 
ATOM     42  C   UNL A   1      40.700  29.739  30.149  1.00  0.00     0.074 A 
ATOM     43  C   UNL A   1      40.162  27.677  28.887  1.00  0.00     0.049 A 
ATOM     44  N   UNL A   1      41.918  29.480  30.549  1.00  0.00    -0.248 NA
ATOM     45  C   UNL A   1      40.209  31.072  30.536  1.00  0.00     0.031 C 
ATOM     46  C   UNL A   1      39.351  26.783  28.053  1.00  0.00     0.029 A 
ATOM     47  N   UNL A   1      41.336  26.992  29.061  1.00  0.00    -0.354 N 
ATOM     48  C   UNL A   1      42.340  30.616  31.225  1.00  0.00     0.074 A 
ATOM     49  C   UNL A   1      41.272  31.587  31.133  1.00  0.00     0.031 C 
ATOM     50  C   UNL A   1      40.036  25.651  27.828  1.00  0.00     0.029 A 
ATOM     51  C   UNL A   1      41.343  25.754  28.465  1.00  0.00     0.049 A 
ATOM     52  H   UNL A   1      42.100  27.352  29.567  1.00  0.00     0.167 HD
ATOM     53  C   UNL A   1      43.505  30.821  31.882  1.00  0.00     0.031 A 
ATOM     54  C   UNL A   1      42.298  24.809  28.439  1.00  0.00     0.031 A 
ATOM     55  C   UNL A   1      44.559  29.846  31.964  1.00  0.00     0.049 A 
ATOM     56  C   UNL A   1      43.586  25.066  29.169  1.00  0.00     0.074 A 
ATOM     57  C   UNL A   1      45.763  29.933  32.640  1.00  0.00     0.029 A 
ATOM     58  N   UNL A   1      44.533  28.605  31.345  1.00  0.00    -0.354 N 
ATOM     59  N   UNL A   1      43.943  26.118  29.867  1.00  0.00    -0.248 NA
ATOM     60  C   UNL A   1      44.595  24.000  29.120  1.00  0.00     0.031 C 
ATOM     61  C   UNL A   1      46.486  28.762  32.387  1.00  0.00     0.029 A 
ATOM     62  C   UNL A   1      45.709  27.924  31.603  1.00  0.00     0.049 A 
ATOM     63  H   UNL A   1      43.787  28.261  30.802  1.00  0.00     0.167 HD
ATOM     64  C   UNL A   1      45.208  25.831  30.361  1.00  0.00     0.074 A 
ATOM     65  C   UNL A   1      45.545  24.500  29.899  1.00  0.00     0.031 C 
ATOM     66  C   UNL A   1      46.020  26.602  31.127  1.00  0.00     0.031 A 
BRANCH  53  67
ATOM     67  C   UNL A   1      43.694  32.155  32.547  1.00  0.00    -0.014 A 
ATOM     68  C   UNL A   1      43.210  32.395  33.844  1.00  0.00     0.009 A 
ATOM     69  C   UNL A   1      44.378  33.181  31.879  1.00  0.00     0.009 A 
ATOM     70  C   UNL A   1      43.371  33.649  34.440  1.00  0.00     0.001 A 
ATOM     71  C   UNL A   1      44.564  34.423  32.488  1.00  0.00     0.001 A 
ATOM     72  C   UNL A   1      44.052  34.659  33.763  1.00  0.00     0.000 A 
ENDBRANCH  53  67
BRANCH  54  73
ATOM     73  C   UNL A   1      42.065  23.530  27.721  1.00  0.00    -0.014 A 
ATOM     74  C   UNL A   1      41.423  22.459  28.362  1.00  0.00     0.009 A 
ATOM     75  C   UNL A   1      42.480  23.371  26.389  1.00  0.00     0.009 A 
ATOM     76  C   UNL A   1      41.228  21.247  27.694  1.00  0.00     0.001 A 
ATOM     77  C   UNL A   1      42.257  22.169  25.714  1.00  0.00     0.001 A 
ATOM     78  C   UNL A   1      41.641  21.105  26.371  1.00  0.00     0.000 A 
ENDBRANCH  54  73
BRANCH  66  79
ATOM     79  C   UNL A   1      47.337  26.003  31.535  1.00  0.00    -0.014 A 
ATOM     80  C   UNL A   1      48.444  26.023  30.674  1.00  0.00     0.009 A 
ATOM     81  C   UNL A   1      47.476  25.443  32.814  1.00  0.00     0.009 A 
ATOM     82  C   UNL A   1      49.657  25.461  31.074  1.00  0.00     0.001 A 
ATOM     83  C   UNL A   1      48.698  24.910  33.223  1.00  0.00     0.001 A 
ATOM     84  C   UNL A   1      49.784  24.910  32.349  1.00  0.00     0.000 A 
ENDBRANCH  66  79
ENDBRANCH  40  41
ENDBRANCH  32  35
ENDBRANCH  30  31
ENDBRANCH  29  30
ENDBRANCH  28  29
ENDBRANCH   1  28
TORSDOF 17
ENDMDL
