MODEL 1
REMARK VINA RESULT:     -11.0      0.000      0.000
REMARK SMILES CCN(C(=O)c1ccccc1C(=O)NCCCCNC(=O)c1ccc(-c2c3nc(c(-c4ccccc4)c4ccc([nH]4)c(-c4ccccc4)c4nc(c(-c5ccccc5)c5ccc2[nH]5)C=C4)C=C3)cc1)[C@H](CCO)c1ccccc1
REMARK SMILES IDX 12 1 13 2 14 3 11 5 6 6 7 7 8 8 10 9 9 10 4 11 5 12 3 13
REMARK SMILES IDX 2 14 1 15 70 16 74 17 75 18 79 19 76 20 78 21 77 22 71 23
REMARK SMILES IDX 72 24 73 25 15 27 16 28 17 29 18 30 19 31 20 32 21 34 22 35
REMARK SMILES IDX 23 36 69 37 24 38 68 39 25 40 26 41 27 42 62 43 28 44 67 45
REMARK SMILES IDX 61 46 63 47 29 48 66 49 60 50 59 51 30 53 52 54 37 55 51 56
REMARK SMILES IDX 38 57 41 58 50 59 64 60 39 61 40 62 49 64 65 65 42 66 31 67
REMARK SMILES IDX 32 68 36 69 33 70 35 71 34 72 53 73 54 74 58 75 55 76 57 77
REMARK SMILES IDX 56 78 43 79 44 80 48 81 45 82 47 83 46 84
REMARK H PARENT 14 4 73 26 19 33 63 52 41 63
REMARK Flexibility Score: inf
ROOT
ATOM      1  C   UNL A   1      34.129  22.293  26.240  1.00  0.00     0.252 C 
ATOM      2  O   UNL A   1      33.820  21.716  27.295  1.00  0.00    -0.269 OA
ATOM      3  N   UNL A   1      35.113  23.254  26.423  1.00  0.00    -0.352 N 
ATOM      4  H   UNL A   1      35.300  23.456  27.368  1.00  0.00     0.163 HD
ENDROOT
BRANCH   1   5
ATOM      5  C   UNL A   1      33.311  21.895  25.007  1.00  0.00     0.052 A 
ATOM      6  C   UNL A   1      32.887  22.585  23.842  1.00  0.00     0.052 A 
ATOM      7  C   UNL A   1      32.277  21.884  22.761  1.00  0.00     0.014 A 
ATOM      8  C   UNL A   1      32.153  20.507  22.748  1.00  0.00     0.001 A 
ATOM      9  C   UNL A   1      33.148  20.481  24.947  1.00  0.00     0.014 A 
ATOM     10  C   UNL A   1      32.607  19.800  23.842  1.00  0.00     0.001 A 
BRANCH   6  11
ATOM     11  C   UNL A   1      33.097  23.998  23.440  1.00  0.00     0.255 C 
ATOM     12  O   UNL A   1      34.078  24.295  22.756  1.00  0.00    -0.269 OA
BRANCH  11  13
ATOM     13  N   UNL A   1      32.192  24.947  23.850  1.00  0.00    -0.332 N 
BRANCH  13  14
ATOM     14  C   UNL A   1      31.218  25.344  22.806  1.00  0.00     0.117 C 
ATOM     15  C   UNL A   1      31.464  26.673  22.105  1.00  0.00     0.027 C 
ENDBRANCH  13  14
BRANCH  13  16
ATOM     16  C   UNL A   1      31.918  25.005  25.328  1.00  0.00     0.118 C 
BRANCH  16  17
ATOM     17  C   UNL A   1      32.395  26.387  26.051  1.00  0.00    -0.025 A 
ATOM     18  C   UNL A   1      31.548  27.138  26.871  1.00  0.00     0.006 A 
ATOM     19  C   UNL A   1      33.696  26.942  26.012  1.00  0.00     0.006 A 
ATOM     20  C   UNL A   1      31.816  28.478  27.251  1.00  0.00     0.000 A 
ATOM     21  C   UNL A   1      34.029  28.234  26.478  1.00  0.00     0.000 A 
ATOM     22  C   UNL A   1      33.057  29.044  27.023  1.00  0.00     0.000 A 
ENDBRANCH  16  17
BRANCH  16  23
ATOM     23  C   UNL A   1      30.484  24.412  25.665  1.00  0.00     0.058 C 
BRANCH  23  24
ATOM     24  C   UNL A   1      30.269  23.180  26.583  1.00  0.00     0.158 C 
BRANCH  24  25
ATOM     25  O   UNL A   1      31.236  23.054  27.625  1.00  0.00    -0.396 OA
ATOM     26  H   UNL A   1      30.976  22.337  28.222  1.00  0.00     0.210 HD
ENDBRANCH  24  25
ENDBRANCH  23  24
ENDBRANCH  16  23
ENDBRANCH  13  16
ENDBRANCH  11  13
ENDBRANCH   6  11
ENDBRANCH   1   5
BRANCH   3  27
ATOM     27  C   UNL A   1      35.913  24.012  25.497  1.00  0.00     0.116 C 
BRANCH  27  28
ATOM     28  C   UNL A   1      37.256  23.463  24.974  1.00  0.00     0.023 C 
BRANCH  28  29
ATOM     29  C   UNL A   1      37.788  22.011  25.115  1.00  0.00     0.023 C 
BRANCH  29  30
ATOM     30  C   UNL A   1      38.818  21.433  26.118  1.00  0.00     0.116 C 
BRANCH  30  31
ATOM     31  N   UNL A   1      39.544  20.222  25.796  1.00  0.00    -0.352 N 
ATOM     32  C   UNL A   1      40.882  19.913  26.007  1.00  0.00     0.251 C 
ATOM     33  H   UNL A   1      39.011  19.514  25.366  1.00  0.00     0.163 HD
ATOM     34  O   UNL A   1      41.411  18.815  25.870  1.00  0.00    -0.269 OA
BRANCH  32  35
ATOM     35  C   UNL A   1      41.795  20.950  26.391  1.00  0.00     0.039 A 
ATOM     36  C   UNL A   1      42.277  21.783  25.375  1.00  0.00     0.014 A 
ATOM     37  C   UNL A   1      42.087  21.107  27.735  1.00  0.00     0.014 A 
ATOM     38  C   UNL A   1      42.944  22.926  25.740  1.00  0.00     0.010 A 
ATOM     39  C   UNL A   1      42.662  22.290  28.101  1.00  0.00     0.010 A 
ATOM     40  C   UNL A   1      43.055  23.204  27.104  1.00  0.00    -0.014 A 
BRANCH  40  41
ATOM     41  C   UNL A   1      43.574  24.480  27.575  1.00  0.00     0.031 A 
ATOM     42  C   UNL A   1      42.578  25.484  28.035  1.00  0.00     0.074 A 
ATOM     43  C   UNL A   1      44.874  24.738  27.360  1.00  0.00     0.049 A 
ATOM     44  N   UNL A   1      42.730  26.763  28.204  1.00  0.00    -0.248 NA
ATOM     45  C   UNL A   1      41.200  24.994  28.237  1.00  0.00     0.031 C 
ATOM     46  C   UNL A   1      45.864  23.787  26.837  1.00  0.00     0.029 A 
ATOM     47  N   UNL A   1      45.576  25.893  27.522  1.00  0.00    -0.354 N 
ATOM     48  C   UNL A   1      41.459  27.239  28.485  1.00  0.00     0.074 A 
ATOM     49  C   UNL A   1      40.541  26.130  28.391  1.00  0.00     0.031 C 
ATOM     50  C   UNL A   1      47.055  24.400  26.743  1.00  0.00     0.029 A 
ATOM     51  C   UNL A   1      46.892  25.788  27.149  1.00  0.00     0.049 A 
ATOM     52  H   UNL A   1      45.179  26.724  27.872  1.00  0.00     0.167 HD
ATOM     53  C   UNL A   1      41.112  28.501  28.815  1.00  0.00     0.031 A 
ATOM     54  C   UNL A   1      47.845  26.733  27.138  1.00  0.00     0.031 A 
ATOM     55  C   UNL A   1      42.079  29.554  28.924  1.00  0.00     0.049 A 
ATOM     56  C   UNL A   1      47.445  28.110  27.581  1.00  0.00     0.074 A 
ATOM     57  C   UNL A   1      41.898  30.860  29.328  1.00  0.00     0.029 A 
ATOM     58  N   UNL A   1      43.431  29.399  28.636  1.00  0.00    -0.354 N 
ATOM     59  N   UNL A   1      46.255  28.555  27.916  1.00  0.00    -0.248 NA
ATOM     60  C   UNL A   1      48.513  29.109  27.665  1.00  0.00     0.031 C 
ATOM     61  C   UNL A   1      43.138  31.504  29.256  1.00  0.00     0.029 A 
ATOM     62  C   UNL A   1      44.099  30.586  28.853  1.00  0.00     0.049 A 
ATOM     63  H   UNL A   1      43.850  28.564  28.324  1.00  0.00     0.167 HD
ATOM     64  C   UNL A   1      46.432  29.879  28.281  1.00  0.00     0.074 A 
ATOM     65  C   UNL A   1      47.851  30.156  28.138  1.00  0.00     0.031 C 
ATOM     66  C   UNL A   1      45.518  30.792  28.693  1.00  0.00     0.031 A 
BRANCH  53  67
ATOM     67  C   UNL A   1      39.659  28.765  29.076  1.00  0.00    -0.014 A 
ATOM     68  C   UNL A   1      38.802  29.204  28.051  1.00  0.00     0.009 A 
ATOM     69  C   UNL A   1      39.141  28.609  30.369  1.00  0.00     0.009 A 
ATOM     70  C   UNL A   1      37.472  29.525  28.325  1.00  0.00     0.001 A 
ATOM     71  C   UNL A   1      37.800  28.897  30.633  1.00  0.00     0.001 A 
ATOM     72  C   UNL A   1      36.970  29.366  29.615  1.00  0.00     0.000 A 
ENDBRANCH  53  67
BRANCH  54  73
ATOM     73  C   UNL A   1      49.238  26.389  26.762  1.00  0.00    -0.014 A 
ATOM     74  C   UNL A   1      49.686  26.616  25.452  1.00  0.00     0.009 A 
ATOM     75  C   UNL A   1      50.142  25.876  27.706  1.00  0.00     0.009 A 
ATOM     76  C   UNL A   1      50.998  26.306  25.085  1.00  0.00     0.001 A 
ATOM     77  C   UNL A   1      51.461  25.592  27.344  1.00  0.00     0.001 A 
ATOM     78  C   UNL A   1      51.885  25.797  26.032  1.00  0.00     0.000 A 
ENDBRANCH  54  73
BRANCH  66  79
ATOM     79  C   UNL A   1      46.047  32.148  29.048  1.00  0.00    -0.014 A 
ATOM     80  C   UNL A   1      46.108  33.174  28.094  1.00  0.00     0.009 A 
ATOM     81  C   UNL A   1      46.442  32.408  30.370  1.00  0.00     0.009 A 
ATOM     82  C   UNL A   1      46.590  34.432  28.452  1.00  0.00     0.001 A 
ATOM     83  C   UNL A   1      46.891  33.676  30.730  1.00  0.00     0.001 A 
ATOM     84  C   UNL A   1      46.974  34.682  29.770  1.00  0.00     0.000 A 
ENDBRANCH  66  79
ENDBRANCH  40  41
ENDBRANCH  32  35
ENDBRANCH  30  31
ENDBRANCH  29  30
ENDBRANCH  28  29
ENDBRANCH  27  28
ENDBRANCH   3  27
TORSDOF 19
ENDMDL
MODEL 2
REMARK VINA RESULT:     -10.9      2.340      7.252
REMARK SMILES CCN(C(=O)c1ccccc1C(=O)NCCCCNC(=O)c1ccc(-c2c3nc(c(-c4ccccc4)c4ccc([nH]4)c(-c4ccccc4)c4nc(c(-c5ccccc5)c5ccc2[nH]5)C=C4)C=C3)cc1)[C@H](CCO)c1ccccc1
REMARK SMILES IDX 12 1 13 2 14 3 11 5 6 6 7 7 8 8 10 9 9 10 4 11 5 12 3 13
REMARK SMILES IDX 2 14 1 15 70 16 74 17 75 18 79 19 76 20 78 21 77 22 71 23
REMARK SMILES IDX 72 24 73 25 15 27 16 28 17 29 18 30 19 31 20 32 21 34 22 35
REMARK SMILES IDX 23 36 69 37 24 38 68 39 25 40 26 41 27 42 62 43 28 44 67 45
REMARK SMILES IDX 61 46 63 47 29 48 66 49 60 50 59 51 30 53 52 54 37 55 51 56
REMARK SMILES IDX 38 57 41 58 50 59 64 60 39 61 40 62 49 64 65 65 42 66 31 67
REMARK SMILES IDX 32 68 36 69 33 70 35 71 34 72 53 73 54 74 58 75 55 76 57 77
REMARK SMILES IDX 56 78 43 79 44 80 48 81 45 82 47 83 46 84
REMARK H PARENT 14 4 73 26 19 33 63 52 41 63
REMARK Flexibility Score: inf
ROOT
ATOM      1  C   UNL A   1      33.018  26.567  22.384  1.00  0.00     0.252 C 
ATOM      2  O   UNL A   1      33.257  25.734  21.495  1.00  0.00    -0.269 OA
ATOM      3  N   UNL A   1      33.847  27.678  22.314  1.00  0.00    -0.352 N 
ATOM      4  H   UNL A   1      34.601  27.572  21.691  1.00  0.00     0.163 HD
ENDROOT
BRANCH   1   5
ATOM      5  C   UNL A   1      31.946  26.160  23.400  1.00  0.00     0.052 A 
ATOM      6  C   UNL A   1      31.986  25.636  24.717  1.00  0.00     0.052 A 
ATOM      7  C   UNL A   1      30.796  25.523  25.493  1.00  0.00     0.014 A 
ATOM      8  C   UNL A   1      29.575  25.996  25.050  1.00  0.00     0.001 A 
ATOM      9  C   UNL A   1      30.661  26.618  22.987  1.00  0.00     0.014 A 
ATOM     10  C   UNL A   1      29.512  26.561  23.794  1.00  0.00     0.001 A 
BRANCH   6  11
ATOM     11  C   UNL A   1      33.149  25.279  25.568  1.00  0.00     0.255 C 
ATOM     12  O   UNL A   1      33.817  26.173  26.088  1.00  0.00    -0.269 OA
BRANCH  11  13
ATOM     13  N   UNL A   1      33.459  23.952  25.747  1.00  0.00    -0.332 N 
BRANCH  13  14
ATOM     14  C   UNL A   1      32.591  23.256  26.726  1.00  0.00     0.117 C 
ATOM     15  C   UNL A   1      33.275  22.294  27.688  1.00  0.00     0.027 C 
ENDBRANCH  13  14
BRANCH  13  16
ATOM     16  C   UNL A   1      34.149  23.272  24.595  1.00  0.00     0.118 C 
BRANCH  16  17
ATOM     17  C   UNL A   1      35.705  22.875  24.878  1.00  0.00    -0.025 A 
ATOM     18  C   UNL A   1      36.245  21.640  24.509  1.00  0.00     0.006 A 
ATOM     19  C   UNL A   1      36.693  23.720  25.436  1.00  0.00     0.006 A 
ATOM     20  C   UNL A   1      37.476  21.144  25.010  1.00  0.00     0.000 A 
ATOM     21  C   UNL A   1      37.973  23.290  25.851  1.00  0.00     0.000 A 
ATOM     22  C   UNL A   1      38.334  21.967  25.717  1.00  0.00     0.000 A 
ENDBRANCH  16  17
BRANCH  16  23
ATOM     23  C   UNL A   1      33.192  22.208  23.907  1.00  0.00     0.058 C 
BRANCH  23  24
ATOM     24  C   UNL A   1      32.411  22.491  22.597  1.00  0.00     0.158 C 
BRANCH  24  25
ATOM     25  O   UNL A   1      31.062  22.907  22.801  1.00  0.00    -0.396 OA
ATOM     26  H   UNL A   1      30.946  23.809  22.465  1.00  0.00     0.210 HD
ENDBRANCH  24  25
ENDBRANCH  23  24
ENDBRANCH  16  23
ENDBRANCH  13  16
ENDBRANCH  11  13
ENDBRANCH   6  11
ENDBRANCH   1   5
BRANCH   3  27
ATOM     27  C   UNL A   1      33.817  28.954  22.978  1.00  0.00     0.116 C 
BRANCH  27  28
ATOM     28  C   UNL A   1      33.307  29.083  24.428  1.00  0.00     0.023 C 
BRANCH  28  29
ATOM     29  C   UNL A   1      34.129  29.528  25.669  1.00  0.00     0.023 C 
BRANCH  29  30
ATOM     30  C   UNL A   1      33.748  29.480  27.170  1.00  0.00     0.116 C 
BRANCH  30  31
ATOM     31  N   UNL A   1      33.952  30.643  28.009  1.00  0.00    -0.352 N 
ATOM     32  C   UNL A   1      35.112  31.091  28.629  1.00  0.00     0.251 C 
ATOM     33  H   UNL A   1      33.152  31.197  28.161  1.00  0.00     0.163 HD
ATOM     34  O   UNL A   1      35.272  32.170  29.191  1.00  0.00    -0.269 OA
BRANCH  32  35
ATOM     35  C   UNL A   1      36.261  30.236  28.681  1.00  0.00     0.039 A 
ATOM     36  C   UNL A   1      37.132  30.272  27.586  1.00  0.00     0.014 A 
ATOM     37  C   UNL A   1      36.477  29.488  29.826  1.00  0.00     0.014 A 
ATOM     38  C   UNL A   1      38.356  29.663  27.714  1.00  0.00     0.010 A 
ATOM     39  C   UNL A   1      37.729  28.969  29.990  1.00  0.00     0.010 A 
ATOM     40  C   UNL A   1      38.669  29.090  28.948  1.00  0.00    -0.014 A 
BRANCH  40  41
ATOM     41  C   UNL A   1      40.008  28.595  29.234  1.00  0.00     0.031 A 
ATOM     42  C   UNL A   1      40.999  29.584  29.732  1.00  0.00     0.074 A 
ATOM     43  C   UNL A   1      40.308  27.351  28.828  1.00  0.00     0.049 A 
ATOM     44  N   UNL A   1      42.295  29.490  29.768  1.00  0.00    -0.248 NA
ATOM     45  C   UNL A   1      40.462  30.892  30.157  1.00  0.00     0.031 C 
ATOM     46  C   UNL A   1      39.362  26.378  28.263  1.00  0.00     0.029 A 
ATOM     47  N   UNL A   1      41.507  26.706  28.794  1.00  0.00    -0.354 N 
ATOM     48  C   UNL A   1      42.731  30.743  30.172  1.00  0.00     0.074 A 
ATOM     49  C   UNL A   1      41.574  31.595  30.297  1.00  0.00     0.031 C 
ATOM     50  C   UNL A   1      40.022  25.249  27.960  1.00  0.00     0.029 A 
ATOM     51  C   UNL A   1      41.432  25.444  28.262  1.00  0.00     0.049 A 
ATOM     52  H   UNL A   1      42.346  27.106  29.120  1.00  0.00     0.167 HD
ATOM     53  C   UNL A   1      43.999  31.122  30.433  1.00  0.00     0.031 A 
ATOM     54  C   UNL A   1      42.418  24.560  28.043  1.00  0.00     0.031 A 
ATOM     55  C   UNL A   1      45.105  30.215  30.322  1.00  0.00     0.049 A 
ATOM     56  C   UNL A   1      43.809  24.984  28.414  1.00  0.00     0.074 A 
ATOM     57  C   UNL A   1      46.433  30.424  30.632  1.00  0.00     0.029 A 
ATOM     58  N   UNL A   1      44.991  28.903  29.873  1.00  0.00    -0.354 N 
ATOM     59  N   UNL A   1      44.224  26.148  28.863  1.00  0.00    -0.248 NA
ATOM     60  C   UNL A   1      44.864  23.978  28.269  1.00  0.00     0.031 C 
ATOM     61  C   UNL A   1      47.128  29.244  30.341  1.00  0.00     0.029 A 
ATOM     62  C   UNL A   1      46.225  28.287  29.896  1.00  0.00     0.049 A 
ATOM     63  H   UNL A   1      44.153  28.477  29.582  1.00  0.00     0.167 HD
ATOM     64  C   UNL A   1      45.584  26.007  29.084  1.00  0.00     0.074 A 
ATOM     65  C   UNL A   1      45.916  24.637  28.732  1.00  0.00     0.031 C 
ATOM     66  C   UNL A   1      46.485  26.916  29.533  1.00  0.00     0.031 A 
BRANCH  53  67
ATOM     67  C   UNL A   1      44.215  32.543  30.860  1.00  0.00    -0.014 A 
ATOM     68  C   UNL A   1      44.156  32.915  32.215  1.00  0.00     0.009 A 
ATOM     69  C   UNL A   1      44.446  33.535  29.897  1.00  0.00     0.009 A 
ATOM     70  C   UNL A   1      44.277  34.253  32.592  1.00  0.00     0.001 A 
ATOM     71  C   UNL A   1      44.602  34.870  30.280  1.00  0.00     0.001 A 
ATOM     72  C   UNL A   1      44.505  35.230  31.624  1.00  0.00     0.000 A 
ENDBRANCH  53  67
BRANCH  54  73
ATOM     73  C   UNL A   1      42.111  23.207  27.518  1.00  0.00    -0.014 A 
ATOM     74  C   UNL A   1      41.531  22.244  28.359  1.00  0.00     0.009 A 
ATOM     75  C   UNL A   1      42.349  22.876  26.175  1.00  0.00     0.009 A 
ATOM     76  C   UNL A   1      41.229  20.969  27.877  1.00  0.00     0.001 A 
ATOM     77  C   UNL A   1      42.020  21.608  25.688  1.00  0.00     0.001 A 
ATOM     78  C   UNL A   1      41.470  20.653  26.541  1.00  0.00     0.000 A 
ENDBRANCH  54  73
BRANCH  66  79
ATOM     79  C   UNL A   1      47.893  26.430  29.696  1.00  0.00    -0.014 A 
ATOM     80  C   UNL A   1      48.331  25.872  30.906  1.00  0.00     0.009 A 
ATOM     81  C   UNL A   1      48.773  26.492  28.605  1.00  0.00     0.009 A 
ATOM     82  C   UNL A   1      49.641  25.413  31.029  1.00  0.00     0.001 A 
ATOM     83  C   UNL A   1      50.071  26.002  28.722  1.00  0.00     0.001 A 
ATOM     84  C   UNL A   1      50.506  25.472  29.936  1.00  0.00     0.000 A 
ENDBRANCH  66  79
ENDBRANCH  40  41
ENDBRANCH  32  35
ENDBRANCH  30  31
ENDBRANCH  29  30
ENDBRANCH  28  29
ENDBRANCH  27  28
ENDBRANCH   3  27
TORSDOF 19
ENDMDL
MODEL 3
REMARK VINA RESULT:     -10.7      2.187      7.115
REMARK SMILES CCN(C(=O)c1ccccc1C(=O)NCCCCNC(=O)c1ccc(-c2c3nc(c(-c4ccccc4)c4ccc([nH]4)c(-c4ccccc4)c4nc(c(-c5ccccc5)c5ccc2[nH]5)C=C4)C=C3)cc1)[C@H](CCO)c1ccccc1
REMARK SMILES IDX 12 1 13 2 14 3 11 5 6 6 7 7 8 8 10 9 9 10 4 11 5 12 3 13
REMARK SMILES IDX 2 14 1 15 70 16 74 17 75 18 79 19 76 20 78 21 77 22 71 23
REMARK SMILES IDX 72 24 73 25 15 27 16 28 17 29 18 30 19 31 20 32 21 34 22 35
REMARK SMILES IDX 23 36 69 37 24 38 68 39 25 40 26 41 27 42 62 43 28 44 67 45
REMARK SMILES IDX 61 46 63 47 29 48 66 49 60 50 59 51 30 53 52 54 37 55 51 56
REMARK SMILES IDX 38 57 41 58 50 59 64 60 39 61 40 62 49 64 65 65 42 66 31 67
REMARK SMILES IDX 32 68 36 69 33 70 35 71 34 72 53 73 54 74 58 75 55 76 57 77
REMARK SMILES IDX 56 78 43 79 44 80 48 81 45 82 47 83 46 84
REMARK H PARENT 14 4 73 26 19 33 63 52 41 63
REMARK Flexibility Score: inf
ROOT
ATOM      1  C   UNL A   1      33.712  25.079  25.911  1.00  0.00     0.252 C 
ATOM      2  O   UNL A   1      33.162  24.697  26.956  1.00  0.00    -0.269 OA
ATOM      3  N   UNL A   1      33.282  26.336  25.508  1.00  0.00    -0.352 N 
ATOM      4  H   UNL A   1      32.496  26.664  26.002  1.00  0.00     0.163 HD
ENDROOT
BRANCH   1   5
ATOM      5  C   UNL A   1      34.657  24.068  25.254  1.00  0.00     0.052 A 
ATOM      6  C   UNL A   1      34.567  23.235  24.110  1.00  0.00     0.052 A 
ATOM      7  C   UNL A   1      35.705  22.518  23.638  1.00  0.00     0.014 A 
ATOM      8  C   UNL A   1      36.958  22.665  24.202  1.00  0.00     0.001 A 
ATOM      9  C   UNL A   1      35.967  24.173  25.805  1.00  0.00     0.014 A 
ATOM     10  C   UNL A   1      37.092  23.511  25.282  1.00  0.00     0.001 A 
BRANCH   6  11
ATOM     11  C   UNL A   1      33.453  23.057  23.144  1.00  0.00     0.255 C 
ATOM     12  O   UNL A   1      33.706  22.900  21.949  1.00  0.00    -0.269 OA
BRANCH  11  13
ATOM     13  N   UNL A   1      32.160  23.080  23.609  1.00  0.00    -0.332 N 
BRANCH  13  14
ATOM     14  C   UNL A   1      31.256  23.963  22.837  1.00  0.00     0.117 C 
ATOM     15  C   UNL A   1      30.560  25.078  23.606  1.00  0.00     0.027 C 
ENDBRANCH  13  14
BRANCH  13  16
ATOM     16  C   UNL A   1      31.708  21.862  24.368  1.00  0.00     0.118 C 
BRANCH  16  17
ATOM     17  C   UNL A   1      32.446  20.477  23.924  1.00  0.00    -0.025 A 
ATOM     18  C   UNL A   1      32.123  19.797  22.746  1.00  0.00     0.006 A 
ATOM     19  C   UNL A   1      33.521  19.851  24.598  1.00  0.00     0.006 A 
ATOM     20  C   UNL A   1      32.506  18.456  22.488  1.00  0.00     0.000 A 
ATOM     21  C   UNL A   1      34.006  18.557  24.304  1.00  0.00     0.000 A 
ATOM     22  C   UNL A   1      33.431  17.817  23.294  1.00  0.00     0.000 A 
ENDBRANCH  16  17
BRANCH  16  23
ATOM     23  C   UNL A   1      31.536  22.184  25.913  1.00  0.00     0.058 C 
BRANCH  23  24
ATOM     24  C   UNL A   1      30.287  22.895  26.497  1.00  0.00     0.158 C 
BRANCH  24  25
ATOM     25  O   UNL A   1      29.219  22.012  26.836  1.00  0.00    -0.396 OA
ATOM     26  H   UNL A   1      29.398  21.603  27.697  1.00  0.00     0.210 HD
ENDBRANCH  24  25
ENDBRANCH  23  24
ENDBRANCH  16  23
ENDBRANCH  13  16
ENDBRANCH  11  13
ENDBRANCH   6  11
ENDBRANCH   1   5
BRANCH   3  27
ATOM     27  C   UNL A   1      33.763  27.251  24.507  1.00  0.00     0.116 C 
BRANCH  27  28
ATOM     28  C   UNL A   1      33.327  28.731  24.509  1.00  0.00     0.023 C 
BRANCH  28  29
ATOM     29  C   UNL A   1      33.249  29.679  25.737  1.00  0.00     0.023 C 
BRANCH  29  30
ATOM     30  C   UNL A   1      33.746  29.454  27.187  1.00  0.00     0.116 C 
BRANCH  30  31
ATOM     31  N   UNL A   1      33.946  30.584  28.070  1.00  0.00    -0.352 N 
ATOM     32  C   UNL A   1      35.101  31.004  28.717  1.00  0.00     0.251 C 
ATOM     33  H   UNL A   1      33.147  31.136  28.235  1.00  0.00     0.163 HD
ATOM     34  O   UNL A   1      35.261  32.061  29.320  1.00  0.00    -0.269 OA
BRANCH  32  35
ATOM     35  C   UNL A   1      36.247  30.143  28.749  1.00  0.00     0.039 A 
ATOM     36  C   UNL A   1      37.057  30.119  27.607  1.00  0.00     0.014 A 
ATOM     37  C   UNL A   1      36.521  29.450  29.915  1.00  0.00     0.014 A 
ATOM     38  C   UNL A   1      38.283  29.506  27.698  1.00  0.00     0.010 A 
ATOM     39  C   UNL A   1      37.777  28.929  30.037  1.00  0.00     0.010 A 
ATOM     40  C   UNL A   1      38.659  28.991  28.940  1.00  0.00    -0.014 A 
BRANCH  40  41
ATOM     41  C   UNL A   1      40.009  28.499  29.177  1.00  0.00     0.031 A 
ATOM     42  C   UNL A   1      41.020  29.495  29.621  1.00  0.00     0.074 A 
ATOM     43  C   UNL A   1      40.292  27.250  28.775  1.00  0.00     0.049 A 
ATOM     44  N   UNL A   1      42.316  29.401  29.604  1.00  0.00    -0.248 NA
ATOM     45  C   UNL A   1      40.501  30.809  30.050  1.00  0.00     0.031 C 
ATOM     46  C   UNL A   1      39.324  26.270  28.263  1.00  0.00     0.029 A 
ATOM     47  N   UNL A   1      41.489  26.604  28.701  1.00  0.00    -0.354 N 
ATOM     48  C   UNL A   1      42.768  30.658  29.973  1.00  0.00     0.074 A 
ATOM     49  C   UNL A   1      41.617  31.513  30.134  1.00  0.00     0.031 C 
ATOM     50  C   UNL A   1      39.971  25.137  27.948  1.00  0.00     0.029 A 
ATOM     51  C   UNL A   1      41.392  25.335  28.189  1.00  0.00     0.049 A 
ATOM     52  H   UNL A   1      42.340  27.008  28.987  1.00  0.00     0.167 HD
ATOM     53  C   UNL A   1      44.046  31.040  30.177  1.00  0.00     0.031 A 
ATOM     54  C   UNL A   1      42.368  24.448  27.941  1.00  0.00     0.031 A 
ATOM     55  C   UNL A   1      45.146  30.131  30.031  1.00  0.00     0.049 A 
ATOM     56  C   UNL A   1      43.773  24.876  28.248  1.00  0.00     0.074 A 
ATOM     57  C   UNL A   1      46.486  30.344  30.283  1.00  0.00     0.029 A 
ATOM     58  N   UNL A   1      45.014  28.814  29.605  1.00  0.00    -0.354 N 
ATOM     59  N   UNL A   1      44.206  26.045  28.664  1.00  0.00    -0.248 NA
ATOM     60  C   UNL A   1      44.821  23.868  28.073  1.00  0.00     0.031 C 
ATOM     61  C   UNL A   1      47.168  29.160  29.980  1.00  0.00     0.029 A 
ATOM     62  C   UNL A   1      46.248  28.198  29.585  1.00  0.00     0.049 A 
ATOM     63  H   UNL A   1      44.164  28.384  29.355  1.00  0.00     0.167 HD
ATOM     64  C   UNL A   1      45.574  25.907  28.831  1.00  0.00     0.074 A 
ATOM     65  C   UNL A   1      45.892  24.533  28.483  1.00  0.00     0.031 C 
ATOM     66  C   UNL A   1      46.493  26.822  29.230  1.00  0.00     0.031 A 
BRANCH  53  67
ATOM     67  C   UNL A   1      44.279  32.467  30.575  1.00  0.00    -0.014 A 
ATOM     68  C   UNL A   1      44.497  33.467  29.611  1.00  0.00     0.009 A 
ATOM     69  C   UNL A   1      44.317  32.817  31.932  1.00  0.00     0.009 A 
ATOM     70  C   UNL A   1      44.793  34.775  29.997  1.00  0.00     0.001 A 
ATOM     71  C   UNL A   1      44.579  34.134  32.315  1.00  0.00     0.001 A 
ATOM     72  C   UNL A   1      44.829  35.109  31.349  1.00  0.00     0.000 A 
ENDBRANCH  53  67
BRANCH  54  73
ATOM     73  C   UNL A   1      42.039  23.088  27.447  1.00  0.00    -0.014 A 
ATOM     74  C   UNL A   1      41.378  22.179  28.287  1.00  0.00     0.009 A 
ATOM     75  C   UNL A   1      42.340  22.699  26.133  1.00  0.00     0.009 A 
ATOM     76  C   UNL A   1      41.054  20.898  27.833  1.00  0.00     0.001 A 
ATOM     77  C   UNL A   1      41.990  21.427  25.672  1.00  0.00     0.001 A 
ATOM     78  C   UNL A   1      41.358  20.524  26.525  1.00  0.00     0.000 A 
ENDBRANCH  54  73
BRANCH  66  79
ATOM     79  C   UNL A   1      47.907  26.338  29.341  1.00  0.00    -0.014 A 
ATOM     80  C   UNL A   1      48.771  26.368  28.237  1.00  0.00     0.009 A 
ATOM     81  C   UNL A   1      48.386  25.892  30.582  1.00  0.00     0.009 A 
ATOM     82  C   UNL A   1      50.086  25.927  28.369  1.00  0.00     0.001 A 
ATOM     83  C   UNL A   1      49.710  25.483  30.717  1.00  0.00     0.001 A 
ATOM     84  C   UNL A   1      50.555  25.492  29.609  1.00  0.00     0.000 A 
ENDBRANCH  66  79
ENDBRANCH  40  41
ENDBRANCH  32  35
ENDBRANCH  30  31
ENDBRANCH  29  30
ENDBRANCH  28  29
ENDBRANCH  27  28
ENDBRANCH   3  27
TORSDOF 19
ENDMDL
