MODEL 1
REMARK VINA RESULT:     -11.2      0.000      0.000
REMARK SMILES Cc1n[nH]c(S[C@H]2CC[C@]([NH3+])(C(=O)NCCCCNC(=O)c3ccc(-c4c5nc(c(-c6ccccc6)c6ccc([nH]6)c(-c6ccccc6)c6nc(c(-c7ccccc7)c7ccc4[nH]7)C=C6)C=C5)cc3)C2)n1
REMARK SMILES IDX 16 1 15 2 14 3 12 4 13 5 10 7 7 8 8 9 70 10 9 11 6 12 5 13
REMARK SMILES IDX 1 14 2 15 3 16 71 17 4 18 11 20 17 24 18 25 19 26 20 27
REMARK SMILES IDX 21 29 22 30 23 31 69 32 24 33 68 34 25 35 26 36 27 37 62 38
REMARK SMILES IDX 28 39 67 40 61 41 63 42 29 43 66 44 60 45 59 46 30 48 52 49
REMARK SMILES IDX 37 50 51 51 38 52 41 53 50 54 64 55 39 56 40 57 49 59 65 60
REMARK SMILES IDX 42 61 31 62 32 63 36 64 33 65 35 66 34 67 53 68 54 69 58 70
REMARK SMILES IDX 55 71 57 72 56 73 43 74 44 75 48 76 45 77 47 78 46 79
REMARK H PARENT 14 6 4 19 11 21 11 22 11 23 19 28 63 47 41 58
REMARK Flexibility Score: inf
ROOT
ATOM      1  C   UNL A   1      31.428  30.638  26.043  1.00  0.00     0.023 C 
ENDROOT
BRANCH   1   2
ATOM      2  C   UNL A   1      32.831  30.018  25.996  1.00  0.00     0.116 C 
BRANCH   2   3
ATOM      3  N   UNL A   1      33.292  29.766  24.648  1.00  0.00    -0.351 N 
ATOM      4  C   UNL A   1      32.989  28.802  23.736  1.00  0.00     0.281 C 
ATOM      5  O   UNL A   1      33.600  28.886  22.662  1.00  0.00    -0.268 OA
ATOM      6  H   UNL A   1      33.956  30.419  24.328  1.00  0.00     0.163 HD
BRANCH   4   7
ATOM      7  C   UNL A   1      31.910  27.704  23.936  1.00  0.00     0.175 C 
ATOM      8  C   UNL A   1      30.487  26.060  22.817  1.00  0.00     0.062 C 
ATOM      9  C   UNL A   1      29.592  27.102  23.523  1.00  0.00     0.022 C 
ATOM     10  C   UNL A   1      31.850  26.769  22.709  1.00  0.00     0.094 C 
ATOM     11  C   UNL A   1      30.496  28.286  23.907  1.00  0.00     0.080 C 
BRANCH   8  12
ATOM     12  S   UNL A   1      30.741  24.439  23.635  1.00  0.00    -0.083 SA
BRANCH  12  13
ATOM     13  C   UNL A   1      32.331  23.916  23.262  1.00  0.00     0.183 A 
ATOM     14  C   UNL A   1      35.775  23.427  23.798  1.00  0.00     0.092 C 
ATOM     15  C   UNL A   1      34.392  23.518  23.291  1.00  0.00     0.148 A 
ATOM     16  N   UNL A   1      34.063  23.267  22.015  1.00  0.00    -0.158 NA
ATOM     17  N   UNL A   1      33.348  23.907  24.089  1.00  0.00    -0.206 NA
ATOM     18  N   UNL A   1      32.748  23.551  22.023  1.00  0.00    -0.254 N 
ATOM     19  H   UNL A   1      32.164  23.500  21.232  1.00  0.00     0.192 HD
ENDBRANCH  12  13
ENDBRANCH   8  12
BRANCH   7  20
ATOM     20  N   UNL A   1      32.033  26.883  25.138  1.00  0.00    -0.345 N 
ATOM     21  H   UNL A   1      31.944  25.898  24.888  1.00  0.00     0.345 HD
ATOM     22  H   UNL A   1      31.298  27.134  25.798  1.00  0.00     0.345 HD
ATOM     23  H   UNL A   1      32.944  27.044  25.567  1.00  0.00     0.345 HD
ENDBRANCH   7  20
ENDBRANCH   4   7
ENDBRANCH   2   3
ENDBRANCH   1   2
BRANCH   1  24
ATOM     24  C   UNL A   1      31.343  32.105  26.477  1.00  0.00     0.023 C 
BRANCH  24  25
ATOM     25  C   UNL A   1      32.534  32.620  27.269  1.00  0.00     0.116 C 
BRANCH  25  26
ATOM     26  N   UNL A   1      32.407  34.029  27.669  1.00  0.00    -0.352 N 
ATOM     27  C   UNL A   1      33.047  34.701  28.705  1.00  0.00     0.251 C 
ATOM     28  H   UNL A   1      31.786  34.569  27.131  1.00  0.00     0.163 HD
ATOM     29  O   UNL A   1      32.593  35.728  29.179  1.00  0.00    -0.269 OA
BRANCH  27  30
ATOM     30  C   UNL A   1      34.328  34.157  29.189  1.00  0.00     0.039 A 
ATOM     31  C   UNL A   1      34.489  33.497  30.410  1.00  0.00     0.014 A 
ATOM     32  C   UNL A   1      35.387  34.279  28.305  1.00  0.00     0.014 A 
ATOM     33  C   UNL A   1      35.733  32.930  30.692  1.00  0.00     0.010 A 
ATOM     34  C   UNL A   1      36.448  33.444  28.432  1.00  0.00     0.010 A 
ATOM     35  C   UNL A   1      36.706  32.919  29.684  1.00  0.00    -0.014 A 
BRANCH  35  36
ATOM     36  C   UNL A   1      38.025  32.334  29.823  1.00  0.00     0.031 A 
ATOM     37  C   UNL A   1      38.105  30.917  29.413  1.00  0.00     0.074 A 
ATOM     38  C   UNL A   1      39.121  33.108  30.003  1.00  0.00     0.049 A 
ATOM     39  N   UNL A   1      38.285  29.896  30.177  1.00  0.00    -0.248 NA
ATOM     40  C   UNL A   1      37.790  30.573  28.016  1.00  0.00     0.031 C 
ATOM     41  C   UNL A   1      39.221  34.577  30.049  1.00  0.00     0.029 A 
ATOM     42  N   UNL A   1      40.422  32.731  30.050  1.00  0.00    -0.354 N 
ATOM     43  C   UNL A   1      38.313  28.791  29.335  1.00  0.00     0.074 A 
ATOM     44  C   UNL A   1      37.794  29.241  28.069  1.00  0.00     0.031 C 
ATOM     45  C   UNL A   1      40.511  34.950  29.881  1.00  0.00     0.029 A 
ATOM     46  C   UNL A   1      41.341  33.761  29.880  1.00  0.00     0.049 A 
ATOM     47  H   UNL A   1      40.696  31.796  30.194  1.00  0.00     0.167 HD
ATOM     48  C   UNL A   1      39.006  27.668  29.673  1.00  0.00     0.031 A 
ATOM     49  C   UNL A   1      42.682  33.623  29.715  1.00  0.00     0.031 A 
ATOM     50  C   UNL A   1      39.426  27.710  31.053  1.00  0.00     0.049 A 
ATOM     51  C   UNL A   1      43.039  32.270  30.208  1.00  0.00     0.074 A 
ATOM     52  C   UNL A   1      38.765  27.789  32.264  1.00  0.00     0.029 A 
ATOM     53  N   UNL A   1      40.715  28.128  31.297  1.00  0.00    -0.354 N 
ATOM     54  N   UNL A   1      42.929  31.916  31.457  1.00  0.00    -0.248 NA
ATOM     55  C   UNL A   1      43.032  31.175  29.248  1.00  0.00     0.031 C 
ATOM     56  C   UNL A   1      39.535  28.704  33.040  1.00  0.00     0.029 A 
ATOM     57  C   UNL A   1      40.669  29.060  32.304  1.00  0.00     0.049 A 
ATOM     58  H   UNL A   1      41.524  27.815  30.834  1.00  0.00     0.167 HD
ATOM     59  C   UNL A   1      42.389  30.637  31.417  1.00  0.00     0.074 A 
ATOM     60  C   UNL A   1      42.562  30.198  30.031  1.00  0.00     0.031 C 
ATOM     61  C   UNL A   1      41.583  30.177  32.421  1.00  0.00     0.031 A 
BRANCH  48  62
ATOM     62  C   UNL A   1      39.653  26.742  28.677  1.00  0.00    -0.014 A 
ATOM     63  C   UNL A   1      40.591  27.280  27.777  1.00  0.00     0.009 A 
ATOM     64  C   UNL A   1      39.204  25.435  28.410  1.00  0.00     0.009 A 
ATOM     65  C   UNL A   1      40.991  26.579  26.633  1.00  0.00     0.001 A 
ATOM     66  C   UNL A   1      39.631  24.716  27.291  1.00  0.00     0.001 A 
ATOM     67  C   UNL A   1      40.503  25.301  26.386  1.00  0.00     0.000 A 
ENDBRANCH  48  62
BRANCH  49  68
ATOM     68  C   UNL A   1      43.601  34.430  28.878  1.00  0.00    -0.014 A 
ATOM     69  C   UNL A   1      43.468  34.457  27.479  1.00  0.00     0.009 A 
ATOM     70  C   UNL A   1      44.430  35.402  29.468  1.00  0.00     0.009 A 
ATOM     71  C   UNL A   1      44.100  35.448  26.710  1.00  0.00     0.001 A 
ATOM     72  C   UNL A   1      45.061  36.389  28.702  1.00  0.00     0.001 A 
ATOM     73  C   UNL A   1      44.882  36.423  27.324  1.00  0.00     0.000 A 
ENDBRANCH  49  68
BRANCH  61  74
ATOM     74  C   UNL A   1      41.444  31.029  33.664  1.00  0.00    -0.014 A 
ATOM     75  C   UNL A   1      42.282  30.906  34.788  1.00  0.00     0.009 A 
ATOM     76  C   UNL A   1      40.545  32.105  33.630  1.00  0.00     0.009 A 
ATOM     77  C   UNL A   1      42.203  31.812  35.852  1.00  0.00     0.001 A 
ATOM     78  C   UNL A   1      40.480  33.022  34.683  1.00  0.00     0.001 A 
ATOM     79  C   UNL A   1      41.304  32.874  35.795  1.00  0.00     0.000 A 
ENDBRANCH  61  74
ENDBRANCH  35  36
ENDBRANCH  27  30
ENDBRANCH  25  26
ENDBRANCH  24  25
ENDBRANCH   1  24
TORSDOF 14
ENDMDL
MODEL 2
REMARK VINA RESULT:     -11.1      4.254      9.273
REMARK SMILES Cc1n[nH]c(S[C@H]2CC[C@]([NH3+])(C(=O)NCCCCNC(=O)c3ccc(-c4c5nc(c(-c6ccccc6)c6ccc([nH]6)c(-c6ccccc6)c6nc(c(-c7ccccc7)c7ccc4[nH]7)C=C6)C=C5)cc3)C2)n1
REMARK SMILES IDX 16 1 15 2 14 3 12 4 13 5 10 7 7 8 8 9 70 10 9 11 6 12 5 13
REMARK SMILES IDX 1 14 2 15 3 16 71 17 4 18 11 20 17 24 18 25 19 26 20 27
REMARK SMILES IDX 21 29 22 30 23 31 69 32 24 33 68 34 25 35 26 36 27 37 62 38
REMARK SMILES IDX 28 39 67 40 61 41 63 42 29 43 66 44 60 45 59 46 30 48 52 49
REMARK SMILES IDX 37 50 51 51 38 52 41 53 50 54 64 55 39 56 40 57 49 59 65 60
REMARK SMILES IDX 42 61 31 62 32 63 36 64 33 65 35 66 34 67 53 68 54 69 58 70
REMARK SMILES IDX 55 71 57 72 56 73 43 74 44 75 48 76 45 77 47 78 46 79
REMARK H PARENT 14 6 4 19 11 21 11 22 11 23 19 28 63 47 41 58
REMARK Flexibility Score: inf
ROOT
ATOM      1  C   UNL A   1      36.420  19.434  25.012  1.00  0.00     0.023 C 
ENDROOT
BRANCH   1   2
ATOM      2  C   UNL A   1      35.233  20.401  24.908  1.00  0.00     0.116 C 
BRANCH   2   3
ATOM      3  N   UNL A   1      35.060  21.212  26.093  1.00  0.00    -0.351 N 
ATOM      4  C   UNL A   1      34.382  22.369  26.328  1.00  0.00     0.281 C 
ATOM      5  O   UNL A   1      34.467  22.801  27.485  1.00  0.00    -0.268 OA
ATOM      6  H   UNL A   1      35.525  20.859  26.886  1.00  0.00     0.163 HD
BRANCH   4   7
ATOM      7  C   UNL A   1      33.488  23.094  25.286  1.00  0.00     0.175 C 
ATOM      8  C   UNL A   1      31.858  24.884  24.940  1.00  0.00     0.062 C 
ATOM      9  C   UNL A   1      31.198  23.531  24.601  1.00  0.00     0.022 C 
ATOM     10  C   UNL A   1      33.071  24.488  25.804  1.00  0.00     0.094 C 
ATOM     11  C   UNL A   1      32.117  22.429  25.155  1.00  0.00     0.080 C 
BRANCH   8  12
ATOM     12  S   UNL A   1      32.451  25.932  23.557  1.00  0.00    -0.083 SA
BRANCH  12  13
ATOM     13  C   UNL A   1      31.189  27.023  23.159  1.00  0.00     0.183 A 
ATOM     14  C   UNL A   1      27.917  28.323  23.195  1.00  0.00     0.092 C 
ATOM     15  C   UNL A   1      29.341  28.001  22.971  1.00  0.00     0.148 A 
ATOM     16  N   UNL A   1      30.083  28.592  22.022  1.00  0.00    -0.158 NA
ATOM     17  N   UNL A   1      29.993  27.040  23.697  1.00  0.00    -0.206 NA
ATOM     18  N   UNL A   1      31.248  27.931  22.152  1.00  0.00    -0.254 N 
ATOM     19  H   UNL A   1      32.041  28.088  21.590  1.00  0.00     0.192 HD
ENDBRANCH  12  13
ENDBRANCH   8  12
BRANCH   7  20
ATOM     20  N   UNL A   1      34.045  23.246  23.944  1.00  0.00    -0.345 N 
ATOM     21  H   UNL A   1      33.620  24.055  23.489  1.00  0.00     0.345 HD
ATOM     22  H   UNL A   1      33.849  22.408  23.398  1.00  0.00     0.345 HD
ATOM     23  H   UNL A   1      35.053  23.382  24.009  1.00  0.00     0.345 HD
ENDBRANCH   7  20
ENDBRANCH   4   7
ENDBRANCH   2   3
ENDBRANCH   1   2
BRANCH   1  24
ATOM     24  C   UNL A   1      37.780  19.966  24.549  1.00  0.00     0.023 C 
BRANCH  24  25
ATOM     25  C   UNL A   1      38.773  20.266  25.661  1.00  0.00     0.116 C 
BRANCH  25  26
ATOM     26  N   UNL A   1      39.811  19.236  25.812  1.00  0.00    -0.352 N 
ATOM     27  C   UNL A   1      41.185  19.398  25.955  1.00  0.00     0.251 C 
ATOM     28  H   UNL A   1      39.490  18.306  25.813  1.00  0.00     0.163 HD
ATOM     29  O   UNL A   1      41.967  18.503  25.688  1.00  0.00    -0.269 OA
BRANCH  27  30
ATOM     30  C   UNL A   1      41.673  20.683  26.487  1.00  0.00     0.039 A 
ATOM     31  C   UNL A   1      42.363  21.634  25.732  1.00  0.00     0.014 A 
ATOM     32  C   UNL A   1      41.338  20.934  27.807  1.00  0.00     0.014 A 
ATOM     33  C   UNL A   1      42.666  22.857  26.333  1.00  0.00     0.010 A 
ATOM     34  C   UNL A   1      41.324  22.217  28.248  1.00  0.00     0.010 A 
ATOM     35  C   UNL A   1      42.137  23.128  27.601  1.00  0.00    -0.014 A 
BRANCH  35  36
ATOM     36  C   UNL A   1      42.339  24.366  28.327  1.00  0.00     0.031 A 
ATOM     37  C   UNL A   1      41.282  25.376  28.106  1.00  0.00     0.074 A 
ATOM     38  C   UNL A   1      43.229  24.448  29.343  1.00  0.00     0.049 A 
ATOM     39  N   UNL A   1      41.394  26.490  27.469  1.00  0.00    -0.248 NA
ATOM     40  C   UNL A   1      39.902  25.042  28.495  1.00  0.00     0.031 C 
ATOM     41  C   UNL A   1      44.081  23.392  29.917  1.00  0.00     0.029 A 
ATOM     42  N   UNL A   1      43.464  25.489  30.179  1.00  0.00    -0.354 N 
ATOM     43  C   UNL A   1      40.149  27.101  27.552  1.00  0.00     0.074 A 
ATOM     44  C   UNL A   1      39.233  26.082  27.996  1.00  0.00     0.031 C 
ATOM     45  C   UNL A   1      44.543  23.786  31.126  1.00  0.00     0.029 A 
ATOM     46  C   UNL A   1      44.161  25.169  31.338  1.00  0.00     0.049 A 
ATOM     47  H   UNL A   1      43.161  26.405  29.979  1.00  0.00     0.167 HD
ATOM     48  C   UNL A   1      40.027  28.456  27.501  1.00  0.00     0.031 A 
ATOM     49  C   UNL A   1      44.367  25.986  32.403  1.00  0.00     0.031 A 
ATOM     50  C   UNL A   1      41.266  29.076  27.094  1.00  0.00     0.049 A 
ATOM     51  C   UNL A   1      44.142  27.374  31.930  1.00  0.00     0.074 A 
ATOM     52  C   UNL A   1      42.059  29.004  25.966  1.00  0.00     0.029 A 
ATOM     53  N   UNL A   1      42.076  29.560  28.097  1.00  0.00    -0.354 N 
ATOM     54  N   UNL A   1      44.904  27.958  31.049  1.00  0.00    -0.248 NA
ATOM     55  C   UNL A   1      42.799  27.922  32.053  1.00  0.00     0.031 C 
ATOM     56  C   UNL A   1      43.396  28.971  26.463  1.00  0.00     0.029 A 
ATOM     57  C   UNL A   1      43.353  29.121  27.851  1.00  0.00     0.049 A 
ATOM     58  H   UNL A   1      41.792  30.120  28.854  1.00  0.00     0.167 HD
ATOM     59  C   UNL A   1      44.023  28.620  30.204  1.00  0.00     0.074 A 
ATOM     60  C   UNL A   1      42.749  28.640  30.926  1.00  0.00     0.031 C 
ATOM     61  C   UNL A   1      44.322  28.817  28.884  1.00  0.00     0.031 A 
BRANCH  48  62
ATOM     62  C   UNL A   1      38.946  29.236  28.203  1.00  0.00    -0.014 A 
ATOM     63  C   UNL A   1      38.913  29.213  29.609  1.00  0.00     0.009 A 
ATOM     64  C   UNL A   1      37.817  29.773  27.556  1.00  0.00     0.009 A 
ATOM     65  C   UNL A   1      37.781  29.630  30.320  1.00  0.00     0.001 A 
ATOM     66  C   UNL A   1      36.702  30.228  28.263  1.00  0.00     0.001 A 
ATOM     67  C   UNL A   1      36.673  30.128  29.646  1.00  0.00     0.000 A 
ENDBRANCH  48  62
BRANCH  49  68
ATOM     68  C   UNL A   1      44.420  25.637  33.843  1.00  0.00    -0.014 A 
ATOM     69  C   UNL A   1      43.265  25.224  34.529  1.00  0.00     0.009 A 
ATOM     70  C   UNL A   1      45.659  25.432  34.478  1.00  0.00     0.009 A 
ATOM     71  C   UNL A   1      43.353  24.587  35.777  1.00  0.00     0.001 A 
ATOM     72  C   UNL A   1      45.747  24.799  35.724  1.00  0.00     0.001 A 
ATOM     73  C   UNL A   1      44.595  24.360  36.366  1.00  0.00     0.000 A 
ENDBRANCH  49  68
BRANCH  61  74
ATOM     74  C   UNL A   1      45.714  28.457  28.412  1.00  0.00    -0.014 A 
ATOM     75  C   UNL A   1      46.088  27.161  28.014  1.00  0.00     0.009 A 
ATOM     76  C   UNL A   1      46.630  29.498  28.203  1.00  0.00     0.009 A 
ATOM     77  C   UNL A   1      47.345  26.911  27.450  1.00  0.00     0.001 A 
ATOM     78  C   UNL A   1      47.878  29.254  27.622  1.00  0.00     0.001 A 
ATOM     79  C   UNL A   1      48.238  27.961  27.250  1.00  0.00     0.000 A 
ENDBRANCH  61  74
ENDBRANCH  35  36
ENDBRANCH  27  30
ENDBRANCH  25  26
ENDBRANCH  24  25
ENDBRANCH   1  24
TORSDOF 14
ENDMDL
MODEL 3
REMARK VINA RESULT:     -11.1      4.332      9.152
REMARK SMILES Cc1n[nH]c(S[C@H]2CC[C@]([NH3+])(C(=O)NCCCCNC(=O)c3ccc(-c4c5nc(c(-c6ccccc6)c6ccc([nH]6)c(-c6ccccc6)c6nc(c(-c7ccccc7)c7ccc4[nH]7)C=C6)C=C5)cc3)C2)n1
REMARK SMILES IDX 16 1 15 2 14 3 12 4 13 5 10 7 7 8 8 9 70 10 9 11 6 12 5 13
REMARK SMILES IDX 1 14 2 15 3 16 71 17 4 18 11 20 17 24 18 25 19 26 20 27
REMARK SMILES IDX 21 29 22 30 23 31 69 32 24 33 68 34 25 35 26 36 27 37 62 38
REMARK SMILES IDX 28 39 67 40 61 41 63 42 29 43 66 44 60 45 59 46 30 48 52 49
REMARK SMILES IDX 37 50 51 51 38 52 41 53 50 54 64 55 39 56 40 57 49 59 65 60
REMARK SMILES IDX 42 61 31 62 32 63 36 64 33 65 35 66 34 67 53 68 54 69 58 70
REMARK SMILES IDX 55 71 57 72 56 73 43 74 44 75 48 76 45 77 47 78 46 79
REMARK H PARENT 14 6 4 19 11 21 11 22 11 23 19 28 63 47 41 58
REMARK Flexibility Score: inf
ROOT
ATOM      1  C   UNL A   1      39.061  22.386  26.128  1.00  0.00     0.023 C 
ENDROOT
BRANCH   1   2
ATOM      2  C   UNL A   1      37.659  22.880  25.748  1.00  0.00     0.116 C 
BRANCH   2   3
ATOM      3  N   UNL A   1      37.434  22.899  24.319  1.00  0.00    -0.351 N 
ATOM      4  C   UNL A   1      36.305  22.983  23.564  1.00  0.00     0.281 C 
ATOM      5  O   UNL A   1      36.489  22.956  22.340  1.00  0.00    -0.268 OA
ATOM      6  H   UNL A   1      38.261  22.840  23.788  1.00  0.00     0.163 HD
BRANCH   4   7
ATOM      7  C   UNL A   1      34.875  23.181  24.135  1.00  0.00     0.175 C 
ATOM      8  C   UNL A   1      32.828  22.054  24.859  1.00  0.00     0.062 C 
ATOM      9  C   UNL A   1      32.502  22.967  23.657  1.00  0.00     0.022 C 
ATOM     10  C   UNL A   1      34.355  21.873  24.769  1.00  0.00     0.094 C 
ATOM     11  C   UNL A   1      33.843  23.376  23.023  1.00  0.00     0.080 C 
BRANCH   8  12
ATOM     12  S   UNL A   1      32.415  22.654  26.542  1.00  0.00    -0.083 SA
BRANCH  12  13
ATOM     13  C   UNL A   1      31.601  24.153  26.369  1.00  0.00     0.183 A 
ATOM     14  C   UNL A   1      31.291  27.656  26.211  1.00  0.00     0.092 C 
ATOM     15  C   UNL A   1      31.111  26.192  26.260  1.00  0.00     0.148 A 
ATOM     16  N   UNL A   1      29.908  25.606  26.351  1.00  0.00    -0.158 NA
ATOM     17  N   UNL A   1      32.174  25.327  26.255  1.00  0.00    -0.206 NA
ATOM     18  N   UNL A   1      30.255  24.309  26.442  1.00  0.00    -0.254 N 
ATOM     19  H   UNL A   1      29.614  23.568  26.546  1.00  0.00     0.192 HD
ENDBRANCH  12  13
ENDBRANCH   8  12
BRANCH   7  20
ATOM     20  N   UNL A   1      34.704  24.263  25.101  1.00  0.00    -0.345 N 
ATOM     21  H   UNL A   1      35.238  24.053  25.946  1.00  0.00     0.345 HD
ATOM     22  H   UNL A   1      33.717  24.356  25.338  1.00  0.00     0.345 HD
ATOM     23  H   UNL A   1      35.040  25.137  24.696  1.00  0.00     0.345 HD
ENDBRANCH   7  20
ENDBRANCH   4   7
ENDBRANCH   2   3
ENDBRANCH   1   2
BRANCH   1  24
ATOM     24  C   UNL A   1      39.195  20.898  26.466  1.00  0.00     0.023 C 
BRANCH  24  25
ATOM     25  C   UNL A   1      39.671  20.012  25.325  1.00  0.00     0.116 C 
BRANCH  25  26
ATOM     26  N   UNL A   1      40.751  19.092  25.709  1.00  0.00    -0.352 N 
ATOM     27  C   UNL A   1      42.071  19.386  26.037  1.00  0.00     0.251 C 
ATOM     28  H   UNL A   1      40.507  18.139  25.739  1.00  0.00     0.163 HD
ATOM     29  O   UNL A   1      42.951  18.547  25.960  1.00  0.00    -0.269 OA
BRANCH  27  30
ATOM     30  C   UNL A   1      42.371  20.742  26.528  1.00  0.00     0.039 A 
ATOM     31  C   UNL A   1      42.703  21.820  25.704  1.00  0.00     0.014 A 
ATOM     32  C   UNL A   1      42.233  20.913  27.895  1.00  0.00     0.014 A 
ATOM     33  C   UNL A   1      42.850  23.077  26.292  1.00  0.00     0.010 A 
ATOM     34  C   UNL A   1      42.035  22.162  28.384  1.00  0.00     0.010 A 
ATOM     35  C   UNL A   1      42.513  23.226  27.643  1.00  0.00    -0.014 A 
BRANCH  35  36
ATOM     36  C   UNL A   1      42.581  24.476  28.373  1.00  0.00     0.031 A 
ATOM     37  C   UNL A   1      41.453  25.393  28.109  1.00  0.00     0.074 A 
ATOM     38  C   UNL A   1      43.422  24.632  29.422  1.00  0.00     0.049 A 
ATOM     39  N   UNL A   1      41.494  26.513  27.475  1.00  0.00    -0.248 NA
ATOM     40  C   UNL A   1      40.091  24.944  28.446  1.00  0.00     0.031 C 
ATOM     41  C   UNL A   1      44.338  23.652  30.030  1.00  0.00     0.029 A 
ATOM     42  N   UNL A   1      43.536  25.689  30.263  1.00  0.00    -0.354 N 
ATOM     43  C   UNL A   1      40.200  27.017  27.508  1.00  0.00     0.074 A 
ATOM     44  C   UNL A   1      39.357  25.925  27.920  1.00  0.00     0.031 C 
ATOM     45  C   UNL A   1      44.719  24.083  31.255  1.00  0.00     0.029 A 
ATOM     46  C   UNL A   1      44.214  25.429  31.449  1.00  0.00     0.049 A 
ATOM     47  H   UNL A   1      43.165  26.576  30.050  1.00  0.00     0.167 HD
ATOM     48  C   UNL A   1      39.966  28.357  27.449  1.00  0.00     0.031 A 
ATOM     49  C   UNL A   1      44.310  26.259  32.519  1.00  0.00     0.031 A 
ATOM     50  C   UNL A   1      41.162  29.080  27.088  1.00  0.00     0.049 A 
ATOM     51  C   UNL A   1      43.986  27.624  32.034  1.00  0.00     0.074 A 
ATOM     52  C   UNL A   1      42.001  29.076  25.991  1.00  0.00     0.029 A 
ATOM     53  N   UNL A   1      41.891  29.629  28.120  1.00  0.00    -0.354 N 
ATOM     54  N   UNL A   1      44.729  28.270  31.181  1.00  0.00    -0.248 NA
ATOM     55  C   UNL A   1      42.598  28.056  32.104  1.00  0.00     0.031 C 
ATOM     56  C   UNL A   1      43.316  29.156  26.538  1.00  0.00     0.029 A 
ATOM     57  C   UNL A   1      43.208  29.300  27.923  1.00  0.00     0.049 A 
ATOM     58  H   UNL A   1      41.531  30.163  28.864  1.00  0.00     0.167 HD
ATOM     59  C   UNL A   1      43.829  28.857  30.301  1.00  0.00     0.074 A 
ATOM     60  C   UNL A   1      42.531  28.768  30.974  1.00  0.00     0.031 C 
ATOM     61  C   UNL A   1      44.159  29.079  28.993  1.00  0.00     0.031 A 
BRANCH  48  62
ATOM     62  C   UNL A   1      38.796  29.042  28.108  1.00  0.00    -0.014 A 
ATOM     63  C   UNL A   1      38.620  28.876  29.493  1.00  0.00     0.009 A 
ATOM     64  C   UNL A   1      37.726  29.623  27.402  1.00  0.00     0.009 A 
ATOM     65  C   UNL A   1      37.410  29.198  30.119  1.00  0.00     0.001 A 
ATOM     66  C   UNL A   1      36.532  29.984  28.029  1.00  0.00     0.001 A 
ATOM     67  C   UNL A   1      36.363  29.743  29.385  1.00  0.00     0.000 A 
ENDBRANCH  48  62
BRANCH  49  68
ATOM     68  C   UNL A   1      44.337  25.915  33.961  1.00  0.00    -0.014 A 
ATOM     69  C   UNL A   1      44.933  26.778  34.898  1.00  0.00     0.009 A 
ATOM     70  C   UNL A   1      43.526  24.879  34.458  1.00  0.00     0.009 A 
ATOM     71  C   UNL A   1      44.685  26.636  36.272  1.00  0.00     0.001 A 
ATOM     72  C   UNL A   1      43.280  24.737  35.829  1.00  0.00     0.001 A 
ATOM     73  C   UNL A   1      43.845  25.626  36.736  1.00  0.00     0.000 A 
ENDBRANCH  49  68
BRANCH  61  74
ATOM     74  C   UNL A   1      45.594  28.838  28.575  1.00  0.00    -0.014 A 
ATOM     75  C   UNL A   1      46.588  29.834  28.602  1.00  0.00     0.009 A 
ATOM     76  C   UNL A   1      45.991  27.521  28.306  1.00  0.00     0.009 A 
ATOM     77  C   UNL A   1      47.928  29.524  28.342  1.00  0.00     0.001 A 
ATOM     78  C   UNL A   1      47.332  27.208  28.066  1.00  0.00     0.001 A 
ATOM     79  C   UNL A   1      48.300  28.208  28.079  1.00  0.00     0.000 A 
ENDBRANCH  61  74
ENDBRANCH  35  36
ENDBRANCH  27  30
ENDBRANCH  25  26
ENDBRANCH  24  25
ENDBRANCH   1  24
TORSDOF 14
ENDMDL
