MODEL 1
REMARK VINA RESULT:     -11.6      0.000      0.000
REMARK SMILES Cc1nsc(N[C@H](C)c2cccc(Br)c2)c1C(=O)NCCCCNC(=O)c1ccc(-c2c3nc(c(-c4ccccc4)c4ccc([nH]4)c(-c4ccccc4)c4nc(c(-c5ccccc5)c5ccc2[nH]5)C=C4)C=C3)cc1
REMARK SMILES IDX 21 1 20 2 19 3 17 4 18 5 16 7 1 8 2 9 3 10 4 11 5 12 6 13
REMARK SMILES IDX 7 15 8 16 9 17 10 18 15 19 11 20 13 21 12 22 14 23 22 24
REMARK SMILES IDX 23 25 24 26 25 27 26 29 27 30 28 31 74 32 29 33 73 34 30 35
REMARK SMILES IDX 31 36 32 37 67 38 33 39 72 40 66 41 68 42 34 43 71 44 65 45
REMARK SMILES IDX 64 46 35 48 57 49 42 50 56 51 43 52 46 53 55 54 69 55 44 56
REMARK SMILES IDX 45 57 54 59 70 60 47 61 36 62 37 63 41 64 38 65 40 66 39 67
REMARK SMILES IDX 58 68 59 69 63 70 60 71 62 72 61 73 48 74 49 75 53 76 50 77
REMARK SMILES IDX 52 78 51 79
REMARK H PARENT 19 6 6 14 24 28 68 47 46 58
REMARK Flexibility Score: inf
ROOT
ATOM      1  C   UNL A   1      37.819  33.845  33.708  1.00  0.00     0.023 C 
ENDROOT
BRANCH   1   2
ATOM      2  C   UNL A   1      36.561  34.497  33.126  1.00  0.00     0.116 C 
BRANCH   2   3
ATOM      3  N   UNL A   1      35.303  33.818  33.355  1.00  0.00    -0.352 N 
ATOM      4  C   UNL A   1      34.060  33.969  32.766  1.00  0.00     0.256 C 
ATOM      5  O   UNL A   1      33.192  33.188  33.169  1.00  0.00    -0.269 OA
ATOM      6  H   UNL A   1      35.338  33.127  34.055  1.00  0.00     0.163 HD
BRANCH   4   7
ATOM      7  C   UNL A   1      33.742  35.026  31.790  1.00  0.00     0.097 A 
ATOM      8  C   UNL A   1      33.831  37.313  33.161  1.00  0.00     0.069 C 
ATOM      9  C   UNL A   1      33.573  36.464  31.964  1.00  0.00     0.066 A 
ATOM     10  N   UNL A   1      33.161  37.144  30.894  1.00  0.00    -0.195 NA
ATOM     11  S   UNL A   1      33.110  36.146  29.603  1.00  0.00    -0.018 S 
ATOM     12  C   UNL A   1      33.682  34.737  30.412  1.00  0.00     0.123 A 
BRANCH  12  13
ATOM     13  N   UNL A   1      33.997  33.562  29.784  1.00  0.00    -0.368 N 
ATOM     14  H   UNL A   1      33.272  33.091  29.313  1.00  0.00     0.162 HD
BRANCH  13  15
ATOM     15  C   UNL A   1      35.326  32.955  29.758  1.00  0.00     0.107 C 
ATOM     16  C   UNL A   1      36.344  34.023  29.353  1.00  0.00     0.036 C 
BRANCH  15  17
ATOM     17  C   UNL A   1      35.294  31.697  28.893  1.00  0.00    -0.025 A 
ATOM     18  C   UNL A   1      36.391  30.814  28.955  1.00  0.00     0.006 A 
ATOM     19  C   UNL A   1      34.237  31.372  28.027  1.00  0.00     0.021 A 
ATOM     20  C   UNL A   1      36.437  29.654  28.176  1.00  0.00     0.002 A 
ATOM     21  C   UNL A   1      34.289  30.209  27.250  1.00  0.00     0.018 A 
ATOM     22  C   UNL A   1      35.383  29.350  27.320  1.00  0.00     0.016 A 
ATOM     23  Br  UNL A   1      32.854  29.794  26.089  1.00  0.00    -0.051 Br
ENDBRANCH  15  17
ENDBRANCH  13  15
ENDBRANCH  12  13
ENDBRANCH   4   7
ENDBRANCH   2   3
ENDBRANCH   1   2
BRANCH   1  24
ATOM     24  C   UNL A   1      39.094  34.678  33.861  1.00  0.00     0.023 C 
BRANCH  24  25
ATOM     25  C   UNL A   1      40.169  34.459  32.808  1.00  0.00     0.116 C 
BRANCH  25  26
ATOM     26  N   UNL A   1      39.745  34.705  31.430  1.00  0.00    -0.352 N 
ATOM     27  C   UNL A   1      40.019  33.924  30.318  1.00  0.00     0.251 C 
ATOM     28  H   UNL A   1      39.206  35.514  31.276  1.00  0.00     0.163 HD
ATOM     29  O   UNL A   1      39.897  34.371  29.180  1.00  0.00    -0.269 OA
BRANCH  27  30
ATOM     30  C   UNL A   1      40.475  32.536  30.525  1.00  0.00     0.039 A 
ATOM     31  C   UNL A   1      39.585  31.506  30.842  1.00  0.00     0.014 A 
ATOM     32  C   UNL A   1      41.824  32.267  30.323  1.00  0.00     0.014 A 
ATOM     33  C   UNL A   1      40.051  30.190  30.842  1.00  0.00     0.010 A 
ATOM     34  C   UNL A   1      42.240  30.970  30.157  1.00  0.00     0.010 A 
ATOM     35  C   UNL A   1      41.377  29.924  30.463  1.00  0.00    -0.014 A 
BRANCH  35  36
ATOM     36  C   UNL A   1      41.850  28.553  30.270  1.00  0.00     0.031 A 
ATOM     37  C   UNL A   1      42.613  27.985  31.412  1.00  0.00     0.074 A 
ATOM     38  C   UNL A   1      41.443  27.763  29.252  1.00  0.00     0.049 A 
ATOM     39  N   UNL A   1      43.869  27.686  31.445  1.00  0.00    -0.248 NA
ATOM     40  C   UNL A   1      41.930  27.835  32.709  1.00  0.00     0.031 C 
ATOM     41  C   UNL A   1      40.444  28.076  28.220  1.00  0.00     0.029 A 
ATOM     42  N   UNL A   1      41.744  26.458  28.990  1.00  0.00    -0.354 N 
ATOM     43  C   UNL A   1      44.093  27.109  32.692  1.00  0.00     0.074 A 
ATOM     44  C   UNL A   1      42.924  27.392  33.484  1.00  0.00     0.031 C 
ATOM     45  C   UNL A   1      40.043  26.938  27.614  1.00  0.00     0.029 A 
ATOM     46  C   UNL A   1      40.896  25.857  28.067  1.00  0.00     0.049 A 
ATOM     47  H   UNL A   1      42.494  25.984  29.416  1.00  0.00     0.167 HD
ATOM     48  C   UNL A   1      45.094  26.202  32.872  1.00  0.00     0.031 A 
ATOM     49  C   UNL A   1      40.893  24.564  27.673  1.00  0.00     0.031 A 
ATOM     50  C   UNL A   1      45.970  26.161  31.730  1.00  0.00     0.049 A 
ATOM     51  C   UNL A   1      42.228  24.007  27.960  1.00  0.00     0.074 A 
ATOM     52  C   UNL A   1      46.933  26.969  31.170  1.00  0.00     0.029 A 
ATOM     53  N   UNL A   1      45.588  25.256  30.774  1.00  0.00    -0.354 N 
ATOM     54  N   UNL A   1      43.303  24.393  27.339  1.00  0.00    -0.248 NA
ATOM     55  C   UNL A   1      42.450  23.238  29.177  1.00  0.00     0.031 C 
ATOM     56  C   UNL A   1      46.922  26.676  29.772  1.00  0.00     0.029 A 
ATOM     57  C   UNL A   1      45.986  25.669  29.532  1.00  0.00     0.049 A 
ATOM     58  H   UNL A   1      45.095  24.423  30.956  1.00  0.00     0.167 HD
ATOM     59  C   UNL A   1      44.292  24.325  28.301  1.00  0.00     0.074 A 
ATOM     60  C   UNL A   1      43.763  23.432  29.325  1.00  0.00     0.031 C 
ATOM     61  C   UNL A   1      45.298  25.246  28.331  1.00  0.00     0.031 A 
BRANCH  48  62
ATOM     62  C   UNL A   1      45.011  25.009  33.802  1.00  0.00    -0.014 A 
ATOM     63  C   UNL A   1      44.050  24.015  33.529  1.00  0.00     0.009 A 
ATOM     64  C   UNL A   1      45.602  24.974  35.079  1.00  0.00     0.009 A 
ATOM     65  C   UNL A   1      43.651  23.090  34.502  1.00  0.00     0.001 A 
ATOM     66  C   UNL A   1      45.233  24.028  36.042  1.00  0.00     0.001 A 
ATOM     67  C   UNL A   1      44.237  23.103  35.763  1.00  0.00     0.000 A 
ENDBRANCH  48  62
BRANCH  49  68
ATOM     68  C   UNL A   1      39.791  23.730  27.160  1.00  0.00    -0.014 A 
ATOM     69  C   UNL A   1      38.572  24.306  26.774  1.00  0.00     0.009 A 
ATOM     70  C   UNL A   1      40.042  22.398  26.786  1.00  0.00     0.009 A 
ATOM     71  C   UNL A   1      37.659  23.593  25.990  1.00  0.00     0.001 A 
ATOM     72  C   UNL A   1      39.130  21.685  26.001  1.00  0.00     0.001 A 
ATOM     73  C   UNL A   1      37.946  22.290  25.587  1.00  0.00     0.000 A 
ENDBRANCH  49  68
BRANCH  61  74
ATOM     74  C   UNL A   1      45.558  26.019  27.066  1.00  0.00    -0.014 A 
ATOM     75  C   UNL A   1      46.463  25.605  26.074  1.00  0.00     0.009 A 
ATOM     76  C   UNL A   1      44.802  27.177  26.840  1.00  0.00     0.009 A 
ATOM     77  C   UNL A   1      46.628  26.352  24.904  1.00  0.00     0.001 A 
ATOM     78  C   UNL A   1      44.950  27.910  25.663  1.00  0.00     0.001 A 
ATOM     79  C   UNL A   1      45.869  27.502  24.697  1.00  0.00     0.000 A 
ENDBRANCH  61  74
ENDBRANCH  35  36
ENDBRANCH  27  30
ENDBRANCH  25  26
ENDBRANCH  24  25
ENDBRANCH   1  24
TORSDOF 14
ENDMDL
MODEL 2
REMARK VINA RESULT:     -11.2      3.985     10.785
REMARK SMILES Cc1nsc(N[C@H](C)c2cccc(Br)c2)c1C(=O)NCCCCNC(=O)c1ccc(-c2c3nc(c(-c4ccccc4)c4ccc([nH]4)c(-c4ccccc4)c4nc(c(-c5ccccc5)c5ccc2[nH]5)C=C4)C=C3)cc1
REMARK SMILES IDX 21 1 20 2 19 3 17 4 18 5 16 7 1 8 2 9 3 10 4 11 5 12 6 13
REMARK SMILES IDX 7 15 8 16 9 17 10 18 15 19 11 20 13 21 12 22 14 23 22 24
REMARK SMILES IDX 23 25 24 26 25 27 26 29 27 30 28 31 74 32 29 33 73 34 30 35
REMARK SMILES IDX 31 36 32 37 67 38 33 39 72 40 66 41 68 42 34 43 71 44 65 45
REMARK SMILES IDX 64 46 35 48 57 49 42 50 56 51 43 52 46 53 55 54 69 55 44 56
REMARK SMILES IDX 45 57 54 59 70 60 47 61 36 62 37 63 41 64 38 65 40 66 39 67
REMARK SMILES IDX 58 68 59 69 63 70 60 71 62 72 61 73 48 74 49 75 53 76 50 77
REMARK SMILES IDX 52 78 51 79
REMARK H PARENT 19 6 6 14 24 28 68 47 46 58
REMARK Flexibility Score: inf
ROOT
ATOM      1  C   UNL A   1      45.785  27.809  27.757  1.00  0.00     0.023 C 
ENDROOT
BRANCH   1   2
ATOM      2  C   UNL A   1      44.579  27.052  27.194  1.00  0.00     0.116 C 
BRANCH   2   3
ATOM      3  N   UNL A   1      44.068  27.489  25.913  1.00  0.00    -0.352 N 
ATOM      4  C   UNL A   1      42.782  27.525  25.403  1.00  0.00     0.256 C 
ATOM      5  O   UNL A   1      42.682  28.004  24.269  1.00  0.00    -0.269 OA
ATOM      6  H   UNL A   1      44.758  27.818  25.293  1.00  0.00     0.163 HD
BRANCH   4   7
ATOM      7  C   UNL A   1      41.611  26.966  26.101  1.00  0.00     0.097 A 
ATOM      8  C   UNL A   1      40.163  29.073  26.864  1.00  0.00     0.069 C 
ATOM      9  C   UNL A   1      40.510  27.625  26.794  1.00  0.00     0.066 A 
ATOM     10  N   UNL A   1      39.657  26.830  27.439  1.00  0.00    -0.195 NA
ATOM     11  S   UNL A   1      40.023  25.270  27.122  1.00  0.00    -0.018 S 
ATOM     12  C   UNL A   1      41.341  25.584  26.058  1.00  0.00     0.123 A 
BRANCH  12  13
ATOM     13  N   UNL A   1      41.989  24.622  25.331  1.00  0.00    -0.368 N 
ATOM     14  H   UNL A   1      41.661  24.445  24.419  1.00  0.00     0.162 HD
BRANCH  13  15
ATOM     15  C   UNL A   1      43.129  23.837  25.802  1.00  0.00     0.107 C 
ATOM     16  C   UNL A   1      44.345  24.176  24.937  1.00  0.00     0.036 C 
BRANCH  15  17
ATOM     17  C   UNL A   1      42.741  22.363  25.865  1.00  0.00    -0.025 A 
ATOM     18  C   UNL A   1      41.422  22.033  26.239  1.00  0.00     0.006 A 
ATOM     19  C   UNL A   1      43.625  21.309  25.584  1.00  0.00     0.021 A 
ATOM     20  C   UNL A   1      41.004  20.703  26.337  1.00  0.00     0.002 A 
ATOM     21  C   UNL A   1      43.201  19.979  25.683  1.00  0.00     0.018 A 
ATOM     22  C   UNL A   1      41.895  19.672  26.059  1.00  0.00     0.016 A 
ATOM     23  Br  UNL A   1      44.413  18.578  25.301  1.00  0.00    -0.051 Br
ENDBRANCH  15  17
ENDBRANCH  13  15
ENDBRANCH  12  13
ENDBRANCH   4   7
ENDBRANCH   2   3
ENDBRANCH   1   2
BRANCH   1  24
ATOM     24  C   UNL A   1      46.873  27.037  28.508  1.00  0.00     0.023 C 
BRANCH  24  25
ATOM     25  C   UNL A   1      46.666  26.872  30.005  1.00  0.00     0.116 C 
BRANCH  25  26
ATOM     26  N   UNL A   1      46.124  25.576  30.415  1.00  0.00    -0.352 N 
ATOM     27  C   UNL A   1      44.925  25.341  31.071  1.00  0.00     0.251 C 
ATOM     28  H   UNL A   1      46.670  24.786  30.202  1.00  0.00     0.163 HD
ATOM     29  O   UNL A   1      44.712  24.277  31.646  1.00  0.00    -0.269 OA
BRANCH  27  30
ATOM     30  C   UNL A   1      43.902  26.404  31.076  1.00  0.00     0.039 A 
ATOM     31  C   UNL A   1      43.875  27.398  32.059  1.00  0.00     0.014 A 
ATOM     32  C   UNL A   1      42.998  26.430  30.021  1.00  0.00     0.014 A 
ATOM     33  C   UNL A   1      43.002  28.476  31.903  1.00  0.00     0.010 A 
ATOM     34  C   UNL A   1      42.266  27.565  29.782  1.00  0.00     0.010 A 
ATOM     35  C   UNL A   1      42.220  28.572  30.740  1.00  0.00    -0.014 A 
BRANCH  35  36
ATOM     36  C   UNL A   1      41.434  29.771  30.451  1.00  0.00     0.031 A 
ATOM     37  C   UNL A   1      42.226  30.957  30.032  1.00  0.00     0.074 A 
ATOM     38  C   UNL A   1      40.087  29.767  30.337  1.00  0.00     0.049 A 
ATOM     39  N   UNL A   1      42.395  32.057  30.685  1.00  0.00    -0.248 NA
ATOM     40  C   UNL A   1      43.017  30.871  28.793  1.00  0.00     0.031 C 
ATOM     41  C   UNL A   1      39.186  28.607  30.409  1.00  0.00     0.029 A 
ATOM     42  N   UNL A   1      39.239  30.784  30.007  1.00  0.00    -0.354 N 
ATOM     43  C   UNL A   1      43.136  32.889  29.850  1.00  0.00     0.074 A 
ATOM     44  C   UNL A   1      43.641  32.053  28.792  1.00  0.00     0.031 C 
ATOM     45  C   UNL A   1      37.983  28.933  29.892  1.00  0.00     0.029 A 
ATOM     46  C   UNL A   1      37.964  30.362  29.647  1.00  0.00     0.049 A 
ATOM     47  H   UNL A   1      39.506  31.731  30.021  1.00  0.00     0.167 HD
ATOM     48  C   UNL A   1      43.030  34.245  29.941  1.00  0.00     0.031 A 
ATOM     49  C   UNL A   1      36.942  31.123  29.196  1.00  0.00     0.031 A 
ATOM     50  C   UNL A   1      42.305  34.631  31.125  1.00  0.00     0.049 A 
ATOM     51  C   UNL A   1      37.194  32.510  29.629  1.00  0.00     0.074 A 
ATOM     52  C   UNL A   1      42.531  34.652  32.482  1.00  0.00     0.029 A 
ATOM     53  N   UNL A   1      40.951  34.734  30.933  1.00  0.00    -0.354 N 
ATOM     54  N   UNL A   1      37.169  32.877  30.876  1.00  0.00    -0.248 NA
ATOM     55  C   UNL A   1      37.805  33.460  28.709  1.00  0.00     0.031 C 
ATOM     56  C   UNL A   1      41.248  34.513  33.092  1.00  0.00     0.029 A 
ATOM     57  C   UNL A   1      40.278  34.456  32.091  1.00  0.00     0.049 A 
ATOM     58  H   UNL A   1      40.523  34.976  30.080  1.00  0.00     0.167 HD
ATOM     59  C   UNL A   1      38.145  33.850  30.962  1.00  0.00     0.074 A 
ATOM     60  C   UNL A   1      38.350  34.303  29.592  1.00  0.00     0.031 C 
ATOM     61  C   UNL A   1      38.916  33.965  32.081  1.00  0.00     0.031 A 
BRANCH  48  62
ATOM     62  C   UNL A   1      43.105  35.191  28.761  1.00  0.00    -0.014 A 
ATOM     63  C   UNL A   1      44.285  35.941  28.581  1.00  0.00     0.009 A 
ATOM     64  C   UNL A   1      41.982  35.603  28.019  1.00  0.00     0.009 A 
ATOM     65  C   UNL A   1      44.315  37.081  27.767  1.00  0.00     0.001 A 
ATOM     66  C   UNL A   1      42.019  36.719  27.175  1.00  0.00     0.001 A 
ATOM     67  C   UNL A   1      43.178  37.474  27.071  1.00  0.00     0.000 A 
ENDBRANCH  48  62
BRANCH  49  68
ATOM     68  C   UNL A   1      35.807  30.770  28.324  1.00  0.00    -0.014 A 
ATOM     69  C   UNL A   1      35.657  29.465  27.833  1.00  0.00     0.009 A 
ATOM     70  C   UNL A   1      34.718  31.651  28.207  1.00  0.00     0.009 A 
ATOM     71  C   UNL A   1      34.437  29.038  27.295  1.00  0.00     0.001 A 
ATOM     72  C   UNL A   1      33.499  31.225  27.670  1.00  0.00     0.001 A 
ATOM     73  C   UNL A   1      33.353  29.912  27.231  1.00  0.00     0.000 A 
ENDBRANCH  49  68
BRANCH  61  74
ATOM     74  C   UNL A   1      38.387  33.345  33.346  1.00  0.00    -0.014 A 
ATOM     75  C   UNL A   1      38.586  31.999  33.695  1.00  0.00     0.009 A 
ATOM     76  C   UNL A   1      37.720  34.180  34.254  1.00  0.00     0.009 A 
ATOM     77  C   UNL A   1      38.100  31.497  34.906  1.00  0.00     0.001 A 
ATOM     78  C   UNL A   1      37.255  33.685  35.472  1.00  0.00     0.001 A 
ATOM     79  C   UNL A   1      37.437  32.341  35.795  1.00  0.00     0.000 A 
ENDBRANCH  61  74
ENDBRANCH  35  36
ENDBRANCH  27  30
ENDBRANCH  25  26
ENDBRANCH  24  25
ENDBRANCH   1  24
TORSDOF 14
ENDMDL
MODEL 3
REMARK VINA RESULT:     -11.1      3.713      6.279
REMARK SMILES Cc1nsc(N[C@H](C)c2cccc(Br)c2)c1C(=O)NCCCCNC(=O)c1ccc(-c2c3nc(c(-c4ccccc4)c4ccc([nH]4)c(-c4ccccc4)c4nc(c(-c5ccccc5)c5ccc2[nH]5)C=C4)C=C3)cc1
REMARK SMILES IDX 21 1 20 2 19 3 17 4 18 5 16 7 1 8 2 9 3 10 4 11 5 12 6 13
REMARK SMILES IDX 7 15 8 16 9 17 10 18 15 19 11 20 13 21 12 22 14 23 22 24
REMARK SMILES IDX 23 25 24 26 25 27 26 29 27 30 28 31 74 32 29 33 73 34 30 35
REMARK SMILES IDX 31 36 32 37 67 38 33 39 72 40 66 41 68 42 34 43 71 44 65 45
REMARK SMILES IDX 64 46 35 48 57 49 42 50 56 51 43 52 46 53 55 54 69 55 44 56
REMARK SMILES IDX 45 57 54 59 70 60 47 61 36 62 37 63 41 64 38 65 40 66 39 67
REMARK SMILES IDX 58 68 59 69 63 70 60 71 62 72 61 73 48 74 49 75 53 76 50 77
REMARK SMILES IDX 52 78 51 79
REMARK H PARENT 19 6 6 14 24 28 68 47 46 58
REMARK Flexibility Score: inf
ROOT
ATOM      1  C   UNL A   1      32.542  30.997  27.001  1.00  0.00     0.023 C 
ENDROOT
BRANCH   1   2
ATOM      2  C   UNL A   1      32.154  30.336  25.674  1.00  0.00     0.116 C 
BRANCH   2   3
ATOM      3  N   UNL A   1      33.152  29.503  25.039  1.00  0.00    -0.352 N 
ATOM      4  C   UNL A   1      33.046  28.299  24.364  1.00  0.00     0.256 C 
ATOM      5  O   UNL A   1      34.104  27.865  23.897  1.00  0.00    -0.269 OA
ATOM      6  H   UNL A   1      34.070  29.853  25.098  1.00  0.00     0.163 HD
BRANCH   4   7
ATOM      7  C   UNL A   1      31.795  27.527  24.264  1.00  0.00     0.097 A 
ATOM      8  C   UNL A   1      30.319  28.795  22.438  1.00  0.00     0.069 C 
ATOM      9  C   UNL A   1      30.584  27.770  23.487  1.00  0.00     0.066 A 
ATOM     10  N   UNL A   1      29.564  26.942  23.708  1.00  0.00    -0.195 NA
ATOM     11  S   UNL A   1      30.041  25.750  24.718  1.00  0.00    -0.018 S 
ATOM     12  C   UNL A   1      31.675  26.268  24.885  1.00  0.00     0.123 A 
BRANCH  12  13
ATOM     13  N   UNL A   1      32.648  25.552  25.530  1.00  0.00    -0.368 N 
ATOM     14  H   UNL A   1      33.272  26.051  26.106  1.00  0.00     0.162 HD
BRANCH  13  15
ATOM     15  C   UNL A   1      32.832  24.106  25.430  1.00  0.00     0.107 C 
ATOM     16  C   UNL A   1      32.421  23.469  26.760  1.00  0.00     0.036 C 
BRANCH  15  17
ATOM     17  C   UNL A   1      34.249  23.805  24.952  1.00  0.00    -0.025 A 
ATOM     18  C   UNL A   1      34.424  23.321  23.640  1.00  0.00     0.006 A 
ATOM     19  C   UNL A   1      35.394  23.971  25.747  1.00  0.00     0.021 A 
ATOM     20  C   UNL A   1      35.692  23.006  23.142  1.00  0.00     0.002 A 
ATOM     21  C   UNL A   1      36.661  23.654  25.244  1.00  0.00     0.018 A 
ATOM     22  C   UNL A   1      36.814  23.172  23.946  1.00  0.00     0.016 A 
ATOM     23  Br  UNL A   1      38.188  23.884  26.337  1.00  0.00    -0.051 Br
ENDBRANCH  15  17
ENDBRANCH  13  15
ENDBRANCH  12  13
ENDBRANCH   4   7
ENDBRANCH   2   3
ENDBRANCH   1   2
BRANCH   1  24
ATOM     24  C   UNL A   1      33.983  30.885  27.503  1.00  0.00     0.023 C 
BRANCH  24  25
ATOM     25  C   UNL A   1      34.669  32.191  27.869  1.00  0.00     0.116 C 
BRANCH  25  26
ATOM     26  N   UNL A   1      34.557  32.575  29.276  1.00  0.00    -0.352 N 
ATOM     27  C   UNL A   1      35.263  32.047  30.346  1.00  0.00     0.251 C 
ATOM     28  H   UNL A   1      33.909  33.286  29.485  1.00  0.00     0.163 HD
ATOM     29  O   UNL A   1      34.878  32.204  31.502  1.00  0.00    -0.269 OA
BRANCH  27  30
ATOM     30  C   UNL A   1      36.491  31.277  30.071  1.00  0.00     0.039 A 
ATOM     31  C   UNL A   1      37.723  31.902  29.860  1.00  0.00     0.014 A 
ATOM     32  C   UNL A   1      36.398  29.890  30.099  1.00  0.00     0.014 A 
ATOM     33  C   UNL A   1      38.875  31.115  29.791  1.00  0.00     0.010 A 
ATOM     34  C   UNL A   1      37.539  29.136  30.200  1.00  0.00     0.010 A 
ATOM     35  C   UNL A   1      38.780  29.730  29.996  1.00  0.00    -0.014 A 
BRANCH  35  36
ATOM     36  C   UNL A   1      39.977  28.897  30.116  1.00  0.00     0.031 A 
ATOM     37  C   UNL A   1      40.503  28.748  31.498  1.00  0.00     0.074 A 
ATOM     38  C   UNL A   1      40.448  28.125  29.112  1.00  0.00     0.049 A 
ATOM     39  N   UNL A   1      41.613  29.212  31.968  1.00  0.00    -0.248 NA
ATOM     40  C   UNL A   1      39.649  28.106  32.511  1.00  0.00     0.031 C 
ATOM     41  C   UNL A   1      39.851  27.920  27.785  1.00  0.00     0.029 A 
ATOM     42  N   UNL A   1      41.500  27.255  29.104  1.00  0.00    -0.354 N 
ATOM     43  C   UNL A   1      41.702  28.740  33.275  1.00  0.00     0.074 A 
ATOM     44  C   UNL A   1      40.399  28.228  33.610  1.00  0.00     0.031 C 
ATOM     45  C   UNL A   1      40.389  26.825  27.207  1.00  0.00     0.029 A 
ATOM     46  C   UNL A   1      41.499  26.378  28.026  1.00  0.00     0.049 A 
ATOM     47  H   UNL A   1      42.197  27.249  29.799  1.00  0.00     0.167 HD
ATOM     48  C   UNL A   1      42.915  28.547  33.867  1.00  0.00     0.031 A 
ATOM     49  C   UNL A   1      42.357  25.359  27.793  1.00  0.00     0.031 A 
ATOM     50  C   UNL A   1      43.974  29.127  33.082  1.00  0.00     0.049 A 
ATOM     51  C   UNL A   1      43.590  25.631  28.556  1.00  0.00     0.074 A 
ATOM     52  C   UNL A   1      44.428  30.391  32.782  1.00  0.00     0.029 A 
ATOM     53  N   UNL A   1      44.509  28.268  32.157  1.00  0.00    -0.354 N 
ATOM     54  N   UNL A   1      44.388  26.620  28.280  1.00  0.00    -0.248 NA
ATOM     55  C   UNL A   1      43.795  25.003  29.854  1.00  0.00     0.031 C 
ATOM     56  C   UNL A   1      45.042  30.288  31.497  1.00  0.00     0.029 A 
ATOM     57  C   UNL A   1      44.981  28.959  31.075  1.00  0.00     0.049 A 
ATOM     58  H   UNL A   1      44.547  27.289  32.258  1.00  0.00     0.167 HD
ATOM     59  C   UNL A   1      44.861  27.026  29.512  1.00  0.00     0.074 A 
ATOM     60  C   UNL A   1      44.632  25.892  30.399  1.00  0.00     0.031 C 
ATOM     61  C   UNL A   1      45.092  28.346  29.768  1.00  0.00     0.031 A 
BRANCH  48  62
ATOM     62  C   UNL A   1      43.223  27.430  34.842  1.00  0.00    -0.014 A 
ATOM     63  C   UNL A   1      43.266  26.109  34.353  1.00  0.00     0.009 A 
ATOM     64  C   UNL A   1      43.163  27.577  36.241  1.00  0.00     0.009 A 
ATOM     65  C   UNL A   1      43.176  25.003  35.209  1.00  0.00     0.001 A 
ATOM     66  C   UNL A   1      43.110  26.475  37.102  1.00  0.00     0.001 A 
ATOM     67  C   UNL A   1      43.088  25.188  36.584  1.00  0.00     0.000 A 
ENDBRANCH  48  62
BRANCH  49  68
ATOM     68  C   UNL A   1      42.162  24.106  27.043  1.00  0.00    -0.014 A 
ATOM     69  C   UNL A   1      42.838  23.878  25.835  1.00  0.00     0.009 A 
ATOM     70  C   UNL A   1      41.525  23.015  27.661  1.00  0.00     0.009 A 
ATOM     71  C   UNL A   1      42.924  22.590  25.294  1.00  0.00     0.001 A 
ATOM     72  C   UNL A   1      41.612  21.728  27.121  1.00  0.00     0.001 A 
ATOM     73  C   UNL A   1      42.328  21.513  25.947  1.00  0.00     0.000 A 
ENDBRANCH  49  68
BRANCH  61  74
ATOM     74  C   UNL A   1      45.264  29.255  28.581  1.00  0.00    -0.014 A 
ATOM     75  C   UNL A   1      44.213  29.984  28.001  1.00  0.00     0.009 A 
ATOM     76  C   UNL A   1      46.560  29.433  28.077  1.00  0.00     0.009 A 
ATOM     77  C   UNL A   1      44.450  30.842  26.923  1.00  0.00     0.001 A 
ATOM     78  C   UNL A   1      46.801  30.306  27.016  1.00  0.00     0.001 A 
ATOM     79  C   UNL A   1      45.745  31.005  26.433  1.00  0.00     0.000 A 
ENDBRANCH  61  74
ENDBRANCH  35  36
ENDBRANCH  27  30
ENDBRANCH  25  26
ENDBRANCH  24  25
ENDBRANCH   1  24
TORSDOF 14
ENDMDL
