MODEL 1
REMARK VINA RESULT:     -10.8      0.000      0.000
REMARK SMILES CC(C)C[C@H](NC(=O)[C@H](Cc1ccccc1)NC(=O)CNC(=O)C[NH3+])C(=O)NCCCCNC(=O)c1ccc(-c2c3nc(c(-c4ccccc4)c4ccc([nH]4)c(-c4ccccc4)c4nc(c(-c5ccccc5)c5ccc2[nH]5)C=C4)C=C3)cc1
REMARK SMILES IDX 26 1 27 2 28 3 5 5 4 6 2 7 1 8 3 9 6 10 7 11 8 13 9 14 17 15
REMARK SMILES IDX 18 16 19 18 20 19 21 20 22 21 23 23 24 24 25 25 10 29 11 30
REMARK SMILES IDX 12 31 16 32 13 33 15 34 14 35 29 36 30 37 31 38 32 39 33 40
REMARK SMILES IDX 34 41 35 43 36 44 37 45 83 46 38 47 82 48 39 49 40 50 41 51
REMARK SMILES IDX 76 52 42 53 81 54 75 55 77 56 43 57 80 58 74 59 73 60 44 62
REMARK SMILES IDX 66 63 51 64 65 65 52 66 55 67 64 68 78 69 53 70 54 71 63 73
REMARK SMILES IDX 79 74 56 75 45 76 46 77 50 78 47 79 49 80 48 81 67 82 68 83
REMARK SMILES IDX 72 84 69 85 71 86 70 87 57 88 58 89 62 90 59 91 61 92 60 93
REMARK H PARENT 28 4 6 12 17 17 21 22 25 26 25 27 25 28 33 42 77 61 55 72
REMARK Flexibility Score: inf
ROOT
ATOM      1  C   UNL A   1      30.584  25.557  24.101  1.00  0.00     0.242 C 
ATOM      2  O   UNL A   1      29.909  24.637  23.631  1.00  0.00    -0.273 OA
ATOM      3  N   UNL A   1      31.091  25.395  25.358  1.00  0.00    -0.354 N 
ATOM      4  H   UNL A   1      30.750  24.607  25.841  1.00  0.00     0.163 HD
ENDROOT
BRANCH   1   5
ATOM      5  C   UNL A   1      30.943  26.793  23.255  1.00  0.00     0.171 C 
BRANCH   5   6
ATOM      6  C   UNL A   1      29.667  27.632  23.031  1.00  0.00     0.038 C 
BRANCH   6   7
ATOM      7  C   UNL A   1      29.808  29.162  23.182  1.00  0.00    -0.015 C 
ATOM      8  C   UNL A   1      30.762  29.614  24.283  1.00  0.00     0.007 C 
ATOM      9  C   UNL A   1      30.272  29.747  21.843  1.00  0.00     0.007 C 
ENDBRANCH   6   7
ENDBRANCH   5   6
BRANCH   5  10
ATOM     10  N   UNL A   1      31.557  26.366  21.989  1.00  0.00    -0.343 N 
ATOM     11  C   UNL A   1      32.590  25.550  21.660  1.00  0.00     0.243 C 
ATOM     12  H   UNL A   1      31.120  26.764  21.201  1.00  0.00     0.164 HD
ATOM     13  O   UNL A   1      32.960  25.646  20.481  1.00  0.00    -0.273 OA
BRANCH  11  14
ATOM     14  C   UNL A   1      33.191  24.455  22.593  1.00  0.00     0.175 C 
BRANCH  14  15
ATOM     15  N   UNL A   1      32.790  23.164  22.036  1.00  0.00    -0.342 N 
ATOM     16  C   UNL A   1      32.295  22.062  22.662  1.00  0.00     0.240 C 
ATOM     17  H   UNL A   1      32.892  23.081  21.061  1.00  0.00     0.164 HD
ATOM     18  O   UNL A   1      31.895  21.136  21.949  1.00  0.00    -0.273 OA
BRANCH  16  19
ATOM     19  C   UNL A   1      32.079  22.020  24.183  1.00  0.00     0.216 C 
BRANCH  19  20
ATOM     20  N   UNL A   1      31.869  20.706  24.774  1.00  0.00    -0.342 N 
ATOM     21  C   UNL A   1      32.789  19.894  25.377  1.00  0.00     0.275 C 
ATOM     22  H   UNL A   1      30.949  20.358  24.734  1.00  0.00     0.164 HD
ATOM     23  O   UNL A   1      32.476  18.734  25.648  1.00  0.00    -0.268 OA
BRANCH  21  24
ATOM     24  C   UNL A   1      34.208  20.416  25.636  1.00  0.00     0.360 C 
BRANCH  24  25
ATOM     25  N   UNL A   1      34.282  21.067  26.953  1.00  0.00    -0.350 N 
ATOM     26  H   UNL A   1      33.526  21.746  27.040  1.00  0.00     0.344 HD
ATOM     27  H   UNL A   1      35.178  21.545  27.046  1.00  0.00     0.344 HD
ATOM     28  H   UNL A   1      34.194  20.363  27.686  1.00  0.00     0.344 HD
ENDBRANCH  24  25
ENDBRANCH  21  24
ENDBRANCH  19  20
ENDBRANCH  16  19
ENDBRANCH  14  15
BRANCH  14  29
ATOM     29  C   UNL A   1      34.694  24.557  22.861  1.00  0.00     0.070 C 
BRANCH  29  30
ATOM     30  C   UNL A   1      35.485  23.732  23.855  1.00  0.00    -0.045 A 
ATOM     31  C   UNL A   1      35.567  24.194  25.183  1.00  0.00     0.004 A 
ATOM     32  C   UNL A   1      36.348  22.704  23.464  1.00  0.00     0.004 A 
ATOM     33  C   UNL A   1      36.521  23.691  26.067  1.00  0.00     0.000 A 
ATOM     34  C   UNL A   1      37.277  22.172  24.362  1.00  0.00     0.000 A 
ATOM     35  C   UNL A   1      37.382  22.682  25.653  1.00  0.00     0.000 A 
ENDBRANCH  29  30
ENDBRANCH  14  29
ENDBRANCH  11  14
ENDBRANCH   5  10
ENDBRANCH   1   5
BRANCH   3  36
ATOM     36  C   UNL A   1      32.052  26.195  26.102  1.00  0.00     0.116 C 
BRANCH  36  37
ATOM     37  C   UNL A   1      31.393  27.405  26.745  1.00  0.00     0.023 C 
BRANCH  37  38
ATOM     38  C   UNL A   1      32.249  28.079  27.815  1.00  0.00     0.023 C 
BRANCH  38  39
ATOM     39  C   UNL A   1      33.468  28.821  27.279  1.00  0.00     0.116 C 
BRANCH  39  40
ATOM     40  N   UNL A   1      33.500  30.217  27.691  1.00  0.00    -0.352 N 
ATOM     41  C   UNL A   1      34.516  30.908  28.312  1.00  0.00     0.251 C 
ATOM     42  H   UNL A   1      32.687  30.736  27.500  1.00  0.00     0.163 HD
ATOM     43  O   UNL A   1      34.340  32.034  28.738  1.00  0.00    -0.269 OA
BRANCH  41  44
ATOM     44  C   UNL A   1      35.821  30.237  28.480  1.00  0.00     0.039 A 
ATOM     45  C   UNL A   1      36.729  30.252  27.420  1.00  0.00     0.014 A 
ATOM     46  C   UNL A   1      36.159  29.651  29.703  1.00  0.00     0.014 A 
ATOM     47  C   UNL A   1      38.012  29.739  27.613  1.00  0.00     0.010 A 
ATOM     48  C   UNL A   1      37.462  29.220  29.918  1.00  0.00     0.010 A 
ATOM     49  C   UNL A   1      38.399  29.257  28.875  1.00  0.00    -0.014 A 
BRANCH  49  50
ATOM     50  C   UNL A   1      39.784  28.785  29.125  1.00  0.00     0.031 A 
ATOM     51  C   UNL A   1      40.792  29.710  29.748  1.00  0.00     0.074 A 
ATOM     52  C   UNL A   1      40.151  27.549  28.733  1.00  0.00     0.049 A 
ATOM     53  N   UNL A   1      42.060  29.504  29.994  1.00  0.00    -0.248 NA
ATOM     54  C   UNL A   1      40.318  31.054  30.121  1.00  0.00     0.031 C 
ATOM     55  C   UNL A   1      39.279  26.572  28.077  1.00  0.00     0.029 A 
ATOM     56  N   UNL A   1      41.359  26.905  28.825  1.00  0.00    -0.354 N 
ATOM     57  C   UNL A   1      42.537  30.693  30.532  1.00  0.00     0.074 A 
ATOM     58  C   UNL A   1      41.438  31.633  30.525  1.00  0.00     0.031 C 
ATOM     59  C   UNL A   1      39.973  25.444  27.855  1.00  0.00     0.029 A 
ATOM     60  C   UNL A   1      41.346  25.632  28.312  1.00  0.00     0.049 A 
ATOM     61  H   UNL A   1      42.160  27.318  29.222  1.00  0.00     0.167 HD
ATOM     62  C   UNL A   1      43.772  30.970  31.011  1.00  0.00     0.031 A 
ATOM     63  C   UNL A   1      42.330  24.719  28.214  1.00  0.00     0.031 A 
ATOM     64  C   UNL A   1      44.862  30.031  31.027  1.00  0.00     0.049 A 
ATOM     65  C   UNL A   1      43.698  25.058  28.739  1.00  0.00     0.074 A 
ATOM     66  C   UNL A   1      46.136  30.200  31.540  1.00  0.00     0.029 A 
ATOM     67  N   UNL A   1      44.804  28.750  30.503  1.00  0.00    -0.354 N 
ATOM     68  N   UNL A   1      44.115  26.163  29.309  1.00  0.00    -0.248 NA
ATOM     69  C   UNL A   1      44.729  24.019  28.615  1.00  0.00     0.031 C 
ATOM     70  C   UNL A   1      46.867  29.037  31.279  1.00  0.00     0.029 A 
ATOM     71  C   UNL A   1      46.030  28.123  30.659  1.00  0.00     0.049 A 
ATOM     72  H   UNL A   1      44.012  28.344  30.084  1.00  0.00     0.167 HD
ATOM     73  C   UNL A   1      45.444  25.940  29.639  1.00  0.00     0.074 A 
ATOM     74  C   UNL A   1      45.760  24.591  29.221  1.00  0.00     0.031 C 
ATOM     75  C   UNL A   1      46.326  26.779  30.237  1.00  0.00     0.031 A 
BRANCH  62  76
ATOM     76  C   UNL A   1      44.008  32.352  31.554  1.00  0.00    -0.014 A 
ATOM     77  C   UNL A   1      43.811  32.643  32.914  1.00  0.00     0.009 A 
ATOM     78  C   UNL A   1      44.466  33.369  30.703  1.00  0.00     0.009 A 
ATOM     79  C   UNL A   1      44.032  33.931  33.402  1.00  0.00     0.001 A 
ATOM     80  C   UNL A   1      44.714  34.651  31.199  1.00  0.00     0.001 A 
ATOM     81  C   UNL A   1      44.489  34.932  32.545  1.00  0.00     0.000 A 
ENDBRANCH  62  76
BRANCH  63  82
ATOM     82  C   UNL A   1      42.061  23.389  27.606  1.00  0.00    -0.014 A 
ATOM     83  C   UNL A   1      42.388  23.139  26.265  1.00  0.00     0.009 A 
ATOM     84  C   UNL A   1      41.464  22.366  28.360  1.00  0.00     0.009 A 
ATOM     85  C   UNL A   1      42.094  21.904  25.681  1.00  0.00     0.001 A 
ATOM     86  C   UNL A   1      41.199  21.122  27.783  1.00  0.00     0.001 A 
ATOM     87  C   UNL A   1      41.504  20.896  26.442  1.00  0.00     0.000 A 
ENDBRANCH  63  82
BRANCH  75  88
ATOM     88  C   UNL A   1      47.705  26.247  30.509  1.00  0.00    -0.014 A 
ATOM     89  C   UNL A   1      48.065  25.759  31.774  1.00  0.00     0.009 A 
ATOM     90  C   UNL A   1      48.645  26.195  29.467  1.00  0.00     0.009 A 
ATOM     91  C   UNL A   1      49.350  25.262  32.000  1.00  0.00     0.001 A 
ATOM     92  C   UNL A   1      49.918  25.669  29.687  1.00  0.00     0.001 A 
ATOM     93  C   UNL A   1      50.273  25.213  30.955  1.00  0.00     0.000 A 
ENDBRANCH  75  88
ENDBRANCH  49  50
ENDBRANCH  41  44
ENDBRANCH  39  40
ENDBRANCH  38  39
ENDBRANCH  37  38
ENDBRANCH  36  37
ENDBRANCH   3  36
TORSDOF 22
ENDMDL
MODEL 2
REMARK VINA RESULT:     -10.7      0.348      5.629
REMARK SMILES CC(C)C[C@H](NC(=O)[C@H](Cc1ccccc1)NC(=O)CNC(=O)C[NH3+])C(=O)NCCCCNC(=O)c1ccc(-c2c3nc(c(-c4ccccc4)c4ccc([nH]4)c(-c4ccccc4)c4nc(c(-c5ccccc5)c5ccc2[nH]5)C=C4)C=C3)cc1
REMARK SMILES IDX 26 1 27 2 28 3 5 5 4 6 2 7 1 8 3 9 6 10 7 11 8 13 9 14 17 15
REMARK SMILES IDX 18 16 19 18 20 19 21 20 22 21 23 23 24 24 25 25 10 29 11 30
REMARK SMILES IDX 12 31 16 32 13 33 15 34 14 35 29 36 30 37 31 38 32 39 33 40
REMARK SMILES IDX 34 41 35 43 36 44 37 45 83 46 38 47 82 48 39 49 40 50 41 51
REMARK SMILES IDX 76 52 42 53 81 54 75 55 77 56 43 57 80 58 74 59 73 60 44 62
REMARK SMILES IDX 66 63 51 64 65 65 52 66 55 67 64 68 78 69 53 70 54 71 63 73
REMARK SMILES IDX 79 74 56 75 45 76 46 77 50 78 47 79 49 80 48 81 67 82 68 83
REMARK SMILES IDX 72 84 69 85 71 86 70 87 57 88 58 89 62 90 59 91 61 92 60 93
REMARK H PARENT 28 4 6 12 17 17 21 22 25 26 25 27 25 28 33 42 77 61 55 72
REMARK Flexibility Score: inf
ROOT
ATOM      1  C   UNL A   1      30.652  25.604  23.897  1.00  0.00     0.242 C 
ATOM      2  O   UNL A   1      29.953  24.702  23.429  1.00  0.00    -0.273 OA
ATOM      3  N   UNL A   1      31.096  25.463  25.180  1.00  0.00    -0.354 N 
ATOM      4  H   UNL A   1      30.697  24.709  25.673  1.00  0.00     0.163 HD
ENDROOT
BRANCH   1   5
ATOM      5  C   UNL A   1      31.107  26.791  23.027  1.00  0.00     0.171 C 
BRANCH   5   6
ATOM      6  C   UNL A   1      29.900  27.723  22.784  1.00  0.00     0.038 C 
BRANCH   6   7
ATOM      7  C   UNL A   1      30.201  29.233  22.680  1.00  0.00    -0.015 C 
ATOM      8  C   UNL A   1      29.049  30.084  22.153  1.00  0.00     0.007 C 
ATOM      9  C   UNL A   1      30.613  29.747  24.065  1.00  0.00     0.007 C 
ENDBRANCH   6   7
ENDBRANCH   5   6
BRANCH   5  10
ATOM     10  N   UNL A   1      31.686  26.292  21.771  1.00  0.00    -0.343 N 
ATOM     11  C   UNL A   1      32.687  25.430  21.461  1.00  0.00     0.243 C 
ATOM     12  H   UNL A   1      31.249  26.670  20.973  1.00  0.00     0.164 HD
ATOM     13  O   UNL A   1      33.041  25.465  20.274  1.00  0.00    -0.273 OA
BRANCH  11  14
ATOM     14  C   UNL A   1      33.270  24.357  22.431  1.00  0.00     0.175 C 
BRANCH  14  15
ATOM     15  N   UNL A   1      32.814  23.058  21.939  1.00  0.00    -0.342 N 
ATOM     16  C   UNL A   1      32.323  21.991  22.624  1.00  0.00     0.240 C 
ATOM     17  H   UNL A   1      32.871  22.938  20.963  1.00  0.00     0.164 HD
ATOM     18  O   UNL A   1      31.870  21.050  21.964  1.00  0.00    -0.273 OA
BRANCH  16  19
ATOM     19  C   UNL A   1      32.175  22.007  24.154  1.00  0.00     0.216 C 
BRANCH  19  20
ATOM     20  N   UNL A   1      31.848  20.737  24.789  1.00  0.00    -0.342 N 
ATOM     21  C   UNL A   1      32.693  19.713  25.114  1.00  0.00     0.275 C 
ATOM     22  H   UNL A   1      30.899  20.600  25.012  1.00  0.00     0.164 HD
ATOM     23  O   UNL A   1      32.215  18.635  25.470  1.00  0.00    -0.268 OA
BRANCH  21  24
ATOM     24  C   UNL A   1      34.208  19.900  24.960  1.00  0.00     0.360 C 
BRANCH  24  25
ATOM     25  N   UNL A   1      34.748  20.661  26.097  1.00  0.00    -0.350 N 
ATOM     26  H   UNL A   1      35.706  20.943  25.893  1.00  0.00     0.344 HD
ATOM     27  H   UNL A   1      34.738  20.075  26.932  1.00  0.00     0.344 HD
ATOM     28  H   UNL A   1      34.175  21.489  26.256  1.00  0.00     0.344 HD
ENDBRANCH  24  25
ENDBRANCH  21  24
ENDBRANCH  19  20
ENDBRANCH  16  19
ENDBRANCH  14  15
BRANCH  14  29
ATOM     29  C   UNL A   1      34.780  24.419  22.667  1.00  0.00     0.070 C 
BRANCH  29  30
ATOM     30  C   UNL A   1      35.549  23.687  23.747  1.00  0.00    -0.045 A 
ATOM     31  C   UNL A   1      35.521  24.213  25.052  1.00  0.00     0.004 A 
ATOM     32  C   UNL A   1      36.489  22.692  23.460  1.00  0.00     0.004 A 
ATOM     33  C   UNL A   1      36.442  23.806  26.017  1.00  0.00     0.000 A 
ATOM     34  C   UNL A   1      37.387  22.255  24.439  1.00  0.00     0.000 A 
ATOM     35  C   UNL A   1      37.380  22.830  25.707  1.00  0.00     0.000 A 
ENDBRANCH  29  30
ENDBRANCH  14  29
ENDBRANCH  11  14
ENDBRANCH   5  10
ENDBRANCH   1   5
BRANCH   3  36
ATOM     36  C   UNL A   1      32.063  26.241  25.939  1.00  0.00     0.116 C 
BRANCH  36  37
ATOM     37  C   UNL A   1      31.400  27.399  26.668  1.00  0.00     0.023 C 
BRANCH  37  38
ATOM     38  C   UNL A   1      32.253  27.995  27.785  1.00  0.00     0.023 C 
BRANCH  38  39
ATOM     39  C   UNL A   1      33.505  28.723  27.308  1.00  0.00     0.116 C 
BRANCH  39  40
ATOM     40  N   UNL A   1      33.508  30.132  27.672  1.00  0.00    -0.352 N 
ATOM     41  C   UNL A   1      34.514  30.868  28.256  1.00  0.00     0.251 C 
ATOM     42  H   UNL A   1      32.680  30.625  27.474  1.00  0.00     0.163 HD
ATOM     43  O   UNL A   1      34.315  32.004  28.646  1.00  0.00    -0.269 OA
BRANCH  41  44
ATOM     44  C   UNL A   1      35.837  30.235  28.430  1.00  0.00     0.039 A 
ATOM     45  C   UNL A   1      36.737  30.251  27.364  1.00  0.00     0.014 A 
ATOM     46  C   UNL A   1      36.198  29.686  29.664  1.00  0.00     0.014 A 
ATOM     47  C   UNL A   1      38.035  29.776  27.559  1.00  0.00     0.010 A 
ATOM     48  C   UNL A   1      37.513  29.294  29.879  1.00  0.00     0.010 A 
ATOM     49  C   UNL A   1      38.443  29.332  28.829  1.00  0.00    -0.014 A 
BRANCH  49  50
ATOM     50  C   UNL A   1      39.840  28.902  29.080  1.00  0.00     0.031 A 
ATOM     51  C   UNL A   1      40.285  27.522  28.681  1.00  0.00     0.074 A 
ATOM     52  C   UNL A   1      40.689  29.728  29.723  1.00  0.00     0.049 A 
ATOM     53  N   UNL A   1      41.443  26.943  28.866  1.00  0.00    -0.248 NA
ATOM     54  C   UNL A   1      39.287  26.672  28.010  1.00  0.00     0.031 C 
ATOM     55  C   UNL A   1      40.367  31.074  30.201  1.00  0.00     0.029 A 
ATOM     56  N   UNL A   1      41.999  29.551  30.091  1.00  0.00    -0.354 N 
ATOM     57  C   UNL A   1      41.308  25.660  28.350  1.00  0.00     0.074 A 
ATOM     58  C   UNL A   1      39.942  25.526  27.897  1.00  0.00     0.031 C 
ATOM     59  C   UNL A   1      41.458  31.611  30.771  1.00  0.00     0.029 A 
ATOM     60  C   UNL A   1      42.542  30.635  30.737  1.00  0.00     0.049 A 
ATOM     61  H   UNL A   1      42.502  28.724  29.909  1.00  0.00     0.167 HD
ATOM     62  C   UNL A   1      42.244  24.689  28.242  1.00  0.00     0.031 A 
ATOM     63  C   UNL A   1      43.772  30.819  31.250  1.00  0.00     0.031 A 
ATOM     64  C   UNL A   1      43.606  24.826  28.683  1.00  0.00     0.049 A 
ATOM     65  C   UNL A   1      44.789  29.718  31.131  1.00  0.00     0.074 A 
ATOM     66  C   UNL A   1      44.644  23.918  28.569  1.00  0.00     0.029 A 
ATOM     67  N   UNL A   1      44.116  25.942  29.326  1.00  0.00    -0.354 N 
ATOM     68  N   UNL A   1      44.666  28.536  30.577  1.00  0.00    -0.248 NA
ATOM     69  C   UNL A   1      46.118  29.981  31.699  1.00  0.00     0.031 C 
ATOM     70  C   UNL A   1      45.771  24.465  29.190  1.00  0.00     0.029 A 
ATOM     71  C   UNL A   1      45.451  25.737  29.636  1.00  0.00     0.049 A 
ATOM     72  H   UNL A   1      43.608  26.760  29.531  1.00  0.00     0.167 HD
ATOM     73  C   UNL A   1      45.908  27.928  30.703  1.00  0.00     0.074 A 
ATOM     74  C   UNL A   1      46.774  28.877  31.370  1.00  0.00     0.031 C 
ATOM     75  C   UNL A   1      46.297  26.694  30.301  1.00  0.00     0.031 A 
BRANCH  62  76
ATOM     76  C   UNL A   1      41.819  23.386  27.622  1.00  0.00    -0.014 A 
ATOM     77  C   UNL A   1      41.948  23.161  26.242  1.00  0.00     0.009 A 
ATOM     78  C   UNL A   1      41.315  22.357  28.432  1.00  0.00     0.009 A 
ATOM     79  C   UNL A   1      41.546  21.948  25.681  1.00  0.00     0.001 A 
ATOM     80  C   UNL A   1      40.941  21.134  27.874  1.00  0.00     0.001 A 
ATOM     81  C   UNL A   1      41.048  20.933  26.499  1.00  0.00     0.000 A 
ENDBRANCH  62  76
BRANCH  63  82
ATOM     82  C   UNL A   1      44.122  32.104  31.914  1.00  0.00    -0.014 A 
ATOM     83  C   UNL A   1      44.668  33.163  31.174  1.00  0.00     0.009 A 
ATOM     84  C   UNL A   1      43.922  32.272  33.293  1.00  0.00     0.009 A 
ATOM     85  C   UNL A   1      45.038  34.352  31.806  1.00  0.00     0.001 A 
ATOM     86  C   UNL A   1      44.263  33.474  33.917  1.00  0.00     0.001 A 
ATOM     87  C   UNL A   1      44.831  34.509  33.176  1.00  0.00     0.000 A 
ENDBRANCH  63  82
BRANCH  75  88
ATOM     88  C   UNL A   1      47.732  26.314  30.537  1.00  0.00    -0.014 A 
ATOM     89  C   UNL A   1      48.149  25.750  31.752  1.00  0.00     0.009 A 
ATOM     90  C   UNL A   1      48.673  26.486  29.509  1.00  0.00     0.009 A 
ATOM     91  C   UNL A   1      49.486  25.398  31.945  1.00  0.00     0.001 A 
ATOM     92  C   UNL A   1      50.002  26.104  29.693  1.00  0.00     0.001 A 
ATOM     93  C   UNL A   1      50.410  25.570  30.914  1.00  0.00     0.000 A 
ENDBRANCH  75  88
ENDBRANCH  49  50
ENDBRANCH  41  44
ENDBRANCH  39  40
ENDBRANCH  38  39
ENDBRANCH  37  38
ENDBRANCH  36  37
ENDBRANCH   3  36
TORSDOF 22
ENDMDL
MODEL 3
REMARK VINA RESULT:     -10.5      3.264      4.925
REMARK SMILES CC(C)C[C@H](NC(=O)[C@H](Cc1ccccc1)NC(=O)CNC(=O)C[NH3+])C(=O)NCCCCNC(=O)c1ccc(-c2c3nc(c(-c4ccccc4)c4ccc([nH]4)c(-c4ccccc4)c4nc(c(-c5ccccc5)c5ccc2[nH]5)C=C4)C=C3)cc1
REMARK SMILES IDX 26 1 27 2 28 3 5 5 4 6 2 7 1 8 3 9 6 10 7 11 8 13 9 14 17 15
REMARK SMILES IDX 18 16 19 18 20 19 21 20 22 21 23 23 24 24 25 25 10 29 11 30
REMARK SMILES IDX 12 31 16 32 13 33 15 34 14 35 29 36 30 37 31 38 32 39 33 40
REMARK SMILES IDX 34 41 35 43 36 44 37 45 83 46 38 47 82 48 39 49 40 50 41 51
REMARK SMILES IDX 76 52 42 53 81 54 75 55 77 56 43 57 80 58 74 59 73 60 44 62
REMARK SMILES IDX 66 63 51 64 65 65 52 66 55 67 64 68 78 69 53 70 54 71 63 73
REMARK SMILES IDX 79 74 56 75 45 76 46 77 50 78 47 79 49 80 48 81 67 82 68 83
REMARK SMILES IDX 72 84 69 85 71 86 70 87 57 88 58 89 62 90 59 91 61 92 60 93
REMARK H PARENT 28 4 6 12 17 17 21 22 25 26 25 27 25 28 33 42 77 61 55 72
REMARK Flexibility Score: inf
ROOT
ATOM      1  C   UNL A   1      34.251  28.718  27.013  1.00  0.00     0.242 C 
ATOM      2  O   UNL A   1      35.400  28.913  27.417  1.00  0.00    -0.273 OA
ATOM      3  N   UNL A   1      33.272  29.562  27.451  1.00  0.00    -0.354 N 
ATOM      4  H   UNL A   1      33.549  30.175  28.171  1.00  0.00     0.163 HD
ENDROOT
BRANCH   1   5
ATOM      5  C   UNL A   1      33.951  27.635  25.960  1.00  0.00     0.171 C 
BRANCH   5   6
ATOM      6  C   UNL A   1      33.692  28.318  24.600  1.00  0.00     0.038 C 
BRANCH   6   7
ATOM      7  C   UNL A   1      32.636  27.662  23.685  1.00  0.00    -0.015 C 
ATOM      8  C   UNL A   1      31.616  28.625  23.085  1.00  0.00     0.007 C 
ATOM      9  C   UNL A   1      33.359  26.925  22.551  1.00  0.00     0.007 C 
ENDBRANCH   6   7
ENDBRANCH   5   6
BRANCH   5  10
ATOM     10  N   UNL A   1      32.809  26.819  26.399  1.00  0.00    -0.343 N 
ATOM     11  C   UNL A   1      32.443  25.524  26.227  1.00  0.00     0.243 C 
ATOM     12  H   UNL A   1      32.163  27.328  26.940  1.00  0.00     0.164 HD
ATOM     13  O   UNL A   1      31.271  25.278  26.547  1.00  0.00    -0.273 OA
BRANCH  11  14
ATOM     14  C   UNL A   1      33.412  24.371  25.819  1.00  0.00     0.175 C 
BRANCH  14  15
ATOM     15  N   UNL A   1      32.650  23.471  24.956  1.00  0.00    -0.342 N 
ATOM     16  C   UNL A   1      32.630  22.111  24.918  1.00  0.00     0.240 C 
ATOM     17  H   UNL A   1      32.062  23.916  24.304  1.00  0.00     0.164 HD
ATOM     18  O   UNL A   1      31.790  21.575  24.187  1.00  0.00    -0.273 OA
BRANCH  16  19
ATOM     19  C   UNL A   1      33.493  21.260  25.862  1.00  0.00     0.216 C 
BRANCH  19  20
ATOM     20  N   UNL A   1      32.941  19.973  26.265  1.00  0.00    -0.342 N 
ATOM     21  C   UNL A   1      33.034  18.774  25.615  1.00  0.00     0.275 C 
ATOM     22  H   UNL A   1      32.438  19.967  27.111  1.00  0.00     0.164 HD
ATOM     23  O   UNL A   1      32.343  17.830  26.003  1.00  0.00    -0.268 OA
BRANCH  21  24
ATOM     24  C   UNL A   1      33.934  18.647  24.379  1.00  0.00     0.360 C 
BRANCH  24  25
ATOM     25  N   UNL A   1      35.322  18.375  24.783  1.00  0.00    -0.350 N 
ATOM     26  H   UNL A   1      35.418  17.391  25.028  1.00  0.00     0.344 HD
ATOM     27  H   UNL A   1      35.559  18.951  25.591  1.00  0.00     0.344 HD
ATOM     28  H   UNL A   1      35.951  18.598  24.011  1.00  0.00     0.344 HD
ENDBRANCH  24  25
ENDBRANCH  21  24
ENDBRANCH  19  20
ENDBRANCH  16  19
ENDBRANCH  14  15
BRANCH  14  29
ATOM     29  C   UNL A   1      34.748  24.804  25.213  1.00  0.00     0.070 C 
BRANCH  29  30
ATOM     30  C   UNL A   1      35.986  23.945  25.069  1.00  0.00    -0.045 A 
ATOM     31  C   UNL A   1      36.039  23.034  23.997  1.00  0.00     0.004 A 
ATOM     32  C   UNL A   1      36.939  23.818  26.085  1.00  0.00     0.004 A 
ATOM     33  C   UNL A   1      36.969  21.995  23.974  1.00  0.00     0.000 A 
ATOM     34  C   UNL A   1      37.897  22.801  26.042  1.00  0.00     0.000 A 
ATOM     35  C   UNL A   1      37.895  21.876  25.003  1.00  0.00     0.000 A 
ENDBRANCH  29  30
ENDBRANCH  14  29
ENDBRANCH  11  14
ENDBRANCH   5  10
ENDBRANCH   1   5
BRANCH   3  36
ATOM     36  C   UNL A   1      31.888  29.707  27.027  1.00  0.00     0.116 C 
BRANCH  36  37
ATOM     37  C   UNL A   1      31.709  30.900  26.101  1.00  0.00     0.023 C 
BRANCH  37  38
ATOM     38  C   UNL A   1      31.413  32.209  26.829  1.00  0.00     0.023 C 
BRANCH  38  39
ATOM     39  C   UNL A   1      32.647  32.948  27.334  1.00  0.00     0.116 C 
BRANCH  39  40
ATOM     40  N   UNL A   1      32.370  34.335  27.677  1.00  0.00    -0.352 N 
ATOM     41  C   UNL A   1      32.976  35.125  28.628  1.00  0.00     0.251 C 
ATOM     42  H   UNL A   1      31.652  34.766  27.160  1.00  0.00     0.163 HD
ATOM     43  O   UNL A   1      32.530  36.221  28.909  1.00  0.00    -0.269 OA
BRANCH  41  44
ATOM     44  C   UNL A   1      34.166  34.595  29.325  1.00  0.00     0.039 A 
ATOM     45  C   UNL A   1      34.002  33.980  30.566  1.00  0.00     0.014 A 
ATOM     46  C   UNL A   1      35.423  34.659  28.717  1.00  0.00     0.014 A 
ATOM     47  C   UNL A   1      35.096  33.360  31.170  1.00  0.00     0.010 A 
ATOM     48  C   UNL A   1      36.489  33.968  29.280  1.00  0.00     0.010 A 
ATOM     49  C   UNL A   1      36.337  33.315  30.512  1.00  0.00    -0.014 A 
BRANCH  49  50
ATOM     50  C   UNL A   1      37.491  32.588  31.097  1.00  0.00     0.031 A 
ATOM     51  C   UNL A   1      38.108  33.069  32.381  1.00  0.00     0.074 A 
ATOM     52  C   UNL A   1      38.023  31.539  30.441  1.00  0.00     0.049 A 
ATOM     53  N   UNL A   1      39.152  32.606  33.019  1.00  0.00    -0.248 NA
ATOM     54  C   UNL A   1      37.485  34.241  33.019  1.00  0.00     0.031 C 
ATOM     55  C   UNL A   1      37.544  31.002  29.165  1.00  0.00     0.029 A 
ATOM     56  N   UNL A   1      39.090  30.736  30.758  1.00  0.00    -0.354 N 
ATOM     57  C   UNL A   1      39.320  33.437  34.119  1.00  0.00     0.074 A 
ATOM     58  C   UNL A   1      38.307  34.465  34.033  1.00  0.00     0.031 C 
ATOM     59  C   UNL A   1      38.296  29.942  28.825  1.00  0.00     0.029 A 
ATOM     60  C   UNL A   1      39.333  29.750  29.833  1.00  0.00     0.049 A 
ATOM     61  H   UNL A   1      39.632  30.857  31.571  1.00  0.00     0.167 HD
ATOM     62  C   UNL A   1      40.221  33.339  35.124  1.00  0.00     0.031 A 
ATOM     63  C   UNL A   1      40.287  28.802  29.797  1.00  0.00     0.031 A 
ATOM     64  C   UNL A   1      41.222  32.311  35.215  1.00  0.00     0.049 A 
ATOM     65  C   UNL A   1      41.287  28.725  30.918  1.00  0.00     0.074 A 
ATOM     66  C   UNL A   1      42.146  32.095  36.222  1.00  0.00     0.029 A 
ATOM     67  N   UNL A   1      41.429  31.327  34.260  1.00  0.00    -0.354 N 
ATOM     68  N   UNL A   1      41.388  29.476  31.988  1.00  0.00    -0.248 NA
ATOM     69  C   UNL A   1      42.297  27.663  30.830  1.00  0.00     0.031 C 
ATOM     70  C   UNL A   1      42.948  31.011  35.851  1.00  0.00     0.029 A 
ATOM     71  C   UNL A   1      42.484  30.515  34.644  1.00  0.00     0.049 A 
ATOM     72  H   UNL A   1      40.905  31.221  33.434  1.00  0.00     0.167 HD
ATOM     73  C   UNL A   1      42.452  28.959  32.714  1.00  0.00     0.074 A 
ATOM     74  C   UNL A   1      42.952  27.821  31.972  1.00  0.00     0.031 C 
ATOM     75  C   UNL A   1      42.968  29.387  33.892  1.00  0.00     0.031 A 
BRANCH  62  76
ATOM     76  C   UNL A   1      40.164  34.381  36.206  1.00  0.00    -0.014 A 
ATOM     77  C   UNL A   1      39.377  34.196  37.354  1.00  0.00     0.009 A 
ATOM     78  C   UNL A   1      40.934  35.550  36.094  1.00  0.00     0.009 A 
ATOM     79  C   UNL A   1      39.333  35.175  38.348  1.00  0.00     0.001 A 
ATOM     80  C   UNL A   1      40.911  36.514  37.103  1.00  0.00     0.001 A 
ATOM     81  C   UNL A   1      40.104  36.330  38.224  1.00  0.00     0.000 A 
ENDBRANCH  62  76
BRANCH  63  82
ATOM     82  C   UNL A   1      40.340  27.836  28.668  1.00  0.00    -0.014 A 
ATOM     83  C   UNL A   1      41.043  28.148  27.495  1.00  0.00     0.009 A 
ATOM     84  C   UNL A   1      39.678  26.601  28.753  1.00  0.00     0.009 A 
ATOM     85  C   UNL A   1      41.056  27.260  26.417  1.00  0.00     0.001 A 
ATOM     86  C   UNL A   1      39.718  25.700  27.685  1.00  0.00     0.001 A 
ATOM     87  C   UNL A   1      40.397  26.035  26.515  1.00  0.00     0.000 A 
ENDBRANCH  63  82
BRANCH  75  88
ATOM     88  C   UNL A   1      44.110  28.598  34.470  1.00  0.00    -0.014 A 
ATOM     89  C   UNL A   1      45.443  28.909  34.164  1.00  0.00     0.009 A 
ATOM     90  C   UNL A   1      43.844  27.553  35.369  1.00  0.00     0.009 A 
ATOM     91  C   UNL A   1      46.487  28.167  34.720  1.00  0.00     0.001 A 
ATOM     92  C   UNL A   1      44.890  26.833  35.947  1.00  0.00     0.001 A 
ATOM     93  C   UNL A   1      46.209  27.133  35.615  1.00  0.00     0.000 A 
ENDBRANCH  75  88
ENDBRANCH  49  50
ENDBRANCH  41  44
ENDBRANCH  39  40
ENDBRANCH  38  39
ENDBRANCH  37  38
ENDBRANCH  36  37
ENDBRANCH   3  36
TORSDOF 22
ENDMDL
