MODEL 1
REMARK VINA RESULT:     -10.5      0.000      0.000
REMARK SMILES CC[C@](C)(NS(=O)(=O)Cc1cc(C)on1)C(=O)NCCCCNC(=O)c1ccc(-c2c3nc(c(-c4ccccc4)c4ccc([nH]4)c(-c4ccccc4)c4nc(c(-c5ccccc5)c5ccc2[nH]5)C=C4)C=C3)cc1
REMARK SMILES IDX 19 1 18 2 16 3 17 4 3 6 4 7 2 8 1 9 5 10 6 12 7 13 8 14 9 15
REMARK SMILES IDX 10 16 11 17 15 18 12 19 14 20 13 21 20 22 21 23 22 24 23 25
REMARK SMILES IDX 24 26 25 28 26 29 27 30 73 31 28 32 72 33 29 34 30 35 31 36
REMARK SMILES IDX 66 37 32 38 71 39 65 40 67 41 33 42 70 43 64 44 63 45 34 47
REMARK SMILES IDX 56 48 41 49 55 50 42 51 45 52 54 53 68 54 43 55 44 56 53 58
REMARK SMILES IDX 69 59 46 60 35 61 36 62 40 63 37 64 39 65 38 66 57 67 58 68
REMARK SMILES IDX 62 69 59 70 61 71 60 72 47 73 48 74 52 75 49 76 51 77 50 78
REMARK H PARENT 18 5 5 11 23 27 67 46 45 57
REMARK Flexibility Score: inf
ROOT
ATOM      1  C   UNL A   1      36.888  21.931  25.464  1.00  0.00     0.116 C 
ENDROOT
BRANCH   1   2
ATOM      2  N   UNL A   1      35.961  22.312  26.518  1.00  0.00    -0.354 N 
ATOM      3  C   UNL A   1      34.697  22.802  26.605  1.00  0.00     0.240 C 
ATOM      4  O   UNL A   1      34.305  22.887  27.780  1.00  0.00    -0.273 OA
ATOM      5  H   UNL A   1      36.356  22.179  27.409  1.00  0.00     0.163 HD
BRANCH   3   6
ATOM      6  C   UNL A   1      33.797  23.315  25.437  1.00  0.00     0.108 C 
ATOM      7  C   UNL A   1      34.653  24.404  24.718  1.00  0.00     0.040 C 
BRANCH   6   8
ATOM      8  C   UNL A   1      32.485  23.962  25.926  1.00  0.00     0.030 C 
ATOM      9  C   UNL A   1      32.465  25.479  26.082  1.00  0.00     0.006 C 
ENDBRANCH   6   8
BRANCH   6  10
ATOM     10  N   UNL A   1      33.578  22.313  24.359  1.00  0.00    -0.200 NA
ATOM     11  H   UNL A   1      33.313  21.458  24.848  1.00  0.00     0.142 HD
BRANCH  10  12
ATOM     12  S   UNL A   1      32.526  22.416  23.091  1.00  0.00     0.218 S 
ATOM     13  O   UNL A   1      31.347  23.081  23.603  1.00  0.00    -0.212 OA
ATOM     14  O   UNL A   1      33.271  23.053  22.027  1.00  0.00    -0.212 OA
BRANCH  12  15
ATOM     15  C   UNL A   1      32.129  20.724  22.602  1.00  0.00     0.213 C 
BRANCH  15  16
ATOM     16  C   UNL A   1      32.357  19.687  23.627  1.00  0.00     0.100 A 
ATOM     17  C   UNL A   1      32.758  18.348  23.420  1.00  0.00     0.073 A 
ATOM     18  N   UNL A   1      32.012  19.899  24.904  1.00  0.00    -0.084 NA
ATOM     19  C   UNL A   1      32.626  17.761  24.651  1.00  0.00     0.133 A 
ATOM     20  O   UNL A   1      32.196  18.687  25.548  1.00  0.00    -0.361 OA
ATOM     21  C   UNL A   1      32.822  16.394  25.158  1.00  0.00     0.091 C 
ENDBRANCH  15  16
ENDBRANCH  12  15
ENDBRANCH  10  12
ENDBRANCH   6  10
ENDBRANCH   3   6
ENDBRANCH   1   2
BRANCH   1  22
ATOM     22  C   UNL A   1      36.681  20.514  24.931  1.00  0.00     0.023 C 
BRANCH  22  23
ATOM     23  C   UNL A   1      37.919  19.621  24.898  1.00  0.00     0.023 C 
BRANCH  23  24
ATOM     24  C   UNL A   1      39.019  20.095  25.823  1.00  0.00     0.116 C 
BRANCH  24  25
ATOM     25  N   UNL A   1      40.116  19.136  25.889  1.00  0.00    -0.352 N 
ATOM     26  C   UNL A   1      41.454  19.361  26.077  1.00  0.00     0.251 C 
ATOM     27  H   UNL A   1      39.858  18.192  25.781  1.00  0.00     0.163 HD
ATOM     28  O   UNL A   1      42.267  18.461  25.896  1.00  0.00    -0.269 OA
BRANCH  26  29
ATOM     29  C   UNL A   1      41.905  20.701  26.493  1.00  0.00     0.039 A 
ATOM     30  C   UNL A   1      42.066  20.974  27.853  1.00  0.00     0.014 A 
ATOM     31  C   UNL A   1      42.167  21.679  25.532  1.00  0.00     0.014 A 
ATOM     32  C   UNL A   1      42.530  22.228  28.244  1.00  0.00     0.010 A 
ATOM     33  C   UNL A   1      42.734  22.881  25.915  1.00  0.00     0.010 A 
ATOM     34  C   UNL A   1      42.886  23.179  27.274  1.00  0.00    -0.014 A 
BRANCH  34  35
ATOM     35  C   UNL A   1      43.355  24.528  27.651  1.00  0.00     0.031 A 
ATOM     36  C   UNL A   1      42.346  25.574  28.037  1.00  0.00     0.074 A 
ATOM     37  C   UNL A   1      44.665  24.822  27.571  1.00  0.00     0.049 A 
ATOM     38  N   UNL A   1      42.531  26.837  28.316  1.00  0.00    -0.248 NA
ATOM     39  C   UNL A   1      40.933  25.153  28.072  1.00  0.00     0.031 C 
ATOM     40  C   UNL A   1      45.721  23.897  27.154  1.00  0.00     0.029 A 
ATOM     41  N   UNL A   1      45.330  25.991  27.832  1.00  0.00    -0.354 N 
ATOM     42  C   UNL A   1      41.263  27.362  28.528  1.00  0.00     0.074 A 
ATOM     43  C   UNL A   1      40.313  26.302  28.282  1.00  0.00     0.031 C 
ATOM     44  C   UNL A   1      46.906  24.524  27.222  1.00  0.00     0.029 A 
ATOM     45  C   UNL A   1      46.688  25.901  27.647  1.00  0.00     0.049 A 
ATOM     46  H   UNL A   1      44.879  26.815  28.125  1.00  0.00     0.167 HD
ATOM     47  C   UNL A   1      40.922  28.610  28.924  1.00  0.00     0.031 A 
ATOM     48  C   UNL A   1      47.645  26.833  27.806  1.00  0.00     0.031 A 
ATOM     49  C   UNL A   1      41.878  29.646  29.195  1.00  0.00     0.049 A 
ATOM     50  C   UNL A   1      47.244  28.205  28.267  1.00  0.00     0.074 A 
ATOM     51  C   UNL A   1      41.657  30.928  29.661  1.00  0.00     0.029 A 
ATOM     52  N   UNL A   1      43.249  29.508  29.027  1.00  0.00    -0.354 N 
ATOM     53  N   UNL A   1      46.046  28.671  28.532  1.00  0.00    -0.248 NA
ATOM     54  C   UNL A   1      48.328  29.176  28.468  1.00  0.00     0.031 C 
ATOM     55  C   UNL A   1      42.891  31.581  29.736  1.00  0.00     0.029 A 
ATOM     56  C   UNL A   1      43.885  30.687  29.367  1.00  0.00     0.049 A 
ATOM     57  H   UNL A   1      43.700  28.691  28.713  1.00  0.00     0.167 HD
ATOM     58  C   UNL A   1      46.233  29.980  28.954  1.00  0.00     0.074 A 
ATOM     59  C   UNL A   1      47.662  30.226  28.928  1.00  0.00     0.031 C 
ATOM     60  C   UNL A   1      45.309  30.899  29.328  1.00  0.00     0.031 A 
BRANCH  47  61
ATOM     61  C   UNL A   1      39.456  28.907  29.086  1.00  0.00    -0.014 A 
ATOM     62  C   UNL A   1      38.690  29.406  28.020  1.00  0.00     0.009 A 
ATOM     63  C   UNL A   1      38.828  28.679  30.320  1.00  0.00     0.009 A 
ATOM     64  C   UNL A   1      37.340  29.713  28.197  1.00  0.00     0.001 A 
ATOM     65  C   UNL A   1      37.469  28.956  30.486  1.00  0.00     0.001 A 
ATOM     66  C   UNL A   1      36.730  29.482  29.429  1.00  0.00     0.000 A 
ENDBRANCH  47  61
BRANCH  48  67
ATOM     67  C   UNL A   1      49.069  26.486  27.559  1.00  0.00    -0.014 A 
ATOM     68  C   UNL A   1      49.613  26.595  26.270  1.00  0.00     0.009 A 
ATOM     69  C   UNL A   1      49.894  26.058  28.610  1.00  0.00     0.009 A 
ATOM     70  C   UNL A   1      50.948  26.258  26.034  1.00  0.00     0.001 A 
ATOM     71  C   UNL A   1      51.236  25.750  28.376  1.00  0.00     0.001 A 
ATOM     72  C   UNL A   1      51.759  25.841  27.087  1.00  0.00     0.000 A 
ENDBRANCH  48  67
BRANCH  60  73
ATOM     73  C   UNL A   1      45.822  32.239  29.768  1.00  0.00    -0.014 A 
ATOM     74  C   UNL A   1      45.968  33.296  28.857  1.00  0.00     0.009 A 
ATOM     75  C   UNL A   1      46.119  32.456  31.122  1.00  0.00     0.009 A 
ATOM     76  C   UNL A   1      46.435  34.537  29.290  1.00  0.00     0.001 A 
ATOM     77  C   UNL A   1      46.555  33.707  31.557  1.00  0.00     0.001 A 
ATOM     78  C   UNL A   1      46.722  34.744  30.639  1.00  0.00     0.000 A 
ENDBRANCH  60  73
ENDBRANCH  34  35
ENDBRANCH  26  29
ENDBRANCH  24  25
ENDBRANCH  23  24
ENDBRANCH  22  23
ENDBRANCH   1  22
TORSDOF 16
ENDMDL
MODEL 2
REMARK VINA RESULT:     -10.5      1.456      6.251
REMARK SMILES CC[C@](C)(NS(=O)(=O)Cc1cc(C)on1)C(=O)NCCCCNC(=O)c1ccc(-c2c3nc(c(-c4ccccc4)c4ccc([nH]4)c(-c4ccccc4)c4nc(c(-c5ccccc5)c5ccc2[nH]5)C=C4)C=C3)cc1
REMARK SMILES IDX 19 1 18 2 16 3 17 4 3 6 4 7 2 8 1 9 5 10 6 12 7 13 8 14 9 15
REMARK SMILES IDX 10 16 11 17 15 18 12 19 14 20 13 21 20 22 21 23 22 24 23 25
REMARK SMILES IDX 24 26 25 28 26 29 27 30 73 31 28 32 72 33 29 34 30 35 31 36
REMARK SMILES IDX 66 37 32 38 71 39 65 40 67 41 33 42 70 43 64 44 63 45 34 47
REMARK SMILES IDX 56 48 41 49 55 50 42 51 45 52 54 53 68 54 43 55 44 56 53 58
REMARK SMILES IDX 69 59 46 60 35 61 36 62 40 63 37 64 39 65 38 66 57 67 58 68
REMARK SMILES IDX 62 69 59 70 61 71 60 72 47 73 48 74 52 75 49 76 51 77 50 78
REMARK H PARENT 18 5 5 11 23 27 67 46 45 57
REMARK Flexibility Score: inf
ROOT
ATOM      1  C   UNL A   1      37.371  21.888  25.240  1.00  0.00     0.116 C 
ENDROOT
BRANCH   1   2
ATOM      2  N   UNL A   1      36.330  22.332  26.153  1.00  0.00    -0.354 N 
ATOM      3  C   UNL A   1      35.050  22.779  26.065  1.00  0.00     0.240 C 
ATOM      4  O   UNL A   1      34.537  22.960  27.181  1.00  0.00    -0.273 OA
ATOM      5  H   UNL A   1      36.635  22.301  27.088  1.00  0.00     0.163 HD
BRANCH   3   6
ATOM      6  C   UNL A   1      34.260  23.142  24.768  1.00  0.00     0.108 C 
ATOM      7  C   UNL A   1      35.347  23.622  23.756  1.00  0.00     0.040 C 
BRANCH   6   8
ATOM      8  C   UNL A   1      33.245  24.283  24.980  1.00  0.00     0.030 C 
ATOM      9  C   UNL A   1      33.734  25.710  24.756  1.00  0.00     0.006 C 
ENDBRANCH   6   8
BRANCH   6  10
ATOM     10  N   UNL A   1      33.669  21.966  24.072  1.00  0.00    -0.200 NA
ATOM     11  H   UNL A   1      34.429  21.588  23.507  1.00  0.00     0.142 HD
BRANCH  10  12
ATOM     12  S   UNL A   1      32.958  20.645  24.761  1.00  0.00     0.218 S 
ATOM     13  O   UNL A   1      33.968  20.043  25.605  1.00  0.00    -0.212 OA
ATOM     14  O   UNL A   1      31.748  21.141  25.380  1.00  0.00    -0.212 OA
BRANCH  12  15
ATOM     15  C   UNL A   1      32.518  19.527  23.414  1.00  0.00     0.213 C 
BRANCH  15  16
ATOM     16  C   UNL A   1      32.724  18.090  23.676  1.00  0.00     0.100 A 
ATOM     17  C   UNL A   1      32.346  17.363  24.826  1.00  0.00     0.073 A 
ATOM     18  N   UNL A   1      33.491  17.350  22.864  1.00  0.00    -0.084 NA
ATOM     19  C   UNL A   1      32.939  16.138  24.663  1.00  0.00     0.133 A 
ATOM     20  O   UNL A   1      33.612  16.118  23.483  1.00  0.00    -0.361 OA
ATOM     21  C   UNL A   1      33.007  14.918  25.483  1.00  0.00     0.091 C 
ENDBRANCH  15  16
ENDBRANCH  12  15
ENDBRANCH  10  12
ENDBRANCH   6  10
ENDBRANCH   3   6
ENDBRANCH   1   2
BRANCH   1  22
ATOM     22  C   UNL A   1      37.167  20.473  24.699  1.00  0.00     0.023 C 
BRANCH  22  23
ATOM     23  C   UNL A   1      38.276  19.471  25.006  1.00  0.00     0.023 C 
BRANCH  23  24
ATOM     24  C   UNL A   1      39.336  20.021  25.936  1.00  0.00     0.116 C 
BRANCH  24  25
ATOM     25  N   UNL A   1      40.556  19.224  25.892  1.00  0.00    -0.352 N 
ATOM     26  C   UNL A   1      41.858  19.621  26.055  1.00  0.00     0.251 C 
ATOM     27  H   UNL A   1      40.428  18.264  25.720  1.00  0.00     0.163 HD
ATOM     28  O   UNL A   1      42.778  18.861  25.779  1.00  0.00    -0.269 OA
BRANCH  26  29
ATOM     29  C   UNL A   1      42.136  20.977  26.560  1.00  0.00     0.039 A 
ATOM     30  C   UNL A   1      42.431  21.995  25.650  1.00  0.00     0.014 A 
ATOM     31  C   UNL A   1      42.100  21.234  27.932  1.00  0.00     0.014 A 
ATOM     32  C   UNL A   1      42.655  23.286  26.124  1.00  0.00     0.010 A 
ATOM     33  C   UNL A   1      42.209  22.535  28.389  1.00  0.00     0.010 A 
ATOM     34  C   UNL A   1      42.524  23.564  27.494  1.00  0.00    -0.014 A 
BRANCH  34  35
ATOM     35  C   UNL A   1      42.781  24.914  28.037  1.00  0.00     0.031 A 
ATOM     36  C   UNL A   1      44.175  25.280  28.463  1.00  0.00     0.074 A 
ATOM     37  C   UNL A   1      41.754  25.766  28.211  1.00  0.00     0.049 A 
ATOM     38  N   UNL A   1      44.603  26.370  29.041  1.00  0.00    -0.248 NA
ATOM     39  C   UNL A   1      45.224  24.265  28.247  1.00  0.00     0.031 C 
ATOM     40  C   UNL A   1      40.354  25.489  27.883  1.00  0.00     0.029 A 
ATOM     41  N   UNL A   1      41.734  27.039  28.717  1.00  0.00    -0.354 N 
ATOM     42  C   UNL A   1      45.955  26.159  29.284  1.00  0.00     0.074 A 
ATOM     43  C   UNL A   1      46.263  24.816  28.852  1.00  0.00     0.031 C 
ATOM     44  C   UNL A   1      39.616  26.575  28.163  1.00  0.00     0.029 A 
ATOM     45  C   UNL A   1      40.482  27.604  28.725  1.00  0.00     0.049 A 
ATOM     46  H   UNL A   1      42.538  27.504  29.042  1.00  0.00     0.167 HD
ATOM     47  C   UNL A   1      46.865  27.021  29.793  1.00  0.00     0.031 A 
ATOM     48  C   UNL A   1      40.086  28.820  29.141  1.00  0.00     0.031 A 
ATOM     49  C   UNL A   1      46.551  28.365  30.190  1.00  0.00     0.049 A 
ATOM     50  C   UNL A   1      41.120  29.767  29.683  1.00  0.00     0.074 A 
ATOM     51  C   UNL A   1      47.400  29.348  30.659  1.00  0.00     0.029 A 
ATOM     52  N   UNL A   1      45.277  28.913  30.153  1.00  0.00    -0.354 N 
ATOM     53  N   UNL A   1      42.408  29.581  29.843  1.00  0.00    -0.248 NA
ATOM     54  C   UNL A   1      40.647  31.099  30.085  1.00  0.00     0.031 C 
ATOM     55  C   UNL A   1      46.632  30.481  30.948  1.00  0.00     0.029 A 
ATOM     56  C   UNL A   1      45.313  30.218  30.607  1.00  0.00     0.049 A 
ATOM     57  H   UNL A   1      44.467  28.442  29.849  1.00  0.00     0.167 HD
ATOM     58  C   UNL A   1      42.905  30.777  30.342  1.00  0.00     0.074 A 
ATOM     59  C   UNL A   1      41.781  31.687  30.437  1.00  0.00     0.031 C 
ATOM     60  C   UNL A   1      44.176  31.097  30.691  1.00  0.00     0.031 A 
BRANCH  47  61
ATOM     61  C   UNL A   1      48.278  26.525  29.940  1.00  0.00    -0.014 A 
ATOM     62  C   UNL A   1      48.696  25.847  31.097  1.00  0.00     0.009 A 
ATOM     63  C   UNL A   1      49.203  26.732  28.906  1.00  0.00     0.009 A 
ATOM     64  C   UNL A   1      50.021  25.428  31.234  1.00  0.00     0.001 A 
ATOM     65  C   UNL A   1      50.519  26.283  29.032  1.00  0.00     0.001 A 
ATOM     66  C   UNL A   1      50.930  25.642  30.199  1.00  0.00     0.000 A 
ENDBRANCH  47  61
BRANCH  48  67
ATOM     67  C   UNL A   1      38.658  29.216  29.031  1.00  0.00    -0.014 A 
ATOM     68  C   UNL A   1      37.800  29.095  30.133  1.00  0.00     0.009 A 
ATOM     69  C   UNL A   1      38.149  29.728  27.828  1.00  0.00     0.009 A 
ATOM     70  C   UNL A   1      36.454  29.455  30.027  1.00  0.00     0.001 A 
ATOM     71  C   UNL A   1      36.810  30.115  27.732  1.00  0.00     0.001 A 
ATOM     72  C   UNL A   1      35.962  29.969  28.829  1.00  0.00     0.000 A 
ENDBRANCH  48  67
BRANCH  60  73
ATOM     73  C   UNL A   1      44.416  32.496  31.177  1.00  0.00    -0.014 A 
ATOM     74  C   UNL A   1      44.352  32.812  32.541  1.00  0.00     0.009 A 
ATOM     75  C   UNL A   1      44.755  33.500  30.256  1.00  0.00     0.009 A 
ATOM     76  C   UNL A   1      44.591  34.118  32.972  1.00  0.00     0.001 A 
ATOM     77  C   UNL A   1      45.024  34.796  30.693  1.00  0.00     0.001 A 
ATOM     78  C   UNL A   1      44.933  35.106  32.049  1.00  0.00     0.000 A 
ENDBRANCH  60  73
ENDBRANCH  34  35
ENDBRANCH  26  29
ENDBRANCH  24  25
ENDBRANCH  23  24
ENDBRANCH  22  23
ENDBRANCH   1  22
TORSDOF 16
ENDMDL
MODEL 3
REMARK VINA RESULT:     -10.5      1.817      6.840
REMARK SMILES CC[C@](C)(NS(=O)(=O)Cc1cc(C)on1)C(=O)NCCCCNC(=O)c1ccc(-c2c3nc(c(-c4ccccc4)c4ccc([nH]4)c(-c4ccccc4)c4nc(c(-c5ccccc5)c5ccc2[nH]5)C=C4)C=C3)cc1
REMARK SMILES IDX 19 1 18 2 16 3 17 4 3 6 4 7 2 8 1 9 5 10 6 12 7 13 8 14 9 15
REMARK SMILES IDX 10 16 11 17 15 18 12 19 14 20 13 21 20 22 21 23 22 24 23 25
REMARK SMILES IDX 24 26 25 28 26 29 27 30 73 31 28 32 72 33 29 34 30 35 31 36
REMARK SMILES IDX 66 37 32 38 71 39 65 40 67 41 33 42 70 43 64 44 63 45 34 47
REMARK SMILES IDX 56 48 41 49 55 50 42 51 45 52 54 53 68 54 43 55 44 56 53 58
REMARK SMILES IDX 69 59 46 60 35 61 36 62 40 63 37 64 39 65 38 66 57 67 58 68
REMARK SMILES IDX 62 69 59 70 61 71 60 72 47 73 48 74 52 75 49 76 51 77 50 78
REMARK H PARENT 18 5 5 11 23 27 67 46 45 57
REMARK Flexibility Score: inf
ROOT
ATOM      1  C   UNL A   1      36.395  21.544  25.426  1.00  0.00     0.116 C 
ENDROOT
BRANCH   1   2
ATOM      2  N   UNL A   1      35.484  21.685  26.550  1.00  0.00    -0.354 N 
ATOM      3  C   UNL A   1      34.142  21.647  26.757  1.00  0.00     0.240 C 
ATOM      4  O   UNL A   1      33.847  21.747  27.959  1.00  0.00    -0.273 OA
ATOM      5  H   UNL A   1      35.971  21.853  27.389  1.00  0.00     0.163 HD
BRANCH   3   6
ATOM      6  C   UNL A   1      33.017  21.585  25.675  1.00  0.00     0.108 C 
ATOM      7  C   UNL A   1      32.875  20.070  25.330  1.00  0.00     0.040 C 
BRANCH   6   8
ATOM      8  C   UNL A   1      33.376  22.353  24.387  1.00  0.00     0.030 C 
ATOM      9  C   UNL A   1      32.743  21.875  23.084  1.00  0.00     0.006 C 
ENDBRANCH   6   8
BRANCH   6  10
ATOM     10  N   UNL A   1      31.663  21.926  26.192  1.00  0.00    -0.200 NA
ATOM     11  H   UNL A   1      31.654  21.576  27.150  1.00  0.00     0.142 HD
BRANCH  10  12
ATOM     12  S   UNL A   1      30.971  23.421  26.283  1.00  0.00     0.218 S 
ATOM     13  O   UNL A   1      30.509  23.730  24.946  1.00  0.00    -0.212 OA
ATOM     14  O   UNL A   1      29.993  23.325  27.345  1.00  0.00    -0.212 OA
BRANCH  12  15
ATOM     15  C   UNL A   1      32.271  24.570  26.779  1.00  0.00     0.213 C 
BRANCH  15  16
ATOM     16  C   UNL A   1      32.143  25.949  26.269  1.00  0.00     0.100 A 
ATOM     17  C   UNL A   1      33.066  26.659  25.469  1.00  0.00     0.073 A 
ATOM     18  N   UNL A   1      31.155  26.747  26.697  1.00  0.00    -0.084 NA
ATOM     19  C   UNL A   1      32.579  27.940  25.446  1.00  0.00     0.133 A 
ATOM     20  O   UNL A   1      31.427  27.996  26.165  1.00  0.00    -0.361 OA
ATOM     21  C   UNL A   1      33.047  29.201  24.851  1.00  0.00     0.091 C 
ENDBRANCH  15  16
ENDBRANCH  12  15
ENDBRANCH  10  12
ENDBRANCH   6  10
ENDBRANCH   3   6
ENDBRANCH   1   2
BRANCH   1  22
ATOM     22  C   UNL A   1      36.489  20.124  24.871  1.00  0.00     0.023 C 
BRANCH  22  23
ATOM     23  C   UNL A   1      37.898  19.563  24.694  1.00  0.00     0.023 C 
BRANCH  23  24
ATOM     24  C   UNL A   1      38.878  20.081  25.725  1.00  0.00     0.116 C 
BRANCH  24  25
ATOM     25  N   UNL A   1      40.074  19.251  25.796  1.00  0.00    -0.352 N 
ATOM     26  C   UNL A   1      41.365  19.611  26.080  1.00  0.00     0.251 C 
ATOM     27  H   UNL A   1      39.935  18.293  25.612  1.00  0.00     0.163 HD
ATOM     28  O   UNL A   1      42.286  18.824  25.890  1.00  0.00    -0.269 OA
BRANCH  26  29
ATOM     29  C   UNL A   1      41.633  20.960  26.607  1.00  0.00     0.039 A 
ATOM     30  C   UNL A   1      41.529  21.187  27.981  1.00  0.00     0.014 A 
ATOM     31  C   UNL A   1      41.990  21.993  25.738  1.00  0.00     0.014 A 
ATOM     32  C   UNL A   1      41.822  22.453  28.485  1.00  0.00     0.010 A 
ATOM     33  C   UNL A   1      42.389  23.214  26.251  1.00  0.00     0.010 A 
ATOM     34  C   UNL A   1      42.273  23.465  27.623  1.00  0.00    -0.014 A 
BRANCH  34  35
ATOM     35  C   UNL A   1      42.566  24.826  28.116  1.00  0.00     0.031 A 
ATOM     36  C   UNL A   1      43.973  25.175  28.514  1.00  0.00     0.074 A 
ATOM     37  C   UNL A   1      41.561  25.707  28.272  1.00  0.00     0.049 A 
ATOM     38  N   UNL A   1      44.432  26.274  29.050  1.00  0.00    -0.248 NA
ATOM     39  C   UNL A   1      44.996  24.129  28.322  1.00  0.00     0.031 C 
ATOM     40  C   UNL A   1      40.151  25.452  27.970  1.00  0.00     0.029 A 
ATOM     41  N   UNL A   1      41.575  26.997  28.734  1.00  0.00    -0.354 N 
ATOM     42  C   UNL A   1      45.782  26.040  29.285  1.00  0.00     0.074 A 
ATOM     43  C   UNL A   1      46.054  24.676  28.896  1.00  0.00     0.031 C 
ATOM     44  C   UNL A   1      39.441  26.563  28.220  1.00  0.00     0.029 A 
ATOM     45  C   UNL A   1      40.337  27.591  28.737  1.00  0.00     0.049 A 
ATOM     46  H   UNL A   1      42.394  27.454  29.034  1.00  0.00     0.167 HD
ATOM     47  C   UNL A   1      46.717  26.897  29.754  1.00  0.00     0.031 A 
ATOM     48  C   UNL A   1      39.973  28.829  29.116  1.00  0.00     0.031 A 
ATOM     49  C   UNL A   1      46.438  28.261  30.108  1.00  0.00     0.049 A 
ATOM     50  C   UNL A   1      41.034  29.770  29.613  1.00  0.00     0.074 A 
ATOM     51  C   UNL A   1      47.315  29.240  30.534  1.00  0.00     0.029 A 
ATOM     52  N   UNL A   1      45.177  28.836  30.066  1.00  0.00    -0.354 N 
ATOM     53  N   UNL A   1      42.320  29.559  29.766  1.00  0.00    -0.248 NA
ATOM     54  C   UNL A   1      40.596  31.125  29.975  1.00  0.00     0.031 C 
ATOM     55  C   UNL A   1      46.576  30.400  30.792  1.00  0.00     0.029 A 
ATOM     56  C   UNL A   1      45.248  30.155  30.474  1.00  0.00     0.049 A 
ATOM     57  H   UNL A   1      44.353  28.374  29.788  1.00  0.00     0.167 HD
ATOM     58  C   UNL A   1      42.850  30.760  30.217  1.00  0.00     0.074 A 
ATOM     59  C   UNL A   1      41.748  31.699  30.294  1.00  0.00     0.031 C 
ATOM     60  C   UNL A   1      44.131  31.063  30.541  1.00  0.00     0.031 A 
BRANCH  47  61
ATOM     61  C   UNL A   1      48.120  26.375  29.902  1.00  0.00    -0.014 A 
ATOM     62  C   UNL A   1      48.550  25.767  31.093  1.00  0.00     0.009 A 
ATOM     63  C   UNL A   1      49.024  26.485  28.835  1.00  0.00     0.009 A 
ATOM     64  C   UNL A   1      49.866  25.323  31.229  1.00  0.00     0.001 A 
ATOM     65  C   UNL A   1      50.331  26.010  28.962  1.00  0.00     0.001 A 
ATOM     66  C   UNL A   1      50.754  25.440  30.161  1.00  0.00     0.000 A 
ENDBRANCH  47  61
BRANCH  48  67
ATOM     67  C   UNL A   1      38.554  29.253  29.007  1.00  0.00    -0.014 A 
ATOM     68  C   UNL A   1      37.700  29.167  30.117  1.00  0.00     0.009 A 
ATOM     69  C   UNL A   1      38.048  29.758  27.799  1.00  0.00     0.009 A 
ATOM     70  C   UNL A   1      36.362  29.554  30.012  1.00  0.00     0.001 A 
ATOM     71  C   UNL A   1      36.717  30.171  27.706  1.00  0.00     0.001 A 
ATOM     72  C   UNL A   1      35.873  30.060  28.810  1.00  0.00     0.000 A 
ENDBRANCH  48  67
BRANCH  60  73
ATOM     73  C   UNL A   1      44.408  32.472  30.976  1.00  0.00    -0.014 A 
ATOM     74  C   UNL A   1      44.370  32.835  32.329  1.00  0.00     0.009 A 
ATOM     75  C   UNL A   1      44.758  33.436  30.017  1.00  0.00     0.009 A 
ATOM     76  C   UNL A   1      44.644  34.149  32.712  1.00  0.00     0.001 A 
ATOM     77  C   UNL A   1      45.061  34.740  30.406  1.00  0.00     0.001 A 
ATOM     78  C   UNL A   1      44.995  35.098  31.752  1.00  0.00     0.000 A 
ENDBRANCH  60  73
ENDBRANCH  34  35
ENDBRANCH  26  29
ENDBRANCH  24  25
ENDBRANCH  23  24
ENDBRANCH  22  23
ENDBRANCH   1  22
TORSDOF 16
ENDMDL
