MODEL 1
REMARK VINA RESULT:     -10.6      0.000      0.000
REMARK SMILES O=C(CCSC1=[NH+][C@@H]2C=Cc3nsnc3[C@H]2N1)NCCCCNC(=O)c1ccc(-c2c3nc(c(-c4ccccc4)c4ccc([nH]4)c(-c4ccccc4)c4nc(c(-c5ccccc5)c5ccc2[nH]5)C=C4)C=C3)cc1
REMARK SMILES IDX 20 1 19 2 18 3 1 4 2 5 3 7 4 8 5 9 6 10 7 11 17 12 8 13
REMARK SMILES IDX 16 15 9 17 15 18 10 19 11 20 14 21 12 22 13 23 21 24 22 25
REMARK SMILES IDX 23 26 24 27 25 29 26 30 27 31 73 32 28 33 72 34 29 35 30 36
REMARK SMILES IDX 31 37 66 38 32 39 71 40 65 41 67 42 33 43 70 44 64 45 63 46
REMARK SMILES IDX 34 48 56 49 41 50 55 51 42 52 45 53 54 54 68 55 43 56 44 57
REMARK SMILES IDX 53 59 69 60 46 61 35 62 36 63 40 64 37 65 39 66 38 67 57 68
REMARK SMILES IDX 58 69 62 70 59 71 61 72 60 73 47 74 48 75 52 76 49 77 51 78
REMARK SMILES IDX 50 79
REMARK H PARENT 18 6 7 14 17 16 23 28 67 47 45 58
REMARK Flexibility Score: inf
ROOT
ATOM      1  C   UNL A   1      38.119  22.604  25.565  1.00  0.00     0.023 C 
ENDROOT
BRANCH   1   2
ATOM      2  C   UNL A   1      36.827  23.348  25.925  1.00  0.00     0.116 C 
BRANCH   2   3
ATOM      3  N   UNL A   1      35.604  22.615  25.650  1.00  0.00    -0.356 N 
ATOM      4  O   UNL A   1      35.522  23.238  23.439  1.00  0.00    -0.275 OA
ATOM      5  C   UNL A   1      35.083  22.577  24.374  1.00  0.00     0.220 C 
ATOM      6  H   UNL A   1      35.144  22.140  26.380  1.00  0.00     0.163 HD
BRANCH   5   7
ATOM      7  C   UNL A   1      33.934  21.616  24.185  1.00  0.00     0.111 C 
BRANCH   7   8
ATOM      8  C   UNL A   1      33.235  21.343  25.515  1.00  0.00     0.092 C 
BRANCH   8   9
ATOM      9  S   UNL A   1      31.507  21.902  25.501  1.00  0.00    -0.039 SA
BRANCH   9  10
ATOM     10  C   UNL A   1      31.588  23.626  25.435  1.00  0.00     0.305 C 
ATOM     11  N   UNL A   1      32.495  24.373  26.025  1.00  0.00    -0.258 N 
ATOM     12  N   UNL A   1      30.533  24.268  24.851  1.00  0.00    -0.256 N 
ATOM     13  C   UNL A   1      32.062  25.745  25.567  1.00  0.00     0.248 C 
ATOM     14  H   UNL A   1      33.246  24.109  26.604  1.00  0.00     0.306 HD
ATOM     15  C   UNL A   1      30.500  25.614  25.359  1.00  0.00     0.274 C 
ATOM     16  H   UNL A   1      29.906  23.879  24.198  1.00  0.00     0.306 HD
ATOM     17  C   UNL A   1      32.549  26.922  26.384  1.00  0.00     0.029 C 
ATOM     18  C   UNL A   1      30.039  26.862  24.680  1.00  0.00     0.131 A 
ATOM     19  C   UNL A   1      32.180  28.188  26.067  1.00  0.00     0.032 C 
ATOM     20  C   UNL A   1      31.145  28.417  25.080  1.00  0.00     0.105 A 
ATOM     21  N   UNL A   1      28.783  27.199  23.527  1.00  0.00    -0.173 NA
ATOM     22  N   UNL A   1      30.724  29.817  24.260  1.00  0.00    -0.173 NA
ATOM     23  S   UNL A   1      29.124  29.372  22.717  1.00  0.00     0.069 S 
ENDBRANCH   9  10
ENDBRANCH   8   9
ENDBRANCH   7   8
ENDBRANCH   5   7
ENDBRANCH   2   3
ENDBRANCH   1   2
BRANCH   1  24
ATOM     24  C   UNL A   1      37.977  21.190  24.997  1.00  0.00     0.023 C 
BRANCH  24  25
ATOM     25  C   UNL A   1      38.675  20.099  25.789  1.00  0.00     0.116 C 
BRANCH  25  26
ATOM     26  N   UNL A   1      40.133  20.137  25.895  1.00  0.00    -0.352 N 
ATOM     27  C   UNL A   1      40.809  20.990  27.057  1.00  0.00     0.251 C 
ATOM     28  H   UNL A   1      40.691  19.641  25.255  1.00  0.00     0.163 HD
ATOM     29  O   UNL A   1      40.959  19.965  27.811  1.00  0.00    -0.269 OA
BRANCH  27  30
ATOM     30  C   UNL A   1      41.327  23.115  27.145  1.00  0.00     0.039 A 
ATOM     31  C   UNL A   1      42.274  23.987  26.296  1.00  0.00     0.014 A 
ATOM     32  C   UNL A   1      40.710  24.249  27.976  1.00  0.00     0.014 A 
ATOM     33  C   UNL A   1      42.782  25.291  26.560  1.00  0.00     0.010 A 
ATOM     34  C   UNL A   1      41.140  25.572  28.210  1.00  0.00     0.010 A 
ATOM     35  C   UNL A   1      42.244  26.068  27.563  1.00  0.00    -0.014 A 
BRANCH  35  36
ATOM     36  C   UNL A   1      42.642  27.479  27.669  1.00  0.00     0.031 A 
ATOM     37  C   UNL A   1      41.422  28.374  27.669  1.00  0.00     0.074 A 
ATOM     38  C   UNL A   1      43.739  27.859  28.365  1.00  0.00     0.049 A 
ATOM     39  N   UNL A   1      40.659  28.532  28.714  1.00  0.00    -0.248 NA
ATOM     40  C   UNL A   1      40.788  28.817  26.426  1.00  0.00     0.031 C 
ATOM     41  C   UNL A   1      44.270  27.187  29.557  1.00  0.00     0.029 A 
ATOM     42  N   UNL A   1      44.506  29.001  28.256  1.00  0.00    -0.354 N 
ATOM     43  C   UNL A   1      39.449  29.062  28.287  1.00  0.00     0.074 A 
ATOM     44  C   UNL A   1      39.580  29.223  26.856  1.00  0.00     0.031 C 
ATOM     45  C   UNL A   1      45.147  28.010  30.169  1.00  0.00     0.029 A 
ATOM     46  C   UNL A   1      45.353  29.206  29.352  1.00  0.00     0.049 A 
ATOM     47  H   UNL A   1      44.461  29.612  27.486  1.00  0.00     0.167 HD
ATOM     48  C   UNL A   1      38.426  29.332  29.146  1.00  0.00     0.031 A 
ATOM     49  C   UNL A   1      45.603  30.450  29.858  1.00  0.00     0.031 A 
ATOM     50  C   UNL A   1      38.699  29.022  30.521  1.00  0.00     0.049 A 
ATOM     51  C   UNL A   1      44.285  30.764  30.527  1.00  0.00     0.074 A 
ATOM     52  C   UNL A   1      38.332  28.096  31.472  1.00  0.00     0.029 A 
ATOM     53  N   UNL A   1      39.564  29.857  31.179  1.00  0.00    -0.354 N 
ATOM     54  N   UNL A   1      43.866  30.272  31.663  1.00  0.00    -0.248 NA
ATOM     55  C   UNL A   1      43.235  31.340  29.688  1.00  0.00     0.031 C 
ATOM     56  C   UNL A   1      39.365  28.150  32.465  1.00  0.00     0.029 A 
ATOM     57  C   UNL A   1      40.298  29.100  32.049  1.00  0.00     0.049 A 
ATOM     58  H   UNL A   1      39.643  30.830  31.050  1.00  0.00     0.167 HD
ATOM     59  C   UNL A   1      42.477  30.183  31.543  1.00  0.00     0.074 A 
ATOM     60  C   UNL A   1      42.158  30.878  30.310  1.00  0.00     0.031 C 
ATOM     61  C   UNL A   1      41.687  29.395  32.335  1.00  0.00     0.031 A 
BRANCH  48  62
ATOM     62  C   UNL A   1      37.200  30.115  28.843  1.00  0.00    -0.014 A 
ATOM     63  C   UNL A   1      36.129  29.399  28.274  1.00  0.00     0.009 A 
ATOM     64  C   UNL A   1      37.144  31.513  28.843  1.00  0.00     0.009 A 
ATOM     65  C   UNL A   1      35.056  30.051  27.672  1.00  0.00     0.001 A 
ATOM     66  C   UNL A   1      36.051  32.168  28.253  1.00  0.00     0.001 A 
ATOM     67  C   UNL A   1      35.020  31.439  27.654  1.00  0.00     0.000 A 
ENDBRANCH  48  62
BRANCH  49  68
ATOM     68  C   UNL A   1      46.306  31.384  28.918  1.00  0.00    -0.014 A 
ATOM     69  C   UNL A   1      47.420  30.876  28.217  1.00  0.00     0.009 A 
ATOM     70  C   UNL A   1      45.938  32.712  28.651  1.00  0.00     0.009 A 
ATOM     71  C   UNL A   1      48.046  31.606  27.203  1.00  0.00     0.001 A 
ATOM     72  C   UNL A   1      46.547  33.436  27.616  1.00  0.00     0.001 A 
ATOM     73  C   UNL A   1      47.585  32.875  26.878  1.00  0.00     0.000 A 
ENDBRANCH  49  68
BRANCH  61  74
ATOM     74  C   UNL A   1      42.375  28.650  33.438  1.00  0.00    -0.014 A 
ATOM     75  C   UNL A   1      42.383  29.159  34.743  1.00  0.00     0.009 A 
ATOM     76  C   UNL A   1      42.978  27.402  33.199  1.00  0.00     0.009 A 
ATOM     77  C   UNL A   1      42.956  28.431  35.786  1.00  0.00     0.001 A 
ATOM     78  C   UNL A   1      43.531  26.662  34.248  1.00  0.00     0.001 A 
ATOM     79  C   UNL A   1      43.516  27.178  35.542  1.00  0.00     0.000 A 
ENDBRANCH  61  74
ENDBRANCH  35  36
ENDBRANCH  27  30
ENDBRANCH  25  26
ENDBRANCH  24  25
ENDBRANCH   1  24
TORSDOF 14
ENDMDL
MODEL 2
REMARK VINA RESULT:     -10.4      8.501     13.704
REMARK SMILES O=C(CCSC1=[NH+][C@@H]2C=Cc3nsnc3[C@H]2N1)NCCCCNC(=O)c1ccc(-c2c3nc(c(-c4ccccc4)c4ccc([nH]4)c(-c4ccccc4)c4nc(c(-c5ccccc5)c5ccc2[nH]5)C=C4)C=C3)cc1
REMARK SMILES IDX 20 1 19 2 18 3 1 4 2 5 3 7 4 8 5 9 6 10 7 11 17 12 8 13
REMARK SMILES IDX 16 15 9 17 15 18 10 19 11 20 14 21 12 22 13 23 21 24 22 25
REMARK SMILES IDX 23 26 24 27 25 29 26 30 27 31 73 32 28 33 72 34 29 35 30 36
REMARK SMILES IDX 31 37 66 38 32 39 71 40 65 41 67 42 33 43 70 44 64 45 63 46
REMARK SMILES IDX 34 48 56 49 41 50 55 51 42 52 45 53 54 54 68 55 43 56 44 57
REMARK SMILES IDX 53 59 69 60 46 61 35 62 36 63 40 64 37 65 39 66 38 67 57 68
REMARK SMILES IDX 58 69 62 70 59 71 61 72 60 73 47 74 48 75 52 76 49 77 51 78
REMARK SMILES IDX 50 79
REMARK H PARENT 18 6 7 14 17 16 23 28 67 47 45 58
REMARK Flexibility Score: inf
ROOT
ATOM      1  C   UNL A   1      46.501  21.635  39.195  1.00  0.00     0.023 C 
ENDROOT
BRANCH   1   2
ATOM      2  C   UNL A   1      47.494  20.502  39.483  1.00  0.00     0.116 C 
BRANCH   2   3
ATOM      3  N   UNL A   1      47.216  19.740  40.688  1.00  0.00    -0.356 N 
ATOM      4  O   UNL A   1      46.695  17.808  39.556  1.00  0.00    -0.275 OA
ATOM      5  C   UNL A   1      46.892  18.402  40.611  1.00  0.00     0.220 C 
ATOM      6  H   UNL A   1      47.260  20.183  41.567  1.00  0.00     0.163 HD
BRANCH   5   7
ATOM      7  C   UNL A   1      46.833  17.686  41.938  1.00  0.00     0.111 C 
BRANCH   7   8
ATOM      8  C   UNL A   1      45.958  18.453  42.927  1.00  0.00     0.092 C 
BRANCH   8   9
ATOM      9  S   UNL A   1      44.259  18.654  42.319  1.00  0.00    -0.039 SA
BRANCH   9  10
ATOM     10  C   UNL A   1      43.681  17.050  42.051  1.00  0.00     0.305 C 
ATOM     11  N   UNL A   1      43.093  16.621  40.955  1.00  0.00    -0.258 N 
ATOM     12  N   UNL A   1      43.696  16.203  43.123  1.00  0.00    -0.256 N 
ATOM     13  C   UNL A   1      42.871  15.171  41.311  1.00  0.00     0.248 C 
ATOM     14  H   UNL A   1      42.862  17.111  40.133  1.00  0.00     0.306 HD
ATOM     15  C   UNL A   1      42.721  15.171  42.886  1.00  0.00     0.274 C 
ATOM     16  H   UNL A   1      44.272  16.285  43.918  1.00  0.00     0.306 HD
ATOM     17  C   UNL A   1      41.814  14.428  40.523  1.00  0.00     0.029 C 
ATOM     18  C   UNL A   1      42.737  13.746  43.331  1.00  0.00     0.131 A 
ATOM     19  C   UNL A   1      41.523  13.133  40.799  1.00  0.00     0.032 C 
ATOM     20  C   UNL A   1      42.060  12.505  41.989  1.00  0.00     0.105 A 
ATOM     21  N   UNL A   1      43.327  12.948  44.758  1.00  0.00    -0.173 NA
ATOM     22  N   UNL A   1      42.153  10.885  42.408  1.00  0.00    -0.173 NA
ATOM     23  S   UNL A   1      43.304  10.641  44.346  1.00  0.00     0.069 S 
ENDBRANCH   9  10
ENDBRANCH   8   9
ENDBRANCH   7   8
ENDBRANCH   5   7
ENDBRANCH   2   3
ENDBRANCH   1   2
BRANCH   1  24
ATOM     24  C   UNL A   1      47.007  22.816  38.365  1.00  0.00     0.023 C 
BRANCH  24  25
ATOM     25  C   UNL A   1      45.944  23.809  37.932  1.00  0.00     0.116 C 
BRANCH  25  26
ATOM     26  N   UNL A   1      44.857  23.338  37.073  1.00  0.00    -0.352 N 
ATOM     27  C   UNL A   1      45.180  22.890  35.580  1.00  0.00     0.251 C 
ATOM     28  H   UNL A   1      43.935  23.298  37.415  1.00  0.00     0.163 HD
ATOM     29  O   UNL A   1      45.231  21.649  35.894  1.00  0.00    -0.269 OA
BRANCH  27  30
ATOM     30  C   UNL A   1      45.339  24.072  33.744  1.00  0.00     0.039 A 
ATOM     31  C   UNL A   1      46.359  25.130  33.277  1.00  0.00     0.014 A 
ATOM     32  C   UNL A   1      44.553  23.965  32.429  1.00  0.00     0.014 A 
ATOM     33  C   UNL A   1      46.269  26.060  32.203  1.00  0.00     0.010 A 
ATOM     34  C   UNL A   1      44.485  24.824  31.313  1.00  0.00     0.010 A 
ATOM     35  C   UNL A   1      45.288  25.935  31.242  1.00  0.00    -0.014 A 
BRANCH  35  36
ATOM     36  C   UNL A   1      45.353  26.776  30.038  1.00  0.00     0.031 A 
ATOM     37  C   UNL A   1      45.303  25.920  28.792  1.00  0.00     0.074 A 
ATOM     38  C   UNL A   1      44.815  28.017  30.007  1.00  0.00     0.049 A 
ATOM     39  N   UNL A   1      44.200  25.391  28.339  1.00  0.00    -0.248 NA
ATOM     40  C   UNL A   1      46.505  25.305  28.227  1.00  0.00     0.031 C 
ATOM     41  C   UNL A   1      43.631  28.455  30.757  1.00  0.00     0.029 A 
ATOM     42  N   UNL A   1      45.107  29.090  29.189  1.00  0.00    -0.354 N 
ATOM     43  C   UNL A   1      44.541  24.371  27.461  1.00  0.00     0.074 A 
ATOM     44  C   UNL A   1      45.986  24.359  27.424  1.00  0.00     0.031 C 
ATOM     45  C   UNL A   1      43.193  29.623  30.240  1.00  0.00     0.029 A 
ATOM     46  C   UNL A   1      44.132  30.094  29.222  1.00  0.00     0.049 A 
ATOM     47  H   UNL A   1      45.920  29.144  28.637  1.00  0.00     0.167 HD
ATOM     48  C   UNL A   1      43.605  23.610  26.826  1.00  0.00     0.031 A 
ATOM     49  C   UNL A   1      43.769  30.794  28.106  1.00  0.00     0.031 A 
ATOM     50  C   UNL A   1      42.245  23.946  27.140  1.00  0.00     0.049 A 
ATOM     51  C   UNL A   1      42.993  29.746  27.342  1.00  0.00     0.074 A 
ATOM     52  C   UNL A   1      41.180  23.428  27.845  1.00  0.00     0.029 A 
ATOM     53  N   UNL A   1      41.760  25.112  26.606  1.00  0.00    -0.354 N 
ATOM     54  N   UNL A   1      41.780  29.343  27.610  1.00  0.00    -0.248 NA
ATOM     55  C   UNL A   1      43.763  28.837  26.493  1.00  0.00     0.031 C 
ATOM     56  C   UNL A   1      40.313  24.544  28.085  1.00  0.00     0.029 A 
ATOM     57  C   UNL A   1      40.910  25.671  27.519  1.00  0.00     0.049 A 
ATOM     58  H   UNL A   1      41.984  25.481  25.721  1.00  0.00     0.167 HD
ATOM     59  C   UNL A   1      41.742  27.996  27.242  1.00  0.00     0.074 A 
ATOM     60  C   UNL A   1      42.991  27.759  26.543  1.00  0.00     0.031 C 
ATOM     61  C   UNL A   1      40.802  27.106  27.685  1.00  0.00     0.031 A 
BRANCH  48  62
ATOM     62  C   UNL A   1      43.844  22.673  25.698  1.00  0.00    -0.014 A 
ATOM     63  C   UNL A   1      43.939  21.308  26.034  1.00  0.00     0.009 A 
ATOM     64  C   UNL A   1      44.229  23.074  24.415  1.00  0.00     0.009 A 
ATOM     65  C   UNL A   1      44.454  20.373  25.139  1.00  0.00     0.001 A 
ATOM     66  C   UNL A   1      44.728  22.126  23.507  1.00  0.00     0.001 A 
ATOM     67  C   UNL A   1      44.856  20.784  23.875  1.00  0.00     0.000 A 
ENDBRANCH  48  62
BRANCH  49  68
ATOM     68  C   UNL A   1      44.859  31.631  27.504  1.00  0.00    -0.014 A 
ATOM     69  C   UNL A   1      44.468  32.668  26.632  1.00  0.00     0.009 A 
ATOM     70  C   UNL A   1      46.233  31.494  27.753  1.00  0.00     0.009 A 
ATOM     71  C   UNL A   1      45.383  33.605  26.145  1.00  0.00     0.001 A 
ATOM     72  C   UNL A   1      47.150  32.448  27.289  1.00  0.00     0.001 A 
ATOM     73  C   UNL A   1      46.722  33.515  26.504  1.00  0.00     0.000 A 
ENDBRANCH  49  68
BRANCH  61  74
ATOM     74  C   UNL A   1      39.717  27.655  28.559  1.00  0.00    -0.014 A 
ATOM     75  C   UNL A   1      39.796  27.534  29.952  1.00  0.00     0.009 A 
ATOM     76  C   UNL A   1      38.627  28.351  28.005  1.00  0.00     0.009 A 
ATOM     77  C   UNL A   1      38.826  28.112  30.772  1.00  0.00     0.001 A 
ATOM     78  C   UNL A   1      37.668  28.949  28.827  1.00  0.00     0.001 A 
ATOM     79  C   UNL A   1      37.772  28.831  30.211  1.00  0.00     0.000 A 
ENDBRANCH  61  74
ENDBRANCH  35  36
ENDBRANCH  27  30
ENDBRANCH  25  26
ENDBRANCH  24  25
ENDBRANCH   1  24
TORSDOF 14
ENDMDL
MODEL 3
REMARK VINA RESULT:     -10.2      5.656     11.010
REMARK SMILES O=C(CCSC1=[NH+][C@@H]2C=Cc3nsnc3[C@H]2N1)NCCCCNC(=O)c1ccc(-c2c3nc(c(-c4ccccc4)c4ccc([nH]4)c(-c4ccccc4)c4nc(c(-c5ccccc5)c5ccc2[nH]5)C=C4)C=C3)cc1
REMARK SMILES IDX 20 1 19 2 18 3 1 4 2 5 3 7 4 8 5 9 6 10 7 11 17 12 8 13
REMARK SMILES IDX 16 15 9 17 15 18 10 19 11 20 14 21 12 22 13 23 21 24 22 25
REMARK SMILES IDX 23 26 24 27 25 29 26 30 27 31 73 32 28 33 72 34 29 35 30 36
REMARK SMILES IDX 31 37 66 38 32 39 71 40 65 41 67 42 33 43 70 44 64 45 63 46
REMARK SMILES IDX 34 48 56 49 41 50 55 51 42 52 45 53 54 54 68 55 43 56 44 57
REMARK SMILES IDX 53 59 69 60 46 61 35 62 36 63 40 64 37 65 39 66 38 67 57 68
REMARK SMILES IDX 58 69 62 70 59 71 61 72 60 73 47 74 48 75 52 76 49 77 51 78
REMARK SMILES IDX 50 79
REMARK H PARENT 18 6 7 14 17 16 23 28 67 47 45 58
REMARK Flexibility Score: inf
ROOT
ATOM      1  C   UNL A   1      47.459  36.846  28.718  1.00  0.00     0.023 C 
ENDROOT
BRANCH   1   2
ATOM      2  C   UNL A   1      47.425  35.597  27.829  1.00  0.00     0.116 C 
BRANCH   2   3
ATOM      3  N   UNL A   1      46.523  34.552  28.282  1.00  0.00    -0.356 N 
ATOM      4  O   UNL A   1      45.324  34.494  26.322  1.00  0.00    -0.275 OA
ATOM      5  C   UNL A   1      45.565  34.038  27.435  1.00  0.00     0.220 C 
ATOM      6  H   UNL A   1      46.598  34.207  29.202  1.00  0.00     0.163 HD
BRANCH   5   7
ATOM      7  C   UNL A   1      44.838  32.823  27.959  1.00  0.00     0.111 C 
BRANCH   7   8
ATOM      8  C   UNL A   1      45.803  31.652  28.133  1.00  0.00     0.092 C 
BRANCH   8   9
ATOM      9  S   UNL A   1      46.109  30.784  26.568  1.00  0.00    -0.039 SA
BRANCH   9  10
ATOM     10  C   UNL A   1      45.422  29.214  26.777  1.00  0.00     0.305 C 
ATOM     11  N   UNL A   1      44.556  28.875  27.708  1.00  0.00    -0.258 N 
ATOM     12  N   UNL A   1      45.939  28.209  26.009  1.00  0.00    -0.256 N 
ATOM     13  C   UNL A   1      44.315  27.429  27.346  1.00  0.00     0.248 C 
ATOM     14  H   UNL A   1      44.174  29.415  28.437  1.00  0.00     0.306 HD
ATOM     15  C   UNL A   1      45.669  26.962  26.674  1.00  0.00     0.274 C 
ATOM     16  H   UNL A   1      46.413  28.319  25.153  1.00  0.00     0.306 HD
ATOM     17  C   UNL A   1      43.745  26.540  28.430  1.00  0.00     0.029 C 
ATOM     18  C   UNL A   1      45.423  25.616  26.077  1.00  0.00     0.131 A 
ATOM     19  C   UNL A   1      43.530  25.221  28.204  1.00  0.00     0.032 C 
ATOM     20  C   UNL A   1      44.042  24.596  27.002  1.00  0.00     0.105 A 
ATOM     21  N   UNL A   1      46.038  24.804  24.669  1.00  0.00    -0.173 NA
ATOM     22  N   UNL A   1      43.663  23.120  26.306  1.00  0.00    -0.173 NA
ATOM     23  S   UNL A   1      44.725  22.895  24.315  1.00  0.00     0.069 S 
ENDBRANCH   9  10
ENDBRANCH   8   9
ENDBRANCH   7   8
ENDBRANCH   5   7
ENDBRANCH   2   3
ENDBRANCH   1   2
BRANCH   1  24
ATOM     24  C   UNL A   1      46.472  37.968  28.388  1.00  0.00     0.023 C 
BRANCH  24  25
ATOM     25  C   UNL A   1      46.150  38.136  26.914  1.00  0.00     0.116 C 
BRANCH  25  26
ATOM     26  N   UNL A   1      44.932  37.518  26.391  1.00  0.00    -0.352 N 
ATOM     27  C   UNL A   1      43.628  37.467  27.303  1.00  0.00     0.251 C 
ATOM     28  H   UNL A   1      44.918  37.136  25.484  1.00  0.00     0.163 HD
ATOM     29  O   UNL A   1      43.123  38.508  26.751  1.00  0.00    -0.269 OA
BRANCH  27  30
ATOM     30  C   UNL A   1      43.012  36.021  28.827  1.00  0.00     0.039 A 
ATOM     31  C   UNL A   1      43.618  35.632  30.190  1.00  0.00     0.014 A 
ATOM     32  C   UNL A   1      41.721  35.199  28.944  1.00  0.00     0.014 A 
ATOM     33  C   UNL A   1      43.339  34.504  31.014  1.00  0.00     0.010 A 
ATOM     34  C   UNL A   1      41.377  34.122  29.788  1.00  0.00     0.010 A 
ATOM     35  C   UNL A   1      42.237  33.711  30.775  1.00  0.00    -0.014 A 
BRANCH  35  36
ATOM     36  C   UNL A   1      41.860  32.691  31.764  1.00  0.00     0.031 A 
ATOM     37  C   UNL A   1      40.401  32.831  32.138  1.00  0.00     0.074 A 
ATOM     38  C   UNL A   1      42.427  31.463  31.772  1.00  0.00     0.049 A 
ATOM     39  N   UNL A   1      39.430  32.418  31.371  1.00  0.00    -0.248 NA
ATOM     40  C   UNL A   1      39.954  33.764  33.173  1.00  0.00     0.031 C 
ATOM     41  C   UNL A   1      42.912  30.737  30.590  1.00  0.00     0.029 A 
ATOM     42  N   UNL A   1      42.543  30.545  32.797  1.00  0.00    -0.354 N 
ATOM     43  C   UNL A   1      38.260  33.038  31.788  1.00  0.00     0.074 A 
ATOM     44  C   UNL A   1      38.638  33.864  32.913  1.00  0.00     0.031 C 
ATOM     45  C   UNL A   1      43.100  29.442  30.919  1.00  0.00     0.029 A 
ATOM     46  C   UNL A   1      42.890  29.262  32.356  1.00  0.00     0.049 A 
ATOM     47  H   UNL A   1      42.394  30.770  33.743  1.00  0.00     0.167 HD
ATOM     48  C   UNL A   1      37.061  32.824  31.175  1.00  0.00     0.031 A 
ATOM     49  C   UNL A   1      42.372  28.132  32.922  1.00  0.00     0.031 A 
ATOM     50  C   UNL A   1      37.108  31.913  30.067  1.00  0.00     0.049 A 
ATOM     51  C   UNL A   1      40.951  28.172  32.410  1.00  0.00     0.074 A 
ATOM     52  C   UNL A   1      37.020  31.938  28.692  1.00  0.00     0.029 A 
ATOM     53  N   UNL A   1      37.269  30.585  30.369  1.00  0.00    -0.354 N 
ATOM     54  N   UNL A   1      40.563  27.869  31.201  1.00  0.00    -0.248 NA
ATOM     55  C   UNL A   1      39.992  28.969  33.176  1.00  0.00     0.031 C 
ATOM     56  C   UNL A   1      37.621  30.712  28.256  1.00  0.00     0.029 A 
ATOM     57  C   UNL A   1      38.044  30.023  29.393  1.00  0.00     0.049 A 
ATOM     58  H   UNL A   1      36.894  30.118  31.150  1.00  0.00     0.167 HD
ATOM     59  C   UNL A   1      39.469  28.697  30.938  1.00  0.00     0.074 A 
ATOM     60  C   UNL A   1      39.161  29.332  32.207  1.00  0.00     0.031 C 
ATOM     61  C   UNL A   1      38.997  28.972  29.684  1.00  0.00     0.031 A 
BRANCH  48  62
ATOM     62  C   UNL A   1      35.724  33.233  31.679  1.00  0.00    -0.014 A 
ATOM     63  C   UNL A   1      35.094  34.285  30.985  1.00  0.00     0.009 A 
ATOM     64  C   UNL A   1      35.196  32.832  32.910  1.00  0.00     0.009 A 
ATOM     65  C   UNL A   1      34.000  34.958  31.523  1.00  0.00     0.001 A 
ATOM     66  C   UNL A   1      34.080  33.499  33.441  1.00  0.00     0.001 A 
ATOM     67  C   UNL A   1      33.496  34.570  32.758  1.00  0.00     0.000 A 
ENDBRANCH  48  62
BRANCH  49  68
ATOM     68  C   UNL A   1      42.736  27.925  34.363  1.00  0.00    -0.014 A 
ATOM     69  C   UNL A   1      41.805  27.238  35.170  1.00  0.00     0.009 A 
ATOM     70  C   UNL A   1      43.933  28.328  34.974  1.00  0.00     0.009 A 
ATOM     71  C   UNL A   1      42.111  26.850  36.477  1.00  0.00     0.001 A 
ATOM     72  C   UNL A   1      44.253  27.917  36.277  1.00  0.00     0.001 A 
ATOM     73  C   UNL A   1      43.352  27.160  37.019  1.00  0.00     0.000 A 
ENDBRANCH  49  68
BRANCH  61  74
ATOM     74  C   UNL A   1      39.670  28.267  28.545  1.00  0.00    -0.014 A 
ATOM     75  C   UNL A   1      39.472  26.896  28.341  1.00  0.00     0.009 A 
ATOM     76  C   UNL A   1      40.468  28.976  27.629  1.00  0.00     0.009 A 
ATOM     77  C   UNL A   1      40.036  26.253  27.239  1.00  0.00     0.001 A 
ATOM     78  C   UNL A   1      41.012  28.337  26.511  1.00  0.00     0.001 A 
ATOM     79  C   UNL A   1      40.792  26.975  26.317  1.00  0.00     0.000 A 
ENDBRANCH  61  74
ENDBRANCH  35  36
ENDBRANCH  27  30
ENDBRANCH  25  26
ENDBRANCH  24  25
ENDBRANCH   1  24
TORSDOF 14
ENDMDL
