MODEL 1
REMARK VINA RESULT:      -9.7      0.000      0.000
REMARK SMILES O=C(CC[N@@H+]1CCc2ccccc2C1)NCCCCNC(=O)c1ccc(-c2c3nc(c(-c4ccccc4)c4ccc([nH]4)c(-c4ccccc4)c4nc(c(-c5ccccc5)c5ccc2[nH]5)C=C4)C=C3)cc1
REMARK SMILES IDX 17 1 16 2 15 3 1 4 2 5 3 7 4 8 5 9 6 10 14 11 7 13 13 14
REMARK SMILES IDX 8 15 12 16 9 17 11 18 10 19 18 20 19 21 20 22 21 23 22 25
REMARK SMILES IDX 23 26 24 27 70 28 25 29 69 30 26 31 27 32 28 33 63 34 29 35
REMARK SMILES IDX 68 36 62 37 64 38 30 39 67 40 61 41 60 42 31 44 53 45 38 46
REMARK SMILES IDX 52 47 39 48 42 49 51 50 65 51 40 52 41 53 50 55 66 56 43 57
REMARK SMILES IDX 32 58 33 59 37 60 34 61 36 62 35 63 54 64 55 65 59 66 56 67
REMARK SMILES IDX 58 68 57 69 44 70 45 71 49 72 46 73 48 74 47 75
REMARK H PARENT 15 6 5 12 20 24 64 43 42 54
REMARK Flexibility Score: inf
ROOT
ATOM      1  C   UNL A   1      33.640  35.622  28.630  1.00  0.00     0.023 C 
ENDROOT
BRANCH   1   2
ATOM      2  C   UNL A   1      33.272  36.494  29.835  1.00  0.00     0.116 C 
BRANCH   2   3
ATOM      3  N   UNL A   1      33.825  35.992  31.080  1.00  0.00    -0.356 N 
ATOM      4  O   UNL A   1      32.962  37.616  32.455  1.00  0.00    -0.275 OA
ATOM      5  C   UNL A   1      33.625  36.595  32.301  1.00  0.00     0.225 C 
ATOM      6  H   UNL A   1      34.373  35.175  31.048  1.00  0.00     0.163 HD
BRANCH   5   7
ATOM      7  C   UNL A   1      34.317  35.914  33.466  1.00  0.00     0.161 C 
BRANCH   7   8
ATOM      8  C   UNL A   1      34.290  34.390  33.379  1.00  0.00     0.272 C 
BRANCH   8   9
ATOM      9  N   UNL A   1      35.561  33.816  33.004  1.00  0.00    -0.330 N 
ATOM     10  C   UNL A   1      36.663  33.767  33.940  1.00  0.00     0.267 C 
ATOM     11  C   UNL A   1      35.784  33.358  31.650  1.00  0.00     0.299 C 
ATOM     12  H   UNL A   1      35.009  33.092  33.465  1.00  0.00     0.348 HD
ATOM     13  C   UNL A   1      37.835  34.591  33.408  1.00  0.00     0.097 C 
ATOM     14  C   UNL A   1      37.191  33.627  31.155  1.00  0.00     0.010 A 
ATOM     15  C   UNL A   1      38.175  34.186  31.998  1.00  0.00    -0.034 A 
ATOM     16  C   UNL A   1      37.531  33.261  29.846  1.00  0.00     0.010 A 
ATOM     17  C   UNL A   1      39.473  34.367  31.527  1.00  0.00     0.004 A 
ATOM     18  C   UNL A   1      38.840  33.407  29.397  1.00  0.00     0.001 A 
ATOM     19  C   UNL A   1      39.805  33.941  30.248  1.00  0.00     0.000 A 
ENDBRANCH   8   9
ENDBRANCH   7   8
ENDBRANCH   5   7
ENDBRANCH   2   3
ENDBRANCH   1   2
BRANCH   1  20
ATOM     20  C   UNL A   1      33.303  34.128  28.754  1.00  0.00     0.023 C 
BRANCH  20  21
ATOM     21  C   UNL A   1      34.293  33.147  28.110  1.00  0.00     0.116 C 
BRANCH  21  22
ATOM     22  N   UNL A   1      33.666  31.926  27.623  1.00  0.00    -0.352 N 
ATOM     23  C   UNL A   1      34.151  30.637  27.600  1.00  0.00     0.251 C 
ATOM     24  H   UNL A   1      32.759  32.039  27.257  1.00  0.00     0.163 HD
ATOM     25  O   UNL A   1      33.493  29.745  27.068  1.00  0.00    -0.269 OA
BRANCH  23  26
ATOM     26  C   UNL A   1      35.472  30.301  28.184  1.00  0.00     0.039 A 
ATOM     27  C   UNL A   1      35.544  29.843  29.501  1.00  0.00     0.014 A 
ATOM     28  C   UNL A   1      36.653  30.495  27.473  1.00  0.00     0.014 A 
ATOM     29  C   UNL A   1      36.783  29.489  30.065  1.00  0.00     0.010 A 
ATOM     30  C   UNL A   1      37.883  30.097  28.028  1.00  0.00     0.010 A 
ATOM     31  C   UNL A   1      37.973  29.545  29.315  1.00  0.00    -0.014 A 
BRANCH  31  32
ATOM     32  C   UNL A   1      39.266  28.980  29.847  1.00  0.00     0.031 A 
ATOM     33  C   UNL A   1      39.933  29.512  31.101  1.00  0.00     0.074 A 
ATOM     34  C   UNL A   1      39.917  28.009  29.163  1.00  0.00     0.049 A 
ATOM     35  N   UNL A   1      41.064  29.139  31.658  1.00  0.00    -0.248 NA
ATOM     36  C   UNL A   1      39.275  30.627  31.797  1.00  0.00     0.031 C 
ATOM     37  C   UNL A   1      39.495  27.434  27.885  1.00  0.00     0.029 A 
ATOM     38  N   UNL A   1      41.080  27.327  29.455  1.00  0.00    -0.354 N 
ATOM     39  C   UNL A   1      41.270  29.998  32.733  1.00  0.00     0.074 A 
ATOM     40  C   UNL A   1      40.172  30.942  32.720  1.00  0.00     0.031 C 
ATOM     41  C   UNL A   1      40.337  26.446  27.542  1.00  0.00     0.029 A 
ATOM     42  C   UNL A   1      41.392  26.343  28.544  1.00  0.00     0.049 A 
ATOM     43  H   UNL A   1      41.637  27.525  30.243  1.00  0.00     0.167 HD
ATOM     44  C   UNL A   1      42.254  29.997  33.669  1.00  0.00     0.031 A 
ATOM     45  C   UNL A   1      42.400  25.448  28.504  1.00  0.00     0.031 A 
ATOM     46  C   UNL A   1      43.324  29.036  33.753  1.00  0.00     0.049 A 
ATOM     47  C   UNL A   1      43.443  25.420  29.586  1.00  0.00     0.074 A 
ATOM     48  C   UNL A   1      44.289  28.909  34.741  1.00  0.00     0.029 A 
ATOM     49  N   UNL A   1      43.571  28.037  32.829  1.00  0.00    -0.354 N 
ATOM     50  N   UNL A   1      43.556  26.182  30.645  1.00  0.00    -0.248 NA
ATOM     51  C   UNL A   1      44.496  24.397  29.468  1.00  0.00     0.031 C 
ATOM     52  C   UNL A   1      45.143  27.856  34.394  1.00  0.00     0.029 A 
ATOM     53  C   UNL A   1      44.680  27.300  33.215  1.00  0.00     0.049 A 
ATOM     54  H   UNL A   1      43.037  27.873  32.018  1.00  0.00     0.167 HD
ATOM     55  C   UNL A   1      44.671  25.713  31.330  1.00  0.00     0.074 A 
ATOM     56  C   UNL A   1      45.193  24.593  30.580  1.00  0.00     0.031 C 
ATOM     57  C   UNL A   1      45.208  26.180  32.483  1.00  0.00     0.031 A 
BRANCH  44  58
ATOM     58  C   UNL A   1      42.213  31.075  34.721  1.00  0.00    -0.014 A 
ATOM     59  C   UNL A   1      41.458  30.916  35.894  1.00  0.00     0.009 A 
ATOM     60  C   UNL A   1      42.991  32.234  34.566  1.00  0.00     0.009 A 
ATOM     61  C   UNL A   1      41.447  31.915  36.869  1.00  0.00     0.001 A 
ATOM     62  C   UNL A   1      43.003  33.217  35.559  1.00  0.00     0.001 A 
ATOM     63  C   UNL A   1      42.222  33.062  36.703  1.00  0.00     0.000 A 
ENDBRANCH  44  58
BRANCH  45  64
ATOM     64  C   UNL A   1      42.464  24.449  27.402  1.00  0.00    -0.014 A 
ATOM     65  C   UNL A   1      41.749  23.245  27.500  1.00  0.00     0.009 A 
ATOM     66  C   UNL A   1      43.257  24.680  26.269  1.00  0.00     0.009 A 
ATOM     67  C   UNL A   1      41.851  22.279  26.497  1.00  0.00     0.001 A 
ATOM     68  C   UNL A   1      43.333  23.723  25.254  1.00  0.00     0.001 A 
ATOM     69  C   UNL A   1      42.639  22.520  25.374  1.00  0.00     0.000 A 
ENDBRANCH  45  64
BRANCH  57  70
ATOM     70  C   UNL A   1      46.404  25.458  33.038  1.00  0.00    -0.014 A 
ATOM     71  C   UNL A   1      47.712  25.836  32.695  1.00  0.00     0.009 A 
ATOM     72  C   UNL A   1      46.221  24.406  33.951  1.00  0.00     0.009 A 
ATOM     73  C   UNL A   1      48.809  25.157  33.231  1.00  0.00     0.001 A 
ATOM     74  C   UNL A   1      47.320  23.745  34.504  1.00  0.00     0.001 A 
ATOM     75  C   UNL A   1      48.613  24.116  34.138  1.00  0.00     0.000 A 
ENDBRANCH  57  70
ENDBRANCH  31  32
ENDBRANCH  23  26
ENDBRANCH  21  22
ENDBRANCH  20  21
ENDBRANCH   1  20
TORSDOF 13
ENDMDL
MODEL 2
REMARK VINA RESULT:      -9.7      4.075      9.049
REMARK SMILES O=C(CC[N@@H+]1CCc2ccccc2C1)NCCCCNC(=O)c1ccc(-c2c3nc(c(-c4ccccc4)c4ccc([nH]4)c(-c4ccccc4)c4nc(c(-c5ccccc5)c5ccc2[nH]5)C=C4)C=C3)cc1
REMARK SMILES IDX 17 1 16 2 15 3 1 4 2 5 3 7 4 8 5 9 6 10 14 11 7 13 13 14
REMARK SMILES IDX 8 15 12 16 9 17 11 18 10 19 18 20 19 21 20 22 21 23 22 25
REMARK SMILES IDX 23 26 24 27 70 28 25 29 69 30 26 31 27 32 28 33 63 34 29 35
REMARK SMILES IDX 68 36 62 37 64 38 30 39 67 40 61 41 60 42 31 44 53 45 38 46
REMARK SMILES IDX 52 47 39 48 42 49 51 50 65 51 40 52 41 53 50 55 66 56 43 57
REMARK SMILES IDX 32 58 33 59 37 60 34 61 36 62 35 63 54 64 55 65 59 66 56 67
REMARK SMILES IDX 58 68 57 69 44 70 45 71 49 72 46 73 48 74 47 75
REMARK H PARENT 15 6 5 12 20 24 64 43 42 54
REMARK Flexibility Score: inf
ROOT
ATOM      1  C   UNL A   1      32.241  29.593  25.148  1.00  0.00     0.023 C 
ENDROOT
BRANCH   1   2
ATOM      2  C   UNL A   1      31.550  28.606  24.201  1.00  0.00     0.116 C 
BRANCH   2   3
ATOM      3  N   UNL A   1      31.222  27.348  24.846  1.00  0.00    -0.356 N 
ATOM      4  O   UNL A   1      32.150  25.962  23.267  1.00  0.00    -0.275 OA
ATOM      5  C   UNL A   1      31.550  26.116  24.326  1.00  0.00     0.225 C 
ATOM      6  H   UNL A   1      30.738  27.377  25.703  1.00  0.00     0.163 HD
BRANCH   5   7
ATOM      7  C   UNL A   1      31.087  24.933  25.155  1.00  0.00     0.161 C 
BRANCH   7   8
ATOM      8  C   UNL A   1      32.171  24.377  26.076  1.00  0.00     0.272 C 
BRANCH   8   9
ATOM      9  N   UNL A   1      33.322  23.874  25.364  1.00  0.00    -0.330 N 
ATOM     10  C   UNL A   1      33.200  22.781  24.425  1.00  0.00     0.267 C 
ATOM     11  C   UNL A   1      34.641  24.397  25.648  1.00  0.00     0.299 C 
ATOM     12  H   UNL A   1      32.860  24.564  24.772  1.00  0.00     0.348 HD
ATOM     13  C   UNL A   1      34.029  21.588  24.901  1.00  0.00     0.097 C 
ATOM     14  C   UNL A   1      35.725  23.339  25.594  1.00  0.00     0.010 A 
ATOM     15  C   UNL A   1      35.441  22.010  25.210  1.00  0.00    -0.034 A 
ATOM     16  C   UNL A   1      37.046  23.707  25.880  1.00  0.00     0.010 A 
ATOM     17  C   UNL A   1      36.471  21.079  25.117  1.00  0.00     0.004 A 
ATOM     18  C   UNL A   1      38.074  22.779  25.744  1.00  0.00     0.001 A 
ATOM     19  C   UNL A   1      37.781  21.477  25.345  1.00  0.00     0.000 A 
ENDBRANCH   8   9
ENDBRANCH   7   8
ENDBRANCH   5   7
ENDBRANCH   2   3
ENDBRANCH   1   2
BRANCH   1  20
ATOM     20  C   UNL A   1      33.533  29.094  25.812  1.00  0.00     0.023 C 
BRANCH  20  21
ATOM     21  C   UNL A   1      33.523  28.999  27.345  1.00  0.00     0.116 C 
BRANCH  21  22
ATOM     22  N   UNL A   1      33.654  30.290  28.007  1.00  0.00    -0.352 N 
ATOM     23  C   UNL A   1      34.753  30.861  28.610  1.00  0.00     0.251 C 
ATOM     24  H   UNL A   1      32.835  30.835  28.026  1.00  0.00     0.163 HD
ATOM     25  O   UNL A   1      34.641  31.938  29.192  1.00  0.00    -0.269 OA
BRANCH  23  26
ATOM     26  C   UNL A   1      36.076  30.190  28.595  1.00  0.00     0.039 A 
ATOM     27  C   UNL A   1      36.825  30.175  27.416  1.00  0.00     0.014 A 
ATOM     28  C   UNL A   1      36.562  29.513  29.710  1.00  0.00     0.014 A 
ATOM     29  C   UNL A   1      38.095  29.571  27.388  1.00  0.00     0.010 A 
ATOM     30  C   UNL A   1      37.851  28.951  29.687  1.00  0.00     0.010 A 
ATOM     31  C   UNL A   1      38.663  29.004  28.544  1.00  0.00    -0.014 A 
BRANCH  31  32
ATOM     32  C   UNL A   1      40.097  28.538  28.568  1.00  0.00     0.031 A 
ATOM     33  C   UNL A   1      40.500  27.122  28.205  1.00  0.00     0.074 A 
ATOM     34  C   UNL A   1      41.077  29.370  28.996  1.00  0.00     0.049 A 
ATOM     35  N   UNL A   1      41.696  26.575  28.210  1.00  0.00    -0.248 NA
ATOM     36  C   UNL A   1      39.429  26.190  27.826  1.00  0.00     0.031 C 
ATOM     37  C   UNL A   1      40.884  30.736  29.486  1.00  0.00     0.029 A 
ATOM     38  N   UNL A   1      42.441  29.186  29.083  1.00  0.00    -0.354 N 
ATOM     39  C   UNL A   1      41.512  25.236  27.883  1.00  0.00     0.074 A 
ATOM     40  C   UNL A   1      40.085  25.042  27.734  1.00  0.00     0.031 C 
ATOM     41  C   UNL A   1      42.080  31.287  29.750  1.00  0.00     0.029 A 
ATOM     42  C   UNL A   1      43.129  30.303  29.500  1.00  0.00     0.049 A 
ATOM     43  H   UNL A   1      42.884  28.334  28.866  1.00  0.00     0.167 HD
ATOM     44  C   UNL A   1      42.431  24.254  27.689  1.00  0.00     0.031 A 
ATOM     45  C   UNL A   1      44.447  30.534  29.663  1.00  0.00     0.031 A 
ATOM     46  C   UNL A   1      43.860  24.424  27.763  1.00  0.00     0.049 A 
ATOM     47  C   UNL A   1      45.454  29.454  29.380  1.00  0.00     0.074 A 
ATOM     48  C   UNL A   1      44.851  23.501  27.468  1.00  0.00     0.029 A 
ATOM     49  N   UNL A   1      44.504  25.585  28.150  1.00  0.00    -0.354 N 
ATOM     50  N   UNL A   1      45.255  28.225  28.975  1.00  0.00    -0.248 NA
ATOM     51  C   UNL A   1      46.873  29.801  29.569  1.00  0.00     0.031 C 
ATOM     52  C   UNL A   1      46.095  24.092  27.714  1.00  0.00     0.029 A 
ATOM     53  C   UNL A   1      45.878  25.397  28.116  1.00  0.00     0.049 A 
ATOM     54  H   UNL A   1      44.054  26.422  28.411  1.00  0.00     0.167 HD
ATOM     55  C   UNL A   1      46.520  27.664  28.836  1.00  0.00     0.074 A 
ATOM     56  C   UNL A   1      47.481  28.688  29.182  1.00  0.00     0.031 C 
ATOM     57  C   UNL A   1      46.846  26.406  28.452  1.00  0.00     0.031 A 
BRANCH  44  58
ATOM     58  C   UNL A   1      41.918  22.880  27.346  1.00  0.00    -0.014 A 
ATOM     59  C   UNL A   1      41.859  22.438  26.014  1.00  0.00     0.009 A 
ATOM     60  C   UNL A   1      41.553  21.993  28.372  1.00  0.00     0.009 A 
ATOM     61  C   UNL A   1      41.401  21.154  25.714  1.00  0.00     0.001 A 
ATOM     62  C   UNL A   1      41.126  20.697  28.069  1.00  0.00     0.001 A 
ATOM     63  C   UNL A   1      41.040  20.283  26.741  1.00  0.00     0.000 A 
ENDBRANCH  44  58
BRANCH  45  64
ATOM     64  C   UNL A   1      44.921  31.879  30.089  1.00  0.00    -0.014 A 
ATOM     65  C   UNL A   1      45.255  32.845  29.127  1.00  0.00     0.009 A 
ATOM     66  C   UNL A   1      45.066  32.192  31.448  1.00  0.00     0.009 A 
ATOM     67  C   UNL A   1      45.755  34.089  29.519  1.00  0.00     0.001 A 
ATOM     68  C   UNL A   1      45.539  33.448  31.836  1.00  0.00     0.001 A 
ATOM     69  C   UNL A   1      45.893  34.391  30.872  1.00  0.00     0.000 A 
ENDBRANCH  45  64
BRANCH  57  70
ATOM     70  C   UNL A   1      48.306  26.066  28.343  1.00  0.00    -0.014 A 
ATOM     71  C   UNL A   1      49.029  25.579  29.443  1.00  0.00     0.009 A 
ATOM     72  C   UNL A   1      48.961  26.197  27.107  1.00  0.00     0.009 A 
ATOM     73  C   UNL A   1      50.383  25.260  29.316  1.00  0.00     0.001 A 
ATOM     74  C   UNL A   1      50.308  25.853  26.976  1.00  0.00     0.001 A 
ATOM     75  C   UNL A   1      51.021  25.393  28.083  1.00  0.00     0.000 A 
ENDBRANCH  57  70
ENDBRANCH  31  32
ENDBRANCH  23  26
ENDBRANCH  21  22
ENDBRANCH  20  21
ENDBRANCH   1  20
TORSDOF 13
ENDMDL
MODEL 3
REMARK VINA RESULT:      -9.7      4.766     10.815
REMARK SMILES O=C(CC[N@@H+]1CCc2ccccc2C1)NCCCCNC(=O)c1ccc(-c2c3nc(c(-c4ccccc4)c4ccc([nH]4)c(-c4ccccc4)c4nc(c(-c5ccccc5)c5ccc2[nH]5)C=C4)C=C3)cc1
REMARK SMILES IDX 17 1 16 2 15 3 1 4 2 5 3 7 4 8 5 9 6 10 14 11 7 13 13 14
REMARK SMILES IDX 8 15 12 16 9 17 11 18 10 19 18 20 19 21 20 22 21 23 22 25
REMARK SMILES IDX 23 26 24 27 70 28 25 29 69 30 26 31 27 32 28 33 63 34 29 35
REMARK SMILES IDX 68 36 62 37 64 38 30 39 67 40 61 41 60 42 31 44 53 45 38 46
REMARK SMILES IDX 52 47 39 48 42 49 51 50 65 51 40 52 41 53 50 55 66 56 43 57
REMARK SMILES IDX 32 58 33 59 37 60 34 61 36 62 35 63 54 64 55 65 59 66 56 67
REMARK SMILES IDX 58 68 57 69 44 70 45 71 49 72 46 73 48 74 47 75
REMARK H PARENT 15 6 5 12 20 24 64 43 42 54
REMARK Flexibility Score: inf
ROOT
ATOM      1  C   UNL A   1      46.059  21.317  24.617  1.00  0.00     0.023 C 
ENDROOT
BRANCH   1   2
ATOM      2  C   UNL A   1      45.542  22.724  24.300  1.00  0.00     0.116 C 
BRANCH   2   3
ATOM      3  N   UNL A   1      46.485  23.764  24.668  1.00  0.00    -0.356 N 
ATOM      4  O   UNL A   1      44.958  25.458  24.934  1.00  0.00    -0.275 OA
ATOM      5  C   UNL A   1      46.118  25.058  24.960  1.00  0.00     0.225 C 
ATOM      6  H   UNL A   1      47.441  23.530  24.712  1.00  0.00     0.163 HD
BRANCH   5   7
ATOM      7  C   UNL A   1      47.271  25.985  25.295  1.00  0.00     0.161 C 
BRANCH   7   8
ATOM      8  C   UNL A   1      47.001  27.443  24.927  1.00  0.00     0.272 C 
BRANCH   8   9
ATOM      9  N   UNL A   1      46.978  28.325  26.070  1.00  0.00    -0.330 N 
ATOM     10  C   UNL A   1      45.729  28.817  26.608  1.00  0.00     0.267 C 
ATOM     11  C   UNL A   1      48.215  28.808  26.644  1.00  0.00     0.299 C 
ATOM     12  H   UNL A   1      46.859  27.370  26.405  1.00  0.00     0.348 HD
ATOM     13  C   UNL A   1      45.676  30.341  26.494  1.00  0.00     0.097 C 
ATOM     14  C   UNL A   1      48.128  30.242  27.126  1.00  0.00     0.010 A 
ATOM     15  C   UNL A   1      46.915  30.963  27.083  1.00  0.00    -0.034 A 
ATOM     16  C   UNL A   1      49.268  30.843  27.676  1.00  0.00     0.010 A 
ATOM     17  C   UNL A   1      46.858  32.259  27.587  1.00  0.00     0.004 A 
ATOM     18  C   UNL A   1      49.191  32.124  28.214  1.00  0.00     0.001 A 
ATOM     19  C   UNL A   1      47.982  32.815  28.183  1.00  0.00     0.000 A 
ENDBRANCH   8   9
ENDBRANCH   7   8
ENDBRANCH   5   7
ENDBRANCH   2   3
ENDBRANCH   1   2
BRANCH   1  20
ATOM     20  C   UNL A   1      45.118  20.158  24.256  1.00  0.00     0.023 C 
BRANCH  20  21
ATOM     21  C   UNL A   1      44.687  19.240  25.409  1.00  0.00     0.116 C 
BRANCH  21  22
ATOM     22  N   UNL A   1      43.290  18.833  25.336  1.00  0.00    -0.352 N 
ATOM     23  C   UNL A   1      42.158  19.497  25.755  1.00  0.00     0.251 C 
ATOM     24  H   UNL A   1      43.132  17.953  24.926  1.00  0.00     0.163 HD
ATOM     25  O   UNL A   1      41.062  18.946  25.678  1.00  0.00    -0.269 OA
BRANCH  23  26
ATOM     26  C   UNL A   1      42.234  20.864  26.326  1.00  0.00     0.039 A 
ATOM     27  C   UNL A   1      42.219  21.030  27.713  1.00  0.00     0.014 A 
ATOM     28  C   UNL A   1      42.252  21.993  25.512  1.00  0.00     0.014 A 
ATOM     29  C   UNL A   1      42.322  22.315  28.276  1.00  0.00     0.010 A 
ATOM     30  C   UNL A   1      42.399  23.271  26.083  1.00  0.00     0.010 A 
ATOM     31  C   UNL A   1      42.481  23.458  27.471  1.00  0.00    -0.014 A 
BRANCH  31  32
ATOM     32  C   UNL A   1      42.792  24.806  28.072  1.00  0.00     0.031 A 
ATOM     33  C   UNL A   1      44.193  25.210  28.489  1.00  0.00     0.074 A 
ATOM     34  C   UNL A   1      41.792  25.684  28.327  1.00  0.00     0.049 A 
ATOM     35  N   UNL A   1      44.600  26.329  29.047  1.00  0.00    -0.248 NA
ATOM     36  C   UNL A   1      45.266  24.225  28.296  1.00  0.00     0.031 C 
ATOM     37  C   UNL A   1      40.366  25.448  28.094  1.00  0.00     0.029 A 
ATOM     38  N   UNL A   1      41.827  26.965  28.839  1.00  0.00    -0.354 N 
ATOM     39  C   UNL A   1      45.956  26.161  29.309  1.00  0.00     0.074 A 
ATOM     40  C   UNL A   1      46.291  24.816  28.894  1.00  0.00     0.031 C 
ATOM     41  C   UNL A   1      39.677  26.561  28.390  1.00  0.00     0.029 A 
ATOM     42  C   UNL A   1      40.596  27.581  28.884  1.00  0.00     0.049 A 
ATOM     43  H   UNL A   1      42.656  27.400  29.145  1.00  0.00     0.167 HD
ATOM     44  C   UNL A   1      46.858  27.042  29.815  1.00  0.00     0.031 A 
ATOM     45  C   UNL A   1      40.230  28.821  29.266  1.00  0.00     0.031 A 
ATOM     46  C   UNL A   1      46.576  28.408  30.177  1.00  0.00     0.049 A 
ATOM     47  C   UNL A   1      41.254  29.803  29.762  1.00  0.00     0.074 A 
ATOM     48  C   UNL A   1      47.466  29.388  30.590  1.00  0.00     0.029 A 
ATOM     49  N   UNL A   1      45.323  28.992  30.165  1.00  0.00    -0.354 N 
ATOM     50  N   UNL A   1      42.546  29.649  29.905  1.00  0.00    -0.248 NA
ATOM     51  C   UNL A   1      40.764  31.140  30.142  1.00  0.00     0.031 C 
ATOM     52  C   UNL A   1      46.745  30.555  30.864  1.00  0.00     0.029 A 
ATOM     53  C   UNL A   1      45.414  30.314  30.577  1.00  0.00     0.049 A 
ATOM     54  H   UNL A   1      44.490  28.538  29.902  1.00  0.00     0.167 HD
ATOM     55  C   UNL A   1      43.024  30.871  30.362  1.00  0.00     0.074 A 
ATOM     56  C   UNL A   1      41.890  31.763  30.459  1.00  0.00     0.031 C 
ATOM     57  C   UNL A   1      44.297  31.215  30.673  1.00  0.00     0.031 A 
BRANCH  44  58
ATOM     58  C   UNL A   1      48.274  26.560  29.994  1.00  0.00    -0.014 A 
ATOM     59  C   UNL A   1      49.234  26.737  28.984  1.00  0.00     0.009 A 
ATOM     60  C   UNL A   1      48.669  25.982  31.211  1.00  0.00     0.009 A 
ATOM     61  C   UNL A   1      50.547  26.305  29.173  1.00  0.00     0.001 A 
ATOM     62  C   UNL A   1      49.992  25.580  31.409  1.00  0.00     0.001 A 
ATOM     63  C   UNL A   1      50.927  25.731  30.385  1.00  0.00     0.000 A 
ENDBRANCH  44  58
BRANCH  45  64
ATOM     64  C   UNL A   1      38.806  29.241  29.161  1.00  0.00    -0.014 A 
ATOM     65  C   UNL A   1      37.940  29.075  30.254  1.00  0.00     0.009 A 
ATOM     66  C   UNL A   1      38.301  29.778  27.969  1.00  0.00     0.009 A 
ATOM     67  C   UNL A   1      36.590  29.412  30.144  1.00  0.00     0.001 A 
ATOM     68  C   UNL A   1      36.956  30.142  27.872  1.00  0.00     0.001 A 
ATOM     69  C   UNL A   1      36.099  29.949  28.956  1.00  0.00     0.000 A 
ENDBRANCH  45  64
BRANCH  57  70
ATOM     70  C   UNL A   1      44.552  32.630  31.110  1.00  0.00    -0.014 A 
ATOM     71  C   UNL A   1      44.569  32.985  32.469  1.00  0.00     0.009 A 
ATOM     72  C   UNL A   1      44.818  33.619  30.149  1.00  0.00     0.009 A 
ATOM     73  C   UNL A   1      44.817  34.306  32.852  1.00  0.00     0.001 A 
ATOM     74  C   UNL A   1      45.091  34.932  30.536  1.00  0.00     0.001 A 
ATOM     75  C   UNL A   1      45.082  35.277  31.888  1.00  0.00     0.000 A 
ENDBRANCH  57  70
ENDBRANCH  31  32
ENDBRANCH  23  26
ENDBRANCH  21  22
ENDBRANCH  20  21
ENDBRANCH   1  20
TORSDOF 13
ENDMDL
