MODEL 1
REMARK VINA RESULT:     -11.6      0.000      0.000
REMARK SMILES COc1c(Cl)cc(C[NH2+][C@@H](Cc2c[nH]c3ccccc23)C(=O)NCCCCNC(=O)c2ccc(-c3c4nc(c(-c5ccccc5)c5ccc([nH]5)c(-c5ccccc5)c5nc(c(-c6ccccc6)c6ccc3[nH]6)C=C5)C=C4)cc2)cc1Cl
REMARK SMILES IDX 24 1 23 2 21 3 22 4 10 6 9 7 8 10 7 11 3 12 4 13 80 14 5 15
REMARK SMILES IDX 6 16 79 17 81 18 2 19 1 20 11 21 12 22 13 23 20 24 14 25
REMARK SMILES IDX 15 26 19 27 16 29 18 30 17 31 25 32 26 33 27 34 28 35 29 36
REMARK SMILES IDX 30 38 31 39 32 40 78 41 33 42 77 43 34 44 35 45 36 46 71 47
REMARK SMILES IDX 37 48 76 49 70 50 72 51 38 52 75 53 69 54 68 55 39 57 61 58
REMARK SMILES IDX 46 59 60 60 47 61 50 62 59 63 73 64 48 65 49 66 58 68 74 69
REMARK SMILES IDX 51 70 40 71 41 72 45 73 42 74 44 75 43 76 62 77 63 78 67 79
REMARK SMILES IDX 64 80 66 81 65 82 52 83 53 84 57 85 54 86 56 87 55 88
REMARK H PARENT 23 5 9 8 9 9 14 28 28 37 72 56 50 67
REMARK Flexibility Score: inf
ROOT
ATOM      1  C   UNL A   1      35.892  21.302  25.673  1.00  0.00     0.116 C 
ENDROOT
BRANCH   1   2
ATOM      2  N   UNL A   1      34.744  20.551  25.206  1.00  0.00    -0.351 N 
ATOM      3  C   UNL A   1      33.583  20.975  24.614  1.00  0.00     0.278 C 
ATOM      4  O   UNL A   1      32.944  20.128  23.977  1.00  0.00    -0.268 OA
ATOM      5  H   UNL A   1      34.808  19.577  25.334  1.00  0.00     0.163 HD
BRANCH   3   6
ATOM      6  C   UNL A   1      33.059  22.436  24.699  1.00  0.00     0.277 C 
BRANCH   6   7
ATOM      7  N   UNL A   1      32.235  22.739  23.514  1.00  0.00    -0.332 N 
ATOM      8  H   UNL A   1      31.907  21.854  23.128  1.00  0.00     0.347 HD
ATOM      9  H   UNL A   1      31.491  23.352  23.847  1.00  0.00     0.347 HD
BRANCH   7  10
ATOM     10  C   UNL A   1      32.893  23.472  22.446  1.00  0.00     0.298 C 
BRANCH  10  11
ATOM     11  C   UNL A   1      32.386  24.900  22.495  1.00  0.00     0.009 A 
ATOM     12  C   UNL A   1      31.521  27.554  22.910  1.00  0.00     0.156 A 
ATOM     13  C   UNL A   1      32.843  27.289  22.533  1.00  0.00     0.085 A 
ATOM     14  C   UNL A   1      30.635  26.483  23.083  1.00  0.00     0.085 A 
ATOM     15  Cl  UNL A   1      34.027  28.539  22.387  1.00  0.00    -0.080 Cl
ATOM     16  C   UNL A   1      33.269  25.974  22.317  1.00  0.00     0.034 A 
ATOM     17  C   UNL A   1      31.061  25.169  22.869  1.00  0.00     0.034 A 
ATOM     18  Cl  UNL A   1      29.005  26.739  23.596  1.00  0.00    -0.080 Cl
BRANCH  12  19
ATOM     19  O   UNL A   1      31.100  28.820  23.235  1.00  0.00    -0.494 OA
ATOM     20  C   UNL A   1      30.529  29.499  22.119  1.00  0.00     0.278 C 
ENDBRANCH  12  19
ENDBRANCH  10  11
ENDBRANCH   7  10
ENDBRANCH   6   7
BRANCH   6  21
ATOM     21  C   UNL A   1      32.543  22.799  26.113  1.00  0.00     0.113 C 
BRANCH  21  22
ATOM     22  C   UNL A   1      31.796  24.090  26.260  1.00  0.00    -0.016 A 
ATOM     23  C   UNL A   1      30.445  24.252  26.511  1.00  0.00     0.087 A 
ATOM     24  C   UNL A   1      32.357  25.409  26.168  1.00  0.00     0.003 A 
ATOM     25  N   UNL A   1      30.185  25.593  26.630  1.00  0.00    -0.361 N 
ATOM     26  C   UNL A   1      31.342  26.318  26.467  1.00  0.00     0.046 A 
ATOM     27  C   UNL A   1      33.658  25.906  25.936  1.00  0.00     0.010 A 
ATOM     28  H   UNL A   1      29.298  25.980  26.808  1.00  0.00     0.166 HD
ATOM     29  C   UNL A   1      31.569  27.696  26.581  1.00  0.00     0.026 A 
ATOM     30  C   UNL A   1      33.902  27.279  26.045  1.00  0.00     0.001 A 
ATOM     31  C   UNL A   1      32.872  28.158  26.369  1.00  0.00     0.002 A 
ENDBRANCH  21  22
ENDBRANCH   6  21
ENDBRANCH   3   6
ENDBRANCH   1   2
BRANCH   1  32
ATOM     32  C   UNL A   1      37.103  21.227  24.754  1.00  0.00     0.023 C 
BRANCH  32  33
ATOM     33  C   UNL A   1      38.011  20.021  25.001  1.00  0.00     0.023 C 
BRANCH  33  34
ATOM     34  C   UNL A   1      39.292  20.287  25.795  1.00  0.00     0.116 C 
BRANCH  34  35
ATOM     35  N   UNL A   1      40.217  19.165  25.833  1.00  0.00    -0.352 N 
ATOM     36  C   UNL A   1      41.558  19.166  26.155  1.00  0.00     0.251 C 
ATOM     37  H   UNL A   1      39.836  18.289  25.598  1.00  0.00     0.163 HD
ATOM     38  O   UNL A   1      42.208  18.134  26.124  1.00  0.00    -0.269 OA
BRANCH  36  39
ATOM     39  C   UNL A   1      42.214  20.446  26.505  1.00  0.00     0.039 A 
ATOM     40  C   UNL A   1      42.810  21.195  25.487  1.00  0.00     0.014 A 
ATOM     41  C   UNL A   1      42.209  20.918  27.820  1.00  0.00     0.014 A 
ATOM     42  C   UNL A   1      43.332  22.459  25.776  1.00  0.00     0.010 A 
ATOM     43  C   UNL A   1      42.681  22.200  28.096  1.00  0.00     0.010 A 
ATOM     44  C   UNL A   1      43.236  22.987  27.075  1.00  0.00    -0.014 A 
BRANCH  44  45
ATOM     45  C   UNL A   1      43.666  24.378  27.365  1.00  0.00     0.031 A 
ATOM     46  C   UNL A   1      42.663  25.428  27.749  1.00  0.00     0.074 A 
ATOM     47  C   UNL A   1      44.964  24.711  27.220  1.00  0.00     0.049 A 
ATOM     48  N   UNL A   1      42.861  26.692  28.033  1.00  0.00    -0.248 NA
ATOM     49  C   UNL A   1      41.252  25.012  27.802  1.00  0.00     0.031 C 
ATOM     50  C   UNL A   1      46.030  23.801  26.798  1.00  0.00     0.029 A 
ATOM     51  N   UNL A   1      45.605  25.910  27.408  1.00  0.00    -0.354 N 
ATOM     52  C   UNL A   1      41.603  27.222  28.291  1.00  0.00     0.074 A 
ATOM     53  C   UNL A   1      40.645  26.157  28.083  1.00  0.00     0.031 C 
ATOM     54  C   UNL A   1      47.197  24.466  26.786  1.00  0.00     0.029 A 
ATOM     55  C   UNL A   1      46.957  25.854  27.170  1.00  0.00     0.049 A 
ATOM     56  H   UNL A   1      45.141  26.732  27.687  1.00  0.00     0.167 HD
ATOM     57  C   UNL A   1      41.276  28.476  28.683  1.00  0.00     0.031 A 
ATOM     58  C   UNL A   1      47.901  26.810  27.255  1.00  0.00     0.031 A 
ATOM     59  C   UNL A   1      42.225  29.538  28.892  1.00  0.00     0.049 A 
ATOM     60  C   UNL A   1      47.511  28.195  27.688  1.00  0.00     0.074 A 
ATOM     61  C   UNL A   1      41.995  30.823  29.349  1.00  0.00     0.029 A 
ATOM     62  N   UNL A   1      43.586  29.438  28.647  1.00  0.00    -0.354 N 
ATOM     63  N   UNL A   1      46.328  28.656  28.016  1.00  0.00    -0.248 NA
ATOM     64  C   UNL A   1      48.591  29.188  27.777  1.00  0.00     0.031 C 
ATOM     65  C   UNL A   1      43.209  31.517  29.337  1.00  0.00     0.029 A 
ATOM     66  C   UNL A   1      44.204  30.648  28.921  1.00  0.00     0.049 A 
ATOM     67  H   UNL A   1      44.045  28.629  28.327  1.00  0.00     0.167 HD
ATOM     68  C   UNL A   1      46.526  29.983  28.374  1.00  0.00     0.074 A 
ATOM     69  C   UNL A   1      47.944  30.248  28.241  1.00  0.00     0.031 C 
ATOM     70  C   UNL A   1      45.614  30.900  28.779  1.00  0.00     0.031 A 
BRANCH  57  71
ATOM     71  C   UNL A   1      39.820  28.768  28.914  1.00  0.00    -0.014 A 
ATOM     72  C   UNL A   1      39.010  29.276  27.885  1.00  0.00     0.009 A 
ATOM     73  C   UNL A   1      39.239  28.497  30.163  1.00  0.00     0.009 A 
ATOM     74  C   UNL A   1      37.658  29.541  28.113  1.00  0.00     0.001 A 
ATOM     75  C   UNL A   1      37.881  28.737  30.379  1.00  0.00     0.001 A 
ATOM     76  C   UNL A   1      37.094  29.267  29.358  1.00  0.00     0.000 A 
ENDBRANCH  57  71
BRANCH  58  77
ATOM     77  C   UNL A   1      49.318  26.486  26.950  1.00  0.00    -0.014 A 
ATOM     78  C   UNL A   1      49.830  26.688  25.660  1.00  0.00     0.009 A 
ATOM     79  C   UNL A   1      50.163  25.964  27.943  1.00  0.00     0.009 A 
ATOM     80  C   UNL A   1      51.152  26.350  25.361  1.00  0.00     0.001 A 
ATOM     81  C   UNL A   1      51.492  25.652  27.648  1.00  0.00     0.001 A 
ATOM     82  C   UNL A   1      51.982  25.836  26.357  1.00  0.00     0.000 A 
ENDBRANCH  58  77
BRANCH  70  83
ATOM     83  C   UNL A   1      46.127  32.267  29.131  1.00  0.00    -0.014 A 
ATOM     84  C   UNL A   1      46.562  32.568  30.431  1.00  0.00     0.009 A 
ATOM     85  C   UNL A   1      46.204  33.259  28.141  1.00  0.00     0.009 A 
ATOM     86  C   UNL A   1      47.032  33.847  30.740  1.00  0.00     0.001 A 
ATOM     87  C   UNL A   1      46.701  34.527  28.446  1.00  0.00     0.001 A 
ATOM     88  C   UNL A   1      47.105  34.822  29.746  1.00  0.00     0.000 A 
ENDBRANCH  70  83
ENDBRANCH  44  45
ENDBRANCH  36  39
ENDBRANCH  34  35
ENDBRANCH  33  34
ENDBRANCH  32  33
ENDBRANCH   1  32
TORSDOF 17
ENDMDL
MODEL 2
REMARK VINA RESULT:     -11.4      2.778      7.188
REMARK SMILES COc1c(Cl)cc(C[NH2+][C@@H](Cc2c[nH]c3ccccc23)C(=O)NCCCCNC(=O)c2ccc(-c3c4nc(c(-c5ccccc5)c5ccc([nH]5)c(-c5ccccc5)c5nc(c(-c6ccccc6)c6ccc3[nH]6)C=C5)C=C4)cc2)cc1Cl
REMARK SMILES IDX 24 1 23 2 21 3 22 4 10 6 9 7 8 10 7 11 3 12 4 13 80 14 5 15
REMARK SMILES IDX 6 16 79 17 81 18 2 19 1 20 11 21 12 22 13 23 20 24 14 25
REMARK SMILES IDX 15 26 19 27 16 29 18 30 17 31 25 32 26 33 27 34 28 35 29 36
REMARK SMILES IDX 30 38 31 39 32 40 78 41 33 42 77 43 34 44 35 45 36 46 71 47
REMARK SMILES IDX 37 48 76 49 70 50 72 51 38 52 75 53 69 54 68 55 39 57 61 58
REMARK SMILES IDX 46 59 60 60 47 61 50 62 59 63 73 64 48 65 49 66 58 68 74 69
REMARK SMILES IDX 51 70 40 71 41 72 45 73 42 74 44 75 43 76 62 77 63 78 67 79
REMARK SMILES IDX 64 80 66 81 65 82 52 83 53 84 57 85 54 86 56 87 55 88
REMARK H PARENT 23 5 9 8 9 9 14 28 28 37 72 56 50 67
REMARK Flexibility Score: inf
ROOT
ATOM      1  C   UNL A   1      31.824  26.197  26.467  1.00  0.00     0.116 C 
ENDROOT
BRANCH   1   2
ATOM      2  N   UNL A   1      31.731  24.961  27.218  1.00  0.00    -0.351 N 
ATOM      3  C   UNL A   1      31.873  23.660  26.813  1.00  0.00     0.278 C 
ATOM      4  O   UNL A   1      32.121  22.828  27.696  1.00  0.00    -0.268 OA
ATOM      5  H   UNL A   1      31.534  25.074  28.176  1.00  0.00     0.163 HD
BRANCH   3   6
ATOM      6  C   UNL A   1      31.751  23.202  25.333  1.00  0.00     0.277 C 
BRANCH   6   7
ATOM      7  N   UNL A   1      30.502  23.728  24.751  1.00  0.00    -0.332 N 
ATOM      8  H   UNL A   1      29.799  22.992  24.805  1.00  0.00     0.347 HD
ATOM      9  H   UNL A   1      30.278  24.563  25.291  1.00  0.00     0.347 HD
BRANCH   7  10
ATOM     10  C   UNL A   1      30.576  24.169  23.368  1.00  0.00     0.298 C 
BRANCH  10  11
ATOM     11  C   UNL A   1      30.384  25.672  23.359  1.00  0.00     0.009 A 
ATOM     12  C   UNL A   1      29.969  28.443  23.014  1.00  0.00     0.156 A 
ATOM     13  C   UNL A   1      28.899  27.599  23.334  1.00  0.00     0.085 A 
ATOM     14  C   UNL A   1      31.248  27.892  22.863  1.00  0.00     0.085 A 
ATOM     15  Cl  UNL A   1      27.274  28.176  23.448  1.00  0.00    -0.080 Cl
ATOM     16  C   UNL A   1      29.107  26.227  23.515  1.00  0.00     0.034 A 
ATOM     17  C   UNL A   1      31.456  26.521  23.042  1.00  0.00     0.034 A 
ATOM     18  Cl  UNL A   1      32.602  28.870  22.420  1.00  0.00    -0.080 Cl
BRANCH  12  19
ATOM     19  O   UNL A   1      29.783  29.771  22.723  1.00  0.00    -0.494 OA
ATOM     20  C   UNL A   1      29.833  30.589  23.891  1.00  0.00     0.278 C 
ENDBRANCH  12  19
ENDBRANCH  10  11
ENDBRANCH   7  10
ENDBRANCH   6   7
BRANCH   6  21
ATOM     21  C   UNL A   1      33.084  23.342  24.557  1.00  0.00     0.113 C 
BRANCH  21  22
ATOM     22  C   UNL A   1      34.170  22.360  24.876  1.00  0.00    -0.016 A 
ATOM     23  C   UNL A   1      34.086  20.979  24.843  1.00  0.00     0.087 A 
ATOM     24  C   UNL A   1      35.512  22.680  25.276  1.00  0.00     0.003 A 
ATOM     25  N   UNL A   1      35.320  20.464  25.145  1.00  0.00    -0.361 N 
ATOM     26  C   UNL A   1      36.218  21.481  25.372  1.00  0.00     0.046 A 
ATOM     27  C   UNL A   1      36.208  23.890  25.485  1.00  0.00     0.010 A 
ATOM     28  H   UNL A   1      35.533  19.504  25.192  1.00  0.00     0.166 HD
ATOM     29  C   UNL A   1      37.594  21.432  25.633  1.00  0.00     0.026 A 
ATOM     30  C   UNL A   1      37.582  23.859  25.748  1.00  0.00     0.001 A 
ATOM     31  C   UNL A   1      38.263  22.647  25.814  1.00  0.00     0.002 A 
ENDBRANCH  21  22
ENDBRANCH   6  21
ENDBRANCH   3   6
ENDBRANCH   1   2
BRANCH   1  32
ATOM     32  C   UNL A   1      33.249  26.679  26.232  1.00  0.00     0.023 C 
BRANCH  32  33
ATOM     33  C   UNL A   1      33.427  28.196  26.322  1.00  0.00     0.023 C 
BRANCH  33  34
ATOM     34  C   UNL A   1      33.177  28.828  27.694  1.00  0.00     0.116 C 
BRANCH  34  35
ATOM     35  N   UNL A   1      33.322  30.276  27.722  1.00  0.00    -0.352 N 
ATOM     36  C   UNL A   1      34.454  31.022  27.972  1.00  0.00     0.251 C 
ATOM     37  H   UNL A   1      32.504  30.791  27.537  1.00  0.00     0.163 HD
ATOM     38  O   UNL A   1      34.409  32.241  27.977  1.00  0.00    -0.269 OA
BRANCH  36  39
ATOM     39  C   UNL A   1      35.724  30.325  28.276  1.00  0.00     0.039 A 
ATOM     40  C   UNL A   1      36.691  30.226  27.273  1.00  0.00     0.014 A 
ATOM     41  C   UNL A   1      35.971  29.808  29.550  1.00  0.00     0.014 A 
ATOM     42  C   UNL A   1      37.941  29.676  27.572  1.00  0.00     0.010 A 
ATOM     43  C   UNL A   1      37.235  29.309  29.860  1.00  0.00     0.010 A 
ATOM     44  C   UNL A   1      38.235  29.250  28.878  1.00  0.00    -0.014 A 
BRANCH  44  45
ATOM     45  C   UNL A   1      39.599  28.788  29.239  1.00  0.00     0.031 A 
ATOM     46  C   UNL A   1      40.537  29.681  30.000  1.00  0.00     0.074 A 
ATOM     47  C   UNL A   1      40.017  27.576  28.823  1.00  0.00     0.049 A 
ATOM     48  N   UNL A   1      41.763  29.443  30.396  1.00  0.00    -0.248 NA
ATOM     49  C   UNL A   1      40.042  31.024  30.345  1.00  0.00     0.031 C 
ATOM     50  C   UNL A   1      39.227  26.634  28.029  1.00  0.00     0.029 A 
ATOM     51  N   UNL A   1      41.215  26.932  29.007  1.00  0.00    -0.354 N 
ATOM     52  C   UNL A   1      42.188  30.605  31.028  1.00  0.00     0.074 A 
ATOM     53  C   UNL A   1      41.108  31.563  30.921  1.00  0.00     0.031 C 
ATOM     54  C   UNL A   1      39.950  25.522  27.818  1.00  0.00     0.029 A 
ATOM     55  C   UNL A   1      41.262  25.684  28.435  1.00  0.00     0.049 A 
ATOM     56  H   UNL A   1      41.969  27.327  29.502  1.00  0.00     0.167 HD
ATOM     57  C   UNL A   1      43.362  30.847  31.657  1.00  0.00     0.031 A 
ATOM     58  C   UNL A   1      42.249  24.769  28.413  1.00  0.00     0.031 A 
ATOM     59  C   UNL A   1      44.438  29.897  31.766  1.00  0.00     0.049 A 
ATOM     60  C   UNL A   1      43.545  25.064  29.114  1.00  0.00     0.074 A 
ATOM     61  C   UNL A   1      45.641  30.029  32.438  1.00  0.00     0.029 A 
ATOM     62  N   UNL A   1      44.444  28.640  31.180  1.00  0.00    -0.354 N 
ATOM     63  N   UNL A   1      43.897  26.133  29.785  1.00  0.00    -0.248 NA
ATOM     64  C   UNL A   1      44.575  24.016  29.067  1.00  0.00     0.031 C 
ATOM     65  C   UNL A   1      46.395  28.872  32.219  1.00  0.00     0.029 A 
ATOM     66  C   UNL A   1      45.641  27.998  31.454  1.00  0.00     0.049 A 
ATOM     67  H   UNL A   1      43.707  28.262  30.648  1.00  0.00     0.167 HD
ATOM     68  C   UNL A   1      45.176  25.877  30.261  1.00  0.00     0.074 A 
ATOM     69  C   UNL A   1      45.531  24.545  29.817  1.00  0.00     0.031 C 
ATOM     70  C   UNL A   1      45.984  26.675  31.001  1.00  0.00     0.031 A 
BRANCH  57  71
ATOM     71  C   UNL A   1      43.544  32.202  32.281  1.00  0.00    -0.014 A 
ATOM     72  C   UNL A   1      44.177  33.243  31.581  1.00  0.00     0.009 A 
ATOM     73  C   UNL A   1      43.044  32.455  33.567  1.00  0.00     0.009 A 
ATOM     74  C   UNL A   1      44.337  34.498  32.171  1.00  0.00     0.001 A 
ATOM     75  C   UNL A   1      43.182  33.719  34.144  1.00  0.00     0.001 A 
ATOM     76  C   UNL A   1      43.835  34.736  33.451  1.00  0.00     0.000 A 
ENDBRANCH  57  71
BRANCH  58  77
ATOM     77  C   UNL A   1      42.043  23.469  27.723  1.00  0.00    -0.014 A 
ATOM     78  C   UNL A   1      42.400  23.316  26.375  1.00  0.00     0.009 A 
ATOM     79  C   UNL A   1      41.481  22.379  28.406  1.00  0.00     0.009 A 
ATOM     80  C   UNL A   1      42.174  22.107  25.715  1.00  0.00     0.001 A 
ATOM     81  C   UNL A   1      41.280  21.162  27.750  1.00  0.00     0.001 A 
ATOM     82  C   UNL A   1      41.617  21.029  26.405  1.00  0.00     0.000 A 
ENDBRANCH  58  77
BRANCH  70  83
ATOM     83  C   UNL A   1      47.321  26.117  31.398  1.00  0.00    -0.014 A 
ATOM     84  C   UNL A   1      47.515  25.514  32.651  1.00  0.00     0.009 A 
ATOM     85  C   UNL A   1      48.393  26.169  30.494  1.00  0.00     0.009 A 
ATOM     86  C   UNL A   1      48.766  25.004  33.002  1.00  0.00     0.001 A 
ATOM     87  C   UNL A   1      49.635  25.633  30.838  1.00  0.00     0.001 A 
ATOM     88  C   UNL A   1      49.823  25.060  32.094  1.00  0.00     0.000 A 
ENDBRANCH  70  83
ENDBRANCH  44  45
ENDBRANCH  36  39
ENDBRANCH  34  35
ENDBRANCH  33  34
ENDBRANCH  32  33
ENDBRANCH   1  32
TORSDOF 17
ENDMDL
MODEL 3
REMARK VINA RESULT:     -11.3      2.140      6.743
REMARK SMILES COc1c(Cl)cc(C[NH2+][C@@H](Cc2c[nH]c3ccccc23)C(=O)NCCCCNC(=O)c2ccc(-c3c4nc(c(-c5ccccc5)c5ccc([nH]5)c(-c5ccccc5)c5nc(c(-c6ccccc6)c6ccc3[nH]6)C=C5)C=C4)cc2)cc1Cl
REMARK SMILES IDX 24 1 23 2 21 3 22 4 10 6 9 7 8 10 7 11 3 12 4 13 80 14 5 15
REMARK SMILES IDX 6 16 79 17 81 18 2 19 1 20 11 21 12 22 13 23 20 24 14 25
REMARK SMILES IDX 15 26 19 27 16 29 18 30 17 31 25 32 26 33 27 34 28 35 29 36
REMARK SMILES IDX 30 38 31 39 32 40 78 41 33 42 77 43 34 44 35 45 36 46 71 47
REMARK SMILES IDX 37 48 76 49 70 50 72 51 38 52 75 53 69 54 68 55 39 57 61 58
REMARK SMILES IDX 46 59 60 60 47 61 50 62 59 63 73 64 48 65 49 66 58 68 74 69
REMARK SMILES IDX 51 70 40 71 41 72 45 73 42 74 44 75 43 76 62 77 63 78 67 79
REMARK SMILES IDX 64 80 66 81 65 82 52 83 53 84 57 85 54 86 56 87 55 88
REMARK H PARENT 23 5 9 8 9 9 14 28 28 37 72 56 50 67
REMARK Flexibility Score: inf
ROOT
ATOM      1  C   UNL A   1      35.784  22.539  24.991  1.00  0.00     0.116 C 
ENDROOT
BRANCH   1   2
ATOM      2  N   UNL A   1      35.390  22.796  23.620  1.00  0.00    -0.351 N 
ATOM      3  C   UNL A   1      34.147  22.946  23.063  1.00  0.00     0.278 C 
ATOM      4  O   UNL A   1      34.095  23.525  21.970  1.00  0.00    -0.268 OA
ATOM      5  H   UNL A   1      36.137  22.877  22.984  1.00  0.00     0.163 HD
BRANCH   3   6
ATOM      6  C   UNL A   1      32.839  22.445  23.735  1.00  0.00     0.277 C 
BRANCH   6   7
ATOM      7  N   UNL A   1      31.786  23.469  23.600  1.00  0.00    -0.332 N 
ATOM      8  H   UNL A   1      32.183  24.260  23.094  1.00  0.00     0.347 HD
ATOM      9  H   UNL A   1      31.015  23.007  23.117  1.00  0.00     0.347 HD
BRANCH   7  10
ATOM     10  C   UNL A   1      31.220  23.974  24.840  1.00  0.00     0.298 C 
BRANCH  10  11
ATOM     11  C   UNL A   1      31.740  25.384  25.035  1.00  0.00     0.009 A 
ATOM     12  C   UNL A   1      32.405  28.114  25.304  1.00  0.00     0.156 A 
ATOM     13  C   UNL A   1      31.873  27.403  26.387  1.00  0.00     0.085 A 
ATOM     14  C   UNL A   1      32.597  27.453  24.084  1.00  0.00     0.085 A 
ATOM     15  Cl  UNL A   1      31.516  28.160  27.898  1.00  0.00    -0.080 Cl
ATOM     16  C   UNL A   1      31.553  26.047  26.256  1.00  0.00     0.034 A 
ATOM     17  C   UNL A   1      32.276  26.098  23.954  1.00  0.00     0.034 A 
ATOM     18  Cl  UNL A   1      33.203  28.285  22.696  1.00  0.00    -0.080 Cl
BRANCH  12  19
ATOM     19  O   UNL A   1      32.627  29.467  25.365  1.00  0.00    -0.494 OA
ATOM     20  C   UNL A   1      31.420  30.215  25.224  1.00  0.00     0.278 C 
ENDBRANCH  12  19
ENDBRANCH  10  11
ENDBRANCH   7  10
ENDBRANCH   6   7
BRANCH   6  21
ATOM     21  C   UNL A   1      32.527  20.967  23.396  1.00  0.00     0.113 C 
BRANCH  21  22
ATOM     22  C   UNL A   1      32.738  19.954  24.480  1.00  0.00    -0.016 A 
ATOM     23  C   UNL A   1      32.584  20.141  25.842  1.00  0.00     0.087 A 
ATOM     24  C   UNL A   1      33.143  18.588  24.297  1.00  0.00     0.003 A 
ATOM     25  N   UNL A   1      32.819  18.946  26.472  1.00  0.00    -0.361 N 
ATOM     26  C   UNL A   1      33.120  17.973  25.548  1.00  0.00     0.046 A 
ATOM     27  C   UNL A   1      33.448  17.801  23.166  1.00  0.00     0.010 A 
ATOM     28  H   UNL A   1      32.776  18.805  27.445  1.00  0.00     0.166 HD
ATOM     29  C   UNL A   1      33.353  16.602  25.723  1.00  0.00     0.026 A 
ATOM     30  C   UNL A   1      33.683  16.431  23.321  1.00  0.00     0.001 A 
ATOM     31  C   UNL A   1      33.630  15.842  24.581  1.00  0.00     0.002 A 
ENDBRANCH  21  22
ENDBRANCH   6  21
ENDBRANCH   3   6
ENDBRANCH   1   2
BRANCH   1  32
ATOM     32  C   UNL A   1      36.071  21.075  25.293  1.00  0.00     0.023 C 
BRANCH  32  33
ATOM     33  C   UNL A   1      37.416  20.572  24.765  1.00  0.00     0.023 C 
BRANCH  33  34
ATOM     34  C   UNL A   1      38.626  20.781  25.679  1.00  0.00     0.116 C 
BRANCH  34  35
ATOM     35  N   UNL A   1      39.627  19.729  25.597  1.00  0.00    -0.352 N 
ATOM     36  C   UNL A   1      40.946  19.764  25.996  1.00  0.00     0.251 C 
ATOM     37  H   UNL A   1      39.323  18.879  25.205  1.00  0.00     0.163 HD
ATOM     38  O   UNL A   1      41.671  18.795  25.842  1.00  0.00    -0.269 OA
BRANCH  36  39
ATOM     39  C   UNL A   1      41.490  21.011  26.580  1.00  0.00     0.039 A 
ATOM     40  C   UNL A   1      42.043  21.968  25.726  1.00  0.00     0.014 A 
ATOM     41  C   UNL A   1      41.419  21.248  27.956  1.00  0.00     0.014 A 
ATOM     42  C   UNL A   1      42.455  23.199  26.244  1.00  0.00     0.010 A 
ATOM     43  C   UNL A   1      41.780  22.495  28.461  1.00  0.00     0.010 A 
ATOM     44  C   UNL A   1      42.290  23.486  27.609  1.00  0.00    -0.014 A 
BRANCH  44  45
ATOM     45  C   UNL A   1      42.600  24.835  28.146  1.00  0.00     0.031 A 
ATOM     46  C   UNL A   1      43.995  25.188  28.578  1.00  0.00     0.074 A 
ATOM     47  C   UNL A   1      41.604  25.729  28.303  1.00  0.00     0.049 A 
ATOM     48  N   UNL A   1      44.445  26.314  29.073  1.00  0.00    -0.248 NA
ATOM     49  C   UNL A   1      45.014  24.133  28.459  1.00  0.00     0.031 C 
ATOM     50  C   UNL A   1      40.196  25.494  27.975  1.00  0.00     0.029 A 
ATOM     51  N   UNL A   1      41.623  27.014  28.783  1.00  0.00    -0.354 N 
ATOM     52  C   UNL A   1      45.793  26.103  29.329  1.00  0.00     0.074 A 
ATOM     53  C   UNL A   1      46.078  24.726  28.982  1.00  0.00     0.031 C 
ATOM     54  C   UNL A   1      39.492  26.607  28.238  1.00  0.00     0.029 A 
ATOM     55  C   UNL A   1      40.391  27.622  28.778  1.00  0.00     0.049 A 
ATOM     56  H   UNL A   1      42.442  27.459  29.100  1.00  0.00     0.167 HD
ATOM     57  C   UNL A   1      46.716  26.978  29.794  1.00  0.00     0.031 A 
ATOM     58  C   UNL A   1      40.025  28.860  29.161  1.00  0.00     0.031 A 
ATOM     59  C   UNL A   1      46.437  28.347  30.140  1.00  0.00     0.049 A 
ATOM     60  C   UNL A   1      41.067  29.811  29.678  1.00  0.00     0.074 A 
ATOM     61  C   UNL A   1      47.319  29.328  30.560  1.00  0.00     0.029 A 
ATOM     62  N   UNL A   1      45.178  28.927  30.114  1.00  0.00    -0.354 N 
ATOM     63  N   UNL A   1      42.356  29.623  29.830  1.00  0.00    -0.248 NA
ATOM     64  C   UNL A   1      40.605  31.152  30.063  1.00  0.00     0.031 C 
ATOM     65  C   UNL A   1      46.587  30.488  30.834  1.00  0.00     0.029 A 
ATOM     66  C   UNL A   1      45.257  30.245  30.534  1.00  0.00     0.049 A 
ATOM     67  H   UNL A   1      44.351  28.470  29.838  1.00  0.00     0.167 HD
ATOM     68  C   UNL A   1      42.860  30.827  30.301  1.00  0.00     0.074 A 
ATOM     69  C   UNL A   1      41.743  31.744  30.395  1.00  0.00     0.031 C 
ATOM     70  C   UNL A   1      44.137  31.145  30.629  1.00  0.00     0.031 A 
BRANCH  57  71
ATOM     71  C   UNL A   1      48.123  26.476  29.956  1.00  0.00    -0.014 A 
ATOM     72  C   UNL A   1      48.538  25.853  31.145  1.00  0.00     0.009 A 
ATOM     73  C   UNL A   1      49.035  26.591  28.896  1.00  0.00     0.009 A 
ATOM     74  C   UNL A   1      49.848  25.389  31.280  1.00  0.00     0.001 A 
ATOM     75  C   UNL A   1      50.336  26.102  29.025  1.00  0.00     0.001 A 
ATOM     76  C   UNL A   1      50.745  25.510  30.219  1.00  0.00     0.000 A 
ENDBRANCH  57  71
BRANCH  58  77
ATOM     77  C   UNL A   1      38.606  29.285  29.044  1.00  0.00    -0.014 A 
ATOM     78  C   UNL A   1      37.742  29.182  30.144  1.00  0.00     0.009 A 
ATOM     79  C   UNL A   1      38.108  29.787  27.832  1.00  0.00     0.009 A 
ATOM     80  C   UNL A   1      36.399  29.547  30.026  1.00  0.00     0.001 A 
ATOM     81  C   UNL A   1      36.770  30.177  27.724  1.00  0.00     0.001 A 
ATOM     82  C   UNL A   1      35.916  30.048  28.817  1.00  0.00     0.000 A 
ENDBRANCH  58  77
BRANCH  70  83
ATOM     83  C   UNL A   1      44.396  32.550  31.091  1.00  0.00    -0.014 A 
ATOM     84  C   UNL A   1      44.676  33.577  30.177  1.00  0.00     0.009 A 
ATOM     85  C   UNL A   1      44.329  32.856  32.460  1.00  0.00     0.009 A 
ATOM     86  C   UNL A   1      44.918  34.877  30.628  1.00  0.00     0.001 A 
ATOM     87  C   UNL A   1      44.543  34.161  32.905  1.00  0.00     0.001 A 
ATOM     88  C   UNL A   1      44.847  35.168  31.990  1.00  0.00     0.000 A 
ENDBRANCH  70  83
ENDBRANCH  44  45
ENDBRANCH  36  39
ENDBRANCH  34  35
ENDBRANCH  33  34
ENDBRANCH  32  33
ENDBRANCH   1  32
TORSDOF 17
ENDMDL
