MODEL 1
REMARK VINA RESULT:     -10.4      0.000      0.000
REMARK SMILES Cc1nn([C@H]2CCS(=O)(=O)C2)c(C)c1[C@@H]([NH3+])C(=O)NCCCCNC(=O)c1ccc(-c2c3nc(c(-c4ccccc4)c4ccc([nH]4)c(-c4ccccc4)c4nc(c(-c5ccccc5)c5ccc2[nH]5)C=C4)C=C3)cc1
REMARK SMILES IDX 21 1 20 2 19 3 17 4 18 5 15 7 14 8 1 9 2 10 3 11 4 12 12 13
REMARK SMILES IDX 13 14 5 15 6 16 11 17 7 18 8 19 9 20 10 21 16 22 22 26 23 27
REMARK SMILES IDX 24 28 25 29 26 31 27 32 28 33 74 34 29 35 73 36 30 37 31 38
REMARK SMILES IDX 32 39 67 40 33 41 72 42 66 43 68 44 34 45 71 46 65 47 64 48
REMARK SMILES IDX 35 50 57 51 42 52 56 53 43 54 46 55 55 56 69 57 44 58 45 59
REMARK SMILES IDX 54 61 70 62 47 63 36 64 37 65 41 66 38 67 40 68 39 69 58 70
REMARK SMILES IDX 59 71 63 72 60 73 62 74 61 75 48 76 49 77 53 78 50 79 52 80
REMARK SMILES IDX 51 81
REMARK H PARENT 19 6 16 23 16 24 16 25 24 30 68 49 46 60
REMARK Flexibility Score: inf
ROOT
ATOM      1  C   UNL A   1      37.346  30.360  32.926  1.00  0.00     0.023 C 
ENDROOT
BRANCH   1   2
ATOM      2  C   UNL A   1      38.582  31.228  32.666  1.00  0.00     0.116 C 
BRANCH   2   3
ATOM      3  N   UNL A   1      39.447  31.337  33.823  1.00  0.00    -0.351 N 
ATOM      4  C   UNL A   1      39.903  32.447  34.482  1.00  0.00     0.283 C 
ATOM      5  O   UNL A   1      40.553  32.240  35.517  1.00  0.00    -0.268 OA
ATOM      6  H   UNL A   1      39.754  30.479  34.193  1.00  0.00     0.163 HD
BRANCH   4   7
ATOM      7  C   UNL A   1      39.593  33.913  34.049  1.00  0.00     0.306 C 
BRANCH   7   8
ATOM      8  C   UNL A   1      38.128  34.209  33.872  1.00  0.00     0.063 A 
ATOM      9  C   UNL A   1      37.221  33.263  36.154  1.00  0.00     0.069 C 
ATOM     10  C   UNL A   1      37.120  34.009  34.867  1.00  0.00     0.069 A 
ATOM     11  N   UNL A   1      35.945  34.532  34.501  1.00  0.00    -0.177 NA
ATOM     12  N   UNL A   1      36.151  34.973  33.250  1.00  0.00    -0.265 N 
ATOM     13  C   UNL A   1      37.375  34.572  32.755  1.00  0.00     0.046 A 
ATOM     14  C   UNL A   1      37.701  34.576  31.301  1.00  0.00     0.067 C 
BRANCH  12  15
ATOM     15  C   UNL A   1      35.083  35.667  32.546  1.00  0.00     0.123 C 
ATOM     16  C   UNL A   1      34.175  34.782  31.659  1.00  0.00     0.044 C 
ATOM     17  C   UNL A   1      34.082  36.330  33.485  1.00  0.00     0.164 C 
ATOM     18  C   UNL A   1      33.033  35.674  31.163  1.00  0.00     0.139 C 
ATOM     19  S   UNL A   1      32.810  36.918  32.420  1.00  0.00     0.152 S 
ATOM     20  O   UNL A   1      33.236  38.197  31.895  1.00  0.00    -0.229 OA
ATOM     21  O   UNL A   1      31.540  36.722  33.090  1.00  0.00    -0.229 OA
ENDBRANCH  12  15
ENDBRANCH   7   8
BRANCH   7  22
ATOM     22  N   UNL A   1      40.259  34.873  34.944  1.00  0.00    -0.343 N 
ATOM     23  H   UNL A   1      40.623  34.381  35.761  1.00  0.00     0.345 HD
ATOM     24  H   UNL A   1      39.588  35.580  35.244  1.00  0.00     0.345 HD
ATOM     25  H   UNL A   1      41.029  35.324  34.449  1.00  0.00     0.345 HD
ENDBRANCH   7  22
ENDBRANCH   4   7
ENDBRANCH   2   3
ENDBRANCH   1   2
BRANCH   1  26
ATOM     26  C   UNL A   1      36.279  30.302  31.824  1.00  0.00     0.023 C 
BRANCH  26  27
ATOM     27  C   UNL A   1      35.838  31.664  31.289  1.00  0.00     0.116 C 
BRANCH  27  28
ATOM     28  N   UNL A   1      35.077  31.609  30.033  1.00  0.00    -0.352 N 
ATOM     29  C   UNL A   1      35.595  31.423  28.758  1.00  0.00     0.251 C 
ATOM     30  H   UNL A   1      34.101  31.716  30.103  1.00  0.00     0.163 HD
ATOM     31  O   UNL A   1      35.001  31.782  27.751  1.00  0.00    -0.269 OA
BRANCH  29  32
ATOM     32  C   UNL A   1      36.902  30.760  28.648  1.00  0.00     0.039 A 
ATOM     33  C   UNL A   1      38.090  31.409  28.995  1.00  0.00     0.014 A 
ATOM     34  C   UNL A   1      36.877  29.407  28.333  1.00  0.00     0.014 A 
ATOM     35  C   UNL A   1      39.247  30.645  29.145  1.00  0.00     0.010 A 
ATOM     36  C   UNL A   1      37.971  28.641  28.644  1.00  0.00     0.010 A 
ATOM     37  C   UNL A   1      39.171  29.249  29.010  1.00  0.00    -0.014 A 
BRANCH  37  38
ATOM     38  C   UNL A   1      40.300  28.393  29.372  1.00  0.00     0.031 A 
ATOM     39  C   UNL A   1      40.607  28.296  30.827  1.00  0.00     0.074 A 
ATOM     40  C   UNL A   1      40.893  27.556  28.491  1.00  0.00     0.049 A 
ATOM     41  N   UNL A   1      41.677  28.700  31.428  1.00  0.00    -0.248 NA
ATOM     42  C   UNL A   1      39.578  27.774  31.742  1.00  0.00     0.031 C 
ATOM     43  C   UNL A   1      40.531  27.293  27.092  1.00  0.00     0.029 A 
ATOM     44  N   UNL A   1      41.881  26.649  28.715  1.00  0.00    -0.354 N 
ATOM     45  C   UNL A   1      41.548  28.329  32.764  1.00  0.00     0.074 A 
ATOM     46  C   UNL A   1      40.180  27.899  32.928  1.00  0.00     0.031 C 
ATOM     47  C   UNL A   1      41.094  26.134  26.688  1.00  0.00     0.029 A 
ATOM     48  C   UNL A   1      42.004  25.684  27.723  1.00  0.00     0.049 A 
ATOM     49  H   UNL A   1      42.458  26.673  29.512  1.00  0.00     0.167 HD
ATOM     50  C   UNL A   1      42.637  28.195  33.573  1.00  0.00     0.031 A 
ATOM     51  C   UNL A   1      42.792  24.583  27.750  1.00  0.00     0.031 A 
ATOM     52  C   UNL A   1      43.814  28.775  32.977  1.00  0.00     0.049 A 
ATOM     53  C   UNL A   1      43.850  24.825  28.756  1.00  0.00     0.074 A 
ATOM     54  C   UNL A   1      44.161  30.035  32.532  1.00  0.00     0.029 A 
ATOM     55  N   UNL A   1      44.709  27.910  32.390  1.00  0.00    -0.354 N 
ATOM     56  N   UNL A   1      44.782  25.722  28.603  1.00  0.00    -0.248 NA
ATOM     57  C   UNL A   1      43.609  24.403  30.126  1.00  0.00     0.031 C 
ATOM     58  C   UNL A   1      44.889  29.804  31.328  1.00  0.00     0.029 A 
ATOM     59  C   UNL A   1      45.017  28.424  31.157  1.00  0.00     0.049 A 
ATOM     60  H   UNL A   1      45.062  27.079  32.781  1.00  0.00     0.167 HD
ATOM     61  C   UNL A   1      44.912  26.305  29.854  1.00  0.00     0.074 A 
ATOM     62  C   UNL A   1      44.253  25.378  30.774  1.00  0.00     0.031 C 
ATOM     63  C   UNL A   1      45.281  27.616  29.988  1.00  0.00     0.031 A 
BRANCH  50  64
ATOM     64  C   UNL A   1      42.745  27.201  34.704  1.00  0.00    -0.014 A 
ATOM     65  C   UNL A   1      42.930  25.840  34.390  1.00  0.00     0.009 A 
ATOM     66  C   UNL A   1      42.380  27.498  36.030  1.00  0.00     0.009 A 
ATOM     67  C   UNL A   1      42.672  24.831  35.327  1.00  0.00     0.001 A 
ATOM     68  C   UNL A   1      42.162  26.495  36.979  1.00  0.00     0.001 A 
ATOM     69  C   UNL A   1      42.276  25.160  36.618  1.00  0.00     0.000 A 
ENDBRANCH  50  64
BRANCH  51  70
ATOM     70  C   UNL A   1      42.566  23.265  27.122  1.00  0.00    -0.014 A 
ATOM     71  C   UNL A   1      43.449  22.771  26.150  1.00  0.00     0.009 A 
ATOM     72  C   UNL A   1      41.627  22.372  27.670  1.00  0.00     0.009 A 
ATOM     73  C   UNL A   1      43.421  21.421  25.774  1.00  0.00     0.001 A 
ATOM     74  C   UNL A   1      41.597  21.025  27.292  1.00  0.00     0.001 A 
ATOM     75  C   UNL A   1      42.506  20.546  26.356  1.00  0.00     0.000 A 
ENDBRANCH  51  70
BRANCH  63  76
ATOM     76  C   UNL A   1      45.747  28.355  28.755  1.00  0.00    -0.014 A 
ATOM     77  C   UNL A   1      47.097  28.425  28.365  1.00  0.00     0.009 A 
ATOM     78  C   UNL A   1      44.777  28.851  27.872  1.00  0.00     0.009 A 
ATOM     79  C   UNL A   1      47.463  29.002  27.144  1.00  0.00     0.001 A 
ATOM     80  C   UNL A   1      45.141  29.406  26.644  1.00  0.00     0.001 A 
ATOM     81  C   UNL A   1      46.484  29.487  26.282  1.00  0.00     0.000 A 
ENDBRANCH  63  76
ENDBRANCH  37  38
ENDBRANCH  29  32
ENDBRANCH  27  28
ENDBRANCH  26  27
ENDBRANCH   1  26
TORSDOF 14
ENDMDL
MODEL 2
REMARK VINA RESULT:     -10.4      4.641     10.153
REMARK SMILES Cc1nn([C@H]2CCS(=O)(=O)C2)c(C)c1[C@@H]([NH3+])C(=O)NCCCCNC(=O)c1ccc(-c2c3nc(c(-c4ccccc4)c4ccc([nH]4)c(-c4ccccc4)c4nc(c(-c5ccccc5)c5ccc2[nH]5)C=C4)C=C3)cc1
REMARK SMILES IDX 21 1 20 2 19 3 17 4 18 5 15 7 14 8 1 9 2 10 3 11 4 12 12 13
REMARK SMILES IDX 13 14 5 15 6 16 11 17 7 18 8 19 9 20 10 21 16 22 22 26 23 27
REMARK SMILES IDX 24 28 25 29 26 31 27 32 28 33 74 34 29 35 73 36 30 37 31 38
REMARK SMILES IDX 32 39 67 40 33 41 72 42 66 43 68 44 34 45 71 46 65 47 64 48
REMARK SMILES IDX 35 50 57 51 42 52 56 53 43 54 46 55 55 56 69 57 44 58 45 59
REMARK SMILES IDX 54 61 70 62 47 63 36 64 37 65 41 66 38 67 40 68 39 69 58 70
REMARK SMILES IDX 59 71 63 72 60 73 62 74 61 75 48 76 49 77 53 78 50 79 52 80
REMARK SMILES IDX 51 81
REMARK H PARENT 19 6 16 23 16 24 16 25 24 30 68 49 46 60
REMARK Flexibility Score: inf
ROOT
ATOM      1  C   UNL A   1      39.980  22.185  26.628  1.00  0.00     0.023 C 
ENDROOT
BRANCH   1   2
ATOM      2  C   UNL A   1      38.495  22.494  26.410  1.00  0.00     0.116 C 
BRANCH   2   3
ATOM      3  N   UNL A   1      38.119  22.493  25.012  1.00  0.00    -0.351 N 
ATOM      4  C   UNL A   1      36.908  22.239  24.424  1.00  0.00     0.283 C 
ATOM      5  O   UNL A   1      36.849  22.414  23.199  1.00  0.00    -0.268 OA
ATOM      6  H   UNL A   1      38.847  22.708  24.387  1.00  0.00     0.163 HD
BRANCH   4   7
ATOM      7  C   UNL A   1      35.624  21.827  25.206  1.00  0.00     0.306 C 
BRANCH   7   8
ATOM      8  C   UNL A   1      34.589  22.915  25.313  1.00  0.00     0.063 A 
ATOM      9  C   UNL A   1      33.885  22.590  27.828  1.00  0.00     0.069 C 
ATOM     10  C   UNL A   1      33.917  23.298  26.516  1.00  0.00     0.069 A 
ATOM     11  N   UNL A   1      33.195  24.412  26.353  1.00  0.00    -0.177 NA
ATOM     12  N   UNL A   1      33.307  24.693  25.045  1.00  0.00    -0.265 N 
ATOM     13  C   UNL A   1      33.931  23.678  24.348  1.00  0.00     0.046 A 
ATOM     14  C   UNL A   1      33.843  23.540  22.868  1.00  0.00     0.067 C 
BRANCH  12  15
ATOM     15  C   UNL A   1      32.684  25.896  24.511  1.00  0.00     0.123 C 
ATOM     16  C   UNL A   1      31.439  26.405  25.275  1.00  0.00     0.044 C 
ATOM     17  C   UNL A   1      33.608  27.108  24.540  1.00  0.00     0.164 C 
ATOM     18  C   UNL A   1      31.060  27.755  24.658  1.00  0.00     0.139 C 
ATOM     19  S   UNL A   1      32.581  28.449  24.040  1.00  0.00     0.152 S 
ATOM     20  O   UNL A   1      32.541  28.453  22.595  1.00  0.00    -0.229 OA
ATOM     21  O   UNL A   1      32.949  29.610  24.825  1.00  0.00    -0.229 OA
ENDBRANCH  12  15
ENDBRANCH   7   8
BRANCH   7  22
ATOM     22  N   UNL A   1      35.068  20.571  24.672  1.00  0.00    -0.343 N 
ATOM     23  H   UNL A   1      34.641  20.039  25.431  1.00  0.00     0.345 HD
ATOM     24  H   UNL A   1      35.816  20.021  24.250  1.00  0.00     0.345 HD
ATOM     25  H   UNL A   1      34.362  20.784  23.968  1.00  0.00     0.345 HD
ENDBRANCH   7  22
ENDBRANCH   4   7
ENDBRANCH   2   3
ENDBRANCH   1   2
BRANCH   1  26
ATOM     26  C   UNL A   1      40.459  20.762  26.311  1.00  0.00     0.023 C 
BRANCH  26  27
ATOM     27  C   UNL A   1      41.698  20.316  27.089  1.00  0.00     0.116 C 
BRANCH  27  28
ATOM     28  N   UNL A   1      42.783  19.783  26.255  1.00  0.00    -0.352 N 
ATOM     29  C   UNL A   1      43.612  20.509  25.409  1.00  0.00     0.251 C 
ATOM     30  H   UNL A   1      42.938  18.812  26.298  1.00  0.00     0.163 HD
ATOM     31  O   UNL A   1      44.199  19.996  24.467  1.00  0.00    -0.269 OA
BRANCH  29  32
ATOM     32  C   UNL A   1      43.776  21.943  25.689  1.00  0.00     0.039 A 
ATOM     33  C   UNL A   1      43.095  22.920  24.959  1.00  0.00     0.014 A 
ATOM     34  C   UNL A   1      44.520  22.265  26.818  1.00  0.00     0.014 A 
ATOM     35  C   UNL A   1      43.066  24.223  25.454  1.00  0.00     0.010 A 
ATOM     36  C   UNL A   1      44.348  23.501  27.385  1.00  0.00     0.010 A 
ATOM     37  C   UNL A   1      43.661  24.499  26.696  1.00  0.00    -0.014 A 
BRANCH  37  38
ATOM     38  C   UNL A   1      43.469  25.790  27.355  1.00  0.00     0.031 A 
ATOM     39  C   UNL A   1      44.414  26.873  26.961  1.00  0.00     0.074 A 
ATOM     40  C   UNL A   1      42.377  26.074  28.099  1.00  0.00     0.049 A 
ATOM     41  N   UNL A   1      45.290  27.456  27.710  1.00  0.00    -0.248 NA
ATOM     42  C   UNL A   1      44.463  27.301  25.553  1.00  0.00     0.031 C 
ATOM     43  C   UNL A   1      41.196  25.237  28.351  1.00  0.00     0.029 A 
ATOM     44  N   UNL A   1      42.032  27.252  28.686  1.00  0.00    -0.354 N 
ATOM     45  C   UNL A   1      45.881  28.449  26.933  1.00  0.00     0.074 A 
ATOM     46  C   UNL A   1      45.443  28.210  25.580  1.00  0.00     0.031 C 
ATOM     47  C   UNL A   1      40.180  26.007  28.794  1.00  0.00     0.029 A 
ATOM     48  C   UNL A   1      40.693  27.340  29.043  1.00  0.00     0.049 A 
ATOM     49  H   UNL A   1      42.676  27.979  28.843  1.00  0.00     0.167 HD
ATOM     50  C   UNL A   1      46.506  29.519  27.502  1.00  0.00     0.031 A 
ATOM     51  C   UNL A   1      40.041  28.434  29.503  1.00  0.00     0.031 A 
ATOM     52  C   UNL A   1      46.735  29.313  28.909  1.00  0.00     0.049 A 
ATOM     53  C   UNL A   1      41.065  29.363  30.031  1.00  0.00     0.074 A 
ATOM     54  C   UNL A   1      47.420  28.376  29.657  1.00  0.00     0.029 A 
ATOM     55  N   UNL A   1      45.869  29.930  29.781  1.00  0.00    -0.354 N 
ATOM     56  N   UNL A   1      41.777  29.106  31.091  1.00  0.00    -0.248 NA
ATOM     57  C   UNL A   1      41.622  30.359  29.131  1.00  0.00     0.031 C 
ATOM     58  C   UNL A   1      46.578  28.129  30.782  1.00  0.00     0.029 A 
ATOM     59  C   UNL A   1      45.480  28.987  30.698  1.00  0.00     0.049 A 
ATOM     60  H   UNL A   1      45.581  30.870  29.754  1.00  0.00     0.167 HD
ATOM     61  C   UNL A   1      43.053  29.539  30.766  1.00  0.00     0.074 A 
ATOM     62  C   UNL A   1      42.874  30.404  29.600  1.00  0.00     0.031 C 
ATOM     63  C   UNL A   1      44.161  28.929  31.287  1.00  0.00     0.031 A 
BRANCH  50  64
ATOM     64  C   UNL A   1      46.548  30.904  26.899  1.00  0.00    -0.014 A 
ATOM     65  C   UNL A   1      47.757  31.626  26.954  1.00  0.00     0.009 A 
ATOM     66  C   UNL A   1      45.394  31.630  26.554  1.00  0.00     0.009 A 
ATOM     67  C   UNL A   1      47.788  33.013  26.767  1.00  0.00     0.001 A 
ATOM     68  C   UNL A   1      45.430  33.009  26.326  1.00  0.00     0.001 A 
ATOM     69  C   UNL A   1      46.622  33.706  26.464  1.00  0.00     0.000 A 
ENDBRANCH  50  64
BRANCH  51  70
ATOM     70  C   UNL A   1      38.625  28.815  29.325  1.00  0.00    -0.014 A 
ATOM     71  C   UNL A   1      37.776  28.969  30.431  1.00  0.00     0.009 A 
ATOM     72  C   UNL A   1      38.172  29.288  28.079  1.00  0.00     0.009 A 
ATOM     73  C   UNL A   1      36.539  29.614  30.303  1.00  0.00     0.001 A 
ATOM     74  C   UNL A   1      36.934  29.929  27.950  1.00  0.00     0.001 A 
ATOM     75  C   UNL A   1      36.125  30.107  29.067  1.00  0.00     0.000 A 
ENDBRANCH  51  70
BRANCH  63  76
ATOM     76  C   UNL A   1      43.964  27.912  32.386  1.00  0.00    -0.014 A 
ATOM     77  C   UNL A   1      43.977  26.523  32.161  1.00  0.00     0.009 A 
ATOM     78  C   UNL A   1      43.933  28.366  33.713  1.00  0.00     0.009 A 
ATOM     79  C   UNL A   1      43.928  25.621  33.230  1.00  0.00     0.001 A 
ATOM     80  C   UNL A   1      43.909  27.465  34.780  1.00  0.00     0.001 A 
ATOM     81  C   UNL A   1      43.900  26.093  34.539  1.00  0.00     0.000 A 
ENDBRANCH  63  76
ENDBRANCH  37  38
ENDBRANCH  29  32
ENDBRANCH  27  28
ENDBRANCH  26  27
ENDBRANCH   1  26
TORSDOF 14
ENDMDL
MODEL 3
REMARK VINA RESULT:     -10.4      4.676      7.713
REMARK SMILES Cc1nn([C@H]2CCS(=O)(=O)C2)c(C)c1[C@@H]([NH3+])C(=O)NCCCCNC(=O)c1ccc(-c2c3nc(c(-c4ccccc4)c4ccc([nH]4)c(-c4ccccc4)c4nc(c(-c5ccccc5)c5ccc2[nH]5)C=C4)C=C3)cc1
REMARK SMILES IDX 21 1 20 2 19 3 17 4 18 5 15 7 14 8 1 9 2 10 3 11 4 12 12 13
REMARK SMILES IDX 13 14 5 15 6 16 11 17 7 18 8 19 9 20 10 21 16 22 22 26 23 27
REMARK SMILES IDX 24 28 25 29 26 31 27 32 28 33 74 34 29 35 73 36 30 37 31 38
REMARK SMILES IDX 32 39 67 40 33 41 72 42 66 43 68 44 34 45 71 46 65 47 64 48
REMARK SMILES IDX 35 50 57 51 42 52 56 53 43 54 46 55 55 56 69 57 44 58 45 59
REMARK SMILES IDX 54 61 70 62 47 63 36 64 37 65 41 66 38 67 40 68 39 69 58 70
REMARK SMILES IDX 59 71 63 72 60 73 62 74 61 75 48 76 49 77 53 78 50 79 52 80
REMARK SMILES IDX 51 81
REMARK H PARENT 19 6 16 23 16 24 16 25 24 30 68 49 46 60
REMARK Flexibility Score: inf
ROOT
ATOM      1  C   UNL A   1      32.584  29.808  26.978  1.00  0.00     0.023 C 
ENDROOT
BRANCH   1   2
ATOM      2  C   UNL A   1      32.444  29.957  25.459  1.00  0.00     0.116 C 
BRANCH   2   3
ATOM      3  N   UNL A   1      31.118  30.377  25.055  1.00  0.00    -0.351 N 
ATOM      4  C   UNL A   1      30.397  30.063  23.934  1.00  0.00     0.283 C 
ATOM      5  O   UNL A   1      29.233  30.487  23.897  1.00  0.00    -0.268 OA
ATOM      6  H   UNL A   1      30.665  30.982  25.684  1.00  0.00     0.163 HD
BRANCH   4   7
ATOM      7  C   UNL A   1      30.926  29.166  22.774  1.00  0.00     0.306 C 
BRANCH   7   8
ATOM      8  C   UNL A   1      31.208  27.741  23.172  1.00  0.00     0.063 A 
ATOM      9  C   UNL A   1      33.581  27.449  22.075  1.00  0.00     0.069 C 
ATOM     10  C   UNL A   1      32.437  27.047  22.941  1.00  0.00     0.069 A 
ATOM     11  N   UNL A   1      32.469  25.865  23.566  1.00  0.00    -0.177 NA
ATOM     12  N   UNL A   1      31.246  25.741  24.108  1.00  0.00    -0.265 N 
ATOM     13  C   UNL A   1      30.388  26.733  23.682  1.00  0.00     0.046 A 
ATOM     14  C   UNL A   1      28.907  26.629  23.801  1.00  0.00     0.067 C 
BRANCH  12  15
ATOM     15  C   UNL A   1      30.937  24.578  24.927  1.00  0.00     0.123 C 
ATOM     16  C   UNL A   1      31.513  23.231  24.429  1.00  0.00     0.044 C 
ATOM     17  C   UNL A   1      31.502  24.677  26.340  1.00  0.00     0.164 C 
ATOM     18  C   UNL A   1      31.220  22.194  25.517  1.00  0.00     0.139 C 
ATOM     19  S   UNL A   1      31.171  23.100  27.051  1.00  0.00     0.152 S 
ATOM     20  O   UNL A   1      29.811  23.119  27.542  1.00  0.00    -0.229 OA
ATOM     21  O   UNL A   1      32.305  22.736  27.876  1.00  0.00    -0.229 OA
ENDBRANCH  12  15
ENDBRANCH   7   8
BRANCH   7  22
ATOM     22  N   UNL A   1      30.045  29.259  21.598  1.00  0.00    -0.343 N 
ATOM     23  H   UNL A   1      30.607  29.442  20.766  1.00  0.00     0.345 HD
ATOM     24  H   UNL A   1      29.378  30.018  21.732  1.00  0.00     0.345 HD
ATOM     25  H   UNL A   1      29.541  28.380  21.480  1.00  0.00     0.345 HD
ENDBRANCH   7  22
ENDBRANCH   4   7
ENDBRANCH   2   3
ENDBRANCH   1   2
BRANCH   1  26
ATOM     26  C   UNL A   1      33.819  29.063  27.504  1.00  0.00     0.023 C 
BRANCH  26  27
ATOM     27  C   UNL A   1      35.124  29.853  27.422  1.00  0.00     0.116 C 
BRANCH  27  28
ATOM     28  N   UNL A   1      35.032  31.237  27.910  1.00  0.00    -0.352 N 
ATOM     29  C   UNL A   1      35.561  31.735  29.093  1.00  0.00     0.251 C 
ATOM     30  H   UNL A   1      34.544  31.874  27.340  1.00  0.00     0.163 HD
ATOM     31  O   UNL A   1      35.126  32.744  29.632  1.00  0.00    -0.269 OA
BRANCH  29  32
ATOM     32  C   UNL A   1      36.689  31.007  29.690  1.00  0.00     0.039 A 
ATOM     33  C   UNL A   1      36.528  29.752  30.283  1.00  0.00     0.014 A 
ATOM     34  C   UNL A   1      37.949  31.562  29.493  1.00  0.00     0.014 A 
ATOM     35  C   UNL A   1      37.665  28.997  30.564  1.00  0.00     0.010 A 
ATOM     36  C   UNL A   1      39.047  30.752  29.614  1.00  0.00     0.010 A 
ATOM     37  C   UNL A   1      38.926  29.486  30.186  1.00  0.00    -0.014 A 
BRANCH  37  38
ATOM     38  C   UNL A   1      40.117  28.642  30.259  1.00  0.00     0.031 A 
ATOM     39  C   UNL A   1      40.707  28.459  31.617  1.00  0.00     0.074 A 
ATOM     40  C   UNL A   1      40.538  27.881  29.224  1.00  0.00     0.049 A 
ATOM     41  N   UNL A   1      41.867  28.854  32.023  1.00  0.00    -0.248 NA
ATOM     42  C   UNL A   1      39.885  27.849  32.676  1.00  0.00     0.031 C 
ATOM     43  C   UNL A   1      39.913  27.698  27.908  1.00  0.00     0.029 A 
ATOM     44  N   UNL A   1      41.565  26.990  29.187  1.00  0.00    -0.354 N 
ATOM     45  C   UNL A   1      42.009  28.393  33.330  1.00  0.00     0.074 A 
ATOM     46  C   UNL A   1      40.708  27.915  33.728  1.00  0.00     0.031 C 
ATOM     47  C   UNL A   1      40.403  26.585  27.322  1.00  0.00     0.029 A 
ATOM     48  C   UNL A   1      41.506  26.096  28.126  1.00  0.00     0.049 A 
ATOM     49  H   UNL A   1      42.287  26.979  29.856  1.00  0.00     0.167 HD
ATOM     50  C   UNL A   1      43.238  28.239  33.899  1.00  0.00     0.031 A 
ATOM     51  C   UNL A   1      42.300  25.018  27.922  1.00  0.00     0.031 A 
ATOM     52  C   UNL A   1      44.266  28.890  33.126  1.00  0.00     0.049 A 
ATOM     53  C   UNL A   1      43.532  25.225  28.717  1.00  0.00     0.074 A 
ATOM     54  C   UNL A   1      44.499  30.186  32.711  1.00  0.00     0.029 A 
ATOM     55  N   UNL A   1      45.041  28.092  32.318  1.00  0.00    -0.354 N 
ATOM     56  N   UNL A   1      44.401  26.157  28.447  1.00  0.00    -0.248 NA
ATOM     57  C   UNL A   1      43.572  24.708  30.075  1.00  0.00     0.031 C 
ATOM     58  C   UNL A   1      44.979  30.055  31.375  1.00  0.00     0.029 A 
ATOM     59  C   UNL A   1      45.092  28.693  31.087  1.00  0.00     0.049 A 
ATOM     60  H   UNL A   1      45.477  27.247  32.574  1.00  0.00     0.167 HD
ATOM     61  C   UNL A   1      44.766  26.661  29.686  1.00  0.00     0.074 A 
ATOM     62  C   UNL A   1      44.316  25.658  30.650  1.00  0.00     0.031 C 
ATOM     63  C   UNL A   1      45.133  27.970  29.835  1.00  0.00     0.031 A 
BRANCH  50  64
ATOM     64  C   UNL A   1      43.582  27.177  34.916  1.00  0.00    -0.014 A 
ATOM     65  C   UNL A   1      43.545  25.826  34.518  1.00  0.00     0.009 A 
ATOM     66  C   UNL A   1      43.649  27.426  36.299  1.00  0.00     0.009 A 
ATOM     67  C   UNL A   1      43.482  24.789  35.458  1.00  0.00     0.001 A 
ATOM     68  C   UNL A   1      43.628  26.390  37.238  1.00  0.00     0.001 A 
ATOM     69  C   UNL A   1      43.512  25.073  36.817  1.00  0.00     0.000 A 
ENDBRANCH  50  64
BRANCH  51  70
ATOM     70  C   UNL A   1      41.976  23.738  27.261  1.00  0.00    -0.014 A 
ATOM     71  C   UNL A   1      42.694  23.308  26.134  1.00  0.00     0.009 A 
ATOM     72  C   UNL A   1      41.133  22.807  27.896  1.00  0.00     0.009 A 
ATOM     73  C   UNL A   1      42.605  21.982  25.689  1.00  0.00     0.001 A 
ATOM     74  C   UNL A   1      41.041  21.484  27.449  1.00  0.00     0.001 A 
ATOM     75  C   UNL A   1      41.791  21.068  26.355  1.00  0.00     0.000 A 
ENDBRANCH  51  70
BRANCH  63  76
ATOM     76  C   UNL A   1      45.337  28.801  28.590  1.00  0.00    -0.014 A 
ATOM     77  C   UNL A   1      44.281  29.419  27.896  1.00  0.00     0.009 A 
ATOM     78  C   UNL A   1      46.650  29.107  28.204  1.00  0.00     0.009 A 
ATOM     79  C   UNL A   1      44.533  30.290  26.831  1.00  0.00     0.001 A 
ATOM     80  C   UNL A   1      46.903  29.994  27.155  1.00  0.00     0.001 A 
ATOM     81  C   UNL A   1      45.844  30.581  26.465  1.00  0.00     0.000 A 
ENDBRANCH  63  76
ENDBRANCH  37  38
ENDBRANCH  29  32
ENDBRANCH  27  28
ENDBRANCH  26  27
ENDBRANCH   1  26
TORSDOF 14
ENDMDL
