MODEL 1
REMARK VINA RESULT:     -11.7      0.000      0.000
REMARK SMILES O=C(NCc1ccc(C(=O)NCCCCNC(=O)c2ccc(-c3c4nc(c(-c5ccccc5)c5ccc([nH]5)c(-c5ccccc5)c5nc(c(-c6ccccc6)c6ccc3[nH]6)C=C5)C=C4)cc2)o1)Nc1ccc(F)c(Cl)c1
REMARK SMILES IDX 13 1 12 2 11 3 9 4 10 5 8 7 5 8 6 9 67 10 7 11 4 12 3 13
REMARK SMILES IDX 1 14 2 15 68 16 69 19 70 20 76 21 71 22 74 23 72 24 75 25
REMARK SMILES IDX 73 26 14 27 15 28 16 29 17 30 18 32 19 33 20 34 66 35 21 36
REMARK SMILES IDX 65 37 22 38 23 39 24 40 59 41 25 42 64 43 58 44 60 45 26 46
REMARK SMILES IDX 63 47 57 48 56 49 27 51 49 52 34 53 48 54 35 55 38 56 47 57
REMARK SMILES IDX 61 58 36 59 37 60 46 62 62 63 39 64 28 65 29 66 33 67 30 68
REMARK SMILES IDX 32 69 31 70 50 71 51 72 55 73 52 74 54 75 53 76 40 77 41 78
REMARK SMILES IDX 45 79 42 80 44 81 43 82
REMARK H PARENT 11 6 3 17 68 18 16 31 60 50 38 61
REMARK Flexibility Score: inf
ROOT
ATOM      1  C   UNL A   1      32.932  29.388  24.839  1.00  0.00     0.023 C 
ENDROOT
BRANCH   1   2
ATOM      2  C   UNL A   1      33.077  28.790  23.440  1.00  0.00     0.116 C 
BRANCH   2   3
ATOM      3  N   UNL A   1      32.080  29.325  22.541  1.00  0.00    -0.349 N 
ATOM      4  C   UNL A   1      30.784  28.937  22.291  1.00  0.00     0.286 C 
ATOM      5  O   UNL A   1      30.173  29.641  21.482  1.00  0.00    -0.266 OA
ATOM      6  H   UNL A   1      32.379  30.101  22.016  1.00  0.00     0.163 HD
BRANCH   4   7
ATOM      7  C   UNL A   1      30.182  27.788  22.949  1.00  0.00     0.191 A 
ATOM      8  C   UNL A   1      30.232  25.667  23.608  1.00  0.00     0.124 A 
ATOM      9  C   UNL A   1      29.014  26.165  24.009  1.00  0.00     0.048 A 
ATOM     10  O   UNL A   1      30.940  26.642  22.976  1.00  0.00    -0.454 OA
ATOM     11  C   UNL A   1      28.996  27.528  23.616  1.00  0.00     0.056 A 
BRANCH   8  12
ATOM     12  C   UNL A   1      30.903  24.352  23.769  1.00  0.00     0.193 C 
BRANCH  12  13
ATOM     13  N   UNL A   1      31.942  24.212  22.774  1.00  0.00    -0.331 N 
ATOM     14  O   UNL A   1      33.994  23.959  21.964  1.00  0.00    -0.248 OA
ATOM     15  C   UNL A   1      33.235  23.815  22.916  1.00  0.00     0.319 C 
ATOM     16  N   UNL A   1      33.566  23.263  24.124  1.00  0.00    -0.308 N 
ATOM     17  H   UNL A   1      31.674  24.436  21.854  1.00  0.00     0.165 HD
ATOM     18  H   UNL A   1      32.817  23.013  24.714  1.00  0.00     0.171 HD
BRANCH  16  19
ATOM     19  C   UNL A   1      34.863  23.013  24.613  1.00  0.00     0.044 A 
ATOM     20  C   UNL A   1      35.540  24.080  25.222  1.00  0.00     0.029 A 
ATOM     21  C   UNL A   1      35.509  21.777  24.488  1.00  0.00     0.049 A 
ATOM     22  C   UNL A   1      36.831  23.907  25.723  1.00  0.00     0.043 A 
ATOM     23  C   UNL A   1      36.804  21.609  24.982  1.00  0.00     0.078 A 
ATOM     24  C   UNL A   1      37.456  22.671  25.603  1.00  0.00     0.141 A 
ATOM     25  Cl  UNL A   1      37.589  20.085  24.810  1.00  0.00    -0.081 Cl
ATOM     26  F   UNL A   1      38.697  22.528  26.090  1.00  0.00    -0.205 F 
ENDBRANCH  16  19
ENDBRANCH  12  13
ENDBRANCH   8  12
ENDBRANCH   4   7
ENDBRANCH   2   3
ENDBRANCH   1   2
BRANCH   1  27
ATOM     27  C   UNL A   1      32.726  28.346  25.946  1.00  0.00     0.023 C 
BRANCH  27  28
ATOM     28  C   UNL A   1      33.406  28.665  27.276  1.00  0.00     0.116 C 
BRANCH  28  29
ATOM     29  N   UNL A   1      33.433  30.085  27.588  1.00  0.00    -0.352 N 
ATOM     30  C   UNL A   1      34.465  30.833  28.104  1.00  0.00     0.251 C 
ATOM     31  H   UNL A   1      32.600  30.576  27.406  1.00  0.00     0.163 HD
ATOM     32  O   UNL A   1      34.290  32.007  28.402  1.00  0.00    -0.269 OA
BRANCH  30  33
ATOM     33  C   UNL A   1      35.775  30.193  28.336  1.00  0.00     0.039 A 
ATOM     34  C   UNL A   1      36.713  30.188  27.300  1.00  0.00     0.014 A 
ATOM     35  C   UNL A   1      36.087  29.630  29.576  1.00  0.00     0.014 A 
ATOM     36  C   UNL A   1      37.992  29.680  27.530  1.00  0.00     0.010 A 
ATOM     37  C   UNL A   1      37.381  29.182  29.823  1.00  0.00     0.010 A 
ATOM     38  C   UNL A   1      38.347  29.207  28.804  1.00  0.00    -0.014 A 
BRANCH  38  39
ATOM     39  C   UNL A   1      39.726  28.746  29.094  1.00  0.00     0.031 A 
ATOM     40  C   UNL A   1      40.709  29.671  29.755  1.00  0.00     0.074 A 
ATOM     41  C   UNL A   1      40.114  27.518  28.699  1.00  0.00     0.049 A 
ATOM     42  N   UNL A   1      41.971  29.469  30.035  1.00  0.00    -0.248 NA
ATOM     43  C   UNL A   1      40.216  31.007  30.127  1.00  0.00     0.031 C 
ATOM     44  C   UNL A   1      39.268  26.541  28.010  1.00  0.00     0.029 A 
ATOM     45  N   UNL A   1      41.326  26.885  28.816  1.00  0.00    -0.354 N 
ATOM     46  C   UNL A   1      42.426  30.655  30.597  1.00  0.00     0.074 A 
ATOM     47  C   UNL A   1      41.319  31.585  30.577  1.00  0.00     0.031 C 
ATOM     48  C   UNL A   1      39.980  25.424  27.787  1.00  0.00     0.029 A 
ATOM     49  C   UNL A   1      41.338  25.618  28.284  1.00  0.00     0.049 A 
ATOM     50  H   UNL A   1      42.112  27.299  29.241  1.00  0.00     0.167 HD
ATOM     51  C   UNL A   1      43.650  30.937  31.103  1.00  0.00     0.031 A 
ATOM     52  C   UNL A   1      42.334  24.715  28.202  1.00  0.00     0.031 A 
ATOM     53  C   UNL A   1      44.747  30.009  31.137  1.00  0.00     0.049 A 
ATOM     54  C   UNL A   1      43.684  25.057  28.764  1.00  0.00     0.074 A 
ATOM     55  C   UNL A   1      46.006  30.182  31.685  1.00  0.00     0.029 A 
ATOM     56  N   UNL A   1      44.716  28.733  30.597  1.00  0.00    -0.354 N 
ATOM     57  N   UNL A   1      44.077  26.157  29.359  1.00  0.00    -0.248 NA
ATOM     58  C   UNL A   1      44.727  24.026  28.651  1.00  0.00     0.031 C 
ATOM     59  C   UNL A   1      46.753  29.024  31.437  1.00  0.00     0.029 A 
ATOM     60  C   UNL A   1      45.941  28.114  30.777  1.00  0.00     0.049 A 
ATOM     61  H   UNL A   1      43.938  28.326  30.151  1.00  0.00     0.167 HD
ATOM     62  C   UNL A   1      45.402  25.942  29.712  1.00  0.00     0.074 A 
ATOM     63  C   UNL A   1      45.742  24.602  29.281  1.00  0.00     0.031 C 
ATOM     64  C   UNL A   1      46.262  26.782  30.340  1.00  0.00     0.031 A 
BRANCH  51  65
ATOM     65  C   UNL A   1      43.864  32.317  31.658  1.00  0.00    -0.014 A 
ATOM     66  C   UNL A   1      44.318  33.366  30.842  1.00  0.00     0.009 A 
ATOM     67  C   UNL A   1      43.581  32.581  33.007  1.00  0.00     0.009 A 
ATOM     68  C   UNL A   1      44.522  34.640  31.374  1.00  0.00     0.001 A 
ATOM     69  C   UNL A   1      43.758  33.862  33.530  1.00  0.00     0.001 A 
ATOM     70  C   UNL A   1      44.238  34.888  32.716  1.00  0.00     0.000 A 
ENDBRANCH  51  65
BRANCH  52  71
ATOM     71  C   UNL A   1      42.087  23.391  27.578  1.00  0.00    -0.014 A 
ATOM     72  C   UNL A   1      41.484  22.360  28.315  1.00  0.00     0.009 A 
ATOM     73  C   UNL A   1      42.457  23.147  26.246  1.00  0.00     0.009 A 
ATOM     74  C   UNL A   1      41.281  21.104  27.740  1.00  0.00     0.001 A 
ATOM     75  C   UNL A   1      42.229  21.897  25.666  1.00  0.00     0.001 A 
ATOM     76  C   UNL A   1      41.649  20.875  26.414  1.00  0.00     0.000 A 
ENDBRANCH  52  71
BRANCH  64  77
ATOM     77  C   UNL A   1      47.644  26.264  30.622  1.00  0.00    -0.014 A 
ATOM     78  C   UNL A   1      47.981  25.738  31.878  1.00  0.00     0.009 A 
ATOM     79  C   UNL A   1      48.607  26.264  29.601  1.00  0.00     0.009 A 
ATOM     80  C   UNL A   1      49.267  25.247  32.114  1.00  0.00     0.001 A 
ATOM     81  C   UNL A   1      49.883  25.749  29.832  1.00  0.00     0.001 A 
ATOM     82  C   UNL A   1      50.214  25.248  31.090  1.00  0.00     0.000 A 
ENDBRANCH  64  77
ENDBRANCH  38  39
ENDBRANCH  30  33
ENDBRANCH  28  29
ENDBRANCH  27  28
ENDBRANCH   1  27
TORSDOF 14
ENDMDL
MODEL 2
REMARK VINA RESULT:     -11.4      0.352      5.889
REMARK SMILES O=C(NCc1ccc(C(=O)NCCCCNC(=O)c2ccc(-c3c4nc(c(-c5ccccc5)c5ccc([nH]5)c(-c5ccccc5)c5nc(c(-c6ccccc6)c6ccc3[nH]6)C=C5)C=C4)cc2)o1)Nc1ccc(F)c(Cl)c1
REMARK SMILES IDX 13 1 12 2 11 3 9 4 10 5 8 7 5 8 6 9 67 10 7 11 4 12 3 13
REMARK SMILES IDX 1 14 2 15 68 16 69 19 70 20 76 21 71 22 74 23 72 24 75 25
REMARK SMILES IDX 73 26 14 27 15 28 16 29 17 30 18 32 19 33 20 34 66 35 21 36
REMARK SMILES IDX 65 37 22 38 23 39 24 40 59 41 25 42 64 43 58 44 60 45 26 46
REMARK SMILES IDX 63 47 57 48 56 49 27 51 49 52 34 53 48 54 35 55 38 56 47 57
REMARK SMILES IDX 61 58 36 59 37 60 46 62 62 63 39 64 28 65 29 66 33 67 30 68
REMARK SMILES IDX 32 69 31 70 50 71 51 72 55 73 52 74 54 75 53 76 40 77 41 78
REMARK SMILES IDX 45 79 42 80 44 81 43 82
REMARK H PARENT 11 6 3 17 68 18 16 31 60 50 38 61
REMARK Flexibility Score: inf
ROOT
ATOM      1  C   UNL A   1      33.030  29.273  24.817  1.00  0.00     0.023 C 
ENDROOT
BRANCH   1   2
ATOM      2  C   UNL A   1      33.073  28.682  23.408  1.00  0.00     0.116 C 
BRANCH   2   3
ATOM      3  N   UNL A   1      32.078  29.294  22.558  1.00  0.00    -0.349 N 
ATOM      4  C   UNL A   1      30.759  28.976  22.331  1.00  0.00     0.286 C 
ATOM      5  O   UNL A   1      30.160  29.736  21.566  1.00  0.00    -0.266 OA
ATOM      6  H   UNL A   1      32.399  30.075  22.052  1.00  0.00     0.163 HD
BRANCH   4   7
ATOM      7  C   UNL A   1      30.122  27.833  22.964  1.00  0.00     0.191 A 
ATOM      8  C   UNL A   1      30.097  25.693  23.561  1.00  0.00     0.124 A 
ATOM      9  C   UNL A   1      28.907  26.226  23.996  1.00  0.00     0.048 A 
ATOM     10  O   UNL A   1      30.834  26.657  22.946  1.00  0.00    -0.454 OA
ATOM     11  C   UNL A   1      28.936  27.599  23.642  1.00  0.00     0.056 A 
BRANCH   8  12
ATOM     12  C   UNL A   1      30.718  24.348  23.673  1.00  0.00     0.193 C 
BRANCH  12  13
ATOM     13  N   UNL A   1      31.778  24.219  22.697  1.00  0.00    -0.331 N 
ATOM     14  O   UNL A   1      33.847  23.995  21.926  1.00  0.00    -0.248 OA
ATOM     15  C   UNL A   1      33.073  23.843  22.865  1.00  0.00     0.319 C 
ATOM     16  N   UNL A   1      33.391  23.302  24.082  1.00  0.00    -0.308 N 
ATOM     17  H   UNL A   1      31.523  24.434  21.772  1.00  0.00     0.165 HD
ATOM     18  H   UNL A   1      32.636  23.044  24.659  1.00  0.00     0.171 HD
BRANCH  16  19
ATOM     19  C   UNL A   1      34.683  23.075  24.596  1.00  0.00     0.044 A 
ATOM     20  C   UNL A   1      35.321  24.148  25.234  1.00  0.00     0.029 A 
ATOM     21  C   UNL A   1      35.360  21.856  24.467  1.00  0.00     0.049 A 
ATOM     22  C   UNL A   1      36.605  23.998  25.761  1.00  0.00     0.043 A 
ATOM     23  C   UNL A   1      36.647  21.711  24.987  1.00  0.00     0.078 A 
ATOM     24  C   UNL A   1      37.261  22.779  25.637  1.00  0.00     0.141 A 
ATOM     25  Cl  UNL A   1      37.472  20.208  24.810  1.00  0.00    -0.081 Cl
ATOM     26  F   UNL A   1      38.494  22.657  26.149  1.00  0.00    -0.205 F 
ENDBRANCH  16  19
ENDBRANCH  12  13
ENDBRANCH   8  12
ENDBRANCH   4   7
ENDBRANCH   2   3
ENDBRANCH   1   2
BRANCH   1  27
ATOM     27  C   UNL A   1      32.832  28.233  25.926  1.00  0.00     0.023 C 
BRANCH  27  28
ATOM     28  C   UNL A   1      33.532  28.547  27.247  1.00  0.00     0.116 C 
BRANCH  28  29
ATOM     29  N   UNL A   1      33.497  29.957  27.600  1.00  0.00    -0.352 N 
ATOM     30  C   UNL A   1      34.489  30.729  28.158  1.00  0.00     0.251 C 
ATOM     31  H   UNL A   1      32.648  30.422  27.416  1.00  0.00     0.163 HD
ATOM     32  O   UNL A   1      34.264  31.886  28.485  1.00  0.00    -0.269 OA
BRANCH  30  33
ATOM     33  C   UNL A   1      35.819  30.134  28.397  1.00  0.00     0.039 A 
ATOM     34  C   UNL A   1      36.758  30.152  27.362  1.00  0.00     0.014 A 
ATOM     35  C   UNL A   1      36.147  29.590  29.641  1.00  0.00     0.014 A 
ATOM     36  C   UNL A   1      38.053  29.687  27.598  1.00  0.00     0.010 A 
ATOM     37  C   UNL A   1      37.454  29.186  29.894  1.00  0.00     0.010 A 
ATOM     38  C   UNL A   1      38.420  29.235  28.876  1.00  0.00    -0.014 A 
BRANCH  38  39
ATOM     39  C   UNL A   1      39.813  28.821  29.172  1.00  0.00     0.031 A 
ATOM     40  C   UNL A   1      40.304  27.464  28.754  1.00  0.00     0.074 A 
ATOM     41  C   UNL A   1      40.615  29.642  29.879  1.00  0.00     0.049 A 
ATOM     42  N   UNL A   1      41.466  26.903  28.974  1.00  0.00    -0.248 NA
ATOM     43  C   UNL A   1      39.357  26.616  28.012  1.00  0.00     0.031 C 
ATOM     44  C   UNL A   1      40.244  30.967  30.381  1.00  0.00     0.029 A 
ATOM     45  N   UNL A   1      41.909  29.475  30.304  1.00  0.00    -0.354 N 
ATOM     46  C   UNL A   1      41.383  25.634  28.417  1.00  0.00     0.074 A 
ATOM     47  C   UNL A   1      40.044  25.490  27.889  1.00  0.00     0.031 C 
ATOM     48  C   UNL A   1      41.294  31.502  31.024  1.00  0.00     0.029 A 
ATOM     49  C   UNL A   1      42.397  30.547  31.012  1.00  0.00     0.049 A 
ATOM     50  H   UNL A   1      42.437  28.665  30.120  1.00  0.00     0.167 HD
ATOM     51  C   UNL A   1      42.341  24.681  28.335  1.00  0.00     0.031 A 
ATOM     52  C   UNL A   1      43.599  30.738  31.590  1.00  0.00     0.031 A 
ATOM     53  C   UNL A   1      43.677  24.828  28.846  1.00  0.00     0.049 A 
ATOM     54  C   UNL A   1      44.641  29.661  31.490  1.00  0.00     0.074 A 
ATOM     55  C   UNL A   1      44.737  23.943  28.755  1.00  0.00     0.029 A 
ATOM     56  N   UNL A   1      44.134  25.932  29.547  1.00  0.00    -0.354 N 
ATOM     57  N   UNL A   1      44.570  28.494  30.895  1.00  0.00    -0.248 NA
ATOM     58  C   UNL A   1      45.935  29.932  32.134  1.00  0.00     0.031 C 
ATOM     59  C   UNL A   1      45.825  24.493  29.441  1.00  0.00     0.029 A 
ATOM     60  C   UNL A   1      45.455  25.742  29.916  1.00  0.00     0.049 A 
ATOM     61  H   UNL A   1      43.600  26.733  29.752  1.00  0.00     0.167 HD
ATOM     62  C   UNL A   1      45.814  27.904  31.073  1.00  0.00     0.074 A 
ATOM     63  C   UNL A   1      46.626  28.846  31.815  1.00  0.00     0.031 C 
ATOM     64  C   UNL A   1      46.246  26.689  30.655  1.00  0.00     0.031 A 
BRANCH  51  65
ATOM     65  C   UNL A   1      41.969  23.387  27.666  1.00  0.00    -0.014 A 
ATOM     66  C   UNL A   1      41.339  22.356  28.381  1.00  0.00     0.009 A 
ATOM     67  C   UNL A   1      42.226  23.207  26.298  1.00  0.00     0.009 A 
ATOM     68  C   UNL A   1      41.010  21.155  27.749  1.00  0.00     0.001 A 
ATOM     69  C   UNL A   1      41.870  22.017  25.662  1.00  0.00     0.001 A 
ATOM     70  C   UNL A   1      41.271  20.989  26.389  1.00  0.00     0.000 A 
ENDBRANCH  51  65
BRANCH  52  71
ATOM     71  C   UNL A   1      43.889  32.008  32.301  1.00  0.00    -0.014 A 
ATOM     72  C   UNL A   1      44.442  33.097  31.611  1.00  0.00     0.009 A 
ATOM     73  C   UNL A   1      43.621  32.139  33.673  1.00  0.00     0.009 A 
ATOM     74  C   UNL A   1      44.746  34.282  32.284  1.00  0.00     0.001 A 
ATOM     75  C   UNL A   1      43.901  33.334  34.338  1.00  0.00     0.001 A 
ATOM     76  C   UNL A   1      44.471  34.401  33.647  1.00  0.00     0.000 A 
ENDBRANCH  52  71
BRANCH  64  77
ATOM     77  C   UNL A   1      47.668  26.321  30.970  1.00  0.00    -0.014 A 
ATOM     78  C   UNL A   1      48.028  25.820  32.231  1.00  0.00     0.009 A 
ATOM     79  C   UNL A   1      48.652  26.438  29.976  1.00  0.00     0.009 A 
ATOM     80  C   UNL A   1      49.353  25.469  32.497  1.00  0.00     0.001 A 
ATOM     81  C   UNL A   1      49.970  26.062  30.238  1.00  0.00     0.001 A 
ATOM     82  C   UNL A   1      50.321  25.585  31.500  1.00  0.00     0.000 A 
ENDBRANCH  64  77
ENDBRANCH  38  39
ENDBRANCH  30  33
ENDBRANCH  28  29
ENDBRANCH  27  28
ENDBRANCH   1  27
TORSDOF 14
ENDMDL
MODEL 3
REMARK VINA RESULT:     -11.4      4.157      7.092
REMARK SMILES O=C(NCc1ccc(C(=O)NCCCCNC(=O)c2ccc(-c3c4nc(c(-c5ccccc5)c5ccc([nH]5)c(-c5ccccc5)c5nc(c(-c6ccccc6)c6ccc3[nH]6)C=C5)C=C4)cc2)o1)Nc1ccc(F)c(Cl)c1
REMARK SMILES IDX 13 1 12 2 11 3 9 4 10 5 8 7 5 8 6 9 67 10 7 11 4 12 3 13
REMARK SMILES IDX 1 14 2 15 68 16 69 19 70 20 76 21 71 22 74 23 72 24 75 25
REMARK SMILES IDX 73 26 14 27 15 28 16 29 17 30 18 32 19 33 20 34 66 35 21 36
REMARK SMILES IDX 65 37 22 38 23 39 24 40 59 41 25 42 64 43 58 44 60 45 26 46
REMARK SMILES IDX 63 47 57 48 56 49 27 51 49 52 34 53 48 54 35 55 38 56 47 57
REMARK SMILES IDX 61 58 36 59 37 60 46 62 62 63 39 64 28 65 29 66 33 67 30 68
REMARK SMILES IDX 32 69 31 70 50 71 51 72 55 73 52 74 54 75 53 76 40 77 41 78
REMARK SMILES IDX 45 79 42 80 44 81 43 82
REMARK H PARENT 11 6 3 17 68 18 16 31 60 50 38 61
REMARK Flexibility Score: inf
ROOT
ATOM      1  C   UNL A   1      34.423  35.117  28.525  1.00  0.00     0.023 C 
ENDROOT
BRANCH   1   2
ATOM      2  C   UNL A   1      33.144  35.120  29.360  1.00  0.00     0.116 C 
BRANCH   2   3
ATOM      3  N   UNL A   1      33.061  36.308  30.179  1.00  0.00    -0.349 N 
ATOM      4  C   UNL A   1      33.419  36.533  31.488  1.00  0.00     0.286 C 
ATOM      5  O   UNL A   1      33.258  37.691  31.884  1.00  0.00    -0.266 OA
ATOM      6  H   UNL A   1      32.684  37.093  29.721  1.00  0.00     0.163 HD
BRANCH   4   7
ATOM      7  C   UNL A   1      33.962  35.480  32.331  1.00  0.00     0.191 A 
ATOM      8  C   UNL A   1      35.625  34.568  33.489  1.00  0.00     0.124 A 
ATOM      9  C   UNL A   1      34.556  33.712  33.612  1.00  0.00     0.048 A 
ATOM     10  O   UNL A   1      35.270  35.637  32.725  1.00  0.00    -0.454 OA
ATOM     11  C   UNL A   1      33.486  34.310  32.899  1.00  0.00     0.056 A 
BRANCH   8  12
ATOM     12  C   UNL A   1      37.002  34.572  34.043  1.00  0.00     0.193 C 
BRANCH  12  13
ATOM     13  N   UNL A   1      37.093  33.618  35.127  1.00  0.00    -0.331 N 
ATOM     14  O   UNL A   1      37.565  31.705  36.149  1.00  0.00    -0.248 OA
ATOM     15  C   UNL A   1      37.792  32.455  35.206  1.00  0.00     0.319 C 
ATOM     16  N   UNL A   1      38.715  32.239  34.218  1.00  0.00    -0.308 N 
ATOM     17  H   UNL A   1      36.570  33.846  35.929  1.00  0.00     0.165 HD
ATOM     18  H   UNL A   1      38.943  33.012  33.652  1.00  0.00     0.171 HD
BRANCH  16  19
ATOM     19  C   UNL A   1      39.374  31.028  33.926  1.00  0.00     0.044 A 
ATOM     20  C   UNL A   1      40.741  30.949  34.227  1.00  0.00     0.029 A 
ATOM     21  C   UNL A   1      38.742  29.933  33.325  1.00  0.00     0.049 A 
ATOM     22  C   UNL A   1      41.460  29.783  33.959  1.00  0.00     0.043 A 
ATOM     23  C   UNL A   1      39.465  28.771  33.049  1.00  0.00     0.078 A 
ATOM     24  C   UNL A   1      40.818  28.699  33.373  1.00  0.00     0.141 A 
ATOM     25  Cl  UNL A   1      38.677  27.436  32.298  1.00  0.00    -0.081 Cl
ATOM     26  F   UNL A   1      41.529  27.589  33.122  1.00  0.00    -0.205 F 
ENDBRANCH  16  19
ENDBRANCH  12  13
ENDBRANCH   8  12
ENDBRANCH   4   7
ENDBRANCH   2   3
ENDBRANCH   1   2
BRANCH   1  27
ATOM     27  C   UNL A   1      35.500  34.152  29.036  1.00  0.00     0.023 C 
BRANCH  27  28
ATOM     28  C   UNL A   1      34.974  32.882  29.703  1.00  0.00     0.116 C 
BRANCH  28  29
ATOM     29  N   UNL A   1      34.132  32.077  28.832  1.00  0.00    -0.352 N 
ATOM     30  C   UNL A   1      34.439  30.905  28.182  1.00  0.00     0.251 C 
ATOM     31  H   UNL A   1      33.220  32.418  28.688  1.00  0.00     0.163 HD
ATOM     32  O   UNL A   1      33.641  30.401  27.403  1.00  0.00    -0.269 OA
BRANCH  30  33
ATOM     33  C   UNL A   1      35.759  30.281  28.403  1.00  0.00     0.039 A 
ATOM     34  C   UNL A   1      36.701  30.320  27.372  1.00  0.00     0.014 A 
ATOM     35  C   UNL A   1      36.075  29.689  29.628  1.00  0.00     0.014 A 
ATOM     36  C   UNL A   1      37.987  29.826  27.593  1.00  0.00     0.010 A 
ATOM     37  C   UNL A   1      37.375  29.255  29.869  1.00  0.00     0.010 A 
ATOM     38  C   UNL A   1      38.344  29.324  28.855  1.00  0.00    -0.014 A 
BRANCH  38  39
ATOM     39  C   UNL A   1      39.730  28.878  29.139  1.00  0.00     0.031 A 
ATOM     40  C   UNL A   1      40.706  29.814  29.794  1.00  0.00     0.074 A 
ATOM     41  C   UNL A   1      40.129  27.654  28.744  1.00  0.00     0.049 A 
ATOM     42  N   UNL A   1      41.972  29.626  30.069  1.00  0.00    -0.248 NA
ATOM     43  C   UNL A   1      40.201  31.145  30.168  1.00  0.00     0.031 C 
ATOM     44  C   UNL A   1      39.290  26.667  28.060  1.00  0.00     0.029 A 
ATOM     45  N   UNL A   1      41.348  27.033  28.856  1.00  0.00    -0.354 N 
ATOM     46  C   UNL A   1      42.417  30.816  30.628  1.00  0.00     0.074 A 
ATOM     47  C   UNL A   1      41.300  31.735  30.612  1.00  0.00     0.031 C 
ATOM     48  C   UNL A   1      40.012  25.558  27.834  1.00  0.00     0.029 A 
ATOM     49  C   UNL A   1      41.370  25.767  28.325  1.00  0.00     0.049 A 
ATOM     50  H   UNL A   1      42.131  27.456  29.276  1.00  0.00     0.167 HD
ATOM     51  C   UNL A   1      43.640  31.112  31.127  1.00  0.00     0.031 A 
ATOM     52  C   UNL A   1      42.375  24.873  28.239  1.00  0.00     0.031 A 
ATOM     53  C   UNL A   1      44.748  30.195  31.157  1.00  0.00     0.049 A 
ATOM     54  C   UNL A   1      43.725  25.230  28.794  1.00  0.00     0.074 A 
ATOM     55  C   UNL A   1      46.007  30.382  31.698  1.00  0.00     0.029 A 
ATOM     56  N   UNL A   1      44.727  28.919  30.618  1.00  0.00    -0.354 N 
ATOM     57  N   UNL A   1      44.109  26.335  29.386  1.00  0.00    -0.248 NA
ATOM     58  C   UNL A   1      44.778  24.211  28.677  1.00  0.00     0.031 C 
ATOM     59  C   UNL A   1      46.765  29.232  31.448  1.00  0.00     0.029 A 
ATOM     60  C   UNL A   1      45.959  28.313  30.793  1.00  0.00     0.049 A 
ATOM     61  H   UNL A   1      43.951  28.503  30.176  1.00  0.00     0.167 HD
ATOM     62  C   UNL A   1      45.438  26.135  29.733  1.00  0.00     0.074 A 
ATOM     63  C   UNL A   1      45.790  24.798  29.301  1.00  0.00     0.031 C 
ATOM     64  C   UNL A   1      46.292  26.984  30.356  1.00  0.00     0.031 A 
BRANCH  51  65
ATOM     65  C   UNL A   1      43.842  32.495  31.679  1.00  0.00    -0.014 A 
ATOM     66  C   UNL A   1      44.227  33.560  30.849  1.00  0.00     0.009 A 
ATOM     67  C   UNL A   1      43.618  32.744  33.042  1.00  0.00     0.009 A 
ATOM     68  C   UNL A   1      44.421  34.837  31.379  1.00  0.00     0.001 A 
ATOM     69  C   UNL A   1      43.785  34.027  33.564  1.00  0.00     0.001 A 
ATOM     70  C   UNL A   1      44.196  35.070  32.735  1.00  0.00     0.000 A 
ENDBRANCH  51  65
BRANCH  52  71
ATOM     71  C   UNL A   1      42.139  23.546  27.617  1.00  0.00    -0.014 A 
ATOM     72  C   UNL A   1      41.607  22.492  28.375  1.00  0.00     0.009 A 
ATOM     73  C   UNL A   1      42.450  23.322  26.267  1.00  0.00     0.009 A 
ATOM     74  C   UNL A   1      41.415  21.234  27.800  1.00  0.00     0.001 A 
ATOM     75  C   UNL A   1      42.232  22.070  25.688  1.00  0.00     0.001 A 
ATOM     76  C   UNL A   1      41.724  21.025  26.457  1.00  0.00     0.000 A 
ENDBRANCH  52  71
BRANCH  64  77
ATOM     77  C   UNL A   1      47.681  26.481  30.631  1.00  0.00    -0.014 A 
ATOM     78  C   UNL A   1      48.000  25.857  31.847  1.00  0.00     0.009 A 
ATOM     79  C   UNL A   1      48.669  26.595  29.642  1.00  0.00     0.009 A 
ATOM     80  C   UNL A   1      49.293  25.382  32.076  1.00  0.00     0.001 A 
ATOM     81  C   UNL A   1      49.953  26.096  29.864  1.00  0.00     0.001 A 
ATOM     82  C   UNL A   1      50.266  25.497  31.083  1.00  0.00     0.000 A 
ENDBRANCH  64  77
ENDBRANCH  38  39
ENDBRANCH  30  33
ENDBRANCH  28  29
ENDBRANCH  27  28
ENDBRANCH   1  27
TORSDOF 14
ENDMDL
