MODEL 1
REMARK VINA RESULT:     -11.1      0.000      0.000
REMARK SMILES COc1ccc(NC(=O)C[C@@H](C[NH+]2CCOCC2)C(=O)NCCCCNC(=O)c2ccc(-c3c4nc(c(-c5ccccc5)c5ccc([nH]5)c(-c5ccccc5)c5nc(c(-c6ccccc6)c6ccc3[nH]6)C=C5)C=C4)cc2)cc1
REMARK SMILES IDX 22 1 21 2 19 3 20 4 11 6 10 7 8 8 7 9 9 11 6 12 3 13 4 14
REMARK SMILES IDX 78 15 5 16 77 17 2 18 1 19 12 20 13 21 14 22 18 23 15 25
REMARK SMILES IDX 17 26 16 27 23 28 24 29 25 30 26 31 27 32 28 34 29 35 30 36
REMARK SMILES IDX 76 37 31 38 75 39 32 40 33 41 34 42 69 43 35 44 74 45 68 46
REMARK SMILES IDX 70 47 36 48 73 49 67 50 66 51 37 53 59 54 44 55 58 56 45 57
REMARK SMILES IDX 48 58 57 59 71 60 46 61 47 62 56 64 72 65 49 66 38 67 39 68
REMARK SMILES IDX 43 69 40 70 42 71 41 72 60 73 61 74 65 75 62 76 64 77 63 78
REMARK SMILES IDX 50 79 51 80 55 81 52 82 54 83 53 84
REMARK H PARENT 21 5 7 10 13 24 26 33 70 52 48 63
REMARK Flexibility Score: inf
ROOT
ATOM      1  C   UNL A   1      35.193  23.706  24.451  1.00  0.00     0.116 C 
ENDROOT
BRANCH   1   2
ATOM      2  N   UNL A   1      34.191  23.014  23.613  1.00  0.00    -0.356 N 
ATOM      3  C   UNL A   1      33.179  22.122  23.633  1.00  0.00     0.229 C 
ATOM      4  O   UNL A   1      32.553  22.183  22.552  1.00  0.00    -0.275 OA
ATOM      5  H   UNL A   1      34.307  23.322  22.685  1.00  0.00     0.163 HD
BRANCH   3   6
ATOM      6  C   UNL A   1      32.609  21.092  24.700  1.00  0.00     0.142 C 
BRANCH   6   7
ATOM      7  C   UNL A   1      31.543  21.851  25.567  1.00  0.00     0.119 C 
BRANCH   7   8
ATOM      8  C   UNL A   1      31.356  23.164  26.328  1.00  0.00     0.225 C 
ATOM      9  N   UNL A   1      31.392  24.461  25.993  1.00  0.00    -0.326 N 
ATOM     10  H   UNL A   1      31.120  25.010  26.763  1.00  0.00     0.169 HD
ATOM     11  O   UNL A   1      31.031  23.038  27.531  1.00  0.00    -0.275 OA
BRANCH   9  12
ATOM     12  C   UNL A   1      31.690  25.282  24.911  1.00  0.00     0.041 A 
ATOM     13  C   UNL A   1      32.907  26.657  22.819  1.00  0.00     0.119 A 
ATOM     14  C   UNL A   1      31.804  25.836  22.571  1.00  0.00     0.048 A 
ATOM     15  C   UNL A   1      33.293  26.941  24.120  1.00  0.00     0.048 A 
ATOM     16  C   UNL A   1      31.180  25.152  23.631  1.00  0.00     0.030 A 
ATOM     17  C   UNL A   1      32.672  26.263  25.166  1.00  0.00     0.030 A 
BRANCH  13  18
ATOM     18  O   UNL A   1      33.629  27.172  21.779  1.00  0.00    -0.497 OA
ATOM     19  C   UNL A   1      34.225  28.423  22.149  1.00  0.00     0.278 C 
ENDBRANCH  13  18
ENDBRANCH   9  12
ENDBRANCH   7   8
ENDBRANCH   6   7
BRANCH   6  20
ATOM     20  C   UNL A   1      32.523  19.577  24.468  1.00  0.00     0.276 C 
BRANCH  20  21
ATOM     21  N   UNL A   1      33.328  18.552  25.103  1.00  0.00    -0.330 N 
ATOM     22  C   UNL A   1      34.437  18.066  24.337  1.00  0.00     0.291 C 
ATOM     23  C   UNL A   1      32.796  17.447  25.883  1.00  0.00     0.291 C 
ATOM     24  H   UNL A   1      33.574  19.214  25.838  1.00  0.00     0.348 HD
ATOM     25  C   UNL A   1      34.080  16.878  23.460  1.00  0.00     0.221 C 
ATOM     26  C   UNL A   1      32.710  16.073  25.176  1.00  0.00     0.221 C 
ATOM     27  O   UNL A   1      33.827  15.777  24.328  1.00  0.00    -0.370 OA
ENDBRANCH  20  21
ENDBRANCH   6  20
ENDBRANCH   3   6
ENDBRANCH   1   2
BRANCH   1  28
ATOM     28  C   UNL A   1      35.969  22.715  25.366  1.00  0.00     0.023 C 
BRANCH  28  29
ATOM     29  C   UNL A   1      37.258  22.088  24.810  1.00  0.00     0.023 C 
BRANCH  29  30
ATOM     30  C   UNL A   1      38.408  21.813  25.783  1.00  0.00     0.116 C 
BRANCH  30  31
ATOM     31  N   UNL A   1      39.156  20.579  25.539  1.00  0.00    -0.352 N 
ATOM     32  C   UNL A   1      40.398  20.179  26.001  1.00  0.00     0.251 C 
ATOM     33  H   UNL A   1      38.704  19.930  24.952  1.00  0.00     0.163 HD
ATOM     34  O   UNL A   1      40.812  19.052  25.803  1.00  0.00    -0.269 OA
BRANCH  32  35
ATOM     35  C   UNL A   1      41.274  21.184  26.635  1.00  0.00     0.039 A 
ATOM     36  C   UNL A   1      41.958  22.066  25.792  1.00  0.00     0.014 A 
ATOM     37  C   UNL A   1      41.291  21.357  28.017  1.00  0.00     0.014 A 
ATOM     38  C   UNL A   1      42.532  23.216  26.330  1.00  0.00     0.010 A 
ATOM     39  C   UNL A   1      41.784  22.547  28.537  1.00  0.00     0.010 A 
ATOM     40  C   UNL A   1      42.374  23.506  27.695  1.00  0.00    -0.014 A 
BRANCH  40  41
ATOM     41  C   UNL A   1      42.754  24.832  28.246  1.00  0.00     0.031 A 
ATOM     42  C   UNL A   1      41.712  25.892  28.456  1.00  0.00     0.074 A 
ATOM     43  C   UNL A   1      44.055  25.114  28.467  1.00  0.00     0.049 A 
ATOM     44  N   UNL A   1      41.865  27.130  28.850  1.00  0.00    -0.248 NA
ATOM     45  C   UNL A   1      40.322  25.522  28.150  1.00  0.00     0.031 C 
ATOM     46  C   UNL A   1      45.177  24.197  28.245  1.00  0.00     0.029 A 
ATOM     47  N   UNL A   1      44.655  26.263  28.921  1.00  0.00    -0.354 N 
ATOM     48  C   UNL A   1      40.597  27.693  28.815  1.00  0.00     0.074 A 
ATOM     49  C   UNL A   1      39.697  26.679  28.311  1.00  0.00     0.031 C 
ATOM     50  C   UNL A   1      46.321  24.806  28.597  1.00  0.00     0.029 A 
ATOM     51  C   UNL A   1      46.022  26.166  29.030  1.00  0.00     0.049 A 
ATOM     52  H   UNL A   1      44.153  27.078  29.148  1.00  0.00     0.167 HD
ATOM     53  C   UNL A   1      40.210  28.935  29.188  1.00  0.00     0.031 A 
ATOM     54  C   UNL A   1      46.934  27.070  29.434  1.00  0.00     0.031 A 
ATOM     55  C   UNL A   1      41.096  29.938  29.711  1.00  0.00     0.049 A 
ATOM     56  C   UNL A   1      46.478  28.438  29.858  1.00  0.00     0.074 A 
ATOM     57  C   UNL A   1      40.786  31.201  30.183  1.00  0.00     0.029 A 
ATOM     58  N   UNL A   1      42.469  29.792  29.830  1.00  0.00    -0.354 N 
ATOM     59  N   UNL A   1      45.263  28.929  29.892  1.00  0.00    -0.248 NA
ATOM     60  C   UNL A   1      47.519  29.371  30.311  1.00  0.00     0.031 C 
ATOM     61  C   UNL A   1      41.978  31.836  30.550  1.00  0.00     0.029 A 
ATOM     62  C   UNL A   1      43.023  30.949  30.350  1.00  0.00     0.049 A 
ATOM     63  H   UNL A   1      42.975  28.984  29.582  1.00  0.00     0.167 HD
ATOM     64  C   UNL A   1      45.391  30.217  30.393  1.00  0.00     0.074 A 
ATOM     65  C   UNL A   1      46.799  30.427  30.662  1.00  0.00     0.031 C 
ATOM     66  C   UNL A   1      44.426  31.143  30.613  1.00  0.00     0.031 A 
BRANCH  53  67
ATOM     67  C   UNL A   1      38.752  29.270  29.040  1.00  0.00    -0.014 A 
ATOM     68  C   UNL A   1      37.858  29.115  30.111  1.00  0.00     0.009 A 
ATOM     69  C   UNL A   1      38.268  29.756  27.816  1.00  0.00     0.009 A 
ATOM     70  C   UNL A   1      36.501  29.397  29.947  1.00  0.00     0.001 A 
ATOM     71  C   UNL A   1      36.916  30.065  27.662  1.00  0.00     0.001 A 
ATOM     72  C   UNL A   1      36.032  29.874  28.724  1.00  0.00     0.000 A 
ENDBRANCH  53  67
BRANCH  54  73
ATOM     73  C   UNL A   1      48.374  26.704  29.486  1.00  0.00    -0.014 A 
ATOM     74  C   UNL A   1      49.204  26.941  28.379  1.00  0.00     0.009 A 
ATOM     75  C   UNL A   1      48.923  26.113  30.633  1.00  0.00     0.009 A 
ATOM     76  C   UNL A   1      50.551  26.571  28.412  1.00  0.00     0.001 A 
ATOM     77  C   UNL A   1      50.277  25.768  30.671  1.00  0.00     0.001 A 
ATOM     78  C   UNL A   1      51.086  25.989  29.559  1.00  0.00     0.000 A 
ENDBRANCH  54  73
BRANCH  66  79
ATOM     79  C   UNL A   1      44.855  32.457  31.201  1.00  0.00    -0.014 A 
ATOM     80  C   UNL A   1      45.258  33.524  30.384  1.00  0.00     0.009 A 
ATOM     81  C   UNL A   1      44.811  32.641  32.591  1.00  0.00     0.009 A 
ATOM     82  C   UNL A   1      45.636  34.742  30.951  1.00  0.00     0.001 A 
ATOM     83  C   UNL A   1      45.165  33.867  33.154  1.00  0.00     0.001 A 
ATOM     84  C   UNL A   1      45.585  34.914  32.334  1.00  0.00     0.000 A 
ENDBRANCH  66  79
ENDBRANCH  40  41
ENDBRANCH  32  35
ENDBRANCH  30  31
ENDBRANCH  29  30
ENDBRANCH  28  29
ENDBRANCH   1  28
TORSDOF 17
ENDMDL
MODEL 2
REMARK VINA RESULT:     -10.9      1.337      6.019
REMARK SMILES COc1ccc(NC(=O)C[C@@H](C[NH+]2CCOCC2)C(=O)NCCCCNC(=O)c2ccc(-c3c4nc(c(-c5ccccc5)c5ccc([nH]5)c(-c5ccccc5)c5nc(c(-c6ccccc6)c6ccc3[nH]6)C=C5)C=C4)cc2)cc1
REMARK SMILES IDX 22 1 21 2 19 3 20 4 11 6 10 7 8 8 7 9 9 11 6 12 3 13 4 14
REMARK SMILES IDX 78 15 5 16 77 17 2 18 1 19 12 20 13 21 14 22 18 23 15 25
REMARK SMILES IDX 17 26 16 27 23 28 24 29 25 30 26 31 27 32 28 34 29 35 30 36
REMARK SMILES IDX 76 37 31 38 75 39 32 40 33 41 34 42 69 43 35 44 74 45 68 46
REMARK SMILES IDX 70 47 36 48 73 49 67 50 66 51 37 53 59 54 44 55 58 56 45 57
REMARK SMILES IDX 48 58 57 59 71 60 46 61 47 62 56 64 72 65 49 66 38 67 39 68
REMARK SMILES IDX 43 69 40 70 42 71 41 72 60 73 61 74 65 75 62 76 64 77 63 78
REMARK SMILES IDX 50 79 51 80 55 81 52 82 54 83 53 84
REMARK H PARENT 21 5 7 10 13 24 26 33 70 52 48 63
REMARK Flexibility Score: inf
ROOT
ATOM      1  C   UNL A   1      35.716  23.006  25.734  1.00  0.00     0.116 C 
ENDROOT
BRANCH   1   2
ATOM      2  N   UNL A   1      34.585  22.865  26.676  1.00  0.00    -0.356 N 
ATOM      3  C   UNL A   1      33.385  22.276  26.861  1.00  0.00     0.229 C 
ATOM      4  O   UNL A   1      33.053  22.384  28.062  1.00  0.00    -0.275 OA
ATOM      5  H   UNL A   1      34.784  23.407  27.473  1.00  0.00     0.163 HD
BRANCH   3   6
ATOM      6  C   UNL A   1      32.370  21.475  25.937  1.00  0.00     0.142 C 
BRANCH   6   7
ATOM      7  C   UNL A   1      31.042  22.310  25.859  1.00  0.00     0.119 C 
BRANCH   7   8
ATOM      8  C   UNL A   1      30.259  23.361  26.646  1.00  0.00     0.225 C 
ATOM      9  N   UNL A   1      30.051  24.678  26.512  1.00  0.00    -0.326 N 
ATOM     10  H   UNL A   1      29.396  24.981  27.181  1.00  0.00     0.169 HD
ATOM     11  O   UNL A   1      29.595  22.916  27.610  1.00  0.00    -0.275 OA
BRANCH   9  12
ATOM     12  C   UNL A   1      30.460  25.755  25.734  1.00  0.00     0.041 A 
ATOM     13  C   UNL A   1      30.622  28.086  24.220  1.00  0.00     0.119 A 
ATOM     14  C   UNL A   1      31.396  27.944  25.375  1.00  0.00     0.048 A 
ATOM     15  C   UNL A   1      29.910  27.009  23.715  1.00  0.00     0.048 A 
ATOM     16  C   UNL A   1      31.324  26.761  26.132  1.00  0.00     0.030 A 
ATOM     17  C   UNL A   1      29.843  25.839  24.468  1.00  0.00     0.030 A 
BRANCH  13  18
ATOM     18  O   UNL A   1      30.545  29.296  23.589  1.00  0.00    -0.497 OA
ATOM     19  C   UNL A   1      29.344  29.381  22.808  1.00  0.00     0.278 C 
ENDBRANCH  13  18
ENDBRANCH   9  12
ENDBRANCH   7   8
ENDBRANCH   6   7
BRANCH   6  20
ATOM     20  C   UNL A   1      32.802  20.547  24.793  1.00  0.00     0.276 C 
BRANCH  20  21
ATOM     21  N   UNL A   1      32.246  19.247  24.471  1.00  0.00    -0.330 N 
ATOM     22  C   UNL A   1      32.561  18.190  25.385  1.00  0.00     0.291 C 
ATOM     23  C   UNL A   1      32.179  18.685  23.133  1.00  0.00     0.291 C 
ATOM     24  H   UNL A   1      31.309  19.634  24.572  1.00  0.00     0.348 HD
ATOM     25  C   UNL A   1      33.835  17.448  25.022  1.00  0.00     0.221 C 
ATOM     26  C   UNL A   1      33.252  17.633  22.764  1.00  0.00     0.221 C 
ATOM     27  O   UNL A   1      33.571  16.722  23.825  1.00  0.00    -0.370 OA
ENDBRANCH  20  21
ENDBRANCH   6  20
ENDBRANCH   3   6
ENDBRANCH   1   2
BRANCH   1  28
ATOM     28  C   UNL A   1      36.351  21.629  25.379  1.00  0.00     0.023 C 
BRANCH  28  29
ATOM     29  C   UNL A   1      37.836  21.608  24.985  1.00  0.00     0.023 C 
BRANCH  29  30
ATOM     30  C   UNL A   1      38.866  21.254  26.061  1.00  0.00     0.116 C 
BRANCH  30  31
ATOM     31  N   UNL A   1      39.745  20.127  25.743  1.00  0.00    -0.352 N 
ATOM     32  C   UNL A   1      41.072  19.907  26.072  1.00  0.00     0.251 C 
ATOM     33  H   UNL A   1      39.326  19.413  25.211  1.00  0.00     0.163 HD
ATOM     34  O   UNL A   1      41.612  18.844  25.835  1.00  0.00    -0.269 OA
BRANCH  32  35
ATOM     35  C   UNL A   1      41.866  21.033  26.603  1.00  0.00     0.039 A 
ATOM     36  C   UNL A   1      42.359  21.964  25.684  1.00  0.00     0.014 A 
ATOM     37  C   UNL A   1      41.976  21.253  27.973  1.00  0.00     0.014 A 
ATOM     38  C   UNL A   1      42.828  23.194  26.143  1.00  0.00     0.010 A 
ATOM     39  C   UNL A   1      42.358  22.512  28.421  1.00  0.00     0.010 A 
ATOM     40  C   UNL A   1      42.750  23.507  27.509  1.00  0.00    -0.014 A 
BRANCH  40  41
ATOM     41  C   UNL A   1      43.006  24.888  27.994  1.00  0.00     0.031 A 
ATOM     42  C   UNL A   1      44.395  25.312  28.374  1.00  0.00     0.074 A 
ATOM     43  C   UNL A   1      41.970  25.731  28.183  1.00  0.00     0.049 A 
ATOM     44  N   UNL A   1      44.799  26.444  28.890  1.00  0.00    -0.248 NA
ATOM     45  C   UNL A   1      45.465  24.320  28.180  1.00  0.00     0.031 C 
ATOM     46  C   UNL A   1      40.562  25.427  27.916  1.00  0.00     0.029 A 
ATOM     47  N   UNL A   1      41.943  27.020  28.657  1.00  0.00    -0.354 N 
ATOM     48  C   UNL A   1      46.161  26.292  29.106  1.00  0.00     0.074 A 
ATOM     49  C   UNL A   1      46.505  24.943  28.715  1.00  0.00     0.031 C 
ATOM     50  C   UNL A   1      39.815  26.508  28.194  1.00  0.00     0.029 A 
ATOM     51  C   UNL A   1      40.683  27.567  28.698  1.00  0.00     0.049 A 
ATOM     52  H   UNL A   1      42.750  27.506  28.941  1.00  0.00     0.167 HD
ATOM     53  C   UNL A   1      47.053  27.200  29.568  1.00  0.00     0.031 A 
ATOM     54  C   UNL A   1      40.269  28.785  29.095  1.00  0.00     0.031 A 
ATOM     55  C   UNL A   1      46.720  28.549  29.935  1.00  0.00     0.049 A 
ATOM     56  C   UNL A   1      41.280  29.781  29.589  1.00  0.00     0.074 A 
ATOM     57  C   UNL A   1      47.567  29.564  30.346  1.00  0.00     0.029 A 
ATOM     58  N   UNL A   1      45.437  29.072  29.937  1.00  0.00    -0.354 N 
ATOM     59  N   UNL A   1      42.578  29.647  29.715  1.00  0.00    -0.248 NA
ATOM     60  C   UNL A   1      40.769  31.101  29.986  1.00  0.00     0.031 C 
ATOM     61  C   UNL A   1      46.790  30.691  30.637  1.00  0.00     0.029 A 
ATOM     62  C   UNL A   1      45.465  30.390  30.360  1.00  0.00     0.049 A 
ATOM     63  H   UNL A   1      44.626  28.580  29.675  1.00  0.00     0.167 HD
ATOM     64  C   UNL A   1      43.041  30.871  30.178  1.00  0.00     0.074 A 
ATOM     65  C   UNL A   1      41.888  31.739  30.300  1.00  0.00     0.031 C 
ATOM     66  C   UNL A   1      44.310  31.241  30.476  1.00  0.00     0.031 A 
BRANCH  53  67
ATOM     67  C   UNL A   1      48.481  26.750  29.698  1.00  0.00    -0.014 A 
ATOM     68  C   UNL A   1      48.942  26.125  30.868  1.00  0.00     0.009 A 
ATOM     69  C   UNL A   1      49.374  26.945  28.634  1.00  0.00     0.009 A 
ATOM     70  C   UNL A   1      50.280  25.745  30.986  1.00  0.00     0.001 A 
ATOM     71  C   UNL A   1      50.705  26.538  28.744  1.00  0.00     0.001 A 
ATOM     72  C   UNL A   1      51.159  25.950  29.924  1.00  0.00     0.000 A 
ENDBRANCH  53  67
BRANCH  54  73
ATOM     73  C   UNL A   1      38.829  29.146  29.016  1.00  0.00    -0.014 A 
ATOM     74  C   UNL A   1      37.996  28.979  30.133  1.00  0.00     0.009 A 
ATOM     75  C   UNL A   1      38.280  29.651  27.828  1.00  0.00     0.009 A 
ATOM     76  C   UNL A   1      36.636  29.288  30.054  1.00  0.00     0.001 A 
ATOM     77  C   UNL A   1      36.924  29.983  27.761  1.00  0.00     0.001 A 
ATOM     78  C   UNL A   1      36.103  29.794  28.871  1.00  0.00     0.000 A 
ENDBRANCH  54  73
BRANCH  66  79
ATOM     79  C   UNL A   1      44.523  32.657  30.931  1.00  0.00    -0.014 A 
ATOM     80  C   UNL A   1      44.537  32.989  32.294  1.00  0.00     0.009 A 
ATOM     81  C   UNL A   1      44.759  33.662  29.981  1.00  0.00     0.009 A 
ATOM     82  C   UNL A   1      44.754  34.309  32.695  1.00  0.00     0.001 A 
ATOM     83  C   UNL A   1      45.002  34.975  30.386  1.00  0.00     0.001 A 
ATOM     84  C   UNL A   1      44.991  35.299  31.742  1.00  0.00     0.000 A 
ENDBRANCH  66  79
ENDBRANCH  40  41
ENDBRANCH  32  35
ENDBRANCH  30  31
ENDBRANCH  29  30
ENDBRANCH  28  29
ENDBRANCH   1  28
TORSDOF 17
ENDMDL
MODEL 3
REMARK VINA RESULT:     -10.8      1.194      4.450
REMARK SMILES COc1ccc(NC(=O)C[C@@H](C[NH+]2CCOCC2)C(=O)NCCCCNC(=O)c2ccc(-c3c4nc(c(-c5ccccc5)c5ccc([nH]5)c(-c5ccccc5)c5nc(c(-c6ccccc6)c6ccc3[nH]6)C=C5)C=C4)cc2)cc1
REMARK SMILES IDX 22 1 21 2 19 3 20 4 11 6 10 7 8 8 7 9 9 11 6 12 3 13 4 14
REMARK SMILES IDX 78 15 5 16 77 17 2 18 1 19 12 20 13 21 14 22 18 23 15 25
REMARK SMILES IDX 17 26 16 27 23 28 24 29 25 30 26 31 27 32 28 34 29 35 30 36
REMARK SMILES IDX 76 37 31 38 75 39 32 40 33 41 34 42 69 43 35 44 74 45 68 46
REMARK SMILES IDX 70 47 36 48 73 49 67 50 66 51 37 53 59 54 44 55 58 56 45 57
REMARK SMILES IDX 48 58 57 59 71 60 46 61 47 62 56 64 72 65 49 66 38 67 39 68
REMARK SMILES IDX 43 69 40 70 42 71 41 72 60 73 61 74 65 75 62 76 64 77 63 78
REMARK SMILES IDX 50 79 51 80 55 81 52 82 54 83 53 84
REMARK H PARENT 21 5 7 10 13 24 26 33 70 52 48 63
REMARK Flexibility Score: inf
ROOT
ATOM      1  C   UNL A   1      35.796  22.985  26.181  1.00  0.00     0.116 C 
ENDROOT
BRANCH   1   2
ATOM      2  N   UNL A   1      34.690  22.749  27.133  1.00  0.00    -0.356 N 
ATOM      3  C   UNL A   1      33.347  22.718  27.261  1.00  0.00     0.229 C 
ATOM      4  O   UNL A   1      33.048  22.165  28.343  1.00  0.00    -0.275 OA
ATOM      5  H   UNL A   1      35.084  22.528  28.008  1.00  0.00     0.163 HD
BRANCH   3   6
ATOM      6  C   UNL A   1      32.120  23.171  26.359  1.00  0.00     0.142 C 
BRANCH   6   7
ATOM      7  C   UNL A   1      31.780  21.981  25.392  1.00  0.00     0.119 C 
BRANCH   7   8
ATOM      8  C   UNL A   1      32.181  21.411  24.032  1.00  0.00     0.225 C 
ATOM      9  N   UNL A   1      32.479  20.187  23.573  1.00  0.00    -0.326 N 
ATOM     10  H   UNL A   1      32.594  20.218  22.596  1.00  0.00     0.169 HD
ATOM     11  O   UNL A   1      32.183  22.236  23.091  1.00  0.00    -0.275 OA
BRANCH   9  12
ATOM     12  C   UNL A   1      32.677  18.889  24.029  1.00  0.00     0.041 A 
ATOM     13  C   UNL A   1      33.728  16.434  24.816  1.00  0.00     0.119 A 
ATOM     14  C   UNL A   1      32.992  17.204  25.720  1.00  0.00     0.048 A 
ATOM     15  C   UNL A   1      33.789  16.789  23.478  1.00  0.00     0.048 A 
ATOM     16  C   UNL A   1      32.450  18.438  25.318  1.00  0.00     0.030 A 
ATOM     17  C   UNL A   1      33.249  18.011  23.083  1.00  0.00     0.030 A 
BRANCH  13  18
ATOM     18  O   UNL A   1      34.413  15.333  25.249  1.00  0.00    -0.497 OA
ATOM     19  C   UNL A   1      35.800  15.645  25.442  1.00  0.00     0.278 C 
ENDBRANCH  13  18
ENDBRANCH   9  12
ENDBRANCH   7   8
ENDBRANCH   6   7
BRANCH   6  20
ATOM     20  C   UNL A   1      31.046  24.170  26.810  1.00  0.00     0.276 C 
BRANCH  20  21
ATOM     21  N   UNL A   1      30.875  25.533  26.348  1.00  0.00    -0.330 N 
ATOM     22  C   UNL A   1      30.038  25.700  25.197  1.00  0.00     0.291 C 
ATOM     23  C   UNL A   1      31.934  26.526  26.287  1.00  0.00     0.291 C 
ATOM     24  H   UNL A   1      30.432  25.768  27.235  1.00  0.00     0.348 HD
ATOM     25  C   UNL A   1      30.805  25.627  23.888  1.00  0.00     0.221 C 
ATOM     26  C   UNL A   1      32.566  26.787  24.900  1.00  0.00     0.221 C 
ATOM     27  O   UNL A   1      31.626  26.789  23.816  1.00  0.00    -0.370 OA
ENDBRANCH  20  21
ENDBRANCH   6  20
ENDBRANCH   3   6
ENDBRANCH   1   2
BRANCH   1  28
ATOM     28  C   UNL A   1      36.371  21.653  25.616  1.00  0.00     0.023 C 
BRANCH  28  29
ATOM     29  C   UNL A   1      37.792  21.679  25.032  1.00  0.00     0.023 C 
BRANCH  29  30
ATOM     30  C   UNL A   1      38.971  21.450  25.983  1.00  0.00     0.116 C 
BRANCH  30  31
ATOM     31  N   UNL A   1      39.736  20.225  25.751  1.00  0.00    -0.352 N 
ATOM     32  C   UNL A   1      41.016  19.881  26.151  1.00  0.00     0.251 C 
ATOM     33  H   UNL A   1      39.267  19.537  25.227  1.00  0.00     0.163 HD
ATOM     34  O   UNL A   1      41.449  18.757  25.981  1.00  0.00    -0.269 OA
BRANCH  32  35
ATOM     35  C   UNL A   1      41.902  20.938  26.676  1.00  0.00     0.039 A 
ATOM     36  C   UNL A   1      42.547  21.760  25.747  1.00  0.00     0.014 A 
ATOM     37  C   UNL A   1      41.963  21.215  28.040  1.00  0.00     0.014 A 
ATOM     38  C   UNL A   1      43.126  22.953  26.177  1.00  0.00     0.010 A 
ATOM     39  C   UNL A   1      42.459  22.446  28.452  1.00  0.00     0.010 A 
ATOM     40  C   UNL A   1      43.010  23.344  27.521  1.00  0.00    -0.014 A 
BRANCH  40  41
ATOM     41  C   UNL A   1      43.394  24.710  27.957  1.00  0.00     0.031 A 
ATOM     42  C   UNL A   1      42.339  25.744  28.226  1.00  0.00     0.074 A 
ATOM     43  C   UNL A   1      44.698  25.049  28.018  1.00  0.00     0.049 A 
ATOM     44  N   UNL A   1      42.483  27.007  28.536  1.00  0.00    -0.248 NA
ATOM     45  C   UNL A   1      40.939  25.309  28.095  1.00  0.00     0.031 C 
ATOM     46  C   UNL A   1      45.826  24.162  27.721  1.00  0.00     0.029 A 
ATOM     47  N   UNL A   1      45.297  26.242  28.343  1.00  0.00    -0.354 N 
ATOM     48  C   UNL A   1      41.196  27.522  28.612  1.00  0.00     0.074 A 
ATOM     49  C   UNL A   1      40.289  26.451  28.264  1.00  0.00     0.031 C 
ATOM     50  C   UNL A   1      46.976  24.829  27.912  1.00  0.00     0.029 A 
ATOM     51  C   UNL A   1      46.670  26.200  28.305  1.00  0.00     0.049 A 
ATOM     52  H   UNL A   1      44.790  27.051  28.582  1.00  0.00     0.167 HD
ATOM     53  C   UNL A   1      40.801  28.769  28.961  1.00  0.00     0.031 A 
ATOM     54  C   UNL A   1      47.583  27.156  28.558  1.00  0.00     0.031 A 
ATOM     55  C   UNL A   1      41.698  29.830  29.330  1.00  0.00     0.049 A 
ATOM     56  C   UNL A   1      47.120  28.528  28.959  1.00  0.00     0.074 A 
ATOM     57  C   UNL A   1      41.389  31.106  29.768  1.00  0.00     0.029 A 
ATOM     58  N   UNL A   1      43.080  29.738  29.304  1.00  0.00    -0.354 N 
ATOM     59  N   UNL A   1      45.897  28.978  29.101  1.00  0.00    -0.248 NA
ATOM     60  C   UNL A   1      48.166  29.521  29.246  1.00  0.00     0.031 C 
ATOM     61  C   UNL A   1      42.587  31.801  29.967  1.00  0.00     0.029 A 
ATOM     62  C   UNL A   1      43.640  30.942  29.699  1.00  0.00     0.049 A 
ATOM     63  H   UNL A   1      43.589  28.937  29.044  1.00  0.00     0.167 HD
ATOM     64  C   UNL A   1      46.026  30.296  29.519  1.00  0.00     0.074 A 
ATOM     65  C   UNL A   1      47.445  30.569  29.619  1.00  0.00     0.031 C 
ATOM     66  C   UNL A   1      45.054  31.199  29.795  1.00  0.00     0.031 A 
BRANCH  53  67
ATOM     67  C   UNL A   1      39.324  29.044  28.957  1.00  0.00    -0.014 A 
ATOM     68  C   UNL A   1      38.540  28.820  30.100  1.00  0.00     0.009 A 
ATOM     69  C   UNL A   1      38.710  29.544  27.799  1.00  0.00     0.009 A 
ATOM     70  C   UNL A   1      37.164  29.047  30.070  1.00  0.00     0.001 A 
ATOM     71  C   UNL A   1      37.337  29.798  27.780  1.00  0.00     0.001 A 
ATOM     72  C   UNL A   1      36.564  29.538  28.911  1.00  0.00     0.000 A 
ENDBRANCH  53  67
BRANCH  54  73
ATOM     73  C   UNL A   1      49.034  26.844  28.470  1.00  0.00    -0.014 A 
ATOM     74  C   UNL A   1      49.721  27.013  27.258  1.00  0.00     0.009 A 
ATOM     75  C   UNL A   1      49.736  26.371  29.588  1.00  0.00     0.009 A 
ATOM     76  C   UNL A   1      51.077  26.692  27.161  1.00  0.00     0.001 A 
ATOM     77  C   UNL A   1      51.099  26.076  29.495  1.00  0.00     0.001 A 
ATOM     78  C   UNL A   1      51.765  26.228  28.280  1.00  0.00     0.000 A 
ENDBRANCH  54  73
BRANCH  66  79
ATOM     79  C   UNL A   1      45.491  32.557  30.263  1.00  0.00    -0.014 A 
ATOM     80  C   UNL A   1      45.690  33.610  29.358  1.00  0.00     0.009 A 
ATOM     81  C   UNL A   1      45.660  32.796  31.636  1.00  0.00     0.009 A 
ATOM     82  C   UNL A   1      46.079  34.870  29.818  1.00  0.00     0.001 A 
ATOM     83  C   UNL A   1      46.024  34.062  32.094  1.00  0.00     0.001 A 
ATOM     84  C   UNL A   1      46.240  35.096  31.185  1.00  0.00     0.000 A 
ENDBRANCH  66  79
ENDBRANCH  40  41
ENDBRANCH  32  35
ENDBRANCH  30  31
ENDBRANCH  29  30
ENDBRANCH  28  29
ENDBRANCH   1  28
TORSDOF 17
ENDMDL
