MODEL 1
REMARK VINA RESULT:     -11.4      0.000      0.000
REMARK SMILES O=C(NCCCCNC(=O)c1cccc(S(=O)(=O)Nc2cccc(I)c2)c1)c1ccc(-c2c3nc(c(-c4ccccc4)c4ccc([nH]4)c(-c4ccccc4)c4nc(c(-c5ccccc5)c5ccc2[nH]5)C=C4)C=C3)cc1
REMARK SMILES IDX 6 1 5 2 4 3 3 4 1 5 2 6 28 8 29 9 75 10 30 11 74 12 31 13
REMARK SMILES IDX 32 14 33 15 68 16 34 17 73 18 67 19 69 20 35 21 72 22 66 23
REMARK SMILES IDX 65 24 36 26 58 27 43 28 57 29 44 30 47 31 56 32 70 33 45 34
REMARK SMILES IDX 46 35 55 37 71 38 48 39 37 40 38 41 42 42 39 43 41 44 40 45
REMARK SMILES IDX 59 46 60 47 64 48 61 49 63 50 62 51 49 52 50 53 54 54 51 55
REMARK SMILES IDX 53 56 52 57 7 58 8 59 9 60 10 62 11 63 12 64 27 65 13 66
REMARK SMILES IDX 15 67 14 68 16 69 17 70 18 71 19 72 20 74 21 75 26 76 22 77
REMARK SMILES IDX 24 78 23 79 25 80
REMARK H PARENT 3 7 69 25 47 36 8 61 19 73
REMARK Flexibility Score: inf
ROOT
ATOM      1  C   UNL A   1      35.700  21.563  24.687  1.00  0.00     0.023 C 
ENDROOT
BRANCH   1   2
ATOM      2  C   UNL A   1      35.760  23.089  24.570  1.00  0.00     0.023 C 
BRANCH   2   3
ATOM      3  C   UNL A   1      37.044  23.736  25.077  1.00  0.00     0.116 C 
BRANCH   3   4
ATOM      4  N   UNL A   1      38.069  22.756  25.399  1.00  0.00    -0.352 N 
ATOM      5  O   UNL A   1      40.068  22.002  26.110  1.00  0.00    -0.269 OA
ATOM      6  C   UNL A   1      39.250  22.917  26.083  1.00  0.00     0.251 C 
ATOM      7  H   UNL A   1      37.890  21.842  25.080  1.00  0.00     0.163 HD
BRANCH   6   8
ATOM      8  C   UNL A   1      39.545  24.187  26.779  1.00  0.00     0.039 A 
ATOM      9  C   UNL A   1      39.125  24.397  28.095  1.00  0.00     0.014 A 
ATOM     10  C   UNL A   1      40.300  25.164  26.121  1.00  0.00     0.014 A 
ATOM     11  C   UNL A   1      39.370  25.619  28.716  1.00  0.00     0.010 A 
ATOM     12  C   UNL A   1      40.598  26.368  26.766  1.00  0.00     0.010 A 
ATOM     13  C   UNL A   1      40.122  26.610  28.064  1.00  0.00    -0.014 A 
BRANCH  13  14
ATOM     14  C   UNL A   1      40.484  27.851  28.793  1.00  0.00     0.031 A 
ATOM     15  C   UNL A   1      41.828  28.013  29.446  1.00  0.00     0.074 A 
ATOM     16  C   UNL A   1      39.575  28.843  28.862  1.00  0.00     0.049 A 
ATOM     17  N   UNL A   1      42.296  29.038  30.112  1.00  0.00    -0.248 NA
ATOM     18  C   UNL A   1      42.765  26.883  29.344  1.00  0.00     0.031 C 
ATOM     19  C   UNL A   1      38.229  28.795  28.284  1.00  0.00     0.029 A 
ATOM     20  N   UNL A   1      39.644  30.083  29.443  1.00  0.00    -0.354 N 
ATOM     21  C   UNL A   1      43.571  28.676  30.524  1.00  0.00     0.074 A 
ATOM     22  C   UNL A   1      43.802  27.329  30.044  1.00  0.00     0.031 C 
ATOM     23  C   UNL A   1      37.610  29.962  28.519  1.00  0.00     0.029 A 
ATOM     24  C   UNL A   1      38.492  30.818  29.303  1.00  0.00     0.049 A 
ATOM     25  H   UNL A   1      40.442  30.415  29.915  1.00  0.00     0.167 HD
ATOM     26  C   UNL A   1      44.467  29.401  31.234  1.00  0.00     0.031 A 
ATOM     27  C   UNL A   1      38.170  32.037  29.770  1.00  0.00     0.031 A 
ATOM     28  C   UNL A   1      44.242  30.744  31.702  1.00  0.00     0.049 A 
ATOM     29  C   UNL A   1      39.172  32.800  30.583  1.00  0.00     0.074 A 
ATOM     30  C   UNL A   1      45.123  31.583  32.365  1.00  0.00     0.029 A 
ATOM     31  N   UNL A   1      43.052  31.438  31.569  1.00  0.00    -0.354 N 
ATOM     32  N   UNL A   1      40.399  32.467  30.901  1.00  0.00    -0.248 NA
ATOM     33  C   UNL A   1      38.744  34.106  31.103  1.00  0.00     0.031 C 
ATOM     34  C   UNL A   1      44.448  32.767  32.678  1.00  0.00     0.029 A 
ATOM     35  C   UNL A   1      43.160  32.679  32.173  1.00  0.00     0.049 A 
ATOM     36  H   UNL A   1      42.248  31.100  31.112  1.00  0.00     0.167 HD
ATOM     37  C   UNL A   1      40.890  33.521  31.659  1.00  0.00     0.074 A 
ATOM     38  C   UNL A   1      39.838  34.516  31.728  1.00  0.00     0.031 C 
ATOM     39  C   UNL A   1      42.101  33.649  32.250  1.00  0.00     0.031 A 
BRANCH  26  40
ATOM     40  C   UNL A   1      45.781  28.759  31.576  1.00  0.00    -0.014 A 
ATOM     41  C   UNL A   1      46.898  28.899  30.738  1.00  0.00     0.009 A 
ATOM     42  C   UNL A   1      45.926  28.083  32.798  1.00  0.00     0.009 A 
ATOM     43  C   UNL A   1      48.132  28.361  31.114  1.00  0.00     0.001 A 
ATOM     44  C   UNL A   1      47.163  27.562  33.177  1.00  0.00     0.001 A 
ATOM     45  C   UNL A   1      48.265  27.700  32.334  1.00  0.00     0.000 A 
ENDBRANCH  26  40
BRANCH  27  46
ATOM     46  C   UNL A   1      36.817  32.591  29.514  1.00  0.00    -0.014 A 
ATOM     47  C   UNL A   1      36.547  33.306  28.339  1.00  0.00     0.009 A 
ATOM     48  C   UNL A   1      35.788  32.402  30.451  1.00  0.00     0.009 A 
ATOM     49  C   UNL A   1      35.275  33.839  28.116  1.00  0.00     0.001 A 
ATOM     50  C   UNL A   1      34.513  32.914  30.213  1.00  0.00     0.001 A 
ATOM     51  C   UNL A   1      34.259  33.639  29.049  1.00  0.00     0.000 A 
ENDBRANCH  27  46
BRANCH  39  52
ATOM     52  C   UNL A   1      42.345  34.908  33.026  1.00  0.00    -0.014 A 
ATOM     53  C   UNL A   1      41.844  35.057  34.328  1.00  0.00     0.009 A 
ATOM     54  C   UNL A   1      43.100  35.947  32.460  1.00  0.00     0.009 A 
ATOM     55  C   UNL A   1      42.070  36.238  35.039  1.00  0.00     0.001 A 
ATOM     56  C   UNL A   1      43.343  37.116  33.182  1.00  0.00     0.001 A 
ATOM     57  C   UNL A   1      42.822  37.263  34.467  1.00  0.00     0.000 A 
ENDBRANCH  39  52
ENDBRANCH  13  14
ENDBRANCH   6   8
ENDBRANCH   3   4
ENDBRANCH   2   3
ENDBRANCH   1   2
BRANCH   1  58
ATOM     58  C   UNL A   1      34.978  21.023  25.920  1.00  0.00     0.116 C 
BRANCH  58  59
ATOM     59  N   UNL A   1      34.119  19.895  25.611  1.00  0.00    -0.352 N 
ATOM     60  C   UNL A   1      32.833  19.870  25.133  1.00  0.00     0.251 C 
ATOM     61  H   UNL A   1      34.520  19.010  25.768  1.00  0.00     0.163 HD
ATOM     62  O   UNL A   1      32.230  18.801  25.095  1.00  0.00    -0.269 OA
BRANCH  60  63
ATOM     63  C   UNL A   1      32.163  21.098  24.639  1.00  0.00     0.041 A 
ATOM     64  C   UNL A   1      32.280  21.433  23.287  1.00  0.00     0.014 A 
ATOM     65  C   UNL A   1      31.550  21.989  25.524  1.00  0.00     0.036 A 
ATOM     66  C   UNL A   1      31.757  22.640  22.817  1.00  0.00     0.002 A 
ATOM     67  C   UNL A   1      31.073  23.219  25.067  1.00  0.00     0.088 A 
ATOM     68  C   UNL A   1      31.156  23.534  23.705  1.00  0.00     0.022 A 
BRANCH  67  69
ATOM     69  S   UNL A   1      30.421  24.463  26.164  1.00  0.00     0.261 S 
ATOM     70  O   UNL A   1      29.715  25.428  25.340  1.00  0.00    -0.201 OA
ATOM     71  O   UNL A   1      29.750  23.751  27.224  1.00  0.00    -0.201 OA
BRANCH  69  72
ATOM     72  N   UNL A   1      31.717  25.213  26.907  1.00  0.00    -0.280 N 
ATOM     73  H   UNL A   1      31.998  24.842  27.774  1.00  0.00     0.180 HD
BRANCH  72  74
ATOM     74  C   UNL A   1      32.459  26.328  26.424  1.00  0.00     0.050 A 
ATOM     75  C   UNL A   1      33.304  26.087  25.334  1.00  0.00     0.027 A 
ATOM     76  C   UNL A   1      32.293  27.636  26.883  1.00  0.00     0.041 A 
ATOM     77  C   UNL A   1      33.919  27.147  24.663  1.00  0.00     0.003 A 
ATOM     78  C   UNL A   1      32.884  28.695  26.189  1.00  0.00     0.015 A 
ATOM     79  C   UNL A   1      33.690  28.456  25.077  1.00  0.00     0.015 A 
ATOM     80  I   UNL A   1      32.487  30.653  26.768  1.00  0.00    -0.044 I 
ENDBRANCH  72  74
ENDBRANCH  69  72
ENDBRANCH  67  69
ENDBRANCH  60  63
ENDBRANCH  58  59
ENDBRANCH   1  58
TORSDOF 14
ENDMDL
MODEL 2
REMARK VINA RESULT:     -11.3      2.513      6.928
REMARK SMILES O=C(NCCCCNC(=O)c1cccc(S(=O)(=O)Nc2cccc(I)c2)c1)c1ccc(-c2c3nc(c(-c4ccccc4)c4ccc([nH]4)c(-c4ccccc4)c4nc(c(-c5ccccc5)c5ccc2[nH]5)C=C4)C=C3)cc1
REMARK SMILES IDX 6 1 5 2 4 3 3 4 1 5 2 6 28 8 29 9 75 10 30 11 74 12 31 13
REMARK SMILES IDX 32 14 33 15 68 16 34 17 73 18 67 19 69 20 35 21 72 22 66 23
REMARK SMILES IDX 65 24 36 26 58 27 43 28 57 29 44 30 47 31 56 32 70 33 45 34
REMARK SMILES IDX 46 35 55 37 71 38 48 39 37 40 38 41 42 42 39 43 41 44 40 45
REMARK SMILES IDX 59 46 60 47 64 48 61 49 63 50 62 51 49 52 50 53 54 54 51 55
REMARK SMILES IDX 53 56 52 57 7 58 8 59 9 60 10 62 11 63 12 64 27 65 13 66
REMARK SMILES IDX 15 67 14 68 16 69 17 70 18 71 19 72 20 74 21 75 26 76 22 77
REMARK SMILES IDX 24 78 23 79 25 80
REMARK H PARENT 3 7 69 25 47 36 8 61 19 73
REMARK Flexibility Score: inf
ROOT
ATOM      1  C   UNL A   1      37.137  21.171  24.590  1.00  0.00     0.023 C 
ENDROOT
BRANCH   1   2
ATOM      2  C   UNL A   1      38.021  19.947  24.843  1.00  0.00     0.023 C 
BRANCH   2   3
ATOM      3  C   UNL A   1      38.965  20.055  26.035  1.00  0.00     0.116 C 
BRANCH   3   4
ATOM      4  N   UNL A   1      40.136  19.204  25.894  1.00  0.00    -0.352 N 
ATOM      5  O   UNL A   1      42.320  18.698  25.688  1.00  0.00    -0.269 OA
ATOM      6  C   UNL A   1      41.468  19.521  26.007  1.00  0.00     0.251 C 
ATOM      7  H   UNL A   1      39.946  18.260  25.688  1.00  0.00     0.163 HD
BRANCH   6   8
ATOM      8  C   UNL A   1      41.880  20.852  26.502  1.00  0.00     0.039 A 
ATOM      9  C   UNL A   1      42.196  21.881  25.612  1.00  0.00     0.014 A 
ATOM     10  C   UNL A   1      41.901  21.088  27.882  1.00  0.00     0.014 A 
ATOM     11  C   UNL A   1      42.629  23.112  26.098  1.00  0.00     0.010 A 
ATOM     12  C   UNL A   1      42.279  22.343  28.368  1.00  0.00     0.010 A 
ATOM     13  C   UNL A   1      42.660  23.360  27.480  1.00  0.00    -0.014 A 
BRANCH  13  14
ATOM     14  C   UNL A   1      42.998  24.719  27.972  1.00  0.00     0.031 A 
ATOM     15  C   UNL A   1      41.931  25.741  28.245  1.00  0.00     0.074 A 
ATOM     16  C   UNL A   1      44.295  25.026  28.170  1.00  0.00     0.049 A 
ATOM     17  N   UNL A   1      42.066  26.967  28.683  1.00  0.00    -0.248 NA
ATOM     18  C   UNL A   1      40.538  25.343  27.991  1.00  0.00     0.031 C 
ATOM     19  C   UNL A   1      45.422  24.123  27.921  1.00  0.00     0.029 A 
ATOM     20  N   UNL A   1      44.884  26.176  28.627  1.00  0.00    -0.354 N 
ATOM     21  C   UNL A   1      40.782  27.495  28.743  1.00  0.00     0.074 A 
ATOM     22  C   UNL A   1      39.881  26.459  28.283  1.00  0.00     0.031 C 
ATOM     23  C   UNL A   1      46.563  24.746  28.252  1.00  0.00     0.029 A 
ATOM     24  C   UNL A   1      46.254  26.103  28.688  1.00  0.00     0.049 A 
ATOM     25  H   UNL A   1      44.374  26.978  28.887  1.00  0.00     0.167 HD
ATOM     26  C   UNL A   1      40.394  28.727  29.147  1.00  0.00     0.031 A 
ATOM     27  C   UNL A   1      47.166  27.029  29.034  1.00  0.00     0.031 A 
ATOM     28  C   UNL A   1      41.290  29.752  29.615  1.00  0.00     0.049 A 
ATOM     29  C   UNL A   1      46.704  28.395  29.444  1.00  0.00     0.074 A 
ATOM     30  C   UNL A   1      40.977  31.006  30.116  1.00  0.00     0.029 A 
ATOM     31  N   UNL A   1      42.670  29.650  29.628  1.00  0.00    -0.354 N 
ATOM     32  N   UNL A   1      45.481  28.851  29.560  1.00  0.00    -0.248 NA
ATOM     33  C   UNL A   1      47.750  29.376  29.766  1.00  0.00     0.031 C 
ATOM     34  C   UNL A   1      42.172  31.681  30.384  1.00  0.00     0.029 A 
ATOM     35  C   UNL A   1      43.227  30.832  30.089  1.00  0.00     0.049 A 
ATOM     36  H   UNL A   1      43.181  28.855  29.352  1.00  0.00     0.167 HD
ATOM     37  C   UNL A   1      45.609  30.170  29.969  1.00  0.00     0.074 A 
ATOM     38  C   UNL A   1      47.027  30.433  30.108  1.00  0.00     0.031 C 
ATOM     39  C   UNL A   1      44.637  31.084  30.203  1.00  0.00     0.031 A 
BRANCH  26  40
ATOM     40  C   UNL A   1      38.930  29.059  29.089  1.00  0.00    -0.014 A 
ATOM     41  C   UNL A   1      38.102  28.887  30.207  1.00  0.00     0.009 A 
ATOM     42  C   UNL A   1      38.396  29.637  27.927  1.00  0.00     0.009 A 
ATOM     43  C   UNL A   1      36.761  29.276  30.157  1.00  0.00     0.001 A 
ATOM     44  C   UNL A   1      37.061  30.041  27.886  1.00  0.00     0.001 A 
ATOM     45  C   UNL A   1      36.243  29.858  29.000  1.00  0.00     0.000 A 
ENDBRANCH  26  40
BRANCH  27  46
ATOM     46  C   UNL A   1      48.612  26.703  28.965  1.00  0.00    -0.014 A 
ATOM     47  C   UNL A   1      49.276  26.159  30.073  1.00  0.00     0.009 A 
ATOM     48  C   UNL A   1      49.332  26.934  27.782  1.00  0.00     0.009 A 
ATOM     49  C   UNL A   1      50.642  25.873  30.004  1.00  0.00     0.001 A 
ATOM     50  C   UNL A   1      50.689  26.623  27.708  1.00  0.00     0.001 A 
ATOM     51  C   UNL A   1      51.345  26.100  28.821  1.00  0.00     0.000 A 
ENDBRANCH  27  46
BRANCH  39  52
ATOM     52  C   UNL A   1      45.083  32.452  30.625  1.00  0.00    -0.014 A 
ATOM     53  C   UNL A   1      45.298  33.462  29.675  1.00  0.00     0.009 A 
ATOM     54  C   UNL A   1      45.269  32.741  31.985  1.00  0.00     0.009 A 
ATOM     55  C   UNL A   1      45.720  34.730  30.079  1.00  0.00     0.001 A 
ATOM     56  C   UNL A   1      45.670  34.015  32.386  1.00  0.00     0.001 A 
ATOM     57  C   UNL A   1      45.903  35.006  31.433  1.00  0.00     0.000 A 
ENDBRANCH  39  52
ENDBRANCH  13  14
ENDBRANCH   6   8
ENDBRANCH   3   4
ENDBRANCH   2   3
ENDBRANCH   1   2
BRANCH   1  58
ATOM     58  C   UNL A   1      35.763  21.143  25.259  1.00  0.00     0.116 C 
BRANCH  58  59
ATOM     59  N   UNL A   1      35.039  19.915  24.989  1.00  0.00    -0.352 N 
ATOM     60  C   UNL A   1      33.704  19.712  24.751  1.00  0.00     0.251 C 
ATOM     61  H   UNL A   1      35.591  19.100  24.974  1.00  0.00     0.163 HD
ATOM     62  O   UNL A   1      33.272  18.563  24.707  1.00  0.00    -0.269 OA
BRANCH  60  63
ATOM     63  C   UNL A   1      32.773  20.845  24.524  1.00  0.00     0.041 A 
ATOM     64  C   UNL A   1      32.679  21.393  23.242  1.00  0.00     0.014 A 
ATOM     65  C   UNL A   1      32.110  21.458  25.590  1.00  0.00     0.036 A 
ATOM     66  C   UNL A   1      31.899  22.531  23.022  1.00  0.00     0.002 A 
ATOM     67  C   UNL A   1      31.373  22.624  25.384  1.00  0.00     0.088 A 
ATOM     68  C   UNL A   1      31.247  23.149  24.092  1.00  0.00     0.022 A 
BRANCH  67  69
ATOM     69  S   UNL A   1      30.631  23.541  26.722  1.00  0.00     0.261 S 
ATOM     70  O   UNL A   1      29.689  22.650  27.375  1.00  0.00    -0.201 OA
ATOM     71  O   UNL A   1      31.722  24.140  27.450  1.00  0.00    -0.201 OA
BRANCH  69  72
ATOM     72  N   UNL A   1      29.803  24.830  26.054  1.00  0.00    -0.280 N 
ATOM     73  H   UNL A   1      28.823  24.746  26.015  1.00  0.00     0.180 HD
BRANCH  72  74
ATOM     74  C   UNL A   1      30.357  26.034  25.536  1.00  0.00     0.050 A 
ATOM     75  C   UNL A   1      29.888  26.446  24.283  1.00  0.00     0.027 A 
ATOM     76  C   UNL A   1      31.220  26.869  26.249  1.00  0.00     0.041 A 
ATOM     77  C   UNL A   1      30.216  27.707  23.779  1.00  0.00     0.003 A 
ATOM     78  C   UNL A   1      31.519  28.141  25.756  1.00  0.00     0.015 A 
ATOM     79  C   UNL A   1      31.015  28.567  24.528  1.00  0.00     0.015 A 
ATOM     80  I   UNL A   1      32.657  29.448  26.906  1.00  0.00    -0.044 I 
ENDBRANCH  72  74
ENDBRANCH  69  72
ENDBRANCH  67  69
ENDBRANCH  60  63
ENDBRANCH  58  59
ENDBRANCH   1  58
TORSDOF 14
ENDMDL
MODEL 3
REMARK VINA RESULT:     -11.1      3.126      8.045
REMARK SMILES O=C(NCCCCNC(=O)c1cccc(S(=O)(=O)Nc2cccc(I)c2)c1)c1ccc(-c2c3nc(c(-c4ccccc4)c4ccc([nH]4)c(-c4ccccc4)c4nc(c(-c5ccccc5)c5ccc2[nH]5)C=C4)C=C3)cc1
REMARK SMILES IDX 6 1 5 2 4 3 3 4 1 5 2 6 28 8 29 9 75 10 30 11 74 12 31 13
REMARK SMILES IDX 32 14 33 15 68 16 34 17 73 18 67 19 69 20 35 21 72 22 66 23
REMARK SMILES IDX 65 24 36 26 58 27 43 28 57 29 44 30 47 31 56 32 70 33 45 34
REMARK SMILES IDX 46 35 55 37 71 38 48 39 37 40 38 41 42 42 39 43 41 44 40 45
REMARK SMILES IDX 59 46 60 47 64 48 61 49 63 50 62 51 49 52 50 53 54 54 51 55
REMARK SMILES IDX 53 56 52 57 7 58 8 59 9 60 10 62 11 63 12 64 27 65 13 66
REMARK SMILES IDX 15 67 14 68 16 69 17 70 18 71 19 72 20 74 21 75 26 76 22 77
REMARK SMILES IDX 24 78 23 79 25 80
REMARK H PARENT 3 7 69 25 47 36 8 61 19 73
REMARK Flexibility Score: inf
ROOT
ATOM      1  C   UNL A   1      31.529  29.331  26.123  1.00  0.00     0.023 C 
ENDROOT
BRANCH   1   2
ATOM      2  C   UNL A   1      32.427  28.248  26.728  1.00  0.00     0.023 C 
BRANCH   2   3
ATOM      3  C   UNL A   1      33.762  28.736  27.281  1.00  0.00     0.116 C 
BRANCH   3   4
ATOM      4  N   UNL A   1      33.699  30.112  27.747  1.00  0.00    -0.352 N 
ATOM      5  O   UNL A   1      34.336  31.948  28.883  1.00  0.00    -0.269 OA
ATOM      6  C   UNL A   1      34.638  30.849  28.426  1.00  0.00     0.251 C 
ATOM      7  H   UNL A   1      32.859  30.585  27.546  1.00  0.00     0.163 HD
BRANCH   6   8
ATOM      8  C   UNL A   1      36.006  30.325  28.618  1.00  0.00     0.039 A 
ATOM      9  C   UNL A   1      36.967  30.444  27.611  1.00  0.00     0.014 A 
ATOM     10  C   UNL A   1      36.348  29.750  29.847  1.00  0.00     0.014 A 
ATOM     11  C   UNL A   1      38.236  29.900  27.793  1.00  0.00     0.010 A 
ATOM     12  C   UNL A   1      37.641  29.257  30.051  1.00  0.00     0.010 A 
ATOM     13  C   UNL A   1      38.590  29.315  29.020  1.00  0.00    -0.014 A 
BRANCH  13  14
ATOM     14  C   UNL A   1      39.986  28.861  29.238  1.00  0.00     0.031 A 
ATOM     15  C   UNL A   1      41.011  29.757  29.874  1.00  0.00     0.074 A 
ATOM     16  C   UNL A   1      40.324  27.617  28.849  1.00  0.00     0.049 A 
ATOM     17  N   UNL A   1      42.268  29.503  30.138  1.00  0.00    -0.248 NA
ATOM     18  C   UNL A   1      40.576  31.108  30.260  1.00  0.00     0.031 C 
ATOM     19  C   UNL A   1      39.421  26.661  28.201  1.00  0.00     0.029 A 
ATOM     20  N   UNL A   1      41.513  26.940  28.942  1.00  0.00    -0.354 N 
ATOM     21  C   UNL A   1      42.781  30.663  30.704  1.00  0.00     0.074 A 
ATOM     22  C   UNL A   1      41.702  31.629  30.734  1.00  0.00     0.031 C 
ATOM     23  C   UNL A   1      40.082  25.515  27.978  1.00  0.00     0.029 A 
ATOM     24  C   UNL A   1      41.463  25.671  28.420  1.00  0.00     0.049 A 
ATOM     25  H   UNL A   1      42.325  27.327  29.344  1.00  0.00     0.167 HD
ATOM     26  C   UNL A   1      44.034  30.898  31.158  1.00  0.00     0.031 A 
ATOM     27  C   UNL A   1      42.425  24.739  28.290  1.00  0.00     0.031 A 
ATOM     28  C   UNL A   1      45.103  29.935  31.139  1.00  0.00     0.049 A 
ATOM     29  C   UNL A   1      43.811  25.044  28.772  1.00  0.00     0.074 A 
ATOM     30  C   UNL A   1      46.386  30.062  31.647  1.00  0.00     0.029 A 
ATOM     31  N   UNL A   1      45.022  28.674  30.572  1.00  0.00    -0.354 N 
ATOM     32  N   UNL A   1      44.257  26.123  29.368  1.00  0.00    -0.248 NA
ATOM     33  C   UNL A   1      44.827  24.004  28.560  1.00  0.00     0.031 C 
ATOM     34  C   UNL A   1      47.095  28.896  31.341  1.00  0.00     0.029 A 
ATOM     35  C   UNL A   1      46.241  28.028  30.680  1.00  0.00     0.049 A 
ATOM     36  H   UNL A   1      44.215  28.294  30.154  1.00  0.00     0.167 HD
ATOM     37  C   UNL A   1      45.605  25.892  29.603  1.00  0.00     0.074 A 
ATOM     38  C   UNL A   1      45.896  24.561  29.111  1.00  0.00     0.031 C 
ATOM     39  C   UNL A   1      46.520  26.714  30.169  1.00  0.00     0.031 A 
BRANCH  26  40
ATOM     40  C   UNL A   1      44.341  32.263  31.705  1.00  0.00    -0.014 A 
ATOM     41  C   UNL A   1      44.242  32.534  33.078  1.00  0.00     0.009 A 
ATOM     42  C   UNL A   1      44.823  33.262  30.846  1.00  0.00     0.009 A 
ATOM     43  C   UNL A   1      44.608  33.787  33.577  1.00  0.00     0.001 A 
ATOM     44  C   UNL A   1      45.205  34.507  31.350  1.00  0.00     0.001 A 
ATOM     45  C   UNL A   1      45.095  34.769  32.715  1.00  0.00     0.000 A 
ENDBRANCH  26  40
BRANCH  27  46
ATOM     46  C   UNL A   1      42.114  23.445  27.634  1.00  0.00    -0.014 A 
ATOM     47  C   UNL A   1      42.393  23.246  26.275  1.00  0.00     0.009 A 
ATOM     48  C   UNL A   1      41.536  22.400  28.373  1.00  0.00     0.009 A 
ATOM     49  C   UNL A   1      42.079  22.030  25.663  1.00  0.00     0.001 A 
ATOM     50  C   UNL A   1      41.248  21.179  27.765  1.00  0.00     0.001 A 
ATOM     51  C   UNL A   1      41.513  20.997  26.409  1.00  0.00     0.000 A 
ENDBRANCH  27  46
BRANCH  39  52
ATOM     52  C   UNL A   1      47.921  26.191  30.279  1.00  0.00    -0.014 A 
ATOM     53  C   UNL A   1      48.398  25.664  31.489  1.00  0.00     0.009 A 
ATOM     54  C   UNL A   1      48.765  26.204  29.158  1.00  0.00     0.009 A 
ATOM     55  C   UNL A   1      49.707  25.186  31.582  1.00  0.00     0.001 A 
ATOM     56  C   UNL A   1      50.066  25.706  29.250  1.00  0.00     0.001 A 
ATOM     57  C   UNL A   1      50.538  25.205  30.463  1.00  0.00     0.000 A 
ENDBRANCH  39  52
ENDBRANCH  13  14
ENDBRANCH   6   8
ENDBRANCH   3   4
ENDBRANCH   2   3
ENDBRANCH   1   2
BRANCH   1  58
ATOM     58  C   UNL A   1      31.824  29.698  24.670  1.00  0.00     0.116 C 
BRANCH  58  59
ATOM     59  N   UNL A   1      30.618  29.945  23.903  1.00  0.00    -0.352 N 
ATOM     60  C   UNL A   1      29.908  29.108  23.080  1.00  0.00     0.251 C 
ATOM     61  H   UNL A   1      30.250  30.855  23.986  1.00  0.00     0.163 HD
ATOM     62  O   UNL A   1      29.000  29.571  22.395  1.00  0.00    -0.269 OA
BRANCH  60  63
ATOM     63  C   UNL A   1      30.196  27.654  23.015  1.00  0.00     0.041 A 
ATOM     64  C   UNL A   1      29.507  26.791  23.871  1.00  0.00     0.014 A 
ATOM     65  C   UNL A   1      31.237  27.161  22.224  1.00  0.00     0.036 A 
ATOM     66  C   UNL A   1      29.837  25.435  23.913  1.00  0.00     0.002 A 
ATOM     67  C   UNL A   1      31.604  25.817  22.302  1.00  0.00     0.088 A 
ATOM     68  C   UNL A   1      30.886  24.947  23.131  1.00  0.00     0.022 A 
BRANCH  67  69
ATOM     69  S   UNL A   1      33.017  25.156  21.438  1.00  0.00     0.261 S 
ATOM     70  O   UNL A   1      32.832  25.455  20.030  1.00  0.00    -0.201 OA
ATOM     71  O   UNL A   1      34.179  25.623  22.155  1.00  0.00    -0.201 OA
BRANCH  69  72
ATOM     72  N   UNL A   1      33.016  23.499  21.658  1.00  0.00    -0.280 N 
ATOM     73  H   UNL A   1      32.650  22.961  20.920  1.00  0.00     0.180 HD
BRANCH  72  74
ATOM     74  C   UNL A   1      33.484  22.781  22.794  1.00  0.00     0.050 A 
ATOM     75  C   UNL A   1      32.645  21.773  23.282  1.00  0.00     0.027 A 
ATOM     76  C   UNL A   1      34.757  22.937  23.349  1.00  0.00     0.041 A 
ATOM     77  C   UNL A   1      33.094  20.883  24.260  1.00  0.00     0.003 A 
ATOM     78  C   UNL A   1      35.213  22.025  24.304  1.00  0.00     0.015 A 
ATOM     79  C   UNL A   1      34.391  20.994  24.756  1.00  0.00     0.015 A 
ATOM     80  I   UNL A   1      37.172  22.153  24.993  1.00  0.00    -0.044 I 
ENDBRANCH  72  74
ENDBRANCH  69  72
ENDBRANCH  67  69
ENDBRANCH  60  63
ENDBRANCH  58  59
ENDBRANCH   1  58
TORSDOF 14
ENDMDL
