MODEL 1
REMARK VINA RESULT:     -11.1      0.000      0.000
REMARK SMILES CC(C)(C)c1ccc(CSc2ccnc(C(=O)NCCCCNC(=O)c3ccc(-c4c5nc(c(-c6ccccc6)c6ccc([nH]6)c(-c6ccccc6)c6nc(c(-c7ccccc7)c7ccc4[nH]7)C=C6)C=C5)cc3)c2)cc1
REMARK SMILES IDX 19 1 18 2 16 3 17 4 15 6 11 7 12 8 74 9 13 10 14 11 10 12
REMARK SMILES IDX 9 13 8 14 5 15 6 16 76 17 7 18 75 19 2 20 1 21 3 22 4 23
REMARK SMILES IDX 20 24 21 25 22 26 23 27 24 28 25 30 26 31 27 32 73 33 28 34
REMARK SMILES IDX 72 35 29 36 30 37 31 38 66 39 32 40 71 41 65 42 67 43 33 44
REMARK SMILES IDX 70 45 64 46 63 47 34 49 56 50 41 51 55 52 42 53 45 54 54 55
REMARK SMILES IDX 68 56 43 57 44 58 53 60 69 61 46 62 35 63 36 64 40 65 37 66
REMARK SMILES IDX 39 67 38 68 57 69 58 70 62 71 59 72 61 73 60 74 47 75 48 76
REMARK SMILES IDX 52 77 49 78 51 79 50 80
REMARK H PARENT 18 5 23 29 67 48 45 59
REMARK Flexibility Score: inf
ROOT
ATOM      1  C   UNL A   1      32.863  30.130  26.473  1.00  0.00     0.116 C 
ENDROOT
BRANCH   1   2
ATOM      2  N   UNL A   1      33.569  29.602  25.326  1.00  0.00    -0.351 N 
ATOM      3  C   UNL A   1      33.260  28.643  24.386  1.00  0.00     0.269 C 
ATOM      4  O   UNL A   1      34.086  28.514  23.478  1.00  0.00    -0.268 OA
ATOM      5  H   UNL A   1      34.451  30.014  25.188  1.00  0.00     0.163 HD
BRANCH   3   6
ATOM      6  C   UNL A   1      32.015  27.787  24.396  1.00  0.00     0.129 A 
ATOM      7  C   UNL A   1      30.561  26.066  25.217  1.00  0.00     0.011 A 
ATOM      8  C   UNL A   1      29.647  26.374  24.218  1.00  0.00     0.035 A 
ATOM      9  C   UNL A   1      31.779  26.743  25.273  1.00  0.00     0.049 A 
ATOM     10  C   UNL A   1      29.976  27.389  23.343  1.00  0.00     0.113 A 
ATOM     11  N   UNL A   1      31.115  28.107  23.426  1.00  0.00    -0.251 NA
BRANCH   7  12
ATOM     12  S   UNL A   1      30.230  24.780  26.408  1.00  0.00    -0.121 SA
BRANCH  12  13
ATOM     13  C   UNL A   1      30.670  23.302  25.428  1.00  0.00     0.110 C 
BRANCH  13  14
ATOM     14  C   UNL A   1      32.150  23.057  25.249  1.00  0.00    -0.038 A 
ATOM     15  C   UNL A   1      34.963  22.752  24.812  1.00  0.00    -0.043 A 
ATOM     16  C   UNL A   1      34.448  23.144  26.062  1.00  0.00     0.004 A 
ATOM     17  C   UNL A   1      34.026  22.482  23.800  1.00  0.00     0.004 A 
ATOM     18  C   UNL A   1      33.070  23.303  26.276  1.00  0.00     0.005 A 
ATOM     19  C   UNL A   1      32.648  22.636  24.012  1.00  0.00     0.005 A 
BRANCH  15  20
ATOM     20  C   UNL A   1      36.478  22.590  24.578  1.00  0.00    -0.013 C 
ATOM     21  C   UNL A   1      36.880  21.157  24.957  1.00  0.00     0.016 C 
ATOM     22  C   UNL A   1      37.306  23.576  25.434  1.00  0.00     0.016 C 
ATOM     23  C   UNL A   1      36.904  22.817  23.109  1.00  0.00     0.016 C 
ENDBRANCH  15  20
ENDBRANCH  13  14
ENDBRANCH  12  13
ENDBRANCH   7  12
ENDBRANCH   3   6
ENDBRANCH   1   2
BRANCH   1  24
ATOM     24  C   UNL A   1      31.514  30.734  26.080  1.00  0.00     0.023 C 
BRANCH  24  25
ATOM     25  C   UNL A   1      31.335  32.204  26.492  1.00  0.00     0.023 C 
BRANCH  25  26
ATOM     26  C   UNL A   1      32.541  32.846  27.181  1.00  0.00     0.116 C 
BRANCH  26  27
ATOM     27  N   UNL A   1      32.280  34.187  27.677  1.00  0.00    -0.352 N 
ATOM     28  C   UNL A   1      32.991  34.919  28.594  1.00  0.00     0.251 C 
ATOM     29  H   UNL A   1      31.485  34.631  27.303  1.00  0.00     0.163 HD
ATOM     30  O   UNL A   1      32.583  36.023  28.945  1.00  0.00    -0.269 OA
BRANCH  28  31
ATOM     31  C   UNL A   1      34.221  34.364  29.196  1.00  0.00     0.039 A 
ATOM     32  C   UNL A   1      34.106  33.622  30.374  1.00  0.00     0.014 A 
ATOM     33  C   UNL A   1      35.478  34.578  28.622  1.00  0.00     0.014 A 
ATOM     34  C   UNL A   1      35.242  33.047  30.946  1.00  0.00     0.010 A 
ATOM     35  C   UNL A   1      36.605  33.966  29.166  1.00  0.00     0.010 A 
ATOM     36  C   UNL A   1      36.496  33.193  30.331  1.00  0.00    -0.014 A 
BRANCH  36  37
ATOM     37  C   UNL A   1      37.694  32.520  30.885  1.00  0.00     0.031 A 
ATOM     38  C   UNL A   1      38.368  33.049  32.119  1.00  0.00     0.074 A 
ATOM     39  C   UNL A   1      38.206  31.454  30.239  1.00  0.00     0.049 A 
ATOM     40  N   UNL A   1      39.416  32.582  32.750  1.00  0.00    -0.248 NA
ATOM     41  C   UNL A   1      37.803  34.272  32.711  1.00  0.00     0.031 C 
ATOM     42  C   UNL A   1      37.673  30.879  29.002  1.00  0.00     0.029 A 
ATOM     43  N   UNL A   1      39.289  30.667  30.535  1.00  0.00    -0.354 N 
ATOM     44  C   UNL A   1      39.640  33.455  33.806  1.00  0.00     0.074 A 
ATOM     45  C   UNL A   1      38.649  34.504  33.705  1.00  0.00     0.031 C 
ATOM     46  C   UNL A   1      38.416  29.814  28.659  1.00  0.00     0.029 A 
ATOM     47  C   UNL A   1      39.488  29.648  29.635  1.00  0.00     0.049 A 
ATOM     48  H   UNL A   1      39.869  30.818  31.316  1.00  0.00     0.167 HD
ATOM     49  C   UNL A   1      40.574  33.379  34.785  1.00  0.00     0.031 A 
ATOM     50  C   UNL A   1      40.426  28.684  29.605  1.00  0.00     0.031 A 
ATOM     51  C   UNL A   1      41.560  32.335  34.884  1.00  0.00     0.049 A 
ATOM     52  C   UNL A   1      41.449  28.618  30.703  1.00  0.00     0.074 A 
ATOM     53  C   UNL A   1      42.515  32.141  35.866  1.00  0.00     0.029 A 
ATOM     54  N   UNL A   1      41.721  31.313  33.961  1.00  0.00    -0.354 N 
ATOM     55  N   UNL A   1      41.594  29.403  31.744  1.00  0.00    -0.248 NA
ATOM     56  C   UNL A   1      42.423  27.522  30.633  1.00  0.00     0.031 C 
ATOM     57  C   UNL A   1      43.283  31.025  35.516  1.00  0.00     0.029 A 
ATOM     58  C   UNL A   1      42.773  30.495  34.341  1.00  0.00     0.049 A 
ATOM     59  H   UNL A   1      41.170  31.187  33.156  1.00  0.00     0.167 HD
ATOM     60  C   UNL A   1      42.657  28.877  32.467  1.00  0.00     0.074 A 
ATOM     61  C   UNL A   1      43.108  27.700  31.753  1.00  0.00     0.031 C 
ATOM     62  C   UNL A   1      43.210  29.329  33.619  1.00  0.00     0.031 A 
BRANCH  49  63
ATOM     63  C   UNL A   1      40.572  34.463  35.826  1.00  0.00    -0.014 A 
ATOM     64  C   UNL A   1      41.364  35.613  35.676  1.00  0.00     0.009 A 
ATOM     65  C   UNL A   1      39.749  34.349  36.956  1.00  0.00     0.009 A 
ATOM     66  C   UNL A   1      41.360  36.609  36.656  1.00  0.00     0.001 A 
ATOM     67  C   UNL A   1      39.726  35.358  37.921  1.00  0.00     0.001 A 
ATOM     68  C   UNL A   1      40.538  36.482  37.776  1.00  0.00     0.000 A 
ENDBRANCH  49  63
BRANCH  50  69
ATOM     69  C   UNL A   1      40.419  27.675  28.514  1.00  0.00    -0.014 A 
ATOM     70  C   UNL A   1      41.118  27.915  27.322  1.00  0.00     0.009 A 
ATOM     71  C   UNL A   1      39.713  26.472  28.658  1.00  0.00     0.009 A 
ATOM     72  C   UNL A   1      41.088  26.982  26.284  1.00  0.00     0.001 A 
ATOM     73  C   UNL A   1      39.706  25.528  27.629  1.00  0.00     0.001 A 
ATOM     74  C   UNL A   1      40.385  25.788  26.439  1.00  0.00     0.000 A 
ENDBRANCH  50  69
BRANCH  62  75
ATOM     75  C   UNL A   1      44.341  28.524  34.195  1.00  0.00    -0.014 A 
ATOM     76  C   UNL A   1      45.677  28.812  33.876  1.00  0.00     0.009 A 
ATOM     77  C   UNL A   1      44.063  27.479  35.089  1.00  0.00     0.009 A 
ATOM     78  C   UNL A   1      46.711  28.042  34.412  1.00  0.00     0.001 A 
ATOM     79  C   UNL A   1      45.101  26.729  35.645  1.00  0.00     0.001 A 
ATOM     80  C   UNL A   1      46.423  27.005  35.299  1.00  0.00     0.000 A 
ENDBRANCH  62  75
ENDBRANCH  36  37
ENDBRANCH  28  31
ENDBRANCH  26  27
ENDBRANCH  25  26
ENDBRANCH  24  25
ENDBRANCH   1  24
TORSDOF 15
ENDMDL
MODEL 2
REMARK VINA RESULT:     -11.0      1.413      6.129
REMARK SMILES CC(C)(C)c1ccc(CSc2ccnc(C(=O)NCCCCNC(=O)c3ccc(-c4c5nc(c(-c6ccccc6)c6ccc([nH]6)c(-c6ccccc6)c6nc(c(-c7ccccc7)c7ccc4[nH]7)C=C6)C=C5)cc3)c2)cc1
REMARK SMILES IDX 19 1 18 2 16 3 17 4 15 6 11 7 12 8 74 9 13 10 14 11 10 12
REMARK SMILES IDX 9 13 8 14 5 15 6 16 76 17 7 18 75 19 2 20 1 21 3 22 4 23
REMARK SMILES IDX 20 24 21 25 22 26 23 27 24 28 25 30 26 31 27 32 73 33 28 34
REMARK SMILES IDX 72 35 29 36 30 37 31 38 66 39 32 40 71 41 65 42 67 43 33 44
REMARK SMILES IDX 70 45 64 46 63 47 34 49 56 50 41 51 55 52 42 53 45 54 54 55
REMARK SMILES IDX 68 56 43 57 44 58 53 60 69 61 46 62 35 63 36 64 40 65 37 66
REMARK SMILES IDX 39 67 38 68 57 69 58 70 62 71 59 72 61 73 60 74 47 75 48 76
REMARK SMILES IDX 52 77 49 78 51 79 50 80
REMARK H PARENT 18 5 23 29 67 48 45 59
REMARK Flexibility Score: inf
ROOT
ATOM      1  C   UNL A   1      32.782  30.082  26.499  1.00  0.00     0.116 C 
ENDROOT
BRANCH   1   2
ATOM      2  N   UNL A   1      33.267  29.824  25.160  1.00  0.00    -0.351 N 
ATOM      3  C   UNL A   1      32.993  28.847  24.228  1.00  0.00     0.269 C 
ATOM      4  O   UNL A   1      33.543  28.998  23.133  1.00  0.00    -0.268 OA
ATOM      5  H   UNL A   1      33.927  30.485  24.850  1.00  0.00     0.163 HD
BRANCH   3   6
ATOM      6  C   UNL A   1      32.088  27.659  24.457  1.00  0.00     0.129 A 
ATOM      7  C   UNL A   1      31.444  25.566  25.434  1.00  0.00     0.011 A 
ATOM      8  C   UNL A   1      30.253  25.610  24.722  1.00  0.00     0.035 A 
ATOM      9  C   UNL A   1      32.393  26.574  25.258  1.00  0.00     0.049 A 
ATOM     10  C   UNL A   1      30.042  26.696  23.897  1.00  0.00     0.113 A 
ATOM     11  N   UNL A   1      30.913  27.718  23.770  1.00  0.00    -0.251 NA
BRANCH   7  12
ATOM     12  S   UNL A   1      31.812  24.214  26.538  1.00  0.00    -0.121 SA
BRANCH  12  13
ATOM     13  C   UNL A   1      33.385  23.623  25.823  1.00  0.00     0.110 C 
BRANCH  13  14
ATOM     14  C   UNL A   1      33.391  22.182  25.367  1.00  0.00    -0.038 A 
ATOM     15  C   UNL A   1      33.434  19.403  24.680  1.00  0.00    -0.043 A 
ATOM     16  C   UNL A   1      32.230  20.133  24.731  1.00  0.00     0.004 A 
ATOM     17  C   UNL A   1      34.615  20.115  24.946  1.00  0.00     0.004 A 
ATOM     18  C   UNL A   1      32.207  21.493  25.077  1.00  0.00     0.005 A 
ATOM     19  C   UNL A   1      34.595  21.474  25.288  1.00  0.00     0.005 A 
BRANCH  15  20
ATOM     20  C   UNL A   1      33.453  17.906  24.312  1.00  0.00    -0.013 C 
ATOM     21  C   UNL A   1      32.857  17.741  22.906  1.00  0.00     0.016 C 
ATOM     22  C   UNL A   1      32.626  17.054  25.301  1.00  0.00     0.016 C 
ATOM     23  C   UNL A   1      34.874  17.295  24.286  1.00  0.00     0.016 C 
ENDBRANCH  15  20
ENDBRANCH  13  14
ENDBRANCH  12  13
ENDBRANCH   7  12
ENDBRANCH   3   6
ENDBRANCH   1   2
BRANCH   1  24
ATOM     24  C   UNL A   1      31.386  30.706  26.486  1.00  0.00     0.023 C 
BRANCH  24  25
ATOM     25  C   UNL A   1      31.378  32.241  26.563  1.00  0.00     0.023 C 
BRANCH  25  26
ATOM     26  C   UNL A   1      32.543  32.867  27.333  1.00  0.00     0.116 C 
BRANCH  26  27
ATOM     27  N   UNL A   1      32.304  34.245  27.727  1.00  0.00    -0.352 N 
ATOM     28  C   UNL A   1      33.012  35.024  28.606  1.00  0.00     0.251 C 
ATOM     29  H   UNL A   1      31.528  34.679  27.306  1.00  0.00     0.163 HD
ATOM     30  O   UNL A   1      32.623  36.159  28.870  1.00  0.00    -0.269 OA
BRANCH  28  31
ATOM     31  C   UNL A   1      34.216  34.486  29.274  1.00  0.00     0.039 A 
ATOM     32  C   UNL A   1      34.068  33.898  30.533  1.00  0.00     0.014 A 
ATOM     33  C   UNL A   1      35.479  34.567  28.681  1.00  0.00     0.014 A 
ATOM     34  C   UNL A   1      35.177  33.342  31.173  1.00  0.00     0.010 A 
ATOM     35  C   UNL A   1      36.576  33.971  29.298  1.00  0.00     0.010 A 
ATOM     36  C   UNL A   1      36.434  33.350  30.548  1.00  0.00    -0.014 A 
BRANCH  36  37
ATOM     37  C   UNL A   1      37.600  32.691  31.182  1.00  0.00     0.031 A 
ATOM     38  C   UNL A   1      38.222  31.473  30.561  1.00  0.00     0.074 A 
ATOM     39  C   UNL A   1      38.066  33.167  32.352  1.00  0.00     0.049 A 
ATOM     40  N   UNL A   1      39.252  30.775  30.969  1.00  0.00    -0.248 NA
ATOM     41  C   UNL A   1      37.595  30.961  29.333  1.00  0.00     0.031 C 
ATOM     42  C   UNL A   1      37.513  34.310  33.081  1.00  0.00     0.029 A 
ATOM     43  N   UNL A   1      39.111  32.746  33.134  1.00  0.00    -0.354 N 
ATOM     44  C   UNL A   1      39.393  29.740  30.054  1.00  0.00     0.074 A 
ATOM     45  C   UNL A   1      38.316  29.873  29.097  1.00  0.00     0.031 C 
ATOM     46  C   UNL A   1      38.242  34.515  34.191  1.00  0.00     0.029 A 
ATOM     47  C   UNL A   1      39.293  33.506  34.263  1.00  0.00     0.049 A 
ATOM     48  H   UNL A   1      39.677  31.972  32.908  1.00  0.00     0.167 HD
ATOM     49  C   UNL A   1      40.345  28.778  30.003  1.00  0.00     0.031 A 
ATOM     50  C   UNL A   1      40.209  33.406  35.244  1.00  0.00     0.031 A 
ATOM     51  C   UNL A   1      41.415  28.646  30.957  1.00  0.00     0.049 A 
ATOM     52  C   UNL A   1      41.257  32.332  35.163  1.00  0.00     0.074 A 
ATOM     53  C   UNL A   1      42.459  27.737  30.963  1.00  0.00     0.029 A 
ATOM     54  N   UNL A   1      41.573  29.444  32.079  1.00  0.00    -0.354 N 
ATOM     55  N   UNL A   1      41.428  31.412  34.244  1.00  0.00    -0.248 NA
ATOM     56  C   UNL A   1      42.250  32.297  36.245  1.00  0.00     0.031 C 
ATOM     57  C   UNL A   1      43.225  27.958  32.113  1.00  0.00     0.029 A 
ATOM     58  C   UNL A   1      42.687  29.037  32.796  1.00  0.00     0.049 A 
ATOM     59  H   UNL A   1      40.982  30.190  32.330  1.00  0.00     0.167 HD
ATOM     60  C   UNL A   1      42.564  30.708  34.622  1.00  0.00     0.074 A 
ATOM     61  C   UNL A   1      43.047  31.317  35.843  1.00  0.00     0.031 C 
ATOM     62  C   UNL A   1      43.154  29.652  34.010  1.00  0.00     0.031 A 
BRANCH  49  63
ATOM     63  C   UNL A   1      40.265  27.787  28.876  1.00  0.00    -0.014 A 
ATOM     64  C   UNL A   1      40.900  28.034  27.647  1.00  0.00     0.009 A 
ATOM     65  C   UNL A   1      39.573  26.579  29.050  1.00  0.00     0.009 A 
ATOM     66  C   UNL A   1      40.810  27.109  26.605  1.00  0.00     0.001 A 
ATOM     67  C   UNL A   1      39.508  25.644  28.016  1.00  0.00     0.001 A 
ATOM     68  C   UNL A   1      40.118  25.913  26.791  1.00  0.00     0.000 A 
ENDBRANCH  49  63
BRANCH  50  69
ATOM     69  C   UNL A   1      40.201  34.374  36.370  1.00  0.00    -0.014 A 
ATOM     70  C   UNL A   1      39.535  34.067  37.565  1.00  0.00     0.009 A 
ATOM     71  C   UNL A   1      40.857  35.609  36.255  1.00  0.00     0.009 A 
ATOM     72  C   UNL A   1      39.500  34.989  38.613  1.00  0.00     0.001 A 
ATOM     73  C   UNL A   1      40.844  36.518  37.315  1.00  0.00     0.001 A 
ATOM     74  C   UNL A   1      40.157  36.212  38.489  1.00  0.00     0.000 A 
ENDBRANCH  50  69
BRANCH  62  75
ATOM     75  C   UNL A   1      44.408  29.114  34.638  1.00  0.00    -0.014 A 
ATOM     76  C   UNL A   1      45.673  29.610  34.285  1.00  0.00     0.009 A 
ATOM     77  C   UNL A   1      44.319  28.112  35.616  1.00  0.00     0.009 A 
ATOM     78  C   UNL A   1      46.825  29.085  34.872  1.00  0.00     0.001 A 
ATOM     79  C   UNL A   1      45.471  27.609  36.222  1.00  0.00     0.001 A 
ATOM     80  C   UNL A   1      46.724  28.089  35.842  1.00  0.00     0.000 A 
ENDBRANCH  62  75
ENDBRANCH  36  37
ENDBRANCH  28  31
ENDBRANCH  26  27
ENDBRANCH  25  26
ENDBRANCH  24  25
ENDBRANCH   1  24
TORSDOF 15
ENDMDL
MODEL 3
REMARK VINA RESULT:     -11.0      0.441      5.922
REMARK SMILES CC(C)(C)c1ccc(CSc2ccnc(C(=O)NCCCCNC(=O)c3ccc(-c4c5nc(c(-c6ccccc6)c6ccc([nH]6)c(-c6ccccc6)c6nc(c(-c7ccccc7)c7ccc4[nH]7)C=C6)C=C5)cc3)c2)cc1
REMARK SMILES IDX 19 1 18 2 16 3 17 4 15 6 11 7 12 8 74 9 13 10 14 11 10 12
REMARK SMILES IDX 9 13 8 14 5 15 6 16 76 17 7 18 75 19 2 20 1 21 3 22 4 23
REMARK SMILES IDX 20 24 21 25 22 26 23 27 24 28 25 30 26 31 27 32 73 33 28 34
REMARK SMILES IDX 72 35 29 36 30 37 31 38 66 39 32 40 71 41 65 42 67 43 33 44
REMARK SMILES IDX 70 45 64 46 63 47 34 49 56 50 41 51 55 52 42 53 45 54 54 55
REMARK SMILES IDX 68 56 43 57 44 58 53 60 69 61 46 62 35 63 36 64 40 65 37 66
REMARK SMILES IDX 39 67 38 68 57 69 58 70 62 71 59 72 61 73 60 74 47 75 48 76
REMARK SMILES IDX 52 77 49 78 51 79 50 80
REMARK H PARENT 18 5 23 29 67 48 45 59
REMARK Flexibility Score: inf
ROOT
ATOM      1  C   UNL A   1      32.999  30.135  26.405  1.00  0.00     0.116 C 
ENDROOT
BRANCH   1   2
ATOM      2  N   UNL A   1      33.625  29.689  25.179  1.00  0.00    -0.351 N 
ATOM      3  C   UNL A   1      33.247  28.805  24.192  1.00  0.00     0.269 C 
ATOM      4  O   UNL A   1      34.012  28.739  23.226  1.00  0.00    -0.268 OA
ATOM      5  H   UNL A   1      34.502  30.105  25.015  1.00  0.00     0.163 HD
BRANCH   3   6
ATOM      6  C   UNL A   1      31.995  27.959  24.218  1.00  0.00     0.129 A 
ATOM      7  C   UNL A   1      30.521  26.276  25.079  1.00  0.00     0.011 A 
ATOM      8  C   UNL A   1      29.618  26.560  24.064  1.00  0.00     0.035 A 
ATOM      9  C   UNL A   1      31.744  26.945  25.124  1.00  0.00     0.049 A 
ATOM     10  C   UNL A   1      29.961  27.545  23.161  1.00  0.00     0.113 A 
ATOM     11  N   UNL A   1      31.105  28.256  23.231  1.00  0.00    -0.251 NA
BRANCH   7  12
ATOM     12  S   UNL A   1      30.171  25.029  26.306  1.00  0.00    -0.121 SA
BRANCH  12  13
ATOM     13  C   UNL A   1      30.663  23.523  25.397  1.00  0.00     0.110 C 
BRANCH  13  14
ATOM     14  C   UNL A   1      32.146  23.371  25.148  1.00  0.00    -0.038 A 
ATOM     15  C   UNL A   1      34.944  22.911  24.751  1.00  0.00    -0.043 A 
ATOM     16  C   UNL A   1      34.030  22.878  23.679  1.00  0.00     0.004 A 
ATOM     17  C   UNL A   1      34.420  23.217  26.018  1.00  0.00     0.004 A 
ATOM     18  C   UNL A   1      32.657  23.094  23.874  1.00  0.00     0.005 A 
ATOM     19  C   UNL A   1      33.049  23.438  26.214  1.00  0.00     0.005 A 
BRANCH  15  20
ATOM     20  C   UNL A   1      36.450  22.661  24.534  1.00  0.00    -0.013 C 
ATOM     21  C   UNL A   1      37.239  23.668  25.384  1.00  0.00     0.016 C 
ATOM     22  C   UNL A   1      36.860  22.836  23.054  1.00  0.00     0.016 C 
ATOM     23  C   UNL A   1      36.907  21.244  24.953  1.00  0.00     0.016 C 
ENDBRANCH  15  20
ENDBRANCH  13  14
ENDBRANCH  12  13
ENDBRANCH   7  12
ENDBRANCH   3   6
ENDBRANCH   1   2
BRANCH   1  24
ATOM     24  C   UNL A   1      31.583  30.659  26.160  1.00  0.00     0.023 C 
BRANCH  24  25
ATOM     25  C   UNL A   1      31.361  32.113  26.605  1.00  0.00     0.023 C 
BRANCH  25  26
ATOM     26  C   UNL A   1      32.568  32.794  27.254  1.00  0.00     0.116 C 
BRANCH  26  27
ATOM     27  N   UNL A   1      32.312  34.167  27.658  1.00  0.00    -0.352 N 
ATOM     28  C   UNL A   1      33.007  34.946  28.547  1.00  0.00     0.251 C 
ATOM     29  H   UNL A   1      31.533  34.595  27.236  1.00  0.00     0.163 HD
ATOM     30  O   UNL A   1      32.605  36.075  28.817  1.00  0.00    -0.269 OA
BRANCH  28  31
ATOM     31  C   UNL A   1      34.213  34.416  29.216  1.00  0.00     0.039 A 
ATOM     32  C   UNL A   1      34.064  33.806  30.465  1.00  0.00     0.014 A 
ATOM     33  C   UNL A   1      35.480  34.525  28.636  1.00  0.00     0.014 A 
ATOM     34  C   UNL A   1      35.175  33.256  31.106  1.00  0.00     0.010 A 
ATOM     35  C   UNL A   1      36.581  33.935  29.254  1.00  0.00     0.010 A 
ATOM     36  C   UNL A   1      36.438  33.293  30.492  1.00  0.00    -0.014 A 
BRANCH  36  37
ATOM     37  C   UNL A   1      37.608  32.642  31.126  1.00  0.00     0.031 A 
ATOM     38  C   UNL A   1      38.227  31.418  30.514  1.00  0.00     0.074 A 
ATOM     39  C   UNL A   1      38.081  33.131  32.288  1.00  0.00     0.049 A 
ATOM     40  N   UNL A   1      39.260  30.725  30.923  1.00  0.00    -0.248 NA
ATOM     41  C   UNL A   1      37.593  30.892  29.296  1.00  0.00     0.031 C 
ATOM     42  C   UNL A   1      37.532  34.282  33.008  1.00  0.00     0.029 A 
ATOM     43  N   UNL A   1      39.131  32.719  33.068  1.00  0.00    -0.354 N 
ATOM     44  C   UNL A   1      39.396  29.680  30.019  1.00  0.00     0.074 A 
ATOM     45  C   UNL A   1      38.313  29.802  29.067  1.00  0.00     0.031 C 
ATOM     46  C   UNL A   1      38.267  34.499  34.111  1.00  0.00     0.029 A 
ATOM     47  C   UNL A   1      39.320  33.492  34.188  1.00  0.00     0.049 A 
ATOM     48  H   UNL A   1      39.696  31.943  32.847  1.00  0.00     0.167 HD
ATOM     49  C   UNL A   1      40.348  28.718  29.973  1.00  0.00     0.031 A 
ATOM     50  C   UNL A   1      40.242  33.403  35.164  1.00  0.00     0.031 A 
ATOM     51  C   UNL A   1      41.425  28.597  30.921  1.00  0.00     0.049 A 
ATOM     52  C   UNL A   1      41.290  32.329  35.088  1.00  0.00     0.074 A 
ATOM     53  C   UNL A   1      42.469  27.689  30.930  1.00  0.00     0.029 A 
ATOM     54  N   UNL A   1      41.589  29.408  32.034  1.00  0.00    -0.354 N 
ATOM     55  N   UNL A   1      41.455  31.399  34.178  1.00  0.00    -0.248 NA
ATOM     56  C   UNL A   1      42.289  32.306  36.164  1.00  0.00     0.031 C 
ATOM     57  C   UNL A   1      43.242  27.923  32.073  1.00  0.00     0.029 A 
ATOM     58  C   UNL A   1      42.708  29.009  32.747  1.00  0.00     0.049 A 
ATOM     59  H   UNL A   1      40.999  30.156  32.280  1.00  0.00     0.167 HD
ATOM     60  C   UNL A   1      42.594  30.700  34.556  1.00  0.00     0.074 A 
ATOM     61  C   UNL A   1      43.085  31.323  35.768  1.00  0.00     0.031 C 
ATOM     62  C   UNL A   1      43.181  29.638  33.953  1.00  0.00     0.031 A 
BRANCH  49  63
ATOM     63  C   UNL A   1      40.262  27.715  28.857  1.00  0.00    -0.014 A 
ATOM     64  C   UNL A   1      39.550  26.514  29.014  1.00  0.00     0.009 A 
ATOM     65  C   UNL A   1      40.874  27.983  27.623  1.00  0.00     0.009 A 
ATOM     66  C   UNL A   1      39.486  25.587  27.972  1.00  0.00     0.001 A 
ATOM     67  C   UNL A   1      40.786  27.067  26.574  1.00  0.00     0.001 A 
ATOM     68  C   UNL A   1      40.100  25.865  26.751  1.00  0.00     0.000 A 
ENDBRANCH  49  63
BRANCH  50  69
ATOM     69  C   UNL A   1      40.240  34.383  36.279  1.00  0.00    -0.014 A 
ATOM     70  C   UNL A   1      40.908  35.609  36.148  1.00  0.00     0.009 A 
ATOM     71  C   UNL A   1      39.573  34.098  37.480  1.00  0.00     0.009 A 
ATOM     72  C   UNL A   1      40.934  36.519  37.206  1.00  0.00     0.001 A 
ATOM     73  C   UNL A   1      39.576  35.022  38.528  1.00  0.00     0.001 A 
ATOM     74  C   UNL A   1      40.265  36.226  38.394  1.00  0.00     0.000 A 
ENDBRANCH  50  69
BRANCH  62  75
ATOM     75  C   UNL A   1      44.440  29.107  34.579  1.00  0.00    -0.014 A 
ATOM     76  C   UNL A   1      45.700  29.620  34.233  1.00  0.00     0.009 A 
ATOM     77  C   UNL A   1      44.359  28.096  35.547  1.00  0.00     0.009 A 
ATOM     78  C   UNL A   1      46.857  29.102  34.818  1.00  0.00     0.001 A 
ATOM     79  C   UNL A   1      45.516  27.599  36.151  1.00  0.00     0.001 A 
ATOM     80  C   UNL A   1      46.763  28.096  35.778  1.00  0.00     0.000 A 
ENDBRANCH  62  75
ENDBRANCH  36  37
ENDBRANCH  28  31
ENDBRANCH  26  27
ENDBRANCH  25  26
ENDBRANCH  24  25
ENDBRANCH   1  24
TORSDOF 15
ENDMDL
