MODEL 1
REMARK VINA RESULT:     -11.5      0.000      0.000
REMARK SMILES O=C(NCCCCNC(=O)c1ccc(-c2c3nc(c(-c4ccccc4)c4ccc([nH]4)c(-c4ccccc4)c4nc(c(-c5ccccc5)c5ccc2[nH]5)C=C4)C=C3)cc1)c1ccc(N[C@H]2OC[C@@H](O)[C@@H](O)[C@H]2O)cc1
REMARK SMILES IDX 5 1 4 2 3 3 1 4 2 5 59 7 60 8 74 9 61 10 73 11 62 12 63 13
REMARK SMILES IDX 64 15 65 16 71 17 66 18 69 19 67 20 72 21 70 23 68 25 6 27
REMARK SMILES IDX 7 28 8 29 9 30 10 32 11 33 12 34 58 35 13 36 57 37 14 38
REMARK SMILES IDX 15 39 16 40 51 41 17 42 56 43 50 44 52 45 18 46 55 47 49 48
REMARK SMILES IDX 48 49 19 51 41 52 26 53 40 54 27 55 30 56 39 57 53 58 28 59
REMARK SMILES IDX 29 60 38 62 54 63 31 64 20 65 21 66 25 67 22 68 24 69 23 70
REMARK SMILES IDX 42 71 43 72 47 73 44 74 46 75 45 76 32 77 33 78 37 79 34 80
REMARK SMILES IDX 36 81 35 82
REMARK H PARENT 3 6 63 14 72 22 70 24 68 26 8 31 52 50 30 61
REMARK Flexibility Score: inf
ROOT
ATOM      1  C   UNL A   1      36.328  20.857  24.560  1.00  0.00     0.023 C 
ENDROOT
BRANCH   1   2
ATOM      2  C   UNL A   1      35.177  21.002  25.550  1.00  0.00     0.116 C 
BRANCH   2   3
ATOM      3  N   UNL A   1      34.202  19.930  25.424  1.00  0.00    -0.352 N 
ATOM      4  O   UNL A   1      32.143  19.027  25.203  1.00  0.00    -0.269 OA
ATOM      5  C   UNL A   1      32.875  20.007  25.080  1.00  0.00     0.251 C 
ATOM      6  H   UNL A   1      34.539  19.024  25.610  1.00  0.00     0.163 HD
BRANCH   5   7
ATOM      7  C   UNL A   1      32.326  21.280  24.577  1.00  0.00     0.039 A 
ATOM      8  C   UNL A   1      32.486  21.640  23.240  1.00  0.00     0.016 A 
ATOM      9  C   UNL A   1      31.633  22.119  25.446  1.00  0.00     0.016 A 
ATOM     10  C   UNL A   1      32.041  22.886  22.800  1.00  0.00     0.026 A 
ATOM     11  C   UNL A   1      31.169  23.356  24.985  1.00  0.00     0.026 A 
ATOM     12  C   UNL A   1      31.396  23.778  23.665  1.00  0.00     0.036 A 
BRANCH  12  13
ATOM     13  N   UNL A   1      30.905  25.009  23.264  1.00  0.00    -0.358 N 
ATOM     14  H   UNL A   1      30.073  25.024  22.738  1.00  0.00     0.163 HD
BRANCH  13  15
ATOM     15  C   UNL A   1      31.543  26.282  23.570  1.00  0.00     0.244 C 
ATOM     16  O   UNL A   1      32.959  26.131  23.440  1.00  0.00    -0.353 OA
ATOM     17  C   UNL A   1      31.071  27.326  22.531  1.00  0.00     0.195 C 
ATOM     18  C   UNL A   1      33.680  27.322  23.768  1.00  0.00     0.197 C 
ATOM     19  C   UNL A   1      31.800  28.652  22.783  1.00  0.00     0.178 C 
ATOM     20  C   UNL A   1      33.324  28.457  22.806  1.00  0.00     0.171 C 
BRANCH  17  21
ATOM     21  O   UNL A   1      31.385  26.853  21.197  1.00  0.00    -0.386 OA
ATOM     22  H   UNL A   1      31.554  27.612  20.616  1.00  0.00     0.211 HD
ENDBRANCH  17  21
BRANCH  19  23
ATOM     23  O   UNL A   1      31.440  29.604  21.780  1.00  0.00    -0.387 OA
ATOM     24  H   UNL A   1      31.193  29.137  20.966  1.00  0.00     0.211 HD
ENDBRANCH  19  23
BRANCH  20  25
ATOM     25  O   UNL A   1      33.805  28.139  21.492  1.00  0.00    -0.388 OA
ATOM     26  H   UNL A   1      34.531  27.499  21.559  1.00  0.00     0.211 HD
ENDBRANCH  20  25
ENDBRANCH  13  15
ENDBRANCH  12  13
ENDBRANCH   5   7
ENDBRANCH   2   3
ENDBRANCH   1   2
BRANCH   1  27
ATOM     27  C   UNL A   1      37.375  19.810  24.937  1.00  0.00     0.023 C 
BRANCH  27  28
ATOM     28  C   UNL A   1      38.547  20.330  25.759  1.00  0.00     0.116 C 
BRANCH  28  29
ATOM     29  N   UNL A   1      39.695  19.438  25.743  1.00  0.00    -0.352 N 
ATOM     30  C   UNL A   1      41.011  19.707  26.029  1.00  0.00     0.251 C 
ATOM     31  H   UNL A   1      39.501  18.506  25.491  1.00  0.00     0.163 HD
ATOM     32  O   UNL A   1      41.867  18.848  25.830  1.00  0.00    -0.269 OA
BRANCH  30  33
ATOM     33  C   UNL A   1      41.406  21.034  26.550  1.00  0.00     0.039 A 
ATOM     34  C   UNL A   1      41.204  21.313  27.904  1.00  0.00     0.014 A 
ATOM     35  C   UNL A   1      41.956  22.007  25.712  1.00  0.00     0.014 A 
ATOM     36  C   UNL A   1      41.594  22.549  28.424  1.00  0.00     0.010 A 
ATOM     37  C   UNL A   1      42.426  23.203  26.249  1.00  0.00     0.010 A 
ATOM     38  C   UNL A   1      42.231  23.496  27.606  1.00  0.00    -0.014 A 
BRANCH  38  39
ATOM     39  C   UNL A   1      42.647  24.818  28.144  1.00  0.00     0.031 A 
ATOM     40  C   UNL A   1      41.623  25.906  28.340  1.00  0.00     0.074 A 
ATOM     41  C   UNL A   1      43.942  25.054  28.433  1.00  0.00     0.049 A 
ATOM     42  N   UNL A   1      41.792  27.133  28.769  1.00  0.00    -0.248 NA
ATOM     43  C   UNL A   1      40.231  25.584  27.986  1.00  0.00     0.031 C 
ATOM     44  C   UNL A   1      45.041  24.102  28.253  1.00  0.00     0.029 A 
ATOM     45  N   UNL A   1      44.554  26.173  28.939  1.00  0.00    -0.354 N 
ATOM     46  C   UNL A   1      40.533  27.722  28.732  1.00  0.00     0.074 A 
ATOM     47  C   UNL A   1      39.625  26.746  28.173  1.00  0.00     0.031 C 
ATOM     48  C   UNL A   1      46.185  24.668  28.670  1.00  0.00     0.029 A 
ATOM     49  C   UNL A   1      45.910  26.032  29.110  1.00  0.00     0.049 A 
ATOM     50  H   UNL A   1      44.067  27.001  29.159  1.00  0.00     0.167 HD
ATOM     51  C   UNL A   1      40.155  28.951  29.156  1.00  0.00     0.031 A 
ATOM     52  C   UNL A   1      46.828  26.903  29.569  1.00  0.00     0.031 A 
ATOM     53  C   UNL A   1      41.051  29.925  29.716  1.00  0.00     0.049 A 
ATOM     54  C   UNL A   1      46.383  28.271  30.017  1.00  0.00     0.074 A 
ATOM     55  C   UNL A   1      40.762  31.194  30.189  1.00  0.00     0.029 A 
ATOM     56  N   UNL A   1      42.413  29.735  29.888  1.00  0.00    -0.354 N 
ATOM     57  N   UNL A   1      45.180  28.791  30.020  1.00  0.00    -0.248 NA
ATOM     58  C   UNL A   1      47.425  29.160  30.548  1.00  0.00     0.031 C 
ATOM     59  C   UNL A   1      41.957  31.786  30.611  1.00  0.00     0.029 A 
ATOM     60  C   UNL A   1      42.978  30.862  30.459  1.00  0.00     0.049 A 
ATOM     61  H   UNL A   1      42.906  28.918  29.641  1.00  0.00     0.167 HD
ATOM     62  C   UNL A   1      45.314  30.050  30.593  1.00  0.00     0.074 A 
ATOM     63  C   UNL A   1      46.711  30.205  30.941  1.00  0.00     0.031 C 
ATOM     64  C   UNL A   1      44.367  30.995  30.813  1.00  0.00     0.031 A 
BRANCH  51  65
ATOM     65  C   UNL A   1      38.696  29.303  29.040  1.00  0.00    -0.014 A 
ATOM     66  C   UNL A   1      37.835  29.175  30.142  1.00  0.00     0.009 A 
ATOM     67  C   UNL A   1      38.186  29.807  27.834  1.00  0.00     0.009 A 
ATOM     68  C   UNL A   1      36.485  29.512  30.029  1.00  0.00     0.001 A 
ATOM     69  C   UNL A   1      36.841  30.172  27.733  1.00  0.00     0.001 A 
ATOM     70  C   UNL A   1      35.991  30.017  28.827  1.00  0.00     0.000 A 
ENDBRANCH  51  65
BRANCH  52  71
ATOM     71  C   UNL A   1      48.264  26.520  29.644  1.00  0.00    -0.014 A 
ATOM     72  C   UNL A   1      49.126  26.748  28.559  1.00  0.00     0.009 A 
ATOM     73  C   UNL A   1      48.770  25.878  30.784  1.00  0.00     0.009 A 
ATOM     74  C   UNL A   1      50.447  26.295  28.594  1.00  0.00     0.001 A 
ATOM     75  C   UNL A   1      50.101  25.459  30.832  1.00  0.00     0.001 A 
ATOM     76  C   UNL A   1      50.933  25.652  29.732  1.00  0.00     0.000 A 
ENDBRANCH  52  71
BRANCH  64  77
ATOM     77  C   UNL A   1      44.799  32.248  31.524  1.00  0.00    -0.014 A 
ATOM     78  C   UNL A   1      45.292  33.361  30.827  1.00  0.00     0.009 A 
ATOM     79  C   UNL A   1      44.699  32.313  32.923  1.00  0.00     0.009 A 
ATOM     80  C   UNL A   1      45.726  34.494  31.520  1.00  0.00     0.001 A 
ATOM     81  C   UNL A   1      45.099  33.460  33.610  1.00  0.00     0.001 A 
ATOM     82  C   UNL A   1      45.626  34.543  32.910  1.00  0.00     0.000 A 
ENDBRANCH  64  77
ENDBRANCH  38  39
ENDBRANCH  30  33
ENDBRANCH  28  29
ENDBRANCH  27  28
ENDBRANCH   1  27
TORSDOF 16
ENDMDL
MODEL 2
REMARK VINA RESULT:     -11.5      0.364      6.005
REMARK SMILES O=C(NCCCCNC(=O)c1ccc(-c2c3nc(c(-c4ccccc4)c4ccc([nH]4)c(-c4ccccc4)c4nc(c(-c5ccccc5)c5ccc2[nH]5)C=C4)C=C3)cc1)c1ccc(N[C@H]2OC[C@@H](O)[C@@H](O)[C@H]2O)cc1
REMARK SMILES IDX 5 1 4 2 3 3 1 4 2 5 59 7 60 8 74 9 61 10 73 11 62 12 63 13
REMARK SMILES IDX 64 15 65 16 71 17 66 18 69 19 67 20 72 21 70 23 68 25 6 27
REMARK SMILES IDX 7 28 8 29 9 30 10 32 11 33 12 34 58 35 13 36 57 37 14 38
REMARK SMILES IDX 15 39 16 40 51 41 17 42 56 43 50 44 52 45 18 46 55 47 49 48
REMARK SMILES IDX 48 49 19 51 41 52 26 53 40 54 27 55 30 56 39 57 53 58 28 59
REMARK SMILES IDX 29 60 38 62 54 63 31 64 20 65 21 66 25 67 22 68 24 69 23 70
REMARK SMILES IDX 42 71 43 72 47 73 44 74 46 75 45 76 32 77 33 78 37 79 34 80
REMARK SMILES IDX 36 81 35 82
REMARK H PARENT 3 6 63 14 72 22 70 24 68 26 8 31 52 50 30 61
REMARK Flexibility Score: inf
ROOT
ATOM      1  C   UNL A   1      36.364  20.704  24.480  1.00  0.00     0.023 C 
ENDROOT
BRANCH   1   2
ATOM      2  C   UNL A   1      35.235  20.883  25.492  1.00  0.00     0.116 C 
BRANCH   2   3
ATOM      3  N   UNL A   1      34.235  19.832  25.394  1.00  0.00    -0.352 N 
ATOM      4  O   UNL A   1      32.154  18.972  25.224  1.00  0.00    -0.269 OA
ATOM      5  C   UNL A   1      32.904  19.935  25.077  1.00  0.00     0.251 C 
ATOM      6  H   UNL A   1      34.556  18.920  25.582  1.00  0.00     0.163 HD
BRANCH   5   7
ATOM      7  C   UNL A   1      32.372  21.215  24.574  1.00  0.00     0.039 A 
ATOM      8  C   UNL A   1      32.525  21.567  23.234  1.00  0.00     0.016 A 
ATOM      9  C   UNL A   1      31.702  22.069  25.447  1.00  0.00     0.016 A 
ATOM     10  C   UNL A   1      32.098  22.819  22.794  1.00  0.00     0.026 A 
ATOM     11  C   UNL A   1      31.255  23.313  24.986  1.00  0.00     0.026 A 
ATOM     12  C   UNL A   1      31.477  23.725  23.662  1.00  0.00     0.036 A 
BRANCH  12  13
ATOM     13  N   UNL A   1      31.004  24.963  23.260  1.00  0.00    -0.358 N 
ATOM     14  H   UNL A   1      30.170  24.990  22.737  1.00  0.00     0.163 HD
BRANCH  13  15
ATOM     15  C   UNL A   1      31.661  26.227  23.563  1.00  0.00     0.244 C 
ATOM     16  O   UNL A   1      33.071  26.068  23.382  1.00  0.00    -0.353 OA
ATOM     17  C   UNL A   1      31.162  27.290  22.557  1.00  0.00     0.195 C 
ATOM     18  C   UNL A   1      33.813  27.248  23.703  1.00  0.00     0.197 C 
ATOM     19  C   UNL A   1      31.910  28.606  22.803  1.00  0.00     0.178 C 
ATOM     20  C   UNL A   1      33.432  28.400  22.771  1.00  0.00     0.171 C 
BRANCH  17  21
ATOM     21  O   UNL A   1      31.427  26.834  21.206  1.00  0.00    -0.386 OA
ATOM     22  H   UNL A   1      31.481  25.866  21.196  1.00  0.00     0.211 HD
ENDBRANCH  17  21
BRANCH  19  23
ATOM     23  O   UNL A   1      31.523  29.576  21.827  1.00  0.00    -0.387 OA
ATOM     24  H   UNL A   1      30.687  29.988  22.095  1.00  0.00     0.211 HD
ENDBRANCH  19  23
BRANCH  20  25
ATOM     25  O   UNL A   1      33.866  28.099  21.436  1.00  0.00    -0.388 OA
ATOM     26  H   UNL A   1      33.115  28.176  20.827  1.00  0.00     0.211 HD
ENDBRANCH  20  25
ENDBRANCH  13  15
ENDBRANCH  12  13
ENDBRANCH   5   7
ENDBRANCH   2   3
ENDBRANCH   1   2
BRANCH   1  27
ATOM     27  C   UNL A   1      37.434  19.691  24.881  1.00  0.00     0.023 C 
BRANCH  27  28
ATOM     28  C   UNL A   1      38.615  20.265  25.654  1.00  0.00     0.116 C 
BRANCH  28  29
ATOM     29  N   UNL A   1      39.760  19.370  25.693  1.00  0.00    -0.352 N 
ATOM     30  C   UNL A   1      41.059  19.632  26.052  1.00  0.00     0.251 C 
ATOM     31  H   UNL A   1      39.578  18.441  25.422  1.00  0.00     0.163 HD
ATOM     32  O   UNL A   1      41.923  18.773  25.894  1.00  0.00    -0.269 OA
BRANCH  30  33
ATOM     33  C   UNL A   1      41.428  20.954  26.605  1.00  0.00     0.039 A 
ATOM     34  C   UNL A   1      41.897  21.941  25.733  1.00  0.00     0.014 A 
ATOM     35  C   UNL A   1      41.330  21.222  27.973  1.00  0.00     0.014 A 
ATOM     36  C   UNL A   1      42.226  23.205  26.228  1.00  0.00     0.010 A 
ATOM     37  C   UNL A   1      41.572  22.507  28.450  1.00  0.00     0.010 A 
ATOM     38  C   UNL A   1      42.043  23.507  27.587  1.00  0.00    -0.014 A 
BRANCH  38  39
ATOM     39  C   UNL A   1      42.393  24.847  28.128  1.00  0.00     0.031 A 
ATOM     40  C   UNL A   1      43.822  25.162  28.489  1.00  0.00     0.074 A 
ATOM     41  C   UNL A   1      41.431  25.771  28.322  1.00  0.00     0.049 A 
ATOM     42  N   UNL A   1      44.323  26.259  29.001  1.00  0.00    -0.248 NA
ATOM     43  C   UNL A   1      44.816  24.098  28.269  1.00  0.00     0.031 C 
ATOM     44  C   UNL A   1      40.004  25.583  28.052  1.00  0.00     0.029 A 
ATOM     45  N   UNL A   1      41.512  27.057  28.794  1.00  0.00    -0.354 N 
ATOM     46  C   UNL A   1      45.682  26.013  29.164  1.00  0.00     0.074 A 
ATOM     47  C   UNL A   1      45.915  24.643  28.765  1.00  0.00     0.031 C 
ATOM     48  C   UNL A   1      39.350  26.721  28.336  1.00  0.00     0.029 A 
ATOM     49  C   UNL A   1      40.301  27.705  28.841  1.00  0.00     0.049 A 
ATOM     50  H   UNL A   1      42.358  27.477  29.073  1.00  0.00     0.167 HD
ATOM     51  C   UNL A   1      46.657  26.858  29.574  1.00  0.00     0.031 A 
ATOM     52  C   UNL A   1      39.993  28.951  29.248  1.00  0.00     0.031 A 
ATOM     53  C   UNL A   1      46.433  28.222  29.968  1.00  0.00     0.049 A 
ATOM     54  C   UNL A   1      41.095  29.864  29.717  1.00  0.00     0.074 A 
ATOM     55  C   UNL A   1      47.358  29.164  30.386  1.00  0.00     0.029 A 
ATOM     56  N   UNL A   1      45.194  28.844  29.985  1.00  0.00    -0.354 N 
ATOM     57  N   UNL A   1      42.381  29.629  29.816  1.00  0.00    -0.248 NA
ATOM     58  C   UNL A   1      40.700  31.225  30.105  1.00  0.00     0.031 C 
ATOM     59  C   UNL A   1      46.673  30.344  30.692  1.00  0.00     0.029 A 
ATOM     60  C   UNL A   1      45.331  30.155  30.405  1.00  0.00     0.049 A 
ATOM     61  H   UNL A   1      44.344  28.416  29.733  1.00  0.00     0.167 HD
ATOM     62  C   UNL A   1      42.952  30.824  30.237  1.00  0.00     0.074 A 
ATOM     63  C   UNL A   1      41.875  31.785  30.353  1.00  0.00     0.031 C 
ATOM     64  C   UNL A   1      44.252  31.104  30.502  1.00  0.00     0.031 A 
BRANCH  51  65
ATOM     65  C   UNL A   1      48.065  26.327  29.603  1.00  0.00    -0.014 A 
ATOM     66  C   UNL A   1      48.894  26.425  28.473  1.00  0.00     0.009 A 
ATOM     67  C   UNL A   1      48.582  25.761  30.778  1.00  0.00     0.009 A 
ATOM     68  C   UNL A   1      50.202  25.937  28.510  1.00  0.00     0.001 A 
ATOM     69  C   UNL A   1      49.900  25.302  30.822  1.00  0.00     0.001 A 
ATOM     70  C   UNL A   1      50.706  25.383  29.686  1.00  0.00     0.000 A 
ENDBRANCH  51  65
BRANCH  52  71
ATOM     71  C   UNL A   1      38.583  29.427  29.225  1.00  0.00    -0.014 A 
ATOM     72  C   UNL A   1      38.060  30.070  28.091  1.00  0.00     0.009 A 
ATOM     73  C   UNL A   1      37.766  29.285  30.357  1.00  0.00     0.009 A 
ATOM     74  C   UNL A   1      36.770  30.606  28.111  1.00  0.00     0.001 A 
ATOM     75  C   UNL A   1      36.463  29.788  30.361  1.00  0.00     0.001 A 
ATOM     76  C   UNL A   1      35.973  30.463  29.245  1.00  0.00     0.000 A 
ENDBRANCH  52  71
BRANCH  64  77
ATOM     77  C   UNL A   1      44.587  32.522  30.875  1.00  0.00    -0.014 A 
ATOM     78  C   UNL A   1      44.512  32.975  32.201  1.00  0.00     0.009 A 
ATOM     79  C   UNL A   1      44.997  33.417  29.873  1.00  0.00     0.009 A 
ATOM     80  C   UNL A   1      44.788  34.309  32.507  1.00  0.00     0.001 A 
ATOM     81  C   UNL A   1      45.307  34.740  30.188  1.00  0.00     0.001 A 
ATOM     82  C   UNL A   1      45.188  35.189  31.502  1.00  0.00     0.000 A 
ENDBRANCH  64  77
ENDBRANCH  38  39
ENDBRANCH  30  33
ENDBRANCH  28  29
ENDBRANCH  27  28
ENDBRANCH   1  27
TORSDOF 16
ENDMDL
MODEL 3
REMARK VINA RESULT:     -11.5      2.111      6.727
REMARK SMILES O=C(NCCCCNC(=O)c1ccc(-c2c3nc(c(-c4ccccc4)c4ccc([nH]4)c(-c4ccccc4)c4nc(c(-c5ccccc5)c5ccc2[nH]5)C=C4)C=C3)cc1)c1ccc(N[C@H]2OC[C@@H](O)[C@@H](O)[C@H]2O)cc1
REMARK SMILES IDX 5 1 4 2 3 3 1 4 2 5 59 7 60 8 74 9 61 10 73 11 62 12 63 13
REMARK SMILES IDX 64 15 65 16 71 17 66 18 69 19 67 20 72 21 70 23 68 25 6 27
REMARK SMILES IDX 7 28 8 29 9 30 10 32 11 33 12 34 58 35 13 36 57 37 14 38
REMARK SMILES IDX 15 39 16 40 51 41 17 42 56 43 50 44 52 45 18 46 55 47 49 48
REMARK SMILES IDX 48 49 19 51 41 52 26 53 40 54 27 55 30 56 39 57 53 58 28 59
REMARK SMILES IDX 29 60 38 62 54 63 31 64 20 65 21 66 25 67 22 68 24 69 23 70
REMARK SMILES IDX 42 71 43 72 47 73 44 74 46 75 45 76 32 77 33 78 37 79 34 80
REMARK SMILES IDX 36 81 35 82
REMARK H PARENT 3 6 63 14 72 22 70 24 68 26 8 31 52 50 30 61
REMARK Flexibility Score: inf
ROOT
ATOM      1  C   UNL A   1      35.626  21.661  26.094  1.00  0.00     0.023 C 
ENDROOT
BRANCH   1   2
ATOM      2  C   UNL A   1      35.392  20.800  24.856  1.00  0.00     0.116 C 
BRANCH   2   3
ATOM      3  N   UNL A   1      34.283  19.874  25.029  1.00  0.00    -0.352 N 
ATOM      4  O   UNL A   1      32.137  19.266  25.378  1.00  0.00    -0.269 OA
ATOM      5  C   UNL A   1      32.936  20.133  25.029  1.00  0.00     0.251 C 
ATOM      6  H   UNL A   1      34.534  18.932  25.165  1.00  0.00     0.163 HD
BRANCH   5   7
ATOM      7  C   UNL A   1      32.450  21.466  24.625  1.00  0.00     0.039 A 
ATOM      8  C   UNL A   1      31.985  22.368  25.579  1.00  0.00     0.016 A 
ATOM      9  C   UNL A   1      32.472  21.823  23.279  1.00  0.00     0.016 A 
ATOM     10  C   UNL A   1      31.445  23.588  25.173  1.00  0.00     0.026 A 
ATOM     11  C   UNL A   1      31.950  23.061  22.888  1.00  0.00     0.026 A 
ATOM     12  C   UNL A   1      31.395  23.950  23.822  1.00  0.00     0.036 A 
BRANCH  12  13
ATOM     13  N   UNL A   1      30.902  25.165  23.376  1.00  0.00    -0.358 N 
ATOM     14  H   UNL A   1      30.065  25.161  22.859  1.00  0.00     0.163 HD
BRANCH  13  15
ATOM     15  C   UNL A   1      31.545  26.448  23.624  1.00  0.00     0.244 C 
ATOM     16  O   UNL A   1      32.959  26.291  23.482  1.00  0.00    -0.353 OA
ATOM     17  C   UNL A   1      31.061  27.452  22.552  1.00  0.00     0.195 C 
ATOM     18  C   UNL A   1      33.686  27.492  23.755  1.00  0.00     0.197 C 
ATOM     19  C   UNL A   1      31.795  28.786  22.742  1.00  0.00     0.178 C 
ATOM     20  C   UNL A   1      33.319  28.589  22.754  1.00  0.00     0.171 C 
BRANCH  17  21
ATOM     21  O   UNL A   1      31.359  26.926  21.233  1.00  0.00    -0.386 OA
ATOM     22  H   UNL A   1      30.748  26.200  21.029  1.00  0.00     0.211 HD
ENDBRANCH  17  21
BRANCH  19  23
ATOM     23  O   UNL A   1      31.424  29.698  21.707  1.00  0.00    -0.387 OA
ATOM     24  H   UNL A   1      32.000  30.477  21.741  1.00  0.00     0.211 HD
ENDBRANCH  19  23
BRANCH  20  25
ATOM     25  O   UNL A   1      33.784  28.219  21.447  1.00  0.00    -0.388 OA
ATOM     26  H   UNL A   1      33.581  28.930  20.818  1.00  0.00     0.211 HD
ENDBRANCH  20  25
ENDBRANCH  13  15
ENDBRANCH  12  13
ENDBRANCH   5   7
ENDBRANCH   2   3
ENDBRANCH   1   2
BRANCH   1  27
ATOM     27  C   UNL A   1      35.714  23.162  25.828  1.00  0.00     0.023 C 
BRANCH  27  28
ATOM     28  C   UNL A   1      37.041  23.644  25.258  1.00  0.00     0.116 C 
BRANCH  28  29
ATOM     29  N   UNL A   1      38.127  22.700  25.464  1.00  0.00    -0.352 N 
ATOM     30  C   UNL A   1      39.340  22.888  26.080  1.00  0.00     0.251 C 
ATOM     31  H   UNL A   1      37.970  21.794  25.111  1.00  0.00     0.163 HD
ATOM     32  O   UNL A   1      40.190  22.001  26.040  1.00  0.00    -0.269 OA
BRANCH  30  33
ATOM     33  C   UNL A   1      39.639  24.163  26.767  1.00  0.00     0.039 A 
ATOM     34  C   UNL A   1      39.188  24.343  28.078  1.00  0.00     0.014 A 
ATOM     35  C   UNL A   1      40.343  25.186  26.126  1.00  0.00     0.014 A 
ATOM     36  C   UNL A   1      39.482  25.528  28.756  1.00  0.00     0.010 A 
ATOM     37  C   UNL A   1      40.711  26.327  26.833  1.00  0.00     0.010 A 
ATOM     38  C   UNL A   1      40.267  26.521  28.148  1.00  0.00    -0.014 A 
BRANCH  38  39
ATOM     39  C   UNL A   1      40.583  27.789  28.857  1.00  0.00     0.031 A 
ATOM     40  C   UNL A   1      41.931  27.970  29.507  1.00  0.00     0.074 A 
ATOM     41  C   UNL A   1      39.659  28.766  28.941  1.00  0.00     0.049 A 
ATOM     42  N   UNL A   1      42.386  28.988  30.195  1.00  0.00    -0.248 NA
ATOM     43  C   UNL A   1      42.884  26.854  29.390  1.00  0.00     0.031 C 
ATOM     44  C   UNL A   1      38.303  28.704  28.391  1.00  0.00     0.029 A 
ATOM     45  N   UNL A   1      39.722  30.005  29.527  1.00  0.00    -0.354 N 
ATOM     46  C   UNL A   1      43.671  28.631  30.591  1.00  0.00     0.074 A 
ATOM     47  C   UNL A   1      43.896  27.279  30.130  1.00  0.00     0.031 C 
ATOM     48  C   UNL A   1      37.675  29.865  28.641  1.00  0.00     0.029 A 
ATOM     49  C   UNL A   1      38.566  30.737  29.398  1.00  0.00     0.049 A 
ATOM     50  H   UNL A   1      40.522  30.340  29.996  1.00  0.00     0.167 HD
ATOM     51  C   UNL A   1      44.596  29.369  31.249  1.00  0.00     0.031 A 
ATOM     52  C   UNL A   1      38.259  31.970  29.842  1.00  0.00     0.031 A 
ATOM     53  C   UNL A   1      44.380  30.715  31.706  1.00  0.00     0.049 A 
ATOM     54  C   UNL A   1      39.300  32.763  30.587  1.00  0.00     0.074 A 
ATOM     55  C   UNL A   1      45.261  31.553  32.369  1.00  0.00     0.029 A 
ATOM     56  N   UNL A   1      43.201  31.424  31.540  1.00  0.00    -0.354 N 
ATOM     57  N   UNL A   1      40.526  32.426  30.908  1.00  0.00    -0.248 NA
ATOM     58  C   UNL A   1      38.919  34.119  31.007  1.00  0.00     0.031 C 
ATOM     59  C   UNL A   1      44.600  32.756  32.639  1.00  0.00     0.029 A 
ATOM     60  C   UNL A   1      43.331  32.689  32.088  1.00  0.00     0.049 A 
ATOM     61  H   UNL A   1      42.392  31.080  31.097  1.00  0.00     0.167 HD
ATOM     62  C   UNL A   1      41.074  33.543  31.528  1.00  0.00     0.074 A 
ATOM     63  C   UNL A   1      40.054  34.570  31.519  1.00  0.00     0.031 C 
ATOM     64  C   UNL A   1      42.312  33.705  32.058  1.00  0.00     0.031 A 
BRANCH  51  65
ATOM     65  C   UNL A   1      45.937  28.734  31.499  1.00  0.00    -0.014 A 
ATOM     66  C   UNL A   1      46.981  28.867  30.568  1.00  0.00     0.009 A 
ATOM     67  C   UNL A   1      46.174  28.032  32.690  1.00  0.00     0.009 A 
ATOM     68  C   UNL A   1      48.225  28.282  30.811  1.00  0.00     0.001 A 
ATOM     69  C   UNL A   1      47.429  27.474  32.944  1.00  0.00     0.001 A 
ATOM     70  C   UNL A   1      48.450  27.592  32.002  1.00  0.00     0.000 A 
ENDBRANCH  51  65
BRANCH  52  71
ATOM     71  C   UNL A   1      36.911  32.550  29.593  1.00  0.00    -0.014 A 
ATOM     72  C   UNL A   1      35.850  32.309  30.481  1.00  0.00     0.009 A 
ATOM     73  C   UNL A   1      36.666  33.307  28.437  1.00  0.00     0.009 A 
ATOM     74  C   UNL A   1      34.563  32.770  30.190  1.00  0.00     0.001 A 
ATOM     75  C   UNL A   1      35.387  33.799  28.168  1.00  0.00     0.001 A 
ATOM     76  C   UNL A   1      34.334  33.515  29.035  1.00  0.00     0.000 A 
ENDBRANCH  52  71
BRANCH  64  77
ATOM     77  C   UNL A   1      42.652  35.064  32.605  1.00  0.00    -0.014 A 
ATOM     78  C   UNL A   1      43.387  35.999  31.859  1.00  0.00     0.009 A 
ATOM     79  C   UNL A   1      42.215  35.416  33.892  1.00  0.00     0.009 A 
ATOM     80  C   UNL A   1      43.723  37.236  32.412  1.00  0.00     0.001 A 
ATOM     81  C   UNL A   1      42.521  36.667  34.428  1.00  0.00     0.001 A 
ATOM     82  C   UNL A   1      43.288  37.570  33.694  1.00  0.00     0.000 A 
ENDBRANCH  64  77
ENDBRANCH  38  39
ENDBRANCH  30  33
ENDBRANCH  28  29
ENDBRANCH  27  28
ENDBRANCH   1  27
TORSDOF 16
ENDMDL
