MODEL 1
REMARK VINA RESULT:     -11.6      0.000      0.000
REMARK SMILES Cc1cc(Oc2ccnc(C(=O)NCCCCNC(=O)c3ccc(-c4c5nc(c(-c6ccccc6)c6ccc([nH]6)c(-c6ccccc6)c6nc(c(-c7ccccc7)c7ccc4[nH]7)C=C6)C=C5)cc3)c2)cc(C)c1Cl
REMARK SMILES IDX 15 1 14 2 13 3 11 4 12 5 10 7 6 8 7 9 69 10 8 11 9 12 5 13
REMARK SMILES IDX 4 14 1 15 2 16 3 17 73 18 71 19 74 20 70 21 72 22 16 23
REMARK SMILES IDX 17 24 18 25 19 26 20 28 21 29 22 30 68 31 23 32 67 33 24 34
REMARK SMILES IDX 25 35 26 36 61 37 27 38 66 39 60 40 62 41 28 42 65 43 59 44
REMARK SMILES IDX 58 45 29 47 51 48 36 49 50 50 37 51 40 52 49 53 63 54 38 55
REMARK SMILES IDX 39 56 48 58 64 59 41 60 30 61 31 62 35 63 32 64 34 65 33 66
REMARK SMILES IDX 52 67 53 68 57 69 54 70 56 71 55 72 42 73 43 74 47 75 44 76
REMARK SMILES IDX 46 77 45 78
REMARK H PARENT 13 6 18 27 62 46 40 57
REMARK Flexibility Score: inf
ROOT
ATOM      1  C   UNL A   1      33.146  29.425  24.914  1.00  0.00     0.023 C 
ENDROOT
BRANCH   1   2
ATOM      2  C   UNL A   1      33.324  29.083  23.433  1.00  0.00     0.116 C 
BRANCH   2   3
ATOM      3  N   UNL A   1      32.053  29.153  22.742  1.00  0.00    -0.351 N 
ATOM      4  C   UNL A   1      30.982  28.294  22.634  1.00  0.00     0.270 C 
ATOM      5  O   UNL A   1      30.054  28.693  21.925  1.00  0.00    -0.268 OA
ATOM      6  H   UNL A   1      31.928  29.994  22.245  1.00  0.00     0.163 HD
BRANCH   4   7
ATOM      7  C   UNL A   1      30.869  26.962  23.334  1.00  0.00     0.131 A 
ATOM      8  C   UNL A   1      31.028  24.593  23.543  1.00  0.00     0.131 A 
ATOM      9  C   UNL A   1      30.709  24.681  24.889  1.00  0.00     0.067 A 
ATOM     10  C   UNL A   1      31.092  25.731  22.741  1.00  0.00     0.081 A 
ATOM     11  C   UNL A   1      30.432  25.935  25.385  1.00  0.00     0.116 A 
ATOM     12  N   UNL A   1      30.515  27.061  24.646  1.00  0.00    -0.251 NA
BRANCH   8  13
ATOM     13  O   UNL A   1      31.411  23.389  23.007  1.00  0.00    -0.457 OA
BRANCH  13  14
ATOM     14  C   UNL A   1      32.559  22.792  23.476  1.00  0.00     0.128 A 
ATOM     15  C   UNL A   1      36.337  23.139  23.619  1.00  0.00     0.046 C 
ATOM     16  C   UNL A   1      34.957  22.576  23.828  1.00  0.00    -0.028 A 
ATOM     17  C   UNL A   1      33.853  23.293  23.333  1.00  0.00     0.052 A 
ATOM     18  C   UNL A   1      34.743  21.346  24.479  1.00  0.00     0.047 A 
ATOM     19  C   UNL A   1      33.440  20.840  24.644  1.00  0.00    -0.028 A 
ATOM     20  Cl  UNL A   1      36.097  20.440  25.074  1.00  0.00    -0.084 Cl
ATOM     21  C   UNL A   1      32.360  21.572  24.126  1.00  0.00     0.052 A 
ATOM     22  C   UNL A   1      33.169  19.531  25.334  1.00  0.00     0.046 C 
ENDBRANCH  13  14
ENDBRANCH   8  13
ENDBRANCH   4   7
ENDBRANCH   2   3
ENDBRANCH   1   2
BRANCH   1  23
ATOM     23  C   UNL A   1      33.733  28.379  25.872  1.00  0.00     0.023 C 
BRANCH  23  24
ATOM     24  C   UNL A   1      33.520  28.668  27.357  1.00  0.00     0.116 C 
BRANCH  24  25
ATOM     25  N   UNL A   1      33.548  30.085  27.683  1.00  0.00    -0.352 N 
ATOM     26  C   UNL A   1      34.596  30.825  28.179  1.00  0.00     0.251 C 
ATOM     27  H   UNL A   1      32.710  30.578  27.530  1.00  0.00     0.163 HD
ATOM     28  O   UNL A   1      34.443  31.998  28.487  1.00  0.00    -0.269 OA
BRANCH  26  29
ATOM     29  C   UNL A   1      35.903  30.165  28.377  1.00  0.00     0.039 A 
ATOM     30  C   UNL A   1      36.834  30.196  27.337  1.00  0.00     0.014 A 
ATOM     31  C   UNL A   1      36.219  29.570  29.600  1.00  0.00     0.014 A 
ATOM     32  C   UNL A   1      38.118  29.692  27.550  1.00  0.00     0.010 A 
ATOM     33  C   UNL A   1      37.516  29.123  29.829  1.00  0.00     0.010 A 
ATOM     34  C   UNL A   1      38.479  29.189  28.810  1.00  0.00    -0.014 A 
BRANCH  34  35
ATOM     35  C   UNL A   1      39.861  28.734  29.093  1.00  0.00     0.031 A 
ATOM     36  C   UNL A   1      40.842  29.669  29.739  1.00  0.00     0.074 A 
ATOM     37  C   UNL A   1      40.254  27.509  28.695  1.00  0.00     0.049 A 
ATOM     38  N   UNL A   1      42.117  29.492  29.977  1.00  0.00    -0.248 NA
ATOM     39  C   UNL A   1      40.330  30.987  30.145  1.00  0.00     0.031 C 
ATOM     40  C   UNL A   1      39.405  26.519  28.029  1.00  0.00     0.029 A 
ATOM     41  N   UNL A   1      41.476  26.892  28.785  1.00  0.00    -0.354 N 
ATOM     42  C   UNL A   1      42.561  30.681  30.541  1.00  0.00     0.074 A 
ATOM     43  C   UNL A   1      41.433  31.586  30.568  1.00  0.00     0.031 C 
ATOM     44  C   UNL A   1      40.126  25.411  27.792  1.00  0.00     0.029 A 
ATOM     45  C   UNL A   1      41.494  25.626  28.251  1.00  0.00     0.049 A 
ATOM     46  H   UNL A   1      42.265  27.316  29.193  1.00  0.00     0.167 HD
ATOM     47  C   UNL A   1      43.795  30.987  31.008  1.00  0.00     0.031 A 
ATOM     48  C   UNL A   1      42.503  24.742  28.137  1.00  0.00     0.031 A 
ATOM     49  C   UNL A   1      44.913  30.084  30.994  1.00  0.00     0.049 A 
ATOM     50  C   UNL A   1      43.866  25.111  28.650  1.00  0.00     0.074 A 
ATOM     51  C   UNL A   1      46.189  30.283  31.491  1.00  0.00     0.029 A 
ATOM     52  N   UNL A   1      44.887  28.808  30.453  1.00  0.00    -0.354 N 
ATOM     53  N   UNL A   1      44.258  26.220  29.229  1.00  0.00    -0.248 NA
ATOM     54  C   UNL A   1      44.924  24.102  28.500  1.00  0.00     0.031 C 
ATOM     55  C   UNL A   1      46.947  29.140  31.216  1.00  0.00     0.029 A 
ATOM     56  C   UNL A   1      46.130  28.214  30.588  1.00  0.00     0.049 A 
ATOM     57  H   UNL A   1      44.102  28.388  30.034  1.00  0.00     0.167 HD
ATOM     58  C   UNL A   1      45.598  26.031  29.538  1.00  0.00     0.074 A 
ATOM     59  C   UNL A   1      45.950  24.700  29.090  1.00  0.00     0.031 C 
ATOM     60  C   UNL A   1      46.460  26.885  30.141  1.00  0.00     0.031 A 
BRANCH  47  61
ATOM     61  C   UNL A   1      43.991  32.366  31.572  1.00  0.00    -0.014 A 
ATOM     62  C   UNL A   1      43.790  32.628  32.936  1.00  0.00     0.009 A 
ATOM     63  C   UNL A   1      44.399  33.413  30.730  1.00  0.00     0.009 A 
ATOM     64  C   UNL A   1      43.954  33.919  33.440  1.00  0.00     0.001 A 
ATOM     65  C   UNL A   1      44.588  34.698  31.243  1.00  0.00     0.001 A 
ATOM     66  C   UNL A   1      44.356  34.953  32.594  1.00  0.00     0.000 A 
ENDBRANCH  47  61
BRANCH  48  67
ATOM     67  C   UNL A   1      42.258  23.408  27.530  1.00  0.00    -0.014 A 
ATOM     68  C   UNL A   1      41.760  22.357  28.314  1.00  0.00     0.009 A 
ATOM     69  C   UNL A   1      42.523  23.179  26.172  1.00  0.00     0.009 A 
ATOM     70  C   UNL A   1      41.552  21.094  27.755  1.00  0.00     0.001 A 
ATOM     71  C   UNL A   1      42.291  21.921  25.610  1.00  0.00     0.001 A 
ATOM     72  C   UNL A   1      41.814  20.878  26.403  1.00  0.00     0.000 A 
ENDBRANCH  48  67
BRANCH  60  73
ATOM     73  C   UNL A   1      47.856  26.392  30.388  1.00  0.00    -0.014 A 
ATOM     74  C   UNL A   1      48.217  25.816  31.615  1.00  0.00     0.009 A 
ATOM     75  C   UNL A   1      48.808  26.462  29.359  1.00  0.00     0.009 A 
ATOM     76  C   UNL A   1      49.516  25.341  31.814  1.00  0.00     0.001 A 
ATOM     77  C   UNL A   1      50.097  25.964  29.553  1.00  0.00     0.001 A 
ATOM     78  C   UNL A   1      50.451  25.411  30.782  1.00  0.00     0.000 A 
ENDBRANCH  60  73
ENDBRANCH  34  35
ENDBRANCH  26  29
ENDBRANCH  24  25
ENDBRANCH  23  24
ENDBRANCH   1  23
TORSDOF 13
ENDMDL
MODEL 2
REMARK VINA RESULT:     -11.3      2.613      7.771
REMARK SMILES Cc1cc(Oc2ccnc(C(=O)NCCCCNC(=O)c3ccc(-c4c5nc(c(-c6ccccc6)c6ccc([nH]6)c(-c6ccccc6)c6nc(c(-c7ccccc7)c7ccc4[nH]7)C=C6)C=C5)cc3)c2)cc(C)c1Cl
REMARK SMILES IDX 15 1 14 2 13 3 11 4 12 5 10 7 6 8 7 9 69 10 8 11 9 12 5 13
REMARK SMILES IDX 4 14 1 15 2 16 3 17 73 18 71 19 74 20 70 21 72 22 16 23
REMARK SMILES IDX 17 24 18 25 19 26 20 28 21 29 22 30 68 31 23 32 67 33 24 34
REMARK SMILES IDX 25 35 26 36 61 37 27 38 66 39 60 40 62 41 28 42 65 43 59 44
REMARK SMILES IDX 58 45 29 47 51 48 36 49 50 50 37 51 40 52 49 53 63 54 38 55
REMARK SMILES IDX 39 56 48 58 64 59 41 60 30 61 31 62 35 63 32 64 34 65 33 66
REMARK SMILES IDX 52 67 53 68 57 69 54 70 56 71 55 72 42 73 43 74 47 75 44 76
REMARK SMILES IDX 46 77 45 78
REMARK H PARENT 13 6 18 27 62 46 40 57
REMARK Flexibility Score: inf
ROOT
ATOM      1  C   UNL A   1      36.418  21.305  24.826  1.00  0.00     0.023 C 
ENDROOT
BRANCH   1   2
ATOM      2  C   UNL A   1      35.475  21.402  26.028  1.00  0.00     0.116 C 
BRANCH   2   3
ATOM      3  N   UNL A   1      34.476  20.356  25.974  1.00  0.00    -0.351 N 
ATOM      4  C   UNL A   1      33.187  20.297  25.495  1.00  0.00     0.270 C 
ATOM      5  O   UNL A   1      32.617  19.212  25.641  1.00  0.00    -0.268 OA
ATOM      6  H   UNL A   1      34.786  19.505  26.360  1.00  0.00     0.163 HD
BRANCH   4   7
ATOM      7  C   UNL A   1      32.471  21.429  24.798  1.00  0.00     0.131 A 
ATOM      8  C   UNL A   1      31.074  23.354  24.646  1.00  0.00     0.131 A 
ATOM      9  C   UNL A   1      31.395  23.492  23.304  1.00  0.00     0.067 A 
ATOM     10  C   UNL A   1      31.592  22.308  25.407  1.00  0.00     0.081 A 
ATOM     11  C   UNL A   1      32.222  22.536  22.758  1.00  0.00     0.116 A 
ATOM     12  N   UNL A   1      32.766  21.528  23.471  1.00  0.00    -0.251 NA
BRANCH   8  13
ATOM     13  O   UNL A   1      30.337  24.325  25.277  1.00  0.00    -0.457 OA
BRANCH  13  14
ATOM     14  C   UNL A   1      30.815  25.616  25.284  1.00  0.00     0.128 A 
ATOM     15  C   UNL A   1      33.334  27.927  26.934  1.00  0.00     0.046 C 
ATOM     16  C   UNL A   1      32.233  27.447  26.028  1.00  0.00    -0.028 A 
ATOM     17  C   UNL A   1      31.852  26.095  26.084  1.00  0.00     0.052 A 
ATOM     18  C   UNL A   1      31.559  28.316  25.148  1.00  0.00     0.047 A 
ATOM     19  C   UNL A   1      30.522  27.839  24.324  1.00  0.00    -0.028 A 
ATOM     20  Cl  UNL A   1      32.003  29.992  25.086  1.00  0.00    -0.084 Cl
ATOM     21  C   UNL A   1      30.156  26.487  24.414  1.00  0.00     0.052 A 
ATOM     22  C   UNL A   1      29.779  28.734  23.371  1.00  0.00     0.046 C 
ENDBRANCH  13  14
ENDBRANCH   8  13
ENDBRANCH   4   7
ENDBRANCH   2   3
ENDBRANCH   1   2
BRANCH   1  23
ATOM     23  C   UNL A   1      37.455  20.179  24.935  1.00  0.00     0.023 C 
BRANCH  23  24
ATOM     24  C   UNL A   1      38.719  20.535  25.714  1.00  0.00     0.116 C 
BRANCH  24  25
ATOM     25  N   UNL A   1      39.730  19.489  25.691  1.00  0.00    -0.352 N 
ATOM     26  C   UNL A   1      41.055  19.577  26.048  1.00  0.00     0.251 C 
ATOM     27  H   UNL A   1      39.427  18.606  25.380  1.00  0.00     0.163 HD
ATOM     28  O   UNL A   1      41.809  18.627  25.893  1.00  0.00    -0.269 OA
BRANCH  26  29
ATOM     29  C   UNL A   1      41.567  20.856  26.581  1.00  0.00     0.039 A 
ATOM     30  C   UNL A   1      42.109  21.784  25.691  1.00  0.00     0.014 A 
ATOM     31  C   UNL A   1      41.461  21.151  27.942  1.00  0.00     0.014 A 
ATOM     32  C   UNL A   1      42.479  23.047  26.156  1.00  0.00     0.010 A 
ATOM     33  C   UNL A   1      41.774  22.429  28.392  1.00  0.00     0.010 A 
ATOM     34  C   UNL A   1      42.277  23.391  27.502  1.00  0.00    -0.014 A 
BRANCH  34  35
ATOM     35  C   UNL A   1      42.572  24.753  28.005  1.00  0.00     0.031 A 
ATOM     36  C   UNL A   1      43.966  25.109  28.434  1.00  0.00     0.074 A 
ATOM     37  C   UNL A   1      41.571  25.642  28.150  1.00  0.00     0.049 A 
ATOM     38  N   UNL A   1      44.403  26.210  28.991  1.00  0.00    -0.248 NA
ATOM     39  C   UNL A   1      45.001  24.081  28.239  1.00  0.00     0.031 C 
ATOM     40  C   UNL A   1      40.169  25.407  27.800  1.00  0.00     0.029 A 
ATOM     41  N   UNL A   1      41.580  26.922  28.644  1.00  0.00    -0.354 N 
ATOM     42  C   UNL A   1      45.755  26.000  29.229  1.00  0.00     0.074 A 
ATOM     43  C   UNL A   1      46.057  24.652  28.799  1.00  0.00     0.031 C 
ATOM     44  C   UNL A   1      39.458  26.515  28.069  1.00  0.00     0.029 A 
ATOM     45  C   UNL A   1      40.344  27.520  28.645  1.00  0.00     0.049 A 
ATOM     46  H   UNL A   1      42.396  27.369  28.967  1.00  0.00     0.167 HD
ATOM     47  C   UNL A   1      46.667  26.857  29.745  1.00  0.00     0.031 A 
ATOM     48  C   UNL A   1      39.965  28.740  29.071  1.00  0.00     0.031 A 
ATOM     49  C   UNL A   1      46.371  28.201  30.160  1.00  0.00     0.049 A 
ATOM     50  C   UNL A   1      40.994  29.667  29.654  1.00  0.00     0.074 A 
ATOM     51  C   UNL A   1      47.237  29.164  30.648  1.00  0.00     0.029 A 
ATOM     52  N   UNL A   1      45.108  28.771  30.136  1.00  0.00    -0.354 N 
ATOM     53  N   UNL A   1      42.279  29.473  29.824  1.00  0.00    -0.248 NA
ATOM     54  C   UNL A   1      40.519  30.986  30.097  1.00  0.00     0.031 C 
ATOM     55  C   UNL A   1      46.490  30.306  30.956  1.00  0.00     0.029 A 
ATOM     56  C   UNL A   1      45.168  30.068  30.616  1.00  0.00     0.049 A 
ATOM     57  H   UNL A   1      44.290  28.321  29.825  1.00  0.00     0.167 HD
ATOM     58  C   UNL A   1      42.771  30.653  30.366  1.00  0.00     0.074 A 
ATOM     59  C   UNL A   1      41.648  31.559  30.489  1.00  0.00     0.031 C 
ATOM     60  C   UNL A   1      44.041  30.958  30.727  1.00  0.00     0.031 A 
BRANCH  47  61
ATOM     61  C   UNL A   1      48.075  26.353  29.890  1.00  0.00    -0.014 A 
ATOM     62  C   UNL A   1      48.502  25.722  31.069  1.00  0.00     0.009 A 
ATOM     63  C   UNL A   1      48.981  26.495  28.828  1.00  0.00     0.009 A 
ATOM     64  C   UNL A   1      49.819  25.280  31.198  1.00  0.00     0.001 A 
ATOM     65  C   UNL A   1      50.291  26.027  28.950  1.00  0.00     0.001 A 
ATOM     66  C   UNL A   1      50.713  25.430  30.137  1.00  0.00     0.000 A 
ENDBRANCH  47  61
BRANCH  48  67
ATOM     67  C   UNL A   1      38.548  29.167  28.942  1.00  0.00    -0.014 A 
ATOM     68  C   UNL A   1      38.076  29.685  27.727  1.00  0.00     0.009 A 
ATOM     69  C   UNL A   1      37.665  29.061  30.027  1.00  0.00     0.009 A 
ATOM     70  C   UNL A   1      36.751  30.112  27.607  1.00  0.00     0.001 A 
ATOM     71  C   UNL A   1      36.335  29.466  29.897  1.00  0.00     0.001 A 
ATOM     72  C   UNL A   1      35.881  29.998  28.691  1.00  0.00     0.000 A 
ENDBRANCH  48  67
BRANCH  60  73
ATOM     73  C   UNL A   1      44.292  32.342  31.252  1.00  0.00    -0.014 A 
ATOM     74  C   UNL A   1      44.523  33.418  30.384  1.00  0.00     0.009 A 
ATOM     75  C   UNL A   1      44.247  32.576  32.636  1.00  0.00     0.009 A 
ATOM     76  C   UNL A   1      44.729  34.702  30.894  1.00  0.00     0.001 A 
ATOM     77  C   UNL A   1      44.430  33.864  33.140  1.00  0.00     0.001 A 
ATOM     78  C   UNL A   1      44.677  34.923  32.270  1.00  0.00     0.000 A 
ENDBRANCH  60  73
ENDBRANCH  34  35
ENDBRANCH  26  29
ENDBRANCH  24  25
ENDBRANCH  23  24
ENDBRANCH   1  23
TORSDOF 13
ENDMDL
MODEL 3
REMARK VINA RESULT:     -11.3      2.965      8.023
REMARK SMILES Cc1cc(Oc2ccnc(C(=O)NCCCCNC(=O)c3ccc(-c4c5nc(c(-c6ccccc6)c6ccc([nH]6)c(-c6ccccc6)c6nc(c(-c7ccccc7)c7ccc4[nH]7)C=C6)C=C5)cc3)c2)cc(C)c1Cl
REMARK SMILES IDX 15 1 14 2 13 3 11 4 12 5 10 7 6 8 7 9 69 10 8 11 9 12 5 13
REMARK SMILES IDX 4 14 1 15 2 16 3 17 73 18 71 19 74 20 70 21 72 22 16 23
REMARK SMILES IDX 17 24 18 25 19 26 20 28 21 29 22 30 68 31 23 32 67 33 24 34
REMARK SMILES IDX 25 35 26 36 61 37 27 38 66 39 60 40 62 41 28 42 65 43 59 44
REMARK SMILES IDX 58 45 29 47 51 48 36 49 50 50 37 51 40 52 49 53 63 54 38 55
REMARK SMILES IDX 39 56 48 58 64 59 41 60 30 61 31 62 35 63 32 64 34 65 33 66
REMARK SMILES IDX 52 67 53 68 57 69 54 70 56 71 55 72 42 73 43 74 47 75 44 76
REMARK SMILES IDX 46 77 45 78
REMARK H PARENT 13 6 18 27 62 46 40 57
REMARK Flexibility Score: inf
ROOT
ATOM      1  C   UNL A   1      35.633  21.798  26.167  1.00  0.00     0.023 C 
ENDROOT
BRANCH   1   2
ATOM      2  C   UNL A   1      34.384  21.553  27.017  1.00  0.00     0.116 C 
BRANCH   2   3
ATOM      3  N   UNL A   1      33.534  20.561  26.392  1.00  0.00    -0.351 N 
ATOM      4  C   UNL A   1      32.643  20.599  25.343  1.00  0.00     0.270 C 
ATOM      5  O   UNL A   1      32.070  19.533  25.098  1.00  0.00    -0.268 OA
ATOM      6  H   UNL A   1      33.611  19.670  26.804  1.00  0.00     0.163 HD
BRANCH   4   7
ATOM      7  C   UNL A   1      32.365  21.811  24.488  1.00  0.00     0.131 A 
ATOM      8  C   UNL A   1      31.165  23.744  23.779  1.00  0.00     0.131 A 
ATOM      9  C   UNL A   1      32.171  24.048  22.875  1.00  0.00     0.067 A 
ATOM     10  C   UNL A   1      31.238  22.609  24.584  1.00  0.00     0.081 A 
ATOM     11  C   UNL A   1      33.224  23.165  22.791  1.00  0.00     0.116 A 
ATOM     12  N   UNL A   1      33.343  22.074  23.576  1.00  0.00    -0.251 NA
BRANCH   8  13
ATOM     13  O   UNL A   1      30.137  24.631  23.983  1.00  0.00    -0.457 OA
BRANCH  13  14
ATOM     14  C   UNL A   1      30.442  25.953  24.213  1.00  0.00     0.128 A 
ATOM     15  C   UNL A   1      30.585  29.379  22.584  1.00  0.00     0.046 C 
ATOM     16  C   UNL A   1      30.697  28.301  23.627  1.00  0.00    -0.028 A 
ATOM     17  C   UNL A   1      30.323  26.989  23.287  1.00  0.00     0.052 A 
ATOM     18  C   UNL A   1      31.188  28.562  24.922  1.00  0.00     0.047 A 
ATOM     19  C   UNL A   1      31.295  27.527  25.870  1.00  0.00    -0.028 A 
ATOM     20  Cl  UNL A   1      31.675  30.171  25.348  1.00  0.00    -0.084 Cl
ATOM     21  C   UNL A   1      30.928  26.226  25.494  1.00  0.00     0.052 A 
ATOM     22  C   UNL A   1      31.814  27.765  27.262  1.00  0.00     0.046 C 
ENDBRANCH  13  14
ENDBRANCH   8  13
ENDBRANCH   4   7
ENDBRANCH   2   3
ENDBRANCH   1   2
BRANCH   1  23
ATOM     23  C   UNL A   1      35.954  23.282  25.941  1.00  0.00     0.023 C 
BRANCH  23  24
ATOM     24  C   UNL A   1      37.222  23.555  25.135  1.00  0.00     0.116 C 
BRANCH  24  25
ATOM     25  N   UNL A   1      38.322  22.661  25.462  1.00  0.00    -0.352 N 
ATOM     26  C   UNL A   1      39.445  22.929  26.210  1.00  0.00     0.251 C 
ATOM     27  H   UNL A   1      38.254  21.748  25.101  1.00  0.00     0.163 HD
ATOM     28  O   UNL A   1      40.331  22.096  26.327  1.00  0.00    -0.269 OA
BRANCH  26  29
ATOM     29  C   UNL A   1      39.586  24.261  26.833  1.00  0.00     0.039 A 
ATOM     30  C   UNL A   1      39.073  24.458  28.116  1.00  0.00     0.014 A 
ATOM     31  C   UNL A   1      40.266  25.286  26.172  1.00  0.00     0.014 A 
ATOM     32  C   UNL A   1      39.308  25.668  28.771  1.00  0.00     0.010 A 
ATOM     33  C   UNL A   1      40.550  26.467  26.848  1.00  0.00     0.010 A 
ATOM     34  C   UNL A   1      40.083  26.665  28.156  1.00  0.00    -0.014 A 
BRANCH  34  35
ATOM     35  C   UNL A   1      40.427  27.920  28.863  1.00  0.00     0.031 A 
ATOM     36  C   UNL A   1      41.752  28.052  29.558  1.00  0.00     0.074 A 
ATOM     37  C   UNL A   1      39.517  28.909  28.949  1.00  0.00     0.049 A 
ATOM     38  N   UNL A   1      42.197  29.027  30.309  1.00  0.00    -0.248 NA
ATOM     39  C   UNL A   1      42.689  26.927  29.412  1.00  0.00     0.031 C 
ATOM     40  C   UNL A   1      38.183  28.890  28.345  1.00  0.00     0.029 A 
ATOM     41  N   UNL A   1      39.575  30.121  29.590  1.00  0.00    -0.354 N 
ATOM     42  C   UNL A   1      43.455  28.624  30.740  1.00  0.00     0.074 A 
ATOM     43  C   UNL A   1      43.683  27.300  30.205  1.00  0.00     0.031 C 
ATOM     44  C   UNL A   1      37.558  30.046  28.625  1.00  0.00     0.029 A 
ATOM     45  C   UNL A   1      38.429  30.868  29.459  1.00  0.00     0.049 A 
ATOM     46  H   UNL A   1      40.362  30.426  30.095  1.00  0.00     0.167 HD
ATOM     47  C   UNL A   1      44.346  29.302  31.501  1.00  0.00     0.031 A 
ATOM     48  C   UNL A   1      38.113  32.076  29.962  1.00  0.00     0.031 A 
ATOM     49  C   UNL A   1      44.126  30.624  32.022  1.00  0.00     0.049 A 
ATOM     50  C   UNL A   1      39.114  32.802  30.816  1.00  0.00     0.074 A 
ATOM     51  C   UNL A   1      44.988  31.415  32.760  1.00  0.00     0.029 A 
ATOM     52  N   UNL A   1      42.956  31.349  31.859  1.00  0.00    -0.354 N 
ATOM     53  N   UNL A   1      40.320  32.430  31.171  1.00  0.00    -0.248 NA
ATOM     54  C   UNL A   1      38.711  34.118  31.332  1.00  0.00     0.031 C 
ATOM     55  C   UNL A   1      44.325  32.605  33.077  1.00  0.00     0.029 A 
ATOM     56  C   UNL A   1      43.067  32.572  32.497  1.00  0.00     0.049 A 
ATOM     57  H   UNL A   1      42.163  31.039  31.364  1.00  0.00     0.167 HD
ATOM     58  C   UNL A   1      40.830  33.477  31.926  1.00  0.00     0.074 A 
ATOM     59  C   UNL A   1      39.807  34.501  31.972  1.00  0.00     0.031 C 
ATOM     60  C   UNL A   1      42.040  33.581  32.528  1.00  0.00     0.031 A 
BRANCH  47  61
ATOM     61  C   UNL A   1      45.643  28.613  31.814  1.00  0.00    -0.014 A 
ATOM     62  C   UNL A   1      46.755  28.736  30.966  1.00  0.00     0.009 A 
ATOM     63  C   UNL A   1      45.762  27.843  32.983  1.00  0.00     0.009 A 
ATOM     64  C   UNL A   1      47.946  28.071  31.259  1.00  0.00     0.001 A 
ATOM     65  C   UNL A   1      46.963  27.201  33.287  1.00  0.00     0.001 A 
ATOM     66  C   UNL A   1      48.051  27.306  32.420  1.00  0.00     0.000 A 
ENDBRANCH  47  61
BRANCH  48  67
ATOM     67  C   UNL A   1      36.795  32.689  29.653  1.00  0.00    -0.014 A 
ATOM     68  C   UNL A   1      35.730  32.563  30.557  1.00  0.00     0.009 A 
ATOM     69  C   UNL A   1      36.596  33.396  28.458  1.00  0.00     0.009 A 
ATOM     70  C   UNL A   1      34.481  33.116  30.260  1.00  0.00     0.001 A 
ATOM     71  C   UNL A   1      35.353  33.968  28.175  1.00  0.00     0.001 A 
ATOM     72  C   UNL A   1      34.295  33.821  29.071  1.00  0.00     0.000 A 
ENDBRANCH  48  67
BRANCH  60  73
ATOM     73  C   UNL A   1      42.339  34.862  33.252  1.00  0.00    -0.014 A 
ATOM     74  C   UNL A   1      43.048  35.900  32.631  1.00  0.00     0.009 A 
ATOM     75  C   UNL A   1      41.861  35.046  34.559  1.00  0.00     0.009 A 
ATOM     76  C   UNL A   1      43.293  37.092  33.315  1.00  0.00     0.001 A 
ATOM     77  C   UNL A   1      42.087  36.247  35.231  1.00  0.00     0.001 A 
ATOM     78  C   UNL A   1      42.808  37.266  34.611  1.00  0.00     0.000 A 
ENDBRANCH  60  73
ENDBRANCH  34  35
ENDBRANCH  26  29
ENDBRANCH  24  25
ENDBRANCH  23  24
ENDBRANCH   1  23
TORSDOF 13
ENDMDL
