MODEL 1
REMARK VINA RESULT:     -11.5      0.000      0.000
REMARK SMILES CC(=O)N[C@H](CSCC(=O)Nc1ccc2c(c1)N1CC[NH+]=C1S2)C(=O)NCCCCNC(=O)c1ccc(-c2c3nc(c(-c4ccccc4)c4ccc([nH]4)c(-c4ccccc4)c4nc(c(-c5ccccc5)c5ccc2[nH]5)C=C4)C=C3)cc1
REMARK SMILES IDX 27 1 26 2 24 3 25 4 5 6 4 7 1 8 2 9 3 10 6 12 7 13 8 14 9 15
REMARK SMILES IDX 10 16 11 17 12 19 13 20 17 21 14 22 16 23 15 24 18 25 23 26
REMARK SMILES IDX 19 27 22 28 20 29 21 30 28 32 29 33 30 34 31 35 32 36 33 38
REMARK SMILES IDX 34 39 35 40 81 41 36 42 80 43 37 44 38 45 39 46 74 47 40 48
REMARK SMILES IDX 79 49 73 50 75 51 41 52 78 53 72 54 71 55 42 57 64 58 49 59
REMARK SMILES IDX 63 60 50 61 53 62 62 63 76 64 51 65 52 66 61 68 77 69 54 70
REMARK SMILES IDX 43 71 44 72 48 73 45 74 47 75 46 76 65 77 66 78 70 79 67 80
REMARK SMILES IDX 69 81 68 82 55 83 56 84 60 85 57 86 59 87 58 88
REMARK H PARENT 26 5 4 11 11 18 21 31 31 37 75 56 53 67
REMARK Flexibility Score: inf
ROOT
ATOM      1  C   UNL A   1      35.447  23.097  25.019  1.00  0.00     0.116 C 
ENDROOT
BRANCH   1   2
ATOM      2  N   UNL A   1      34.969  22.554  26.279  1.00  0.00    -0.354 N 
ATOM      3  C   UNL A   1      33.739  22.114  26.678  1.00  0.00     0.243 C 
ATOM      4  O   UNL A   1      33.640  21.661  27.822  1.00  0.00    -0.273 OA
ATOM      5  H   UNL A   1      35.661  22.492  26.977  1.00  0.00     0.163 HD
BRANCH   3   6
ATOM      6  C   UNL A   1      32.507  22.185  25.755  1.00  0.00     0.181 C 
BRANCH   6   7
ATOM      7  N   UNL A   1      31.319  22.317  26.612  1.00  0.00    -0.344 N 
ATOM      8  C   UNL A   1      30.726  24.638  26.027  1.00  0.00     0.114 C 
ATOM      9  C   UNL A   1      30.479  23.369  26.789  1.00  0.00     0.217 C 
ATOM     10  O   UNL A   1      29.530  23.245  27.560  1.00  0.00    -0.275 OA
ATOM     11  H   UNL A   1      31.100  21.517  27.142  1.00  0.00     0.164 HD
ENDBRANCH   6   7
BRANCH   6  12
ATOM     12  C   UNL A   1      32.414  21.009  24.769  1.00  0.00     0.105 C 
BRANCH  12  13
ATOM     13  S   UNL A   1      32.100  21.501  23.031  1.00  0.00    -0.149 SA
BRANCH  13  14
ATOM     14  C   UNL A   1      32.370  23.282  23.063  1.00  0.00     0.169 C 
BRANCH  14  15
ATOM     15  C   UNL A   1      33.142  23.859  21.887  1.00  0.00     0.234 C 
ATOM     16  O   UNL A   1      33.612  23.112  21.024  1.00  0.00    -0.274 OA
ATOM     17  N   UNL A   1      33.192  25.215  21.684  1.00  0.00    -0.325 N 
ATOM     18  H   UNL A   1      33.432  25.505  20.774  1.00  0.00     0.169 HD
BRANCH  17  19
ATOM     19  C   UNL A   1      32.944  26.237  22.606  1.00  0.00     0.045 A 
ATOM     20  C   UNL A   1      33.579  26.242  23.860  1.00  0.00     0.027 A 
ATOM     21  C   UNL A   1      32.096  27.283  22.234  1.00  0.00     0.079 A 
ATOM     22  C   UNL A   1      33.293  27.222  24.810  1.00  0.00     0.022 A 
ATOM     23  C   UNL A   1      31.776  28.239  23.183  1.00  0.00     0.144 A 
ATOM     24  C   UNL A   1      32.373  28.192  24.467  1.00  0.00     0.067 A 
ATOM     25  N   UNL A   1      30.859  29.249  23.075  1.00  0.00    -0.216 N 
ATOM     26  S   UNL A   1      31.721  29.506  25.509  1.00  0.00     0.002 SA
ATOM     27  C   UNL A   1      30.050  29.763  22.019  1.00  0.00     0.289 C 
ATOM     28  C   UNL A   1      30.652  29.973  24.209  1.00  0.00     0.316 C 
ATOM     29  C   UNL A   1      29.113  30.687  22.838  1.00  0.00     0.280 C 
ATOM     30  N   UNL A   1      29.720  30.879  24.210  1.00  0.00    -0.264 N 
ATOM     31  H   UNL A   1      29.474  31.518  24.916  1.00  0.00     0.305 HD
ENDBRANCH  17  19
ENDBRANCH  14  15
ENDBRANCH  13  14
ENDBRANCH  12  13
ENDBRANCH   6  12
ENDBRANCH   3   6
ENDBRANCH   1   2
BRANCH   1  32
ATOM     32  C   UNL A   1      36.348  22.153  24.220  1.00  0.00     0.023 C 
BRANCH  32  33
ATOM     33  C   UNL A   1      36.946  20.980  24.995  1.00  0.00     0.023 C 
BRANCH  33  34
ATOM     34  C   UNL A   1      38.358  21.199  25.513  1.00  0.00     0.116 C 
BRANCH  34  35
ATOM     35  N   UNL A   1      39.191  20.006  25.483  1.00  0.00    -0.352 N 
ATOM     36  C   UNL A   1      40.487  19.849  25.932  1.00  0.00     0.251 C 
ATOM     37  H   UNL A   1      38.774  19.204  25.093  1.00  0.00     0.163 HD
ATOM     38  O   UNL A   1      41.076  18.795  25.768  1.00  0.00    -0.269 OA
BRANCH  36  39
ATOM     39  C   UNL A   1      41.174  21.003  26.559  1.00  0.00     0.039 A 
ATOM     40  C   UNL A   1      41.130  21.192  27.940  1.00  0.00     0.014 A 
ATOM     41  C   UNL A   1      41.804  21.943  25.738  1.00  0.00     0.014 A 
ATOM     42  C   UNL A   1      41.531  22.409  28.475  1.00  0.00     0.010 A 
ATOM     43  C   UNL A   1      42.296  23.126  26.295  1.00  0.00     0.010 A 
ATOM     44  C   UNL A   1      42.105  23.398  27.659  1.00  0.00    -0.014 A 
BRANCH  44  45
ATOM     45  C   UNL A   1      42.460  24.712  28.253  1.00  0.00     0.031 A 
ATOM     46  C   UNL A   1      43.897  25.062  28.546  1.00  0.00     0.074 A 
ATOM     47  C   UNL A   1      41.492  25.629  28.447  1.00  0.00     0.049 A 
ATOM     48  N   UNL A   1      44.391  26.184  29.008  1.00  0.00    -0.248 NA
ATOM     49  C   UNL A   1      44.911  24.025  28.291  1.00  0.00     0.031 C 
ATOM     50  C   UNL A   1      40.069  25.419  28.173  1.00  0.00     0.029 A 
ATOM     51  N   UNL A   1      41.560  26.932  28.874  1.00  0.00    -0.354 N 
ATOM     52  C   UNL A   1      45.762  25.982  29.114  1.00  0.00     0.074 A 
ATOM     53  C   UNL A   1      46.023  24.622  28.699  1.00  0.00     0.031 C 
ATOM     54  C   UNL A   1      39.412  26.572  28.366  1.00  0.00     0.029 A 
ATOM     55  C   UNL A   1      40.350  27.581  28.846  1.00  0.00     0.049 A 
ATOM     56  H   UNL A   1      42.396  27.358  29.173  1.00  0.00     0.167 HD
ATOM     57  C   UNL A   1      46.718  26.855  29.511  1.00  0.00     0.031 A 
ATOM     58  C   UNL A   1      40.024  28.847  29.170  1.00  0.00     0.031 A 
ATOM     59  C   UNL A   1      46.460  28.214  29.907  1.00  0.00     0.049 A 
ATOM     60  C   UNL A   1      41.098  29.782  29.645  1.00  0.00     0.074 A 
ATOM     61  C   UNL A   1      47.368  29.172  30.325  1.00  0.00     0.029 A 
ATOM     62  N   UNL A   1      45.210  28.809  29.928  1.00  0.00    -0.354 N 
ATOM     63  N   UNL A   1      42.387  29.569  29.748  1.00  0.00    -0.248 NA
ATOM     64  C   UNL A   1      40.675  31.130  30.049  1.00  0.00     0.031 C 
ATOM     65  C   UNL A   1      46.660  30.332  30.646  1.00  0.00     0.029 A 
ATOM     66  C   UNL A   1      45.321  30.117  30.366  1.00  0.00     0.049 A 
ATOM     67  H   UNL A   1      44.367  28.368  29.669  1.00  0.00     0.167 HD
ATOM     68  C   UNL A   1      42.932  30.759  30.211  1.00  0.00     0.074 A 
ATOM     69  C   UNL A   1      41.837  31.696  30.352  1.00  0.00     0.031 C 
ATOM     70  C   UNL A   1      44.225  31.044  30.496  1.00  0.00     0.031 A 
BRANCH  57  71
ATOM     71  C   UNL A   1      48.143  26.378  29.547  1.00  0.00    -0.014 A 
ATOM     72  C   UNL A   1      48.661  25.818  30.728  1.00  0.00     0.009 A 
ATOM     73  C   UNL A   1      49.003  26.569  28.454  1.00  0.00     0.009 A 
ATOM     74  C   UNL A   1      50.011  25.475  30.819  1.00  0.00     0.001 A 
ATOM     75  C   UNL A   1      50.348  26.198  28.540  1.00  0.00     0.001 A 
ATOM     76  C   UNL A   1      50.853  25.662  29.723  1.00  0.00     0.000 A 
ENDBRANCH  57  71
BRANCH  58  77
ATOM     77  C   UNL A   1      38.612  29.295  29.037  1.00  0.00    -0.014 A 
ATOM     78  C   UNL A   1      37.743  29.253  30.140  1.00  0.00     0.009 A 
ATOM     79  C   UNL A   1      38.112  29.717  27.797  1.00  0.00     0.009 A 
ATOM     80  C   UNL A   1      36.398  29.596  29.998  1.00  0.00     0.001 A 
ATOM     81  C   UNL A   1      36.773  30.092  27.665  1.00  0.00     0.001 A 
ATOM     82  C   UNL A   1      35.915  30.021  28.762  1.00  0.00     0.000 A 
ENDBRANCH  58  77
BRANCH  70  83
ATOM     83  C   UNL A   1      44.553  32.432  30.967  1.00  0.00    -0.014 A 
ATOM     84  C   UNL A   1      44.982  33.396  30.041  1.00  0.00     0.009 A 
ATOM     85  C   UNL A   1      44.542  32.755  32.332  1.00  0.00     0.009 A 
ATOM     86  C   UNL A   1      45.411  34.651  30.472  1.00  0.00     0.001 A 
ATOM     87  C   UNL A   1      44.947  34.022  32.758  1.00  0.00     0.001 A 
ATOM     88  C   UNL A   1      45.390  34.964  31.830  1.00  0.00     0.000 A 
ENDBRANCH  70  83
ENDBRANCH  44  45
ENDBRANCH  36  39
ENDBRANCH  34  35
ENDBRANCH  33  34
ENDBRANCH  32  33
ENDBRANCH   1  32
TORSDOF 17
ENDMDL
MODEL 2
REMARK VINA RESULT:     -11.4      2.491      6.768
REMARK SMILES CC(=O)N[C@H](CSCC(=O)Nc1ccc2c(c1)N1CC[NH+]=C1S2)C(=O)NCCCCNC(=O)c1ccc(-c2c3nc(c(-c4ccccc4)c4ccc([nH]4)c(-c4ccccc4)c4nc(c(-c5ccccc5)c5ccc2[nH]5)C=C4)C=C3)cc1
REMARK SMILES IDX 27 1 26 2 24 3 25 4 5 6 4 7 1 8 2 9 3 10 6 12 7 13 8 14 9 15
REMARK SMILES IDX 10 16 11 17 12 19 13 20 17 21 14 22 16 23 15 24 18 25 23 26
REMARK SMILES IDX 19 27 22 28 20 29 21 30 28 32 29 33 30 34 31 35 32 36 33 38
REMARK SMILES IDX 34 39 35 40 81 41 36 42 80 43 37 44 38 45 39 46 74 47 40 48
REMARK SMILES IDX 79 49 73 50 75 51 41 52 78 53 72 54 71 55 42 57 64 58 49 59
REMARK SMILES IDX 63 60 50 61 53 62 62 63 76 64 51 65 52 66 61 68 77 69 54 70
REMARK SMILES IDX 43 71 44 72 48 73 45 74 47 75 46 76 65 77 66 78 70 79 67 80
REMARK SMILES IDX 69 81 68 82 55 83 56 84 60 85 57 86 59 87 58 88
REMARK H PARENT 26 5 4 11 11 18 21 31 31 37 75 56 53 67
REMARK Flexibility Score: inf
ROOT
ATOM      1  C   UNL A   1      35.229  21.395  25.867  1.00  0.00     0.116 C 
ENDROOT
BRANCH   1   2
ATOM      2  N   UNL A   1      34.145  20.437  25.721  1.00  0.00    -0.354 N 
ATOM      3  C   UNL A   1      32.821  20.594  25.424  1.00  0.00     0.243 C 
ATOM      4  O   UNL A   1      32.135  19.571  25.328  1.00  0.00    -0.273 OA
ATOM      5  H   UNL A   1      34.415  19.501  25.863  1.00  0.00     0.163 HD
BRANCH   3   6
ATOM      6  C   UNL A   1      32.186  21.983  25.228  1.00  0.00     0.181 C 
BRANCH   6   7
ATOM      7  N   UNL A   1      31.069  22.098  26.177  1.00  0.00    -0.344 N 
ATOM      8  C   UNL A   1      31.170  24.534  26.541  1.00  0.00     0.114 C 
ATOM      9  C   UNL A   1      30.559  23.189  26.803  1.00  0.00     0.217 C 
ATOM     10  O   UNL A   1      29.599  23.044  27.557  1.00  0.00    -0.275 OA
ATOM     11  H   UNL A   1      30.621  21.248  26.393  1.00  0.00     0.164 HD
ENDBRANCH   6   7
BRANCH   6  12
ATOM     12  C   UNL A   1      31.776  22.267  23.773  1.00  0.00     0.105 C 
BRANCH  12  13
ATOM     13  S   UNL A   1      33.019  23.205  22.805  1.00  0.00    -0.149 SA
BRANCH  13  14
ATOM     14  C   UNL A   1      32.350  24.878  22.807  1.00  0.00     0.169 C 
BRANCH  14  15
ATOM     15  C   UNL A   1      32.761  25.760  21.639  1.00  0.00     0.234 C 
ATOM     16  O   UNL A   1      33.271  25.261  20.631  1.00  0.00    -0.274 OA
ATOM     17  N   UNL A   1      32.430  27.091  21.620  1.00  0.00    -0.325 N 
ATOM     18  H   UNL A   1      32.447  27.527  20.737  1.00  0.00     0.169 HD
BRANCH  17  19
ATOM     19  C   UNL A   1      32.071  27.908  22.697  1.00  0.00     0.045 A 
ATOM     20  C   UNL A   1      30.867  28.635  22.676  1.00  0.00     0.027 A 
ATOM     21  C   UNL A   1      32.903  27.944  23.818  1.00  0.00     0.079 A 
ATOM     22  C   UNL A   1      30.528  29.499  23.716  1.00  0.00     0.022 A 
ATOM     23  C   UNL A   1      32.595  28.828  24.838  1.00  0.00     0.144 A 
ATOM     24  C   UNL A   1      31.413  29.604  24.770  1.00  0.00     0.067 A 
ATOM     25  N   UNL A   1      33.349  29.125  25.940  1.00  0.00    -0.216 N 
ATOM     26  S   UNL A   1      31.307  30.709  26.187  1.00  0.00     0.002 SA
ATOM     27  C   UNL A   1      34.554  28.611  26.503  1.00  0.00     0.289 C 
ATOM     28  C   UNL A   1      32.865  30.128  26.724  1.00  0.00     0.316 C 
ATOM     29  C   UNL A   1      34.837  29.712  27.557  1.00  0.00     0.280 C 
ATOM     30  N   UNL A   1      33.582  30.536  27.729  1.00  0.00    -0.264 N 
ATOM     31  H   UNL A   1      33.364  31.204  28.418  1.00  0.00     0.305 HD
ENDBRANCH  17  19
ENDBRANCH  14  15
ENDBRANCH  13  14
ENDBRANCH  12  13
ENDBRANCH   6  12
ENDBRANCH   3   6
ENDBRANCH   1   2
BRANCH   1  32
ATOM     32  C   UNL A   1      36.093  21.573  24.615  1.00  0.00     0.023 C 
BRANCH  32  33
ATOM     33  C   UNL A   1      36.580  22.992  24.332  1.00  0.00     0.023 C 
BRANCH  33  34
ATOM     34  C   UNL A   1      37.502  23.584  25.387  1.00  0.00     0.116 C 
BRANCH  34  35
ATOM     35  N   UNL A   1      38.717  22.816  25.607  1.00  0.00    -0.352 N 
ATOM     36  C   UNL A   1      39.861  23.188  26.286  1.00  0.00     0.251 C 
ATOM     37  H   UNL A   1      38.725  21.909  25.222  1.00  0.00     0.163 HD
ATOM     38  O   UNL A   1      40.829  22.449  26.320  1.00  0.00    -0.269 OA
BRANCH  36  39
ATOM     39  C   UNL A   1      39.915  24.527  26.919  1.00  0.00     0.039 A 
ATOM     40  C   UNL A   1      40.593  25.579  26.304  1.00  0.00     0.014 A 
ATOM     41  C   UNL A   1      39.338  24.702  28.180  1.00  0.00     0.014 A 
ATOM     42  C   UNL A   1      40.870  26.729  27.030  1.00  0.00     0.010 A 
ATOM     43  C   UNL A   1      39.537  25.901  28.870  1.00  0.00     0.010 A 
ATOM     44  C   UNL A   1      40.359  26.900  28.327  1.00  0.00    -0.014 A 
BRANCH  44  45
ATOM     45  C   UNL A   1      40.732  28.113  29.099  1.00  0.00     0.031 A 
ATOM     46  C   UNL A   1      39.747  29.239  29.287  1.00  0.00     0.074 A 
ATOM     47  C   UNL A   1      41.932  28.162  29.709  1.00  0.00     0.049 A 
ATOM     48  N   UNL A   1      39.884  30.343  29.979  1.00  0.00    -0.248 NA
ATOM     49  C   UNL A   1      38.443  29.116  28.614  1.00  0.00     0.031 C 
ATOM     50  C   UNL A   1      42.959  27.121  29.627  1.00  0.00     0.029 A 
ATOM     51  N   UNL A   1      42.475  29.099  30.551  1.00  0.00    -0.354 N 
ATOM     52  C   UNL A   1      38.698  31.048  29.811  1.00  0.00     0.074 A 
ATOM     53  C   UNL A   1      37.862  30.267  28.928  1.00  0.00     0.031 C 
ATOM     54  C   UNL A   1      43.972  27.440  30.445  1.00  0.00     0.029 A 
ATOM     55  C   UNL A   1      43.702  28.738  31.054  1.00  0.00     0.049 A 
ATOM     56  H   UNL A   1      42.029  29.948  30.774  1.00  0.00     0.167 HD
ATOM     57  C   UNL A   1      38.335  32.234  30.354  1.00  0.00     0.031 A 
ATOM     58  C   UNL A   1      44.525  29.378  31.906  1.00  0.00     0.031 A 
ATOM     59  C   UNL A   1      39.160  33.004  31.246  1.00  0.00     0.049 A 
ATOM     60  C   UNL A   1      44.115  30.710  32.462  1.00  0.00     0.074 A 
ATOM     61  C   UNL A   1      38.874  34.218  31.846  1.00  0.00     0.029 A 
ATOM     62  N   UNL A   1      40.424  32.632  31.674  1.00  0.00    -0.354 N 
ATOM     63  N   UNL A   1      42.993  31.366  32.283  1.00  0.00    -0.248 NA
ATOM     64  C   UNL A   1      45.079  31.393  33.335  1.00  0.00     0.031 C 
ATOM     65  C   UNL A   1      39.986  34.606  32.597  1.00  0.00     0.029 A 
ATOM     66  C   UNL A   1      40.937  33.603  32.518  1.00  0.00     0.049 A 
ATOM     67  H   UNL A   1      40.888  31.802  31.418  1.00  0.00     0.167 HD
ATOM     68  C   UNL A   1      43.110  32.528  33.034  1.00  0.00     0.074 A 
ATOM     69  C   UNL A   1      44.402  32.480  33.684  1.00  0.00     0.031 C 
ATOM     70  C   UNL A   1      42.222  33.542  33.166  1.00  0.00     0.031 A 
BRANCH  57  71
ATOM     71  C   UNL A   1      36.985  32.793  29.999  1.00  0.00    -0.014 A 
ATOM     72  C   UNL A   1      35.880  32.521  30.823  1.00  0.00     0.009 A 
ATOM     73  C   UNL A   1      36.781  33.502  28.805  1.00  0.00     0.009 A 
ATOM     74  C   UNL A   1      34.598  32.932  30.451  1.00  0.00     0.001 A 
ATOM     75  C   UNL A   1      35.501  33.936  28.450  1.00  0.00     0.001 A 
ATOM     76  C   UNL A   1      34.411  33.642  29.267  1.00  0.00     0.000 A 
ENDBRANCH  57  71
BRANCH  58  77
ATOM     77  C   UNL A   1      45.814  28.744  32.291  1.00  0.00    -0.014 A 
ATOM     78  C   UNL A   1      46.935  28.838  31.450  1.00  0.00     0.009 A 
ATOM     79  C   UNL A   1      45.917  27.999  33.475  1.00  0.00     0.009 A 
ATOM     80  C   UNL A   1      48.122  28.177  31.770  1.00  0.00     0.001 A 
ATOM     81  C   UNL A   1      47.117  27.366  33.810  1.00  0.00     0.001 A 
ATOM     82  C   UNL A   1      48.214  27.446  32.953  1.00  0.00     0.000 A 
ENDBRANCH  58  77
BRANCH  70  83
ATOM     83  C   UNL A   1      42.591  34.686  34.067  1.00  0.00    -0.014 A 
ATOM     84  C   UNL A   1      42.200  34.663  35.414  1.00  0.00     0.009 A 
ATOM     85  C   UNL A   1      43.226  35.831  33.561  1.00  0.00     0.009 A 
ATOM     86  C   UNL A   1      42.420  35.768  36.237  1.00  0.00     0.001 A 
ATOM     87  C   UNL A   1      43.470  36.925  34.393  1.00  0.00     0.001 A 
ATOM     88  C   UNL A   1      43.059  36.897  35.726  1.00  0.00     0.000 A 
ENDBRANCH  70  83
ENDBRANCH  44  45
ENDBRANCH  36  39
ENDBRANCH  34  35
ENDBRANCH  33  34
ENDBRANCH  32  33
ENDBRANCH   1  32
TORSDOF 17
ENDMDL
MODEL 3
REMARK VINA RESULT:     -10.8      0.453      5.668
REMARK SMILES CC(=O)N[C@H](CSCC(=O)Nc1ccc2c(c1)N1CC[NH+]=C1S2)C(=O)NCCCCNC(=O)c1ccc(-c2c3nc(c(-c4ccccc4)c4ccc([nH]4)c(-c4ccccc4)c4nc(c(-c5ccccc5)c5ccc2[nH]5)C=C4)C=C3)cc1
REMARK SMILES IDX 27 1 26 2 24 3 25 4 5 6 4 7 1 8 2 9 3 10 6 12 7 13 8 14 9 15
REMARK SMILES IDX 10 16 11 17 12 19 13 20 17 21 14 22 16 23 15 24 18 25 23 26
REMARK SMILES IDX 19 27 22 28 20 29 21 30 28 32 29 33 30 34 31 35 32 36 33 38
REMARK SMILES IDX 34 39 35 40 81 41 36 42 80 43 37 44 38 45 39 46 74 47 40 48
REMARK SMILES IDX 79 49 73 50 75 51 41 52 78 53 72 54 71 55 42 57 64 58 49 59
REMARK SMILES IDX 63 60 50 61 53 62 62 63 76 64 51 65 52 66 61 68 77 69 54 70
REMARK SMILES IDX 43 71 44 72 48 73 45 74 47 75 46 76 65 77 66 78 70 79 67 80
REMARK SMILES IDX 69 81 68 82 55 83 56 84 60 85 57 86 59 87 58 88
REMARK H PARENT 26 5 4 11 11 18 21 31 31 37 75 56 53 67
REMARK Flexibility Score: inf
ROOT
ATOM      1  C   UNL A   1      35.812  23.174  25.491  1.00  0.00     0.116 C 
ENDROOT
BRANCH   1   2
ATOM      2  N   UNL A   1      35.259  22.396  26.587  1.00  0.00    -0.354 N 
ATOM      3  C   UNL A   1      33.993  21.953  26.846  1.00  0.00     0.243 C 
ATOM      4  O   UNL A   1      33.827  21.266  27.858  1.00  0.00    -0.273 OA
ATOM      5  H   UNL A   1      35.919  22.141  27.271  1.00  0.00     0.163 HD
BRANCH   3   6
ATOM      6  C   UNL A   1      32.802  22.299  25.931  1.00  0.00     0.181 C 
BRANCH   6   7
ATOM      7  N   UNL A   1      31.654  22.606  26.796  1.00  0.00    -0.344 N 
ATOM      8  C   UNL A   1      30.692  24.441  25.459  1.00  0.00     0.114 C 
ATOM      9  C   UNL A   1      30.676  23.538  26.657  1.00  0.00     0.217 C 
ATOM     10  O   UNL A   1      29.797  23.605  27.513  1.00  0.00    -0.275 OA
ATOM     11  H   UNL A   1      31.583  22.047  27.604  1.00  0.00     0.164 HD
ENDBRANCH   6   7
BRANCH   6  12
ATOM     12  C   UNL A   1      32.501  21.213  24.885  1.00  0.00     0.105 C 
BRANCH  12  13
ATOM     13  S   UNL A   1      33.174  21.560  23.216  1.00  0.00    -0.149 SA
BRANCH  13  14
ATOM     14  C   UNL A   1      32.980  23.345  23.068  1.00  0.00     0.169 C 
BRANCH  14  15
ATOM     15  C   UNL A   1      33.072  23.910  21.660  1.00  0.00     0.234 C 
ATOM     16  O   UNL A   1      33.350  23.172  20.710  1.00  0.00    -0.274 OA
ATOM     17  N   UNL A   1      32.695  25.203  21.401  1.00  0.00    -0.325 N 
ATOM     18  H   UNL A   1      32.488  25.412  20.462  1.00  0.00     0.169 HD
BRANCH  17  19
ATOM     19  C   UNL A   1      32.567  26.264  22.305  1.00  0.00     0.045 A 
ATOM     20  C   UNL A   1      33.354  26.314  23.469  1.00  0.00     0.027 A 
ATOM     21  C   UNL A   1      31.682  27.300  22.000  1.00  0.00     0.079 A 
ATOM     22  C   UNL A   1      33.192  27.334  24.406  1.00  0.00     0.022 A 
ATOM     23  C   UNL A   1      31.485  28.296  22.942  1.00  0.00     0.144 A 
ATOM     24  C   UNL A   1      32.238  28.295  24.141  1.00  0.00     0.067 A 
ATOM     25  N   UNL A   1      30.564  29.307  22.908  1.00  0.00    -0.216 N 
ATOM     26  S   UNL A   1      31.725  29.655  25.203  1.00  0.00     0.002 SA
ATOM     27  C   UNL A   1      29.630  29.784  21.941  1.00  0.00     0.289 C 
ATOM     28  C   UNL A   1      30.502  30.078  24.028  1.00  0.00     0.316 C 
ATOM     29  C   UNL A   1      28.805  30.747  22.833  1.00  0.00     0.280 C 
ATOM     30  N   UNL A   1      29.579  30.989  24.109  1.00  0.00    -0.264 N 
ATOM     31  H   UNL A   1      29.426  31.658  24.814  1.00  0.00     0.305 HD
ENDBRANCH  17  19
ENDBRANCH  14  15
ENDBRANCH  13  14
ENDBRANCH  12  13
ENDBRANCH   6  12
ENDBRANCH   3   6
ENDBRANCH   1   2
BRANCH   1  32
ATOM     32  C   UNL A   1      36.591  22.355  24.459  1.00  0.00     0.023 C 
BRANCH  32  33
ATOM     33  C   UNL A   1      37.215  21.056  24.965  1.00  0.00     0.023 C 
BRANCH  33  34
ATOM     34  C   UNL A   1      38.539  21.217  25.696  1.00  0.00     0.116 C 
BRANCH  34  35
ATOM     35  N   UNL A   1      39.388  20.037  25.648  1.00  0.00    -0.352 N 
ATOM     36  C   UNL A   1      40.710  19.909  26.027  1.00  0.00     0.251 C 
ATOM     37  H   UNL A   1      38.963  19.219  25.299  1.00  0.00     0.163 HD
ATOM     38  O   UNL A   1      41.306  18.860  25.855  1.00  0.00    -0.269 OA
BRANCH  36  39
ATOM     39  C   UNL A   1      41.411  21.088  26.589  1.00  0.00     0.039 A 
ATOM     40  C   UNL A   1      41.336  21.379  27.951  1.00  0.00     0.014 A 
ATOM     41  C   UNL A   1      42.088  21.949  25.721  1.00  0.00     0.014 A 
ATOM     42  C   UNL A   1      41.756  22.621  28.408  1.00  0.00     0.010 A 
ATOM     43  C   UNL A   1      42.598  23.157  26.205  1.00  0.00     0.010 A 
ATOM     44  C   UNL A   1      42.378  23.532  27.539  1.00  0.00    -0.014 A 
BRANCH  44  45
ATOM     45  C   UNL A   1      42.754  24.877  28.046  1.00  0.00     0.031 A 
ATOM     46  C   UNL A   1      41.705  25.935  28.274  1.00  0.00     0.074 A 
ATOM     47  C   UNL A   1      44.035  25.116  28.388  1.00  0.00     0.049 A 
ATOM     48  N   UNL A   1      41.848  27.141  28.766  1.00  0.00    -0.248 NA
ATOM     49  C   UNL A   1      40.319  25.605  27.901  1.00  0.00     0.031 C 
ATOM     50  C   UNL A   1      45.136  24.161  28.244  1.00  0.00     0.029 A 
ATOM     51  N   UNL A   1      44.620  26.214  28.968  1.00  0.00    -0.354 N 
ATOM     52  C   UNL A   1      40.581  27.713  28.747  1.00  0.00     0.074 A 
ATOM     53  C   UNL A   1      39.685  26.739  28.166  1.00  0.00     0.031 C 
ATOM     54  C   UNL A   1      46.243  24.684  28.789  1.00  0.00     0.029 A 
ATOM     55  C   UNL A   1      45.952  26.036  29.256  1.00  0.00     0.049 A 
ATOM     56  H   UNL A   1      44.133  27.048  29.157  1.00  0.00     0.167 HD
ATOM     57  C   UNL A   1      40.198  28.936  29.184  1.00  0.00     0.031 A 
ATOM     58  C   UNL A   1      46.845  26.864  29.829  1.00  0.00     0.031 A 
ATOM     59  C   UNL A   1      41.088  29.899  29.778  1.00  0.00     0.049 A 
ATOM     60  C   UNL A   1      46.403  28.229  30.269  1.00  0.00     0.074 A 
ATOM     61  C   UNL A   1      40.788  31.165  30.251  1.00  0.00     0.029 A 
ATOM     62  N   UNL A   1      42.443  29.702  29.988  1.00  0.00    -0.354 N 
ATOM     63  N   UNL A   1      45.203  28.756  30.233  1.00  0.00    -0.248 NA
ATOM     64  C   UNL A   1      47.434  29.115  30.828  1.00  0.00     0.031 C 
ATOM     65  C   UNL A   1      41.972  31.753  30.702  1.00  0.00     0.029 A 
ATOM     66  C   UNL A   1      42.996  30.830  30.570  1.00  0.00     0.049 A 
ATOM     67  H   UNL A   1      42.938  28.882  29.759  1.00  0.00     0.167 HD
ATOM     68  C   UNL A   1      45.331  30.026  30.778  1.00  0.00     0.074 A 
ATOM     69  C   UNL A   1      46.720  30.185  31.154  1.00  0.00     0.031 C 
ATOM     70  C   UNL A   1      44.378  30.974  30.947  1.00  0.00     0.031 A 
BRANCH  57  71
ATOM     71  C   UNL A   1      38.753  29.322  29.037  1.00  0.00    -0.014 A 
ATOM     72  C   UNL A   1      37.880  29.183  30.129  1.00  0.00     0.009 A 
ATOM     73  C   UNL A   1      38.231  29.728  27.798  1.00  0.00     0.009 A 
ATOM     74  C   UNL A   1      36.513  29.426  29.980  1.00  0.00     0.001 A 
ATOM     75  C   UNL A   1      36.867  29.998  27.661  1.00  0.00     0.001 A 
ATOM     76  C   UNL A   1      36.008  29.837  28.747  1.00  0.00     0.000 A 
ENDBRANCH  57  71
BRANCH  58  77
ATOM     77  C   UNL A   1      48.245  26.404  30.029  1.00  0.00    -0.014 A 
ATOM     78  C   UNL A   1      48.624  25.766  31.221  1.00  0.00     0.009 A 
ATOM     79  C   UNL A   1      49.222  26.645  29.051  1.00  0.00     0.009 A 
ATOM     80  C   UNL A   1      49.954  25.405  31.444  1.00  0.00     0.001 A 
ATOM     81  C   UNL A   1      50.546  26.253  29.262  1.00  0.00     0.001 A 
ATOM     82  C   UNL A   1      50.913  25.644  30.461  1.00  0.00     0.000 A 
ENDBRANCH  58  77
BRANCH  70  83
ATOM     83  C   UNL A   1      44.782  32.271  31.590  1.00  0.00    -0.014 A 
ATOM     84  C   UNL A   1      45.293  33.309  30.795  1.00  0.00     0.009 A 
ATOM     85  C   UNL A   1      44.762  32.426  32.983  1.00  0.00     0.009 A 
ATOM     86  C   UNL A   1      45.791  34.472  31.383  1.00  0.00     0.001 A 
ATOM     87  C   UNL A   1      45.237  33.603  33.567  1.00  0.00     0.001 A 
ATOM     88  C   UNL A   1      45.759  34.619  32.768  1.00  0.00     0.000 A 
ENDBRANCH  70  83
ENDBRANCH  44  45
ENDBRANCH  36  39
ENDBRANCH  34  35
ENDBRANCH  33  34
ENDBRANCH  32  33
ENDBRANCH   1  32
TORSDOF 17
ENDMDL
