MODEL 1
REMARK VINA RESULT:     -11.6      0.000      0.000
REMARK SMILES O=C(NCCCCNC(=O)[C@@H]1CCCN(C(=O)/C=C/c2c(F)cccc2Cl)C1)c1ccc(-c2c3nc(c(-c4ccccc4)c4ccc([nH]4)c(-c4ccccc4)c4nc(c(-c5ccccc5)c5ccc2[nH]5)C=C4)C=C3)cc1
REMARK SMILES IDX 6 1 5 2 4 3 3 4 1 5 2 6 29 8 30 9 76 10 31 11 75 12 32 13
REMARK SMILES IDX 33 14 34 15 69 16 35 17 74 18 68 19 70 20 36 21 73 22 67 23
REMARK SMILES IDX 66 24 37 26 59 27 44 28 58 29 45 30 48 31 57 32 71 33 46 34
REMARK SMILES IDX 47 35 56 37 72 38 49 39 38 40 39 41 43 42 40 43 42 44 41 45
REMARK SMILES IDX 60 46 61 47 65 48 62 49 64 50 63 51 50 52 51 53 55 54 52 55
REMARK SMILES IDX 54 56 53 57 7 58 8 59 9 60 10 62 11 63 12 64 28 65 13 66
REMARK SMILES IDX 15 67 14 68 16 69 17 70 18 71 19 72 20 73 21 74 26 75 22 76
REMARK SMILES IDX 23 77 25 78 27 79 24 80
REMARK H PARENT 3 7 70 25 48 36 8 61
REMARK Flexibility Score: inf
ROOT
ATOM      1  C   UNL A   1      36.562  20.460  24.919  1.00  0.00     0.023 C 
ENDROOT
BRANCH   1   2
ATOM      2  C   UNL A   1      37.768  19.519  24.899  1.00  0.00     0.023 C 
BRANCH   2   3
ATOM      3  C   UNL A   1      38.957  19.980  25.732  1.00  0.00     0.116 C 
BRANCH   3   4
ATOM      4  N   UNL A   1      40.031  19.000  25.762  1.00  0.00    -0.352 N 
ATOM      5  O   UNL A   1      42.172  18.290  25.807  1.00  0.00    -0.269 OA
ATOM      6  C   UNL A   1      41.376  19.203  25.963  1.00  0.00     0.251 C 
ATOM      7  H   UNL A   1      39.758  18.065  25.619  1.00  0.00     0.163 HD
BRANCH   6   8
ATOM      8  C   UNL A   1      41.853  20.548  26.350  1.00  0.00     0.039 A 
ATOM      9  C   UNL A   1      42.195  21.489  25.376  1.00  0.00     0.014 A 
ATOM     10  C   UNL A   1      41.944  20.870  27.707  1.00  0.00     0.014 A 
ATOM     11  C   UNL A   1      42.728  22.715  25.756  1.00  0.00     0.010 A 
ATOM     12  C   UNL A   1      42.409  22.129  28.088  1.00  0.00     0.010 A 
ATOM     13  C   UNL A   1      42.815  23.056  27.116  1.00  0.00    -0.014 A 
BRANCH  13  14
ATOM     14  C   UNL A   1      43.222  24.428  27.498  1.00  0.00     0.031 A 
ATOM     15  C   UNL A   1      42.212  25.458  27.912  1.00  0.00     0.074 A 
ATOM     16  C   UNL A   1      44.532  24.740  27.446  1.00  0.00     0.049 A 
ATOM     17  N   UNL A   1      42.406  26.711  28.238  1.00  0.00    -0.248 NA
ATOM     18  C   UNL A   1      40.803  25.036  27.959  1.00  0.00     0.031 C 
ATOM     19  C   UNL A   1      45.602  23.819  27.046  1.00  0.00     0.029 A 
ATOM     20  N   UNL A   1      45.189  25.909  27.728  1.00  0.00    -0.354 N 
ATOM     21  C   UNL A   1      41.148  27.234  28.508  1.00  0.00     0.074 A 
ATOM     22  C   UNL A   1      40.194  26.167  28.295  1.00  0.00     0.031 C 
ATOM     23  C   UNL A   1      46.780  24.453  27.130  1.00  0.00     0.029 A 
ATOM     24  C   UNL A   1      46.545  25.835  27.524  1.00  0.00     0.049 A 
ATOM     25  H   UNL A   1      44.734  26.722  28.044  1.00  0.00     0.167 HD
ATOM     26  C   UNL A   1      40.825  28.491  28.893  1.00  0.00     0.031 A 
ATOM     27  C   UNL A   1      47.496  26.784  27.608  1.00  0.00     0.031 A 
ATOM     28  C   UNL A   1      41.785  29.543  29.110  1.00  0.00     0.049 A 
ATOM     29  C   UNL A   1      47.098  28.177  27.995  1.00  0.00     0.074 A 
ATOM     30  C   UNL A   1      41.560  30.830  29.572  1.00  0.00     0.029 A 
ATOM     31  N   UNL A   1      43.145  29.438  28.866  1.00  0.00    -0.354 N 
ATOM     32  N   UNL A   1      45.912  28.636  28.314  1.00  0.00    -0.248 NA
ATOM     33  C   UNL A   1      48.165  29.184  28.027  1.00  0.00     0.031 C 
ATOM     34  C   UNL A   1      42.775  31.521  29.547  1.00  0.00     0.029 A 
ATOM     35  C   UNL A   1      43.764  30.649  29.122  1.00  0.00     0.049 A 
ATOM     36  H   UNL A   1      43.601  28.622  28.557  1.00  0.00     0.167 HD
ATOM     37  C   UNL A   1      46.092  29.983  28.593  1.00  0.00     0.074 A 
ATOM     38  C   UNL A   1      47.505  30.260  28.431  1.00  0.00     0.031 C 
ATOM     39  C   UNL A   1      45.169  30.909  28.944  1.00  0.00     0.031 A 
BRANCH  26  40
ATOM     40  C   UNL A   1      39.371  28.822  29.080  1.00  0.00    -0.014 A 
ATOM     41  C   UNL A   1      38.747  28.702  30.329  1.00  0.00     0.009 A 
ATOM     42  C   UNL A   1      38.640  29.347  28.001  1.00  0.00     0.009 A 
ATOM     43  C   UNL A   1      37.412  29.085  30.491  1.00  0.00     0.001 A 
ATOM     44  C   UNL A   1      37.313  29.749  28.171  1.00  0.00     0.001 A 
ATOM     45  C   UNL A   1      36.700  29.613  29.415  1.00  0.00     0.000 A 
ENDBRANCH  26  40
BRANCH  27  46
ATOM     46  C   UNL A   1      48.903  26.454  27.268  1.00  0.00    -0.014 A 
ATOM     47  C   UNL A   1      49.361  26.539  25.946  1.00  0.00     0.009 A 
ATOM     48  C   UNL A   1      49.797  26.054  28.274  1.00  0.00     0.009 A 
ATOM     49  C   UNL A   1      50.682  26.207  25.636  1.00  0.00     0.001 A 
ATOM     50  C   UNL A   1      51.125  25.753  27.966  1.00  0.00     0.001 A 
ATOM     51  C   UNL A   1      51.562  25.820  26.645  1.00  0.00     0.000 A 
ENDBRANCH  27  46
BRANCH  39  52
ATOM     52  C   UNL A   1      45.663  32.305  29.183  1.00  0.00    -0.014 A 
ATOM     53  C   UNL A   1      46.132  32.697  30.446  1.00  0.00     0.009 A 
ATOM     54  C   UNL A   1      45.696  33.226  28.125  1.00  0.00     0.009 A 
ATOM     55  C   UNL A   1      46.602  33.996  30.651  1.00  0.00     0.001 A 
ATOM     56  C   UNL A   1      46.191  34.515  28.327  1.00  0.00     0.001 A 
ATOM     57  C   UNL A   1      46.636  34.900  29.591  1.00  0.00     0.000 A 
ENDBRANCH  39  52
ENDBRANCH  13  14
ENDBRANCH   6   8
ENDBRANCH   3   4
ENDBRANCH   2   3
ENDBRANCH   1   2
BRANCH   1  58
ATOM     58  C   UNL A   1      36.750  21.720  25.761  1.00  0.00     0.116 C 
BRANCH  58  59
ATOM     59  N   UNL A   1      35.537  22.062  26.482  1.00  0.00    -0.356 N 
ATOM     60  C   UNL A   1      34.724  23.150  26.389  1.00  0.00     0.224 C 
ATOM     61  H   UNL A   1      35.256  21.395  27.150  1.00  0.00     0.163 HD
ATOM     62  O   UNL A   1      33.818  23.256  27.215  1.00  0.00    -0.275 OA
BRANCH  60  63
ATOM     63  C   UNL A   1      34.985  24.200  25.319  1.00  0.00     0.098 C 
ATOM     64  C   UNL A   1      34.403  25.555  25.748  1.00  0.00     0.017 C 
ATOM     65  C   UNL A   1      34.483  23.700  23.959  1.00  0.00     0.133 C 
ATOM     66  C   UNL A   1      32.920  25.718  25.403  1.00  0.00     0.022 C 
ATOM     67  N   UNL A   1      33.061  23.941  23.752  1.00  0.00    -0.338 N 
ATOM     68  C   UNL A   1      32.659  25.329  23.953  1.00  0.00     0.120 C 
BRANCH  67  69
ATOM     69  C   UNL A   1      32.260  22.873  23.390  1.00  0.00     0.246 C 
ATOM     70  O   UNL A   1      31.062  22.994  23.126  1.00  0.00    -0.270 OA
BRANCH  69  71
ATOM     71  C   UNL A   1      32.803  21.490  23.414  1.00  0.00     0.072 C 
ATOM     72  C   UNL A   1      32.151  20.407  23.860  1.00  0.00     0.018 C 
BRANCH  72  73
ATOM     73  C   UNL A   1      32.794  19.087  23.876  1.00  0.00     0.029 A 
ATOM     74  C   UNL A   1      33.389  18.635  25.061  1.00  0.00     0.131 A 
ATOM     75  C   UNL A   1      32.854  18.250  22.749  1.00  0.00     0.051 A 
ATOM     76  F   UNL A   1      33.359  19.398  26.163  1.00  0.00    -0.206 F 
ATOM     77  C   UNL A   1      34.022  17.396  25.134  1.00  0.00     0.040 A 
ATOM     78  C   UNL A   1      33.488  17.002  22.819  1.00  0.00     0.021 A 
ATOM     79  Cl  UNL A   1      32.153  18.702  21.233  1.00  0.00    -0.084 Cl
ATOM     80  C   UNL A   1      34.072  16.574  24.011  1.00  0.00     0.005 A 
ENDBRANCH  72  73
ENDBRANCH  69  71
ENDBRANCH  67  69
ENDBRANCH  60  63
ENDBRANCH  58  59
ENDBRANCH   1  58
TORSDOF 14
ENDMDL
MODEL 2
REMARK VINA RESULT:     -11.4      1.412      6.039
REMARK SMILES O=C(NCCCCNC(=O)[C@@H]1CCCN(C(=O)/C=C/c2c(F)cccc2Cl)C1)c1ccc(-c2c3nc(c(-c4ccccc4)c4ccc([nH]4)c(-c4ccccc4)c4nc(c(-c5ccccc5)c5ccc2[nH]5)C=C4)C=C3)cc1
REMARK SMILES IDX 6 1 5 2 4 3 3 4 1 5 2 6 29 8 30 9 76 10 31 11 75 12 32 13
REMARK SMILES IDX 33 14 34 15 69 16 35 17 74 18 68 19 70 20 36 21 73 22 67 23
REMARK SMILES IDX 66 24 37 26 59 27 44 28 58 29 45 30 48 31 57 32 71 33 46 34
REMARK SMILES IDX 47 35 56 37 72 38 49 39 38 40 39 41 43 42 40 43 42 44 41 45
REMARK SMILES IDX 60 46 61 47 65 48 62 49 64 50 63 51 50 52 51 53 55 54 52 55
REMARK SMILES IDX 54 56 53 57 7 58 8 59 9 60 10 62 11 63 12 64 28 65 13 66
REMARK SMILES IDX 15 67 14 68 16 69 17 70 18 71 19 72 20 73 21 74 26 75 22 76
REMARK SMILES IDX 23 77 25 78 27 79 24 80
REMARK H PARENT 3 7 70 25 48 36 8 61
REMARK Flexibility Score: inf
ROOT
ATOM      1  C   UNL A   1      36.554  20.697  24.915  1.00  0.00     0.023 C 
ENDROOT
BRANCH   1   2
ATOM      2  C   UNL A   1      37.770  19.770  24.958  1.00  0.00     0.023 C 
BRANCH   2   3
ATOM      3  C   UNL A   1      38.970  20.316  25.721  1.00  0.00     0.116 C 
BRANCH   3   4
ATOM      4  N   UNL A   1      40.070  19.369  25.786  1.00  0.00    -0.352 N 
ATOM      5  O   UNL A   1      42.223  18.720  25.958  1.00  0.00    -0.269 OA
ATOM      6  C   UNL A   1      41.390  19.601  26.095  1.00  0.00     0.251 C 
ATOM      7  H   UNL A   1      39.839  18.434  25.581  1.00  0.00     0.163 HD
BRANCH   6   8
ATOM      8  C   UNL A   1      41.792  20.939  26.578  1.00  0.00     0.039 A 
ATOM      9  C   UNL A   1      42.237  21.913  25.682  1.00  0.00     0.014 A 
ATOM     10  C   UNL A   1      41.709  21.219  27.944  1.00  0.00     0.014 A 
ATOM     11  C   UNL A   1      42.699  23.134  26.161  1.00  0.00     0.010 A 
ATOM     12  C   UNL A   1      42.103  22.472  28.417  1.00  0.00     0.010 A 
ATOM     13  C   UNL A   1      42.612  23.434  27.530  1.00  0.00    -0.014 A 
BRANCH  13  14
ATOM     14  C   UNL A   1      42.946  24.798  28.000  1.00  0.00     0.031 A 
ATOM     15  C   UNL A   1      44.354  25.184  28.349  1.00  0.00     0.074 A 
ATOM     16  C   UNL A   1      41.943  25.689  28.128  1.00  0.00     0.049 A 
ATOM     17  N   UNL A   1      44.801  26.324  28.809  1.00  0.00    -0.248 NA
ATOM     18  C   UNL A   1      45.396  24.160  28.167  1.00  0.00     0.031 C 
ATOM     19  C   UNL A   1      40.533  25.419  27.829  1.00  0.00     0.029 A 
ATOM     20  N   UNL A   1      41.950  26.996  28.541  1.00  0.00    -0.354 N 
ATOM     21  C   UNL A   1      46.166  26.153  28.994  1.00  0.00     0.074 A 
ATOM     22  C   UNL A   1      46.476  24.793  28.608  1.00  0.00     0.031 C 
ATOM     23  C   UNL A   1      39.817  26.531  28.047  1.00  0.00     0.029 A 
ATOM     24  C   UNL A   1      40.702  27.568  28.561  1.00  0.00     0.049 A 
ATOM     25  H   UNL A   1      42.769  27.477  28.799  1.00  0.00     0.167 HD
ATOM     26  C   UNL A   1      47.073  27.051  29.448  1.00  0.00     0.031 A 
ATOM     27  C   UNL A   1      40.302  28.782  28.981  1.00  0.00     0.031 A 
ATOM     28  C   UNL A   1      46.755  28.405  29.821  1.00  0.00     0.049 A 
ATOM     29  C   UNL A   1      41.325  29.736  29.520  1.00  0.00     0.074 A 
ATOM     30  C   UNL A   1      47.618  29.411  30.223  1.00  0.00     0.029 A 
ATOM     31  N   UNL A   1      45.476  28.938  29.855  1.00  0.00    -0.354 N 
ATOM     32  N   UNL A   1      42.623  29.581  29.621  1.00  0.00    -0.248 NA
ATOM     33  C   UNL A   1      40.831  31.030  30.008  1.00  0.00     0.031 C 
ATOM     34  C   UNL A   1      46.853  30.532  30.561  1.00  0.00     0.029 A 
ATOM     35  C   UNL A   1      45.521  30.242  30.316  1.00  0.00     0.049 A 
ATOM     36  H   UNL A   1      44.657  28.459  29.590  1.00  0.00     0.167 HD
ATOM     37  C   UNL A   1      43.101  30.759  30.177  1.00  0.00     0.074 A 
ATOM     38  C   UNL A   1      41.958  31.629  30.366  1.00  0.00     0.031 C 
ATOM     39  C   UNL A   1      44.372  31.087  30.508  1.00  0.00     0.031 A 
BRANCH  26  40
ATOM     40  C   UNL A   1      48.498  26.600  29.601  1.00  0.00    -0.014 A 
ATOM     41  C   UNL A   1      49.442  26.797  28.582  1.00  0.00     0.009 A 
ATOM     42  C   UNL A   1      48.920  26.049  30.822  1.00  0.00     0.009 A 
ATOM     43  C   UNL A   1      50.777  26.434  28.778  1.00  0.00     0.001 A 
ATOM     44  C   UNL A   1      50.259  25.707  31.022  1.00  0.00     0.001 A 
ATOM     45  C   UNL A   1      51.185  25.896  29.998  1.00  0.00     0.000 A 
ENDBRANCH  26  40
BRANCH  27  46
ATOM     46  C   UNL A   1      38.860  29.136  28.956  1.00  0.00    -0.014 A 
ATOM     47  C   UNL A   1      38.056  28.955  30.090  1.00  0.00     0.009 A 
ATOM     48  C   UNL A   1      38.283  29.664  27.790  1.00  0.00     0.009 A 
ATOM     49  C   UNL A   1      36.697  29.274  30.048  1.00  0.00     0.001 A 
ATOM     50  C   UNL A   1      36.932  30.011  27.761  1.00  0.00     0.001 A 
ATOM     51  C   UNL A   1      36.138  29.805  28.887  1.00  0.00     0.000 A 
ENDBRANCH  27  46
BRANCH  39  52
ATOM     52  C   UNL A   1      44.590  32.448  31.101  1.00  0.00    -0.014 A 
ATOM     53  C   UNL A   1      44.578  32.640  32.491  1.00  0.00     0.009 A 
ATOM     54  C   UNL A   1      44.849  33.543  30.262  1.00  0.00     0.009 A 
ATOM     55  C   UNL A   1      44.795  33.909  33.029  1.00  0.00     0.001 A 
ATOM     56  C   UNL A   1      45.093  34.806  30.805  1.00  0.00     0.001 A 
ATOM     57  C   UNL A   1      45.058  34.988  32.186  1.00  0.00     0.000 A 
ENDBRANCH  39  52
ENDBRANCH  13  14
ENDBRANCH   6   8
ENDBRANCH   3   4
ENDBRANCH   2   3
ENDBRANCH   1   2
BRANCH   1  58
ATOM     58  C   UNL A   1      36.690  21.966  25.753  1.00  0.00     0.116 C 
BRANCH  58  59
ATOM     59  N   UNL A   1      35.462  22.263  26.470  1.00  0.00    -0.356 N 
ATOM     60  C   UNL A   1      34.610  23.321  26.373  1.00  0.00     0.224 C 
ATOM     61  H   UNL A   1      35.203  21.586  27.136  1.00  0.00     0.163 HD
ATOM     62  O   UNL A   1      33.697  23.392  27.196  1.00  0.00    -0.275 OA
BRANCH  60  63
ATOM     63  C   UNL A   1      34.836  24.379  25.304  1.00  0.00     0.098 C 
ATOM     64  C   UNL A   1      34.176  25.704  25.717  1.00  0.00     0.017 C 
ATOM     65  C   UNL A   1      34.386  23.849  23.937  1.00  0.00     0.133 C 
ATOM     66  C   UNL A   1      32.693  25.788  25.343  1.00  0.00     0.022 C 
ATOM     67  N   UNL A   1      32.958  24.015  23.702  1.00  0.00    -0.338 N 
ATOM     68  C   UNL A   1      32.481  25.381  23.889  1.00  0.00     0.120 C 
BRANCH  67  69
ATOM     69  C   UNL A   1      32.221  22.905  23.329  1.00  0.00     0.246 C 
ATOM     70  O   UNL A   1      31.053  22.977  22.943  1.00  0.00    -0.270 OA
BRANCH  69  71
ATOM     71  C   UNL A   1      32.790  21.543  23.491  1.00  0.00     0.072 C 
ATOM     72  C   UNL A   1      32.095  20.398  23.429  1.00  0.00     0.018 C 
BRANCH  72  73
ATOM     73  C   UNL A   1      32.748  19.100  23.640  1.00  0.00     0.029 A 
ATOM     74  C   UNL A   1      32.852  18.209  22.565  1.00  0.00     0.131 A 
ATOM     75  C   UNL A   1      33.267  18.697  24.882  1.00  0.00     0.051 A 
ATOM     76  F   UNL A   1      32.370  18.547  21.360  1.00  0.00    -0.206 F 
ATOM     77  C   UNL A   1      33.452  16.959  22.707  1.00  0.00     0.040 A 
ATOM     78  C   UNL A   1      33.873  17.442  25.029  1.00  0.00     0.021 A 
ATOM     79  Cl  UNL A   1      33.196  19.714  26.280  1.00  0.00    -0.084 Cl
ATOM     80  C   UNL A   1      33.966  16.573  23.942  1.00  0.00     0.005 A 
ENDBRANCH  72  73
ENDBRANCH  69  71
ENDBRANCH  67  69
ENDBRANCH  60  63
ENDBRANCH  58  59
ENDBRANCH   1  58
TORSDOF 14
ENDMDL
MODEL 3
REMARK VINA RESULT:     -11.3      4.409      8.925
REMARK SMILES O=C(NCCCCNC(=O)[C@@H]1CCCN(C(=O)/C=C/c2c(F)cccc2Cl)C1)c1ccc(-c2c3nc(c(-c4ccccc4)c4ccc([nH]4)c(-c4ccccc4)c4nc(c(-c5ccccc5)c5ccc2[nH]5)C=C4)C=C3)cc1
REMARK SMILES IDX 6 1 5 2 4 3 3 4 1 5 2 6 29 8 30 9 76 10 31 11 75 12 32 13
REMARK SMILES IDX 33 14 34 15 69 16 35 17 74 18 68 19 70 20 36 21 73 22 67 23
REMARK SMILES IDX 66 24 37 26 59 27 44 28 58 29 45 30 48 31 57 32 71 33 46 34
REMARK SMILES IDX 47 35 56 37 72 38 49 39 38 40 39 41 43 42 40 43 42 44 41 45
REMARK SMILES IDX 60 46 61 47 65 48 62 49 64 50 63 51 50 52 51 53 55 54 52 55
REMARK SMILES IDX 54 56 53 57 7 58 8 59 9 60 10 62 11 63 12 64 28 65 13 66
REMARK SMILES IDX 15 67 14 68 16 69 17 70 18 71 19 72 20 73 21 74 26 75 22 76
REMARK SMILES IDX 23 77 25 78 27 79 24 80
REMARK H PARENT 3 7 70 25 48 36 8 61
REMARK Flexibility Score: inf
ROOT
ATOM      1  C   UNL A   1      31.390  31.146  26.100  1.00  0.00     0.023 C 
ENDROOT
BRANCH   1   2
ATOM      2  C   UNL A   1      31.401  32.607  26.554  1.00  0.00     0.023 C 
BRANCH   2   3
ATOM      3  C   UNL A   1      32.690  33.062  27.226  1.00  0.00     0.116 C 
BRANCH   3   4
ATOM      4  N   UNL A   1      32.551  34.347  27.891  1.00  0.00    -0.352 N 
ATOM      5  O   UNL A   1      32.979  35.915  29.455  1.00  0.00    -0.269 OA
ATOM      6  C   UNL A   1      33.320  34.884  28.896  1.00  0.00     0.251 C 
ATOM      7  H   UNL A   1      31.804  34.908  27.580  1.00  0.00     0.163 HD
BRANCH   6   8
ATOM      8  C   UNL A   1      34.557  34.187  29.308  1.00  0.00     0.039 A 
ATOM      9  C   UNL A   1      35.767  34.443  28.657  1.00  0.00     0.014 A 
ATOM     10  C   UNL A   1      34.502  33.278  30.367  1.00  0.00     0.014 A 
ATOM     11  C   UNL A   1      36.900  33.713  28.994  1.00  0.00     0.010 A 
ATOM     12  C   UNL A   1      35.658  32.599  30.755  1.00  0.00     0.010 A 
ATOM     13  C   UNL A   1      36.862  32.803  30.064  1.00  0.00    -0.014 A 
BRANCH  13  14
ATOM     14  C   UNL A   1      38.118  32.163  30.521  1.00  0.00     0.031 A 
ATOM     15  C   UNL A   1      39.006  32.818  31.538  1.00  0.00     0.074 A 
ATOM     16  C   UNL A   1      38.458  30.975  29.982  1.00  0.00     0.049 A 
ATOM     17  N   UNL A   1      40.154  32.403  32.011  1.00  0.00    -0.248 NA
ATOM     18  C   UNL A   1      38.558  34.106  32.091  1.00  0.00     0.031 C 
ATOM     19  C   UNL A   1      37.674  30.252  28.975  1.00  0.00     0.029 A 
ATOM     20  N   UNL A   1      39.543  30.168  30.200  1.00  0.00    -0.354 N 
ATOM     21  C   UNL A   1      40.577  33.385  32.898  1.00  0.00     0.074 A 
ATOM     22  C   UNL A   1      39.570  34.423  32.890  1.00  0.00     0.031 C 
ATOM     23  C   UNL A   1      38.294  29.100  28.681  1.00  0.00     0.029 A 
ATOM     24  C   UNL A   1      39.544  29.034  29.425  1.00  0.00     0.049 A 
ATOM     25  H   UNL A   1      40.253  30.381  30.847  1.00  0.00     0.167 HD
ATOM     26  C   UNL A   1      41.706  33.411  33.645  1.00  0.00     0.031 A 
ATOM     27  C   UNL A   1      40.466  28.063  29.296  1.00  0.00     0.031 A 
ATOM     28  C   UNL A   1      42.698  32.368  33.652  1.00  0.00     0.049 A 
ATOM     29  C   UNL A   1      41.725  28.146  30.106  1.00  0.00     0.074 A 
ATOM     30  C   UNL A   1      43.840  32.272  34.430  1.00  0.00     0.029 A 
ATOM     31  N   UNL A   1      42.678  31.250  32.833  1.00  0.00    -0.354 N 
ATOM     32  N   UNL A   1      42.077  29.046  30.992  1.00  0.00    -0.248 NA
ATOM     33  C   UNL A   1      42.719  27.086  29.894  1.00  0.00     0.031 C 
ATOM     34  C   UNL A   1      44.542  31.128  34.037  1.00  0.00     0.029 A 
ATOM     35  C   UNL A   1      43.810  30.484  33.053  1.00  0.00     0.049 A 
ATOM     36  H   UNL A   1      41.964  31.034  32.190  1.00  0.00     0.167 HD
ATOM     37  C   UNL A   1      43.327  28.657  31.449  1.00  0.00     0.074 A 
ATOM     38  C   UNL A   1      43.661  27.425  30.762  1.00  0.00     0.031 C 
ATOM     39  C   UNL A   1      44.130  29.269  32.352  1.00  0.00     0.031 A 
BRANCH  26  40
ATOM     40  C   UNL A   1      41.958  34.620  34.502  1.00  0.00    -0.014 A 
ATOM     41  C   UNL A   1      41.572  34.656  35.849  1.00  0.00     0.009 A 
ATOM     42  C   UNL A   1      42.673  35.706  33.970  1.00  0.00     0.009 A 
ATOM     43  C   UNL A   1      41.883  35.764  36.643  1.00  0.00     0.001 A 
ATOM     44  C   UNL A   1      43.001  36.802  34.771  1.00  0.00     0.001 A 
ATOM     45  C   UNL A   1      42.601  36.831  36.106  1.00  0.00     0.000 A 
ENDBRANCH  26  40
BRANCH  27  46
ATOM     46  C   UNL A   1      40.250  26.961  28.325  1.00  0.00    -0.014 A 
ATOM     47  C   UNL A   1      40.791  27.026  27.033  1.00  0.00     0.009 A 
ATOM     48  C   UNL A   1      39.499  25.833  28.692  1.00  0.00     0.009 A 
ATOM     49  C   UNL A   1      40.564  25.992  26.122  1.00  0.00     0.001 A 
ATOM     50  C   UNL A   1      39.301  24.787  27.790  1.00  0.00     0.001 A 
ATOM     51  C   UNL A   1      39.824  24.873  26.502  1.00  0.00     0.000 A 
ENDBRANCH  27  46
BRANCH  39  52
ATOM     52  C   UNL A   1      45.443  28.608  32.651  1.00  0.00    -0.014 A 
ATOM     53  C   UNL A   1      45.546  27.627  33.650  1.00  0.00     0.009 A 
ATOM     54  C   UNL A   1      46.581  28.940  31.900  1.00  0.00     0.009 A 
ATOM     55  C   UNL A   1      46.771  27.010  33.909  1.00  0.00     0.001 A 
ATOM     56  C   UNL A   1      47.798  28.303  32.143  1.00  0.00     0.001 A 
ATOM     57  C   UNL A   1      47.894  27.345  33.152  1.00  0.00     0.000 A 
ENDBRANCH  39  52
ENDBRANCH  13  14
ENDBRANCH   6   8
ENDBRANCH   3   4
ENDBRANCH   2   3
ENDBRANCH   1   2
BRANCH   1  58
ATOM     58  C   UNL A   1      32.518  30.291  26.673  1.00  0.00     0.116 C 
BRANCH  58  59
ATOM     59  N   UNL A   1      32.001  29.121  27.358  1.00  0.00    -0.356 N 
ATOM     60  C   UNL A   1      31.667  27.888  26.885  1.00  0.00     0.224 C 
ATOM     61  H   UNL A   1      31.870  29.238  28.327  1.00  0.00     0.163 HD
ATOM     62  O   UNL A   1      31.126  27.106  27.667  1.00  0.00    -0.275 OA
BRANCH  60  63
ATOM     63  C   UNL A   1      31.926  27.542  25.427  1.00  0.00     0.098 C 
ATOM     64  C   UNL A   1      30.607  27.525  24.640  1.00  0.00     0.017 C 
ATOM     65  C   UNL A   1      32.735  26.242  25.331  1.00  0.00     0.133 C 
ATOM     66  C   UNL A   1      29.867  26.187  24.720  1.00  0.00     0.022 C 
ATOM     67  N   UNL A   1      31.904  25.047  25.395  1.00  0.00    -0.338 N 
ATOM     68  C   UNL A   1      30.814  25.029  24.426  1.00  0.00     0.120 C 
BRANCH  67  69
ATOM     69  C   UNL A   1      32.221  24.076  26.329  1.00  0.00     0.246 C 
ATOM     70  O   UNL A   1      31.528  23.853  27.323  1.00  0.00    -0.270 OA
BRANCH  69  71
ATOM     71  C   UNL A   1      33.498  23.326  26.221  1.00  0.00     0.072 C 
ATOM     72  C   UNL A   1      34.070  22.924  25.078  1.00  0.00     0.018 C 
BRANCH  72  73
ATOM     73  C   UNL A   1      35.319  22.151  25.082  1.00  0.00     0.029 A 
ATOM     74  C   UNL A   1      36.535  22.828  25.240  1.00  0.00     0.131 A 
ATOM     75  C   UNL A   1      35.357  20.757  24.922  1.00  0.00     0.051 A 
ATOM     76  F   UNL A   1      36.550  24.160  25.394  1.00  0.00    -0.206 F 
ATOM     77  C   UNL A   1      37.753  22.151  25.243  1.00  0.00     0.040 A 
ATOM     78  C   UNL A   1      36.579  20.071  24.926  1.00  0.00     0.021 A 
ATOM     79  Cl  UNL A   1      33.919  19.816  24.722  1.00  0.00    -0.084 Cl
ATOM     80  C   UNL A   1      37.778  20.767  25.086  1.00  0.00     0.005 A 
ENDBRANCH  72  73
ENDBRANCH  69  71
ENDBRANCH  67  69
ENDBRANCH  60  63
ENDBRANCH  58  59
ENDBRANCH   1  58
TORSDOF 14
ENDMDL
