MODEL 1
REMARK VINA RESULT:     -11.6      0.000      0.000
REMARK SMILES Cc1ccccc1-c1nc(CC(=O)NCCCCNC(=O)c2ccc(-c3c4nc(c(-c5ccccc5)c5ccc([nH]5)c(-c5ccccc5)c5nc(c(-c6ccccc6)c6ccc3[nH]6)C=C5)C=C4)cc2)cs1
REMARK SMILES IDX 16 1 15 2 14 3 12 4 13 5 11 7 10 8 8 9 9 10 71 11 70 12 7 13
REMARK SMILES IDX 1 14 2 15 3 16 4 17 6 18 5 19 17 20 18 21 19 22 20 23 21 25
REMARK SMILES IDX 22 26 23 27 69 28 24 29 68 30 25 31 26 32 27 33 62 34 28 35
REMARK SMILES IDX 67 36 61 37 63 38 29 39 66 40 60 41 59 42 30 44 52 45 37 46
REMARK SMILES IDX 51 47 38 48 41 49 50 50 64 51 39 52 40 53 49 55 65 56 42 57
REMARK SMILES IDX 31 58 32 59 36 60 33 61 35 62 34 63 53 64 54 65 58 66 55 67
REMARK SMILES IDX 57 68 56 69 43 70 44 71 48 72 45 73 47 74 46 75
REMARK H PARENT 14 6 19 24 63 43 41 54
REMARK Flexibility Score: inf
ROOT
ATOM      1  C   UNL A   1      31.758  30.268  25.707  1.00  0.00     0.023 C 
ENDROOT
BRANCH   1   2
ATOM      2  C   UNL A   1      32.643  29.280  24.932  1.00  0.00     0.116 C 
BRANCH   2   3
ATOM      3  N   UNL A   1      32.127  28.962  23.609  1.00  0.00    -0.356 N 
ATOM      4  C   UNL A   1      31.157  28.072  23.243  1.00  0.00     0.226 C 
ATOM      5  O   UNL A   1      30.928  27.927  22.039  1.00  0.00    -0.275 OA
ATOM      6  H   UNL A   1      32.539  29.462  22.867  1.00  0.00     0.163 HD
BRANCH   4   7
ATOM      7  C   UNL A   1      30.360  27.318  24.288  1.00  0.00     0.157 C 
BRANCH   7   8
ATOM      8  C   UNL A   1      31.089  26.124  24.801  1.00  0.00     0.061 A 
ATOM      9  C   UNL A   1      32.869  24.798  24.849  1.00  0.00     0.123 A 
ATOM     10  N   UNL A   1      32.397  25.936  24.385  1.00  0.00    -0.241 NA
ATOM     11  S   UNL A   1      31.799  23.930  25.879  1.00  0.00    -0.122 S 
ATOM     12  C   UNL A   1      30.606  25.140  25.643  1.00  0.00     0.091 A 
BRANCH   9  13
ATOM     13  C   UNL A   1      34.193  24.265  24.518  1.00  0.00     0.013 A 
ATOM     14  C   UNL A   1      33.364  23.347  22.275  1.00  0.00     0.045 C 
ATOM     15  C   UNL A   1      34.428  23.568  23.317  1.00  0.00    -0.041 A 
ATOM     16  C   UNL A   1      35.699  23.015  23.085  1.00  0.00     0.004 A 
ATOM     17  C   UNL A   1      36.724  23.152  24.020  1.00  0.00     0.000 A 
ATOM     18  C   UNL A   1      35.237  24.391  25.456  1.00  0.00     0.011 A 
ATOM     19  C   UNL A   1      36.494  23.840  25.207  1.00  0.00     0.001 A 
ENDBRANCH   9  13
ENDBRANCH   7   8
ENDBRANCH   4   7
ENDBRANCH   2   3
ENDBRANCH   1   2
BRANCH   1  20
ATOM     20  C   UNL A   1      32.251  30.654  27.103  1.00  0.00     0.023 C 
BRANCH  20  21
ATOM     21  C   UNL A   1      33.753  30.520  27.290  1.00  0.00     0.116 C 
BRANCH  21  22
ATOM     22  N   UNL A   1      34.332  31.455  28.248  1.00  0.00    -0.352 N 
ATOM     23  C   UNL A   1      35.478  31.315  29.017  1.00  0.00     0.251 C 
ATOM     24  H   UNL A   1      33.843  32.301  28.364  1.00  0.00     0.163 HD
ATOM     25  O   UNL A   1      35.803  32.185  29.808  1.00  0.00    -0.269 OA
BRANCH  23  26
ATOM     26  C   UNL A   1      36.375  30.158  28.770  1.00  0.00     0.039 A 
ATOM     27  C   UNL A   1      36.630  29.294  29.840  1.00  0.00     0.014 A 
ATOM     28  C   UNL A   1      37.125  30.064  27.600  1.00  0.00     0.014 A 
ATOM     29  C   UNL A   1      37.796  28.535  29.838  1.00  0.00     0.010 A 
ATOM     30  C   UNL A   1      38.331  29.392  27.637  1.00  0.00     0.010 A 
ATOM     31  C   UNL A   1      38.700  28.690  28.788  1.00  0.00    -0.014 A 
BRANCH  31  32
ATOM     32  C   UNL A   1      40.102  28.299  28.890  1.00  0.00     0.031 A 
ATOM     33  C   UNL A   1      40.582  27.020  28.341  1.00  0.00     0.074 A 
ATOM     34  C   UNL A   1      40.990  29.146  29.456  1.00  0.00     0.049 A 
ATOM     35  N   UNL A   1      41.644  26.411  28.754  1.00  0.00    -0.248 NA
ATOM     36  C   UNL A   1      39.863  26.293  27.304  1.00  0.00     0.031 C 
ATOM     37  C   UNL A   1      42.448  29.070  29.424  1.00  0.00     0.029 A 
ATOM     38  N   UNL A   1      40.717  30.138  30.394  1.00  0.00    -0.354 N 
ATOM     39  C   UNL A   1      41.913  25.405  27.859  1.00  0.00     0.074 A 
ATOM     40  C   UNL A   1      40.730  25.312  27.034  1.00  0.00     0.031 C 
ATOM     41  C   UNL A   1      42.939  29.774  30.455  1.00  0.00     0.029 A 
ATOM     42  C   UNL A   1      41.814  30.199  31.271  1.00  0.00     0.049 A 
ATOM     43  H   UNL A   1      39.906  30.695  30.435  1.00  0.00     0.167 HD
ATOM     44  C   UNL A   1      43.159  24.852  27.822  1.00  0.00     0.031 A 
ATOM     45  C   UNL A   1      41.651  29.912  32.596  1.00  0.00     0.031 A 
ATOM     46  C   UNL A   1      44.039  25.371  28.873  1.00  0.00     0.049 A 
ATOM     47  C   UNL A   1      42.424  28.698  33.081  1.00  0.00     0.074 A 
ATOM     48  C   UNL A   1      45.119  26.239  28.896  1.00  0.00     0.029 A 
ATOM     49  N   UNL A   1      43.676  25.183  30.197  1.00  0.00    -0.354 N 
ATOM     50  N   UNL A   1      43.154  27.930  32.321  1.00  0.00    -0.248 NA
ATOM     51  C   UNL A   1      42.331  28.192  34.453  1.00  0.00     0.031 C 
ATOM     52  C   UNL A   1      45.407  26.559  30.254  1.00  0.00     0.029 A 
ATOM     53  C   UNL A   1      44.506  25.883  31.051  1.00  0.00     0.049 A 
ATOM     54  H   UNL A   1      42.923  24.623  30.492  1.00  0.00     0.167 HD
ATOM     55  C   UNL A   1      43.562  26.837  33.039  1.00  0.00     0.074 A 
ATOM     56  C   UNL A   1      43.031  27.049  34.372  1.00  0.00     0.031 C 
ATOM     57  C   UNL A   1      44.259  25.807  32.481  1.00  0.00     0.031 A 
BRANCH  44  58
ATOM     58  C   UNL A   1      43.653  24.016  26.664  1.00  0.00    -0.014 A 
ATOM     59  C   UNL A   1      43.908  22.646  26.851  1.00  0.00     0.009 A 
ATOM     60  C   UNL A   1      43.934  24.520  25.383  1.00  0.00     0.009 A 
ATOM     61  C   UNL A   1      44.512  21.858  25.861  1.00  0.00     0.001 A 
ATOM     62  C   UNL A   1      44.578  23.752  24.402  1.00  0.00     0.001 A 
ATOM     63  C   UNL A   1      44.880  22.422  24.647  1.00  0.00     0.000 A 
ENDBRANCH  44  58
BRANCH  45  64
ATOM     64  C   UNL A   1      40.322  30.328  33.128  1.00  0.00    -0.014 A 
ATOM     65  C   UNL A   1      40.055  31.705  33.267  1.00  0.00     0.009 A 
ATOM     66  C   UNL A   1      39.245  29.431  33.161  1.00  0.00     0.009 A 
ATOM     67  C   UNL A   1      38.741  32.178  33.318  1.00  0.00     0.001 A 
ATOM     68  C   UNL A   1      37.931  29.908  33.231  1.00  0.00     0.001 A 
ATOM     69  C   UNL A   1      37.679  31.279  33.273  1.00  0.00     0.000 A 
ENDBRANCH  45  64
BRANCH  57  70
ATOM     70  C   UNL A   1      44.741  24.608  33.248  1.00  0.00    -0.014 A 
ATOM     71  C   UNL A   1      43.904  23.534  33.578  1.00  0.00     0.009 A 
ATOM     72  C   UNL A   1      46.048  24.590  33.778  1.00  0.00     0.009 A 
ATOM     73  C   UNL A   1      44.370  22.461  34.349  1.00  0.00     0.001 A 
ATOM     74  C   UNL A   1      46.510  23.533  34.567  1.00  0.00     0.001 A 
ATOM     75  C   UNL A   1      45.672  22.461  34.843  1.00  0.00     0.000 A 
ENDBRANCH  57  70
ENDBRANCH  31  32
ENDBRANCH  23  26
ENDBRANCH  21  22
ENDBRANCH  20  21
ENDBRANCH   1  20
TORSDOF 13
ENDMDL
MODEL 2
REMARK VINA RESULT:     -11.4      3.559      8.741
REMARK SMILES Cc1ccccc1-c1nc(CC(=O)NCCCCNC(=O)c2ccc(-c3c4nc(c(-c5ccccc5)c5ccc([nH]5)c(-c5ccccc5)c5nc(c(-c6ccccc6)c6ccc3[nH]6)C=C5)C=C4)cc2)cs1
REMARK SMILES IDX 16 1 15 2 14 3 12 4 13 5 11 7 10 8 8 9 9 10 71 11 70 12 7 13
REMARK SMILES IDX 1 14 2 15 3 16 4 17 6 18 5 19 17 20 18 21 19 22 20 23 21 25
REMARK SMILES IDX 22 26 23 27 69 28 24 29 68 30 25 31 26 32 27 33 62 34 28 35
REMARK SMILES IDX 67 36 61 37 63 38 29 39 66 40 60 41 59 42 30 44 52 45 37 46
REMARK SMILES IDX 51 47 38 48 41 49 50 50 64 51 39 52 40 53 49 55 65 56 42 57
REMARK SMILES IDX 31 58 32 59 36 60 33 61 35 62 34 63 53 64 54 65 58 66 55 67
REMARK SMILES IDX 57 68 56 69 43 70 44 71 48 72 45 73 47 74 46 75
REMARK H PARENT 14 6 19 24 63 43 41 54
REMARK Flexibility Score: inf
ROOT
ATOM      1  C   UNL A   1      36.474  21.227  24.755  1.00  0.00     0.023 C 
ENDROOT
BRANCH   1   2
ATOM      2  C   UNL A   1      35.374  21.361  25.820  1.00  0.00     0.116 C 
BRANCH   2   3
ATOM      3  N   UNL A   1      34.361  20.319  25.734  1.00  0.00    -0.356 N 
ATOM      4  C   UNL A   1      33.169  20.316  25.066  1.00  0.00     0.226 C 
ATOM      5  O   UNL A   1      32.438  19.330  25.191  1.00  0.00    -0.275 OA
ATOM      6  H   UNL A   1      34.566  19.495  26.232  1.00  0.00     0.163 HD
BRANCH   4   7
ATOM      7  C   UNL A   1      32.778  21.471  24.167  1.00  0.00     0.157 C 
BRANCH   7   8
ATOM      8  C   UNL A   1      32.079  22.555  24.913  1.00  0.00     0.061 A 
ATOM      9  C   UNL A   1      31.822  24.690  25.464  1.00  0.00     0.123 A 
ATOM     10  N   UNL A   1      32.465  23.863  24.667  1.00  0.00    -0.241 NA
ATOM     11  S   UNL A   1      30.659  23.954  26.496  1.00  0.00    -0.122 S 
ATOM     12  C   UNL A   1      31.085  22.417  25.864  1.00  0.00     0.091 A 
BRANCH   9  13
ATOM     13  C   UNL A   1      32.067  26.134  25.515  1.00  0.00     0.013 A 
ATOM     14  C   UNL A   1      29.971  26.630  24.126  1.00  0.00     0.045 C 
ATOM     15  C   UNL A   1      31.209  27.050  24.873  1.00  0.00    -0.041 A 
ATOM     16  C   UNL A   1      31.532  28.418  24.892  1.00  0.00     0.004 A 
ATOM     17  C   UNL A   1      32.681  28.875  25.537  1.00  0.00     0.000 A 
ATOM     18  C   UNL A   1      33.225  26.612  26.158  1.00  0.00     0.011 A 
ATOM     19  C   UNL A   1      33.528  27.973  26.171  1.00  0.00     0.001 A 
ENDBRANCH   9  13
ENDBRANCH   7   8
ENDBRANCH   4   7
ENDBRANCH   2   3
ENDBRANCH   1   2
BRANCH   1  20
ATOM     20  C   UNL A   1      37.906  21.126  25.283  1.00  0.00     0.023 C 
BRANCH  20  21
ATOM     21  C   UNL A   1      38.461  22.432  25.828  1.00  0.00     0.116 C 
BRANCH  21  22
ATOM     22  N   UNL A   1      39.885  22.404  26.142  1.00  0.00    -0.352 N 
ATOM     23  C   UNL A   1      40.698  23.434  26.594  1.00  0.00     0.251 C 
ATOM     24  H   UNL A   1      40.330  21.535  26.018  1.00  0.00     0.163 HD
ATOM     25  O   UNL A   1      41.890  23.248  26.771  1.00  0.00    -0.269 OA
BRANCH  23  26
ATOM     26  C   UNL A   1      40.075  24.723  26.986  1.00  0.00     0.039 A 
ATOM     27  C   UNL A   1      40.482  25.874  26.303  1.00  0.00     0.014 A 
ATOM     28  C   UNL A   1      39.304  24.830  28.140  1.00  0.00     0.014 A 
ATOM     29  C   UNL A   1      40.347  27.114  26.920  1.00  0.00     0.010 A 
ATOM     30  C   UNL A   1      39.259  26.042  28.800  1.00  0.00     0.010 A 
ATOM     31  C   UNL A   1      39.851  27.169  28.222  1.00  0.00    -0.014 A 
BRANCH  31  32
ATOM     32  C   UNL A   1      40.069  28.313  29.101  1.00  0.00     0.031 A 
ATOM     33  C   UNL A   1      39.045  29.359  29.265  1.00  0.00     0.074 A 
ATOM     34  C   UNL A   1      41.211  28.394  29.818  1.00  0.00     0.049 A 
ATOM     35  N   UNL A   1      39.303  30.568  29.640  1.00  0.00    -0.248 NA
ATOM     36  C   UNL A   1      37.638  29.133  28.965  1.00  0.00     0.031 C 
ATOM     37  C   UNL A   1      41.511  29.292  30.929  1.00  0.00     0.029 A 
ATOM     38  N   UNL A   1      42.437  27.810  29.505  1.00  0.00    -0.354 N 
ATOM     39  C   UNL A   1      38.104  31.174  29.922  1.00  0.00     0.074 A 
ATOM     40  C   UNL A   1      37.099  30.277  29.397  1.00  0.00     0.031 C 
ATOM     41  C   UNL A   1      42.844  29.400  31.048  1.00  0.00     0.029 A 
ATOM     42  C   UNL A   1      43.442  28.698  29.926  1.00  0.00     0.049 A 
ATOM     43  H   UNL A   1      42.573  26.937  29.071  1.00  0.00     0.167 HD
ATOM     44  C   UNL A   1      38.082  32.300  30.691  1.00  0.00     0.031 A 
ATOM     45  C   UNL A   1      44.293  29.254  29.014  1.00  0.00     0.031 A 
ATOM     46  C   UNL A   1      39.425  32.779  31.029  1.00  0.00     0.049 A 
ATOM     47  C   UNL A   1      44.199  30.765  28.899  1.00  0.00     0.074 A 
ATOM     48  C   UNL A   1      40.197  32.777  32.180  1.00  0.00     0.029 A 
ATOM     49  N   UNL A   1      40.280  33.144  30.001  1.00  0.00    -0.354 N 
ATOM     50  N   UNL A   1      43.355  31.509  29.558  1.00  0.00    -0.248 NA
ATOM     51  C   UNL A   1      44.984  31.539  27.933  1.00  0.00     0.031 C 
ATOM     52  C   UNL A   1      41.524  33.158  31.829  1.00  0.00     0.029 A 
ATOM     53  C   UNL A   1      41.555  33.395  30.469  1.00  0.00     0.049 A 
ATOM     54  H   UNL A   1      40.013  33.215  29.056  1.00  0.00     0.167 HD
ATOM     55  C   UNL A   1      43.422  32.794  29.089  1.00  0.00     0.074 A 
ATOM     56  C   UNL A   1      44.462  32.768  28.079  1.00  0.00     0.031 C 
ATOM     57  C   UNL A   1      42.584  33.780  29.520  1.00  0.00     0.031 A 
BRANCH  44  58
ATOM     58  C   UNL A   1      36.825  32.824  31.346  1.00  0.00    -0.014 A 
ATOM     59  C   UNL A   1      36.502  32.428  32.656  1.00  0.00     0.009 A 
ATOM     60  C   UNL A   1      35.894  33.667  30.716  1.00  0.00     0.009 A 
ATOM     61  C   UNL A   1      35.278  32.757  33.254  1.00  0.00     0.001 A 
ATOM     62  C   UNL A   1      34.649  33.966  31.287  1.00  0.00     0.001 A 
ATOM     63  C   UNL A   1      34.335  33.499  32.554  1.00  0.00     0.000 A 
ENDBRANCH  44  58
BRANCH  45  64
ATOM     64  C   UNL A   1      44.610  28.344  27.875  1.00  0.00    -0.014 A 
ATOM     65  C   UNL A   1      45.364  27.182  28.135  1.00  0.00     0.009 A 
ATOM     66  C   UNL A   1      43.906  28.429  26.666  1.00  0.00     0.009 A 
ATOM     67  C   UNL A   1      45.320  26.090  27.263  1.00  0.00     0.001 A 
ATOM     68  C   UNL A   1      43.880  27.340  25.787  1.00  0.00     0.001 A 
ATOM     69  C   UNL A   1      44.555  26.161  26.103  1.00  0.00     0.000 A 
ENDBRANCH  45  64
BRANCH  57  70
ATOM     70  C   UNL A   1      42.649  35.203  29.042  1.00  0.00    -0.014 A 
ATOM     71  C   UNL A   1      41.887  35.676  27.965  1.00  0.00     0.009 A 
ATOM     72  C   UNL A   1      43.595  36.090  29.599  1.00  0.00     0.009 A 
ATOM     73  C   UNL A   1      42.020  36.994  27.506  1.00  0.00     0.001 A 
ATOM     74  C   UNL A   1      43.747  37.397  29.128  1.00  0.00     0.001 A 
ATOM     75  C   UNL A   1      42.949  37.852  28.088  1.00  0.00     0.000 A 
ENDBRANCH  57  70
ENDBRANCH  31  32
ENDBRANCH  23  26
ENDBRANCH  21  22
ENDBRANCH  20  21
ENDBRANCH   1  20
TORSDOF 13
ENDMDL
MODEL 3
REMARK VINA RESULT:     -11.3      3.424      8.464
REMARK SMILES Cc1ccccc1-c1nc(CC(=O)NCCCCNC(=O)c2ccc(-c3c4nc(c(-c5ccccc5)c5ccc([nH]5)c(-c5ccccc5)c5nc(c(-c6ccccc6)c6ccc3[nH]6)C=C5)C=C4)cc2)cs1
REMARK SMILES IDX 16 1 15 2 14 3 12 4 13 5 11 7 10 8 8 9 9 10 71 11 70 12 7 13
REMARK SMILES IDX 1 14 2 15 3 16 4 17 6 18 5 19 17 20 18 21 19 22 20 23 21 25
REMARK SMILES IDX 22 26 23 27 69 28 24 29 68 30 25 31 26 32 27 33 62 34 28 35
REMARK SMILES IDX 67 36 61 37 63 38 29 39 66 40 60 41 59 42 30 44 52 45 37 46
REMARK SMILES IDX 51 47 38 48 41 49 50 50 64 51 39 52 40 53 49 55 65 56 42 57
REMARK SMILES IDX 31 58 32 59 36 60 33 61 35 62 34 63 53 64 54 65 58 66 55 67
REMARK SMILES IDX 57 68 56 69 43 70 44 71 48 72 45 73 47 74 46 75
REMARK H PARENT 14 6 19 24 63 43 41 54
REMARK Flexibility Score: inf
ROOT
ATOM      1  C   UNL A   1      37.984  22.321  25.387  1.00  0.00     0.023 C 
ENDROOT
BRANCH   1   2
ATOM      2  C   UNL A   1      36.927  23.321  25.881  1.00  0.00     0.116 C 
BRANCH   2   3
ATOM      3  N   UNL A   1      35.816  22.687  26.574  1.00  0.00    -0.356 N 
ATOM      4  C   UNL A   1      34.584  22.330  26.103  1.00  0.00     0.226 C 
ATOM      5  O   UNL A   1      33.772  21.856  26.902  1.00  0.00    -0.275 OA
ATOM      6  H   UNL A   1      35.975  22.486  27.525  1.00  0.00     0.163 HD
BRANCH   4   7
ATOM      7  C   UNL A   1      34.242  22.475  24.633  1.00  0.00     0.157 C 
BRANCH   7   8
ATOM      8  C   UNL A   1      33.391  23.669  24.367  1.00  0.00     0.061 A 
ATOM      9  C   UNL A   1      32.690  25.715  24.869  1.00  0.00     0.123 A 
ATOM     10  N   UNL A   1      33.572  24.785  25.168  1.00  0.00    -0.241 NA
ATOM     11  S   UNL A   1      31.647  25.335  23.554  1.00  0.00    -0.122 S 
ATOM     12  C   UNL A   1      32.400  23.800  23.413  1.00  0.00     0.091 A 
BRANCH   9  13
ATOM     13  C   UNL A   1      32.559  26.982  25.593  1.00  0.00     0.013 A 
ATOM     14  C   UNL A   1      34.041  28.207  23.900  1.00  0.00     0.045 C 
ATOM     15  C   UNL A   1      33.205  28.153  25.151  1.00  0.00    -0.041 A 
ATOM     16  C   UNL A   1      33.105  29.323  25.924  1.00  0.00     0.004 A 
ATOM     17  C   UNL A   1      32.374  29.338  27.112  1.00  0.00     0.000 A 
ATOM     18  C   UNL A   1      31.828  27.012  26.797  1.00  0.00     0.011 A 
ATOM     19  C   UNL A   1      31.735  28.183  27.549  1.00  0.00     0.001 A 
ENDBRANCH   9  13
ENDBRANCH   7   8
ENDBRANCH   4   7
ENDBRANCH   2   3
ENDBRANCH   1   2
BRANCH   1  20
ATOM     20  C   UNL A   1      39.383  22.476  25.985  1.00  0.00     0.023 C 
BRANCH  20  21
ATOM     21  C   UNL A   1      39.883  21.246  26.723  1.00  0.00     0.116 C 
BRANCH  21  22
ATOM     22  N   UNL A   1      40.894  20.476  26.007  1.00  0.00    -0.352 N 
ATOM     23  C   UNL A   1      42.265  20.681  25.948  1.00  0.00     0.251 C 
ATOM     24  H   UNL A   1      40.558  19.705  25.496  1.00  0.00     0.163 HD
ATOM     25  O   UNL A   1      42.970  19.959  25.262  1.00  0.00    -0.269 OA
BRANCH  23  26
ATOM     26  C   UNL A   1      42.879  21.701  26.834  1.00  0.00     0.039 A 
ATOM     27  C   UNL A   1      42.531  21.679  28.188  1.00  0.00     0.014 A 
ATOM     28  C   UNL A   1      43.580  22.784  26.308  1.00  0.00     0.014 A 
ATOM     29  C   UNL A   1      42.645  22.846  28.938  1.00  0.00     0.010 A 
ATOM     30  C   UNL A   1      43.601  23.969  27.017  1.00  0.00     0.010 A 
ATOM     31  C   UNL A   1      43.061  24.017  28.306  1.00  0.00    -0.014 A 
BRANCH  31  32
ATOM     32  C   UNL A   1      42.805  25.344  28.856  1.00  0.00     0.031 A 
ATOM     33  C   UNL A   1      41.630  26.130  28.444  1.00  0.00     0.074 A 
ATOM     34  C   UNL A   1      43.634  25.846  29.798  1.00  0.00     0.049 A 
ATOM     35  N   UNL A   1      41.561  27.417  28.522  1.00  0.00    -0.248 NA
ATOM     36  C   UNL A   1      40.445  25.520  27.857  1.00  0.00     0.031 C 
ATOM     37  C   UNL A   1      43.421  27.010  30.652  1.00  0.00     0.029 A 
ATOM     38  N   UNL A   1      44.972  25.512  29.996  1.00  0.00    -0.354 N 
ATOM     39  C   UNL A   1      40.253  27.771  28.295  1.00  0.00     0.074 A 
ATOM     40  C   UNL A   1      39.622  26.571  27.794  1.00  0.00     0.031 C 
ATOM     41  C   UNL A   1      44.612  27.451  31.085  1.00  0.00     0.029 A 
ATOM     42  C   UNL A   1      45.638  26.681  30.403  1.00  0.00     0.049 A 
ATOM     43  H   UNL A   1      45.375  24.622  29.876  1.00  0.00     0.167 HD
ATOM     44  C   UNL A   1      39.811  29.001  28.685  1.00  0.00     0.031 A 
ATOM     45  C   UNL A   1      46.635  27.208  29.632  1.00  0.00     0.031 A 
ATOM     46  C   UNL A   1      40.884  29.844  29.219  1.00  0.00     0.049 A 
ATOM     47  C   UNL A   1      46.343  28.592  29.079  1.00  0.00     0.074 A 
ATOM     48  C   UNL A   1      41.242  30.275  30.486  1.00  0.00     0.029 A 
ATOM     49  N   UNL A   1      41.951  30.165  28.394  1.00  0.00    -0.354 N 
ATOM     50  N   UNL A   1      45.227  29.243  29.257  1.00  0.00    -0.248 NA
ATOM     51  C   UNL A   1      47.259  29.298  28.180  1.00  0.00     0.031 C 
ATOM     52  C   UNL A   1      42.534  30.871  30.408  1.00  0.00     0.029 A 
ATOM     53  C   UNL A   1      42.955  30.805  29.095  1.00  0.00     0.049 A 
ATOM     54  H   UNL A   1      41.989  29.963  27.432  1.00  0.00     0.167 HD
ATOM     55  C   UNL A   1      45.233  30.373  28.483  1.00  0.00     0.074 A 
ATOM     56  C   UNL A   1      46.530  30.372  27.834  1.00  0.00     0.031 C 
ATOM     57  C   UNL A   1      44.157  31.204  28.384  1.00  0.00     0.031 A 
BRANCH  44  58
ATOM     58  C   UNL A   1      38.345  29.345  28.810  1.00  0.00    -0.014 A 
ATOM     59  C   UNL A   1      37.631  29.780  27.679  1.00  0.00     0.009 A 
ATOM     60  C   UNL A   1      37.621  29.313  30.013  1.00  0.00     0.009 A 
ATOM     61  C   UNL A   1      36.317  30.259  27.765  1.00  0.00     0.001 A 
ATOM     62  C   UNL A   1      36.322  29.830  30.119  1.00  0.00     0.001 A 
ATOM     63  C   UNL A   1      35.673  30.317  28.994  1.00  0.00     0.000 A 
ENDBRANCH  44  58
BRANCH  45  64
ATOM     64  C   UNL A   1      47.435  26.171  28.919  1.00  0.00    -0.014 A 
ATOM     65  C   UNL A   1      47.096  25.861  27.586  1.00  0.00     0.009 A 
ATOM     66  C   UNL A   1      48.687  25.767  29.403  1.00  0.00     0.009 A 
ATOM     67  C   UNL A   1      48.029  25.268  26.730  1.00  0.00     0.001 A 
ATOM     68  C   UNL A   1      49.611  25.157  28.547  1.00  0.00     0.001 A 
ATOM     69  C   UNL A   1      49.295  24.941  27.205  1.00  0.00     0.000 A 
ENDBRANCH  45  64
BRANCH  57  70
ATOM     70  C   UNL A   1      44.143  32.463  27.563  1.00  0.00    -0.014 A 
ATOM     71  C   UNL A   1      44.433  32.476  26.192  1.00  0.00     0.009 A 
ATOM     72  C   UNL A   1      43.956  33.711  28.192  1.00  0.00     0.009 A 
ATOM     73  C   UNL A   1      44.472  33.677  25.471  1.00  0.00     0.001 A 
ATOM     74  C   UNL A   1      44.018  34.913  27.481  1.00  0.00     0.001 A 
ATOM     75  C   UNL A   1      44.265  34.893  26.115  1.00  0.00     0.000 A 
ENDBRANCH  57  70
ENDBRANCH  31  32
ENDBRANCH  23  26
ENDBRANCH  21  22
ENDBRANCH  20  21
ENDBRANCH   1  20
TORSDOF 13
ENDMDL
