MODEL 1
REMARK VINA RESULT:     -10.5      0.000      0.000
REMARK SMILES CCN(c1ncc([N+](=O)[O-])cc1Br)[C@@H](C)CC(=O)NCCCCNC(=O)c1ccc(-c2c3nc(c(-c4ccccc4)c4ccc([nH]4)c(-c4ccccc4)c4nc(c(-c5ccccc5)c5ccc2[nH]5)C=C4)C=C3)cc1
REMARK SMILES IDX 20 1 19 2 17 3 18 4 16 6 14 7 15 8 3 9 2 10 1 11 4 12 5 13
REMARK SMILES IDX 12 14 6 15 11 16 13 17 7 18 8 19 9 20 10 21 21 22 22 23
REMARK SMILES IDX 23 24 24 25 25 26 26 28 27 29 28 30 74 31 29 32 73 33 30 34
REMARK SMILES IDX 31 35 32 36 67 37 33 38 72 39 66 40 68 41 34 42 71 43 65 44
REMARK SMILES IDX 64 45 35 47 57 48 42 49 56 50 43 51 46 52 55 53 69 54 44 55
REMARK SMILES IDX 45 56 54 58 70 59 47 60 36 61 37 62 41 63 38 64 40 65 39 66
REMARK SMILES IDX 58 67 59 68 63 69 60 70 62 71 61 72 48 73 49 74 53 75 50 76
REMARK SMILES IDX 52 77 51 78
REMARK H PARENT 19 5 24 27 68 46 46 57
REMARK Flexibility Score: inf
ROOT
ATOM      1  C   UNL A   1      32.471  27.549  26.441  1.00  0.00     0.116 C 
ENDROOT
BRANCH   1   2
ATOM      2  N   UNL A   1      31.657  26.388  26.742  1.00  0.00    -0.356 N 
ATOM      3  C   UNL A   1      31.946  25.064  26.573  1.00  0.00     0.222 C 
ATOM      4  O   UNL A   1      31.037  24.246  26.729  1.00  0.00    -0.275 OA
ATOM      5  H   UNL A   1      30.770  26.581  27.124  1.00  0.00     0.163 HD
BRANCH   3   6
ATOM      6  C   UNL A   1      33.365  24.608  26.290  1.00  0.00     0.124 C 
BRANCH   6   7
ATOM      7  C   UNL A   1      33.539  23.082  26.301  1.00  0.00     0.090 C 
ATOM      8  C   UNL A   1      33.958  22.554  27.680  1.00  0.00     0.031 C 
BRANCH   7   9
ATOM      9  N   UNL A   1      34.465  22.563  25.250  1.00  0.00    -0.353 N 
BRANCH   9  10
ATOM     10  C   UNL A   1      35.775  23.178  24.974  1.00  0.00     0.115 C 
ATOM     11  C   UNL A   1      36.289  23.194  23.542  1.00  0.00     0.027 C 
ENDBRANCH   9  10
BRANCH   9  12
ATOM     12  C   UNL A   1      34.110  21.329  24.684  1.00  0.00     0.143 A 
ATOM     13  N   UNL A   1      34.940  20.293  25.000  1.00  0.00    -0.231 NA
ATOM     14  C   UNL A   1      32.943  21.022  23.946  1.00  0.00     0.067 A 
ATOM     15  C   UNL A   1      34.586  19.003  24.770  1.00  0.00     0.199 A 
ATOM     16  C   UNL A   1      32.563  19.681  23.745  1.00  0.00     0.107 A 
ATOM     17  Br  UNL A   1      31.806  22.262  23.045  1.00  0.00    -0.047 Br
ATOM     18  C   UNL A   1      33.383  18.661  24.207  1.00  0.00     0.288 A 
BRANCH  18  19
ATOM     19  N   UNL A   1      32.976  17.267  24.137  1.00  0.00     0.064 N 
ATOM     20  O   UNL A   1      32.241  16.838  25.037  1.00  0.00    -0.258 OA
ATOM     21  O   UNL A   1      33.365  16.604  23.167  1.00  0.00    -0.258 OA
ENDBRANCH  18  19
ENDBRANCH   9  12
ENDBRANCH   7   9
ENDBRANCH   6   7
ENDBRANCH   3   6
ENDBRANCH   1   2
BRANCH   1  22
ATOM     22  C   UNL A   1      32.031  28.745  27.279  1.00  0.00     0.023 C 
BRANCH  22  23
ATOM     23  C   UNL A   1      32.131  30.092  26.594  1.00  0.00     0.023 C 
BRANCH  23  24
ATOM     24  C   UNL A   1      33.048  31.067  27.303  1.00  0.00     0.116 C 
BRANCH  24  25
ATOM     25  N   UNL A   1      32.484  32.405  27.449  1.00  0.00    -0.352 N 
ATOM     26  C   UNL A   1      33.014  33.498  28.102  1.00  0.00     0.251 C 
ATOM     27  H   UNL A   1      31.607  32.546  27.023  1.00  0.00     0.163 HD
ATOM     28  O   UNL A   1      32.380  34.539  28.205  1.00  0.00    -0.269 OA
BRANCH  26  29
ATOM     29  C   UNL A   1      34.346  33.364  28.725  1.00  0.00     0.039 A 
ATOM     30  C   UNL A   1      34.462  32.715  29.956  1.00  0.00     0.014 A 
ATOM     31  C   UNL A   1      35.484  33.753  28.019  1.00  0.00     0.014 A 
ATOM     32  C   UNL A   1      35.728  32.354  30.422  1.00  0.00     0.010 A 
ATOM     33  C   UNL A   1      36.724  33.276  28.417  1.00  0.00     0.010 A 
ATOM     34  C   UNL A   1      36.863  32.573  29.625  1.00  0.00    -0.014 A 
BRANCH  34  35
ATOM     35  C   UNL A   1      38.211  32.095  30.022  1.00  0.00     0.031 A 
ATOM     36  C   UNL A   1      38.727  30.791  29.471  1.00  0.00     0.074 A 
ATOM     37  C   UNL A   1      38.928  32.764  30.947  1.00  0.00     0.049 A 
ATOM     38  N   UNL A   1      39.808  30.125  29.793  1.00  0.00    -0.248 NA
ATOM     39  C   UNL A   1      37.888  30.119  28.464  1.00  0.00     0.031 C 
ATOM     40  C   UNL A   1      38.519  34.002  31.616  1.00  0.00     0.029 A 
ATOM     41  N   UNL A   1      40.158  32.489  31.491  1.00  0.00    -0.354 N 
ATOM     42  C   UNL A   1      39.745  28.942  29.070  1.00  0.00     0.074 A 
ATOM     43  C   UNL A   1      38.498  28.952  28.340  1.00  0.00     0.031 C 
ATOM     44  C   UNL A   1      39.498  34.400  32.445  1.00  0.00     0.029 A 
ATOM     45  C   UNL A   1      40.584  33.428  32.399  1.00  0.00     0.049 A 
ATOM     46  H   UNL A   1      40.685  31.691  31.253  1.00  0.00     0.167 HD
ATOM     47  C   UNL A   1      40.657  27.944  28.991  1.00  0.00     0.031 A 
ATOM     48  C   UNL A   1      41.724  33.498  33.111  1.00  0.00     0.031 A 
ATOM     49  C   UNL A   1      41.927  27.963  29.661  1.00  0.00     0.049 A 
ATOM     50  C   UNL A   1      42.754  32.414  32.958  1.00  0.00     0.074 A 
ATOM     51  C   UNL A   1      42.960  27.048  29.577  1.00  0.00     0.029 A 
ATOM     52  N   UNL A   1      42.343  28.962  30.526  1.00  0.00    -0.354 N 
ATOM     53  N   UNL A   1      42.708  31.331  32.221  1.00  0.00    -0.248 NA
ATOM     54  C   UNL A   1      43.997  32.568  33.728  1.00  0.00     0.031 C 
ATOM     55  C   UNL A   1      43.995  27.482  30.413  1.00  0.00     0.029 A 
ATOM     56  C   UNL A   1      43.617  28.685  30.987  1.00  0.00     0.049 A 
ATOM     57  H   UNL A   1      41.810  29.753  30.775  1.00  0.00     0.167 HD
ATOM     58  C   UNL A   1      43.922  30.687  32.419  1.00  0.00     0.074 A 
ATOM     59  C   UNL A   1      44.689  31.508  33.333  1.00  0.00     0.031 C 
ATOM     60  C   UNL A   1      44.363  29.519  31.892  1.00  0.00     0.031 A 
BRANCH  47  61
ATOM     61  C   UNL A   1      40.306  26.761  28.136  1.00  0.00    -0.014 A 
ATOM     62  C   UNL A   1      39.528  25.705  28.638  1.00  0.00     0.009 A 
ATOM     63  C   UNL A   1      40.760  26.699  26.810  1.00  0.00     0.009 A 
ATOM     64  C   UNL A   1      39.255  24.588  27.847  1.00  0.00     0.001 A 
ATOM     65  C   UNL A   1      40.459  25.594  26.010  1.00  0.00     0.001 A 
ATOM     66  C   UNL A   1      39.718  24.535  26.533  1.00  0.00     0.000 A 
ENDBRANCH  47  61
BRANCH  48  67
ATOM     67  C   UNL A   1      41.976  34.659  34.004  1.00  0.00    -0.014 A 
ATOM     68  C   UNL A   1      41.623  34.592  35.361  1.00  0.00     0.009 A 
ATOM     69  C   UNL A   1      42.562  35.834  33.511  1.00  0.00     0.009 A 
ATOM     70  C   UNL A   1      41.831  35.689  36.202  1.00  0.00     0.001 A 
ATOM     71  C   UNL A   1      42.790  36.919  34.360  1.00  0.00     0.001 A 
ATOM     72  C   UNL A   1      42.417  36.850  35.701  1.00  0.00     0.000 A 
ENDBRANCH  48  67
BRANCH  60  73
ATOM     73  C   UNL A   1      45.747  29.079  32.265  1.00  0.00    -0.014 A 
ATOM     74  C   UNL A   1      46.872  29.577  31.589  1.00  0.00     0.009 A 
ATOM     75  C   UNL A   1      45.928  28.195  33.339  1.00  0.00     0.009 A 
ATOM     76  C   UNL A   1      48.153  29.175  31.968  1.00  0.00     0.001 A 
ATOM     77  C   UNL A   1      47.213  27.813  33.729  1.00  0.00     0.001 A 
ATOM     78  C   UNL A   1      48.323  28.298  33.040  1.00  0.00     0.000 A 
ENDBRANCH  60  73
ENDBRANCH  34  35
ENDBRANCH  26  29
ENDBRANCH  24  25
ENDBRANCH  23  24
ENDBRANCH  22  23
ENDBRANCH   1  22
TORSDOF 16
ENDMDL
MODEL 2
REMARK VINA RESULT:     -10.2      2.996      7.216
REMARK SMILES CCN(c1ncc([N+](=O)[O-])cc1Br)[C@@H](C)CC(=O)NCCCCNC(=O)c1ccc(-c2c3nc(c(-c4ccccc4)c4ccc([nH]4)c(-c4ccccc4)c4nc(c(-c5ccccc5)c5ccc2[nH]5)C=C4)C=C3)cc1
REMARK SMILES IDX 20 1 19 2 17 3 18 4 16 6 14 7 15 8 3 9 2 10 1 11 4 12 5 13
REMARK SMILES IDX 12 14 6 15 11 16 13 17 7 18 8 19 9 20 10 21 21 22 22 23
REMARK SMILES IDX 23 24 24 25 25 26 26 28 27 29 28 30 74 31 29 32 73 33 30 34
REMARK SMILES IDX 31 35 32 36 67 37 33 38 72 39 66 40 68 41 34 42 71 43 65 44
REMARK SMILES IDX 64 45 35 47 57 48 42 49 56 50 43 51 46 52 55 53 69 54 44 55
REMARK SMILES IDX 45 56 54 58 70 59 47 60 36 61 37 62 41 63 38 64 40 65 39 66
REMARK SMILES IDX 58 67 59 68 63 69 60 70 62 71 61 72 48 73 49 74 53 75 50 76
REMARK SMILES IDX 52 77 51 78
REMARK H PARENT 19 5 24 27 68 46 46 57
REMARK Flexibility Score: inf
ROOT
ATOM      1  C   UNL A   1      31.411  27.507  25.516  1.00  0.00     0.116 C 
ENDROOT
BRANCH   1   2
ATOM      2  N   UNL A   1      31.853  28.209  24.326  1.00  0.00    -0.356 N 
ATOM      3  C   UNL A   1      32.994  28.033  23.596  1.00  0.00     0.222 C 
ATOM      4  O   UNL A   1      33.256  28.862  22.721  1.00  0.00    -0.275 OA
ATOM      5  H   UNL A   1      31.244  28.909  23.999  1.00  0.00     0.163 HD
BRANCH   3   6
ATOM      6  C   UNL A   1      33.863  26.807  23.794  1.00  0.00     0.124 C 
BRANCH   6   7
ATOM      7  C   UNL A   1      33.711  25.754  22.685  1.00  0.00     0.090 C 
ATOM      8  C   UNL A   1      32.803  26.237  21.545  1.00  0.00     0.031 C 
BRANCH   7   9
ATOM      9  N   UNL A   1      33.259  24.416  23.169  1.00  0.00    -0.353 N 
BRANCH   9  10
ATOM     10  C   UNL A   1      31.964  23.829  22.786  1.00  0.00     0.115 C 
ATOM     11  C   UNL A   1      30.757  24.067  23.683  1.00  0.00     0.027 C 
ENDBRANCH   9  10
BRANCH   9  12
ATOM     12  C   UNL A   1      34.229  23.654  23.840  1.00  0.00     0.143 A 
ATOM     13  N   UNL A   1      35.218  23.155  23.043  1.00  0.00    -0.231 NA
ATOM     14  C   UNL A   1      34.360  23.460  25.235  1.00  0.00     0.067 A 
ATOM     15  C   UNL A   1      36.363  22.647  23.566  1.00  0.00     0.199 A 
ATOM     16  C   UNL A   1      35.566  22.967  25.771  1.00  0.00     0.107 A 
ATOM     17  Br  UNL A   1      32.999  23.696  26.551  1.00  0.00    -0.047 Br
ATOM     18  C   UNL A   1      36.596  22.598  24.917  1.00  0.00     0.288 A 
BRANCH  18  19
ATOM     19  N   UNL A   1      37.899  22.205  25.423  1.00  0.00     0.064 N 
ATOM     20  O   UNL A   1      38.463  22.972  26.216  1.00  0.00    -0.258 OA
ATOM     21  O   UNL A   1      38.354  21.114  25.054  1.00  0.00    -0.258 OA
ENDBRANCH  18  19
ENDBRANCH   9  12
ENDBRANCH   7   9
ENDBRANCH   6   7
ENDBRANCH   3   6
ENDBRANCH   1   2
BRANCH   1  22
ATOM     22  C   UNL A   1      31.487  28.420  26.736  1.00  0.00     0.023 C 
BRANCH  22  23
ATOM     23  C   UNL A   1      32.862  28.571  27.352  1.00  0.00     0.023 C 
BRANCH  23  24
ATOM     24  C   UNL A   1      33.613  29.793  26.867  1.00  0.00     0.116 C 
BRANCH  24  25
ATOM     25  N   UNL A   1      33.669  30.876  27.844  1.00  0.00    -0.352 N 
ATOM     26  C   UNL A   1      34.673  31.180  28.738  1.00  0.00     0.251 C 
ATOM     27  H   UNL A   1      32.883  31.469  27.866  1.00  0.00     0.163 HD
ATOM     28  O   UNL A   1      34.538  32.081  29.555  1.00  0.00    -0.269 OA
BRANCH  26  29
ATOM     29  C   UNL A   1      35.897  30.353  28.725  1.00  0.00     0.039 A 
ATOM     30  C   UNL A   1      36.744  30.405  27.617  1.00  0.00     0.014 A 
ATOM     31  C   UNL A   1      36.268  29.647  29.869  1.00  0.00     0.014 A 
ATOM     32  C   UNL A   1      38.018  29.840  27.704  1.00  0.00     0.010 A 
ATOM     33  C   UNL A   1      37.577  29.207  29.999  1.00  0.00     0.010 A 
ATOM     34  C   UNL A   1      38.468  29.295  28.917  1.00  0.00    -0.014 A 
BRANCH  34  35
ATOM     35  C   UNL A   1      39.856  28.797  29.093  1.00  0.00     0.031 A 
ATOM     36  C   UNL A   1      40.911  29.721  29.643  1.00  0.00     0.074 A 
ATOM     37  C   UNL A   1      40.197  27.564  28.669  1.00  0.00     0.049 A 
ATOM     38  N   UNL A   1      42.203  29.536  29.745  1.00  0.00    -0.248 NA
ATOM     39  C   UNL A   1      40.460  31.051  30.086  1.00  0.00     0.031 C 
ATOM     40  C   UNL A   1      39.293  26.589  28.052  1.00  0.00     0.029 A 
ATOM     41  N   UNL A   1      41.409  26.919  28.688  1.00  0.00    -0.354 N 
ATOM     42  C   UNL A   1      42.716  30.739  30.210  1.00  0.00     0.074 A 
ATOM     43  C   UNL A   1      41.611  31.663  30.314  1.00  0.00     0.031 C 
ATOM     44  C   UNL A   1      39.971  25.459  27.793  1.00  0.00     0.029 A 
ATOM     45  C   UNL A   1      41.364  25.641  28.185  1.00  0.00     0.049 A 
ATOM     46  H   UNL A   1      42.234  27.335  29.029  1.00  0.00     0.167 HD
ATOM     47  C   UNL A   1      43.990  31.044  30.552  1.00  0.00     0.031 A 
ATOM     48  C   UNL A   1      42.336  24.719  28.060  1.00  0.00     0.031 A 
ATOM     49  C   UNL A   1      45.078  30.108  30.514  1.00  0.00     0.049 A 
ATOM     50  C   UNL A   1      43.731  25.055  28.508  1.00  0.00     0.074 A 
ATOM     51  C   UNL A   1      46.386  30.288  30.925  1.00  0.00     0.029 A 
ATOM     52  N   UNL A   1      44.975  28.805  30.054  1.00  0.00    -0.354 N 
ATOM     53  N   UNL A   1      44.188  26.178  29.007  1.00  0.00    -0.248 NA
ATOM     54  C   UNL A   1      44.740  23.993  28.387  1.00  0.00     0.031 C 
ATOM     55  C   UNL A   1      47.083  29.098  30.688  1.00  0.00     0.029 A 
ATOM     56  C   UNL A   1      46.199  28.169  30.165  1.00  0.00     0.049 A 
ATOM     57  H   UNL A   1      44.154  28.393  29.700  1.00  0.00     0.167 HD
ATOM     58  C   UNL A   1      45.530  25.951  29.280  1.00  0.00     0.074 A 
ATOM     59  C   UNL A   1      45.809  24.580  28.906  1.00  0.00     0.031 C 
ATOM     60  C   UNL A   1      46.451  26.803  29.793  1.00  0.00     0.031 A 
BRANCH  47  61
ATOM     61  C   UNL A   1      44.258  32.450  31.009  1.00  0.00    -0.014 A 
ATOM     62  C   UNL A   1      44.645  33.448  30.101  1.00  0.00     0.009 A 
ATOM     63  C   UNL A   1      44.124  32.780  32.366  1.00  0.00     0.009 A 
ATOM     64  C   UNL A   1      44.943  34.736  30.550  1.00  0.00     0.001 A 
ATOM     65  C   UNL A   1      44.392  34.077  32.807  1.00  0.00     0.001 A 
ATOM     66  C   UNL A   1      44.813  35.051  31.901  1.00  0.00     0.000 A 
ENDBRANCH  47  61
BRANCH  48  67
ATOM     67  C   UNL A   1      42.020  23.370  27.523  1.00  0.00    -0.014 A 
ATOM     68  C   UNL A   1      41.440  22.399  28.355  1.00  0.00     0.009 A 
ATOM     69  C   UNL A   1      42.295  23.043  26.187  1.00  0.00     0.009 A 
ATOM     70  C   UNL A   1      41.165  21.119  27.866  1.00  0.00     0.001 A 
ATOM     71  C   UNL A   1      41.996  21.771  25.695  1.00  0.00     0.001 A 
ATOM     72  C   UNL A   1      41.440  20.808  26.536  1.00  0.00     0.000 A 
ENDBRANCH  48  67
BRANCH  60  73
ATOM     73  C   UNL A   1      47.835  26.265  30.010  1.00  0.00    -0.014 A 
ATOM     74  C   UNL A   1      48.767  26.220  28.962  1.00  0.00     0.009 A 
ATOM     75  C   UNL A   1      48.223  25.847  31.291  1.00  0.00     0.009 A 
ATOM     76  C   UNL A   1      50.057  25.740  29.190  1.00  0.00     0.001 A 
ATOM     77  C   UNL A   1      49.522  25.389  31.520  1.00  0.00     0.001 A 
ATOM     78  C   UNL A   1      50.434  25.330  30.469  1.00  0.00     0.000 A 
ENDBRANCH  60  73
ENDBRANCH  34  35
ENDBRANCH  26  29
ENDBRANCH  24  25
ENDBRANCH  23  24
ENDBRANCH  22  23
ENDBRANCH   1  22
TORSDOF 16
ENDMDL
MODEL 3
REMARK VINA RESULT:     -10.2      2.588      6.948
REMARK SMILES CCN(c1ncc([N+](=O)[O-])cc1Br)[C@@H](C)CC(=O)NCCCCNC(=O)c1ccc(-c2c3nc(c(-c4ccccc4)c4ccc([nH]4)c(-c4ccccc4)c4nc(c(-c5ccccc5)c5ccc2[nH]5)C=C4)C=C3)cc1
REMARK SMILES IDX 20 1 19 2 17 3 18 4 16 6 14 7 15 8 3 9 2 10 1 11 4 12 5 13
REMARK SMILES IDX 12 14 6 15 11 16 13 17 7 18 8 19 9 20 10 21 21 22 22 23
REMARK SMILES IDX 23 24 24 25 25 26 26 28 27 29 28 30 74 31 29 32 73 33 30 34
REMARK SMILES IDX 31 35 32 36 67 37 33 38 72 39 66 40 68 41 34 42 71 43 65 44
REMARK SMILES IDX 64 45 35 47 57 48 42 49 56 50 43 51 46 52 55 53 69 54 44 55
REMARK SMILES IDX 45 56 54 58 70 59 47 60 36 61 37 62 41 63 38 64 40 65 39 66
REMARK SMILES IDX 58 67 59 68 63 69 60 70 62 71 61 72 48 73 49 74 53 75 50 76
REMARK SMILES IDX 52 77 51 78
REMARK H PARENT 19 5 24 27 68 46 46 57
REMARK Flexibility Score: inf
ROOT
ATOM      1  C   UNL A   1      33.772  27.172  24.033  1.00  0.00     0.116 C 
ENDROOT
BRANCH   1   2
ATOM      2  N   UNL A   1      32.910  26.440  23.126  1.00  0.00    -0.356 N 
ATOM      3  C   UNL A   1      32.936  25.117  22.791  1.00  0.00     0.222 C 
ATOM      4  O   UNL A   1      32.220  24.739  21.860  1.00  0.00    -0.275 OA
ATOM      5  H   UNL A   1      32.206  26.973  22.690  1.00  0.00     0.163 HD
BRANCH   3   6
ATOM      6  C   UNL A   1      33.750  24.126  23.601  1.00  0.00     0.124 C 
BRANCH   6   7
ATOM      7  C   UNL A   1      32.900  23.068  24.322  1.00  0.00     0.090 C 
ATOM      8  C   UNL A   1      31.569  23.639  24.830  1.00  0.00     0.031 C 
BRANCH   7   9
ATOM      9  N   UNL A   1      33.612  22.361  25.428  1.00  0.00    -0.353 N 
BRANCH   9  10
ATOM     10  C   UNL A   1      33.925  23.010  26.713  1.00  0.00     0.115 C 
ATOM     11  C   UNL A   1      33.330  22.434  27.990  1.00  0.00     0.027 C 
ENDBRANCH   9  10
BRANCH   9  12
ATOM     12  C   UNL A   1      33.779  20.978  25.256  1.00  0.00     0.143 A 
ATOM     13  N   UNL A   1      32.625  20.252  25.296  1.00  0.00    -0.231 NA
ATOM     14  C   UNL A   1      34.969  20.288  24.925  1.00  0.00     0.067 A 
ATOM     15  C   UNL A   1      32.581  18.963  24.872  1.00  0.00     0.199 A 
ATOM     16  C   UNL A   1      34.910  18.963  24.450  1.00  0.00     0.107 A 
ATOM     17  Br  UNL A   1      36.754  20.921  25.151  1.00  0.00    -0.047 Br
ATOM     18  C   UNL A   1      33.686  18.312  24.385  1.00  0.00     0.288 A 
BRANCH  18  19
ATOM     19  N   UNL A   1      33.556  16.994  23.786  1.00  0.00     0.064 N 
ATOM     20  O   UNL A   1      33.001  16.111  24.455  1.00  0.00    -0.258 OA
ATOM     21  O   UNL A   1      33.982  16.843  22.633  1.00  0.00    -0.258 OA
ENDBRANCH  18  19
ENDBRANCH   9  12
ENDBRANCH   7   9
ENDBRANCH   6   7
ENDBRANCH   3   6
ENDBRANCH   1   2
BRANCH   1  22
ATOM     22  C   UNL A   1      32.944  27.929  25.067  1.00  0.00     0.023 C 
BRANCH  22  23
ATOM     23  C   UNL A   1      33.656  29.071  25.761  1.00  0.00     0.023 C 
BRANCH  23  24
ATOM     24  C   UNL A   1      33.434  29.103  27.259  1.00  0.00     0.116 C 
BRANCH  24  25
ATOM     25  N   UNL A   1      33.594  30.429  27.849  1.00  0.00    -0.352 N 
ATOM     26  C   UNL A   1      34.710  30.979  28.441  1.00  0.00     0.251 C 
ATOM     27  H   UNL A   1      32.797  31.006  27.820  1.00  0.00     0.163 HD
ATOM     28  O   UNL A   1      34.665  32.084  28.965  1.00  0.00    -0.269 OA
BRANCH  26  29
ATOM     29  C   UNL A   1      35.951  30.179  28.479  1.00  0.00     0.039 A 
ATOM     30  C   UNL A   1      36.850  30.263  27.414  1.00  0.00     0.014 A 
ATOM     31  C   UNL A   1      36.281  29.466  29.631  1.00  0.00     0.014 A 
ATOM     32  C   UNL A   1      38.130  29.724  27.557  1.00  0.00     0.010 A 
ATOM     33  C   UNL A   1      37.591  29.052  29.819  1.00  0.00     0.010 A 
ATOM     34  C   UNL A   1      38.532  29.172  28.784  1.00  0.00    -0.014 A 
BRANCH  34  35
ATOM     35  C   UNL A   1      39.920  28.702  29.022  1.00  0.00     0.031 A 
ATOM     36  C   UNL A   1      40.928  29.642  29.629  1.00  0.00     0.074 A 
ATOM     37  C   UNL A   1      40.307  27.480  28.604  1.00  0.00     0.049 A 
ATOM     38  N   UNL A   1      42.217  29.483  29.791  1.00  0.00    -0.248 NA
ATOM     39  C   UNL A   1      40.429  30.959  30.061  1.00  0.00     0.031 C 
ATOM     40  C   UNL A   1      39.454  26.493  27.937  1.00  0.00     0.029 A 
ATOM     41  N   UNL A   1      41.530  26.860  28.676  1.00  0.00    -0.354 N 
ATOM     42  C   UNL A   1      42.682  30.691  30.290  1.00  0.00     0.074 A 
ATOM     43  C   UNL A   1      41.554  31.592  30.349  1.00  0.00     0.031 C 
ATOM     44  C   UNL A   1      40.167  25.379  27.701  1.00  0.00     0.029 A 
ATOM     45  C   UNL A   1      41.536  25.586  28.161  1.00  0.00     0.049 A 
ATOM     46  H   UNL A   1      42.329  27.290  29.059  1.00  0.00     0.167 HD
ATOM     47  C   UNL A   1      43.932  31.020  30.695  1.00  0.00     0.031 A 
ATOM     48  C   UNL A   1      42.532  24.685  28.075  1.00  0.00     0.031 A 
ATOM     49  C   UNL A   1      45.040  30.107  30.701  1.00  0.00     0.049 A 
ATOM     50  C   UNL A   1      43.896  25.046  28.592  1.00  0.00     0.074 A 
ATOM     51  C   UNL A   1      46.323  30.310  31.175  1.00  0.00     0.029 A 
ATOM     52  N   UNL A   1      44.987  28.807  30.226  1.00  0.00    -0.354 N 
ATOM     53  N   UNL A   1      44.306  26.174  29.121  1.00  0.00    -0.248 NA
ATOM     54  C   UNL A   1      44.932  24.006  28.511  1.00  0.00     0.031 C 
ATOM     55  C   UNL A   1      47.056  29.137  30.963  1.00  0.00     0.029 A 
ATOM     56  C   UNL A   1      46.216  28.195  30.390  1.00  0.00     0.049 A 
ATOM     57  H   UNL A   1      44.191  28.381  29.830  1.00  0.00     0.167 HD
ATOM     58  C   UNL A   1      45.638  25.972  29.456  1.00  0.00     0.074 A 
ATOM     59  C   UNL A   1      45.963  24.610  29.085  1.00  0.00     0.031 C 
ATOM     60  C   UNL A   1      46.515  26.837  30.019  1.00  0.00     0.031 A 
BRANCH  47  61
ATOM     61  C   UNL A   1      44.149  32.427  31.175  1.00  0.00    -0.014 A 
ATOM     62  C   UNL A   1      43.871  32.792  32.502  1.00  0.00     0.009 A 
ATOM     63  C   UNL A   1      44.634  33.400  30.290  1.00  0.00     0.009 A 
ATOM     64  C   UNL A   1      44.026  34.116  32.919  1.00  0.00     0.001 A 
ATOM     65  C   UNL A   1      44.819  34.716  30.718  1.00  0.00     0.001 A 
ATOM     66  C   UNL A   1      44.503  35.075  32.028  1.00  0.00     0.000 A 
ENDBRANCH  47  61
BRANCH  48  67
ATOM     67  C   UNL A   1      42.270  23.335  27.512  1.00  0.00    -0.014 A 
ATOM     68  C   UNL A   1      42.640  23.039  26.191  1.00  0.00     0.009 A 
ATOM     69  C   UNL A   1      41.650  22.341  28.284  1.00  0.00     0.009 A 
ATOM     70  C   UNL A   1      42.372  21.781  25.645  1.00  0.00     0.001 A 
ATOM     71  C   UNL A   1      41.406  21.076  27.743  1.00  0.00     0.001 A 
ATOM     72  C   UNL A   1      41.759  20.800  26.423  1.00  0.00     0.000 A 
ENDBRANCH  48  67
BRANCH  60  73
ATOM     73  C   UNL A   1      47.897  26.327  30.298  1.00  0.00    -0.014 A 
ATOM     74  C   UNL A   1      48.242  25.822  31.562  1.00  0.00     0.009 A 
ATOM     75  C   UNL A   1      48.850  26.304  29.269  1.00  0.00     0.009 A 
ATOM     76  C   UNL A   1      49.525  25.328  31.795  1.00  0.00     0.001 A 
ATOM     77  C   UNL A   1      50.126  25.787  29.500  1.00  0.00     0.001 A 
ATOM     78  C   UNL A   1      50.464  25.307  30.763  1.00  0.00     0.000 A 
ENDBRANCH  60  73
ENDBRANCH  34  35
ENDBRANCH  26  29
ENDBRANCH  24  25
ENDBRANCH  23  24
ENDBRANCH  22  23
ENDBRANCH   1  22
TORSDOF 16
ENDMDL
