MODEL 1
REMARK VINA RESULT:     -11.5      0.000      0.000
REMARK SMILES [NH3+][C@@H](CCCCC(=O)NCCCCNC(=O)c1ccc(-c2c3nc(c(-c4ccccc4)c4ccc([nH]4)c(-c4ccccc4)c4nc(c(-c5ccccc5)c5ccc2[nH]5)C=C4)C=C3)cc1)c1ccc2[nH]c(=O)[nH]c2c1
REMARK SMILES IDX 10 1 9 2 7 3 8 4 6 6 5 7 4 8 3 9 2 10 1 11 65 15 66 16 74 17
REMARK SMILES IDX 67 18 73 19 68 20 72 21 69 22 70 23 71 26 11 27 12 28 13 29
REMARK SMILES IDX 14 30 15 31 16 33 17 34 18 35 64 36 19 37 63 38 20 39 21 40
REMARK SMILES IDX 22 41 57 42 23 43 62 44 56 45 58 46 24 47 61 48 55 49 54 50
REMARK SMILES IDX 25 52 47 53 32 54 46 55 33 56 36 57 45 58 59 59 34 60 35 61
REMARK SMILES IDX 44 63 60 64 37 65 26 66 27 67 31 68 28 69 30 70 29 71 48 72
REMARK SMILES IDX 49 73 53 74 50 75 52 76 51 77 38 78 39 79 43 80 40 81 42 82
REMARK SMILES IDX 41 83
REMARK H PARENT 9 5 1 12 1 13 1 14 72 24 69 25 14 32 58 51 36 62
REMARK Flexibility Score: inf
ROOT
ATOM      1  C   UNL A   1      37.188  22.263  25.706  1.00  0.00     0.116 C 
ENDROOT
BRANCH   1   2
ATOM      2  N   UNL A   1      35.909  22.332  26.368  1.00  0.00    -0.356 N 
ATOM      3  C   UNL A   1      34.866  23.167  26.105  1.00  0.00     0.219 C 
ATOM      4  O   UNL A   1      33.889  23.139  26.855  1.00  0.00    -0.275 OA
ATOM      5  H   UNL A   1      35.771  21.694  27.105  1.00  0.00     0.163 HD
BRANCH   3   6
ATOM      6  C   UNL A   1      34.910  24.082  24.896  1.00  0.00     0.100 C 
BRANCH   6   7
ATOM      7  C   UNL A   1      34.377  23.458  23.604  1.00  0.00     0.010 C 
BRANCH   7   8
ATOM      8  C   UNL A   1      32.914  23.695  23.177  1.00  0.00     0.007 C 
BRANCH   8   9
ATOM      9  C   UNL A   1      31.913  22.524  23.241  1.00  0.00     0.070 C 
BRANCH   9  10
ATOM     10  C   UNL A   1      32.371  21.200  22.587  1.00  0.00     0.212 C 
BRANCH  10  11
ATOM     11  N   UNL A   1      31.591  20.890  21.390  1.00  0.00    -0.351 N 
ATOM     12  H   UNL A   1      31.928  20.019  20.980  1.00  0.00     0.345 HD
ATOM     13  H   UNL A   1      31.691  21.646  20.712  1.00  0.00     0.345 HD
ATOM     14  H   UNL A   1      30.608  20.788  21.642  1.00  0.00     0.345 HD
ENDBRANCH  10  11
BRANCH  10  15
ATOM     15  C   UNL A   1      32.375  20.106  23.640  1.00  0.00     0.011 A 
ATOM     16  C   UNL A   1      32.599  20.393  25.016  1.00  0.00     0.012 A 
ATOM     17  C   UNL A   1      32.372  18.769  23.194  1.00  0.00     0.038 A 
ATOM     18  C   UNL A   1      32.920  19.387  25.933  1.00  0.00     0.029 A 
ATOM     19  C   UNL A   1      32.697  17.803  24.113  1.00  0.00     0.067 A 
ATOM     20  C   UNL A   1      32.987  18.107  25.441  1.00  0.00     0.066 A 
ATOM     21  N   UNL A   1      32.890  16.441  23.930  1.00  0.00    -0.306 N 
ATOM     22  N   UNL A   1      33.378  16.932  26.070  1.00  0.00    -0.306 N 
ATOM     23  C   UNL A   1      33.328  15.883  25.139  1.00  0.00     0.323 A 
ATOM     24  H   UNL A   1      32.743  15.948  23.090  1.00  0.00     0.171 HD
ATOM     25  H   UNL A   1      33.647  16.848  27.013  1.00  0.00     0.171 HD
ATOM     26  O   UNL A   1      33.623  14.721  25.337  1.00  0.00    -0.248 OA
ENDBRANCH  10  15
ENDBRANCH   9  10
ENDBRANCH   8   9
ENDBRANCH   7   8
ENDBRANCH   6   7
ENDBRANCH   3   6
ENDBRANCH   1   2
BRANCH   1  27
ATOM     27  C   UNL A   1      37.180  21.177  24.633  1.00  0.00     0.023 C 
BRANCH  27  28
ATOM     28  C   UNL A   1      37.997  19.941  24.957  1.00  0.00     0.023 C 
BRANCH  28  29
ATOM     29  C   UNL A   1      39.212  20.217  25.815  1.00  0.00     0.116 C 
BRANCH  29  30
ATOM     30  N   UNL A   1      40.208  19.153  25.798  1.00  0.00    -0.352 N 
ATOM     31  C   UNL A   1      41.552  19.273  26.067  1.00  0.00     0.251 C 
ATOM     32  H   UNL A   1      39.885  18.252  25.569  1.00  0.00     0.163 HD
ATOM     33  O   UNL A   1      42.318  18.327  25.924  1.00  0.00    -0.269 OA
BRANCH  31  34
ATOM     34  C   UNL A   1      42.050  20.595  26.492  1.00  0.00     0.039 A 
ATOM     35  C   UNL A   1      42.354  21.555  25.527  1.00  0.00     0.014 A 
ATOM     36  C   UNL A   1      42.088  20.911  27.852  1.00  0.00     0.014 A 
ATOM     37  C   UNL A   1      42.652  22.853  25.935  1.00  0.00     0.010 A 
ATOM     38  C   UNL A   1      42.247  22.229  28.243  1.00  0.00     0.010 A 
ATOM     39  C   UNL A   1      42.575  23.206  27.293  1.00  0.00    -0.014 A 
BRANCH  39  40
ATOM     40  C   UNL A   1      42.910  24.573  27.755  1.00  0.00     0.031 A 
ATOM     41  C   UNL A   1      44.356  24.994  27.823  1.00  0.00     0.074 A 
ATOM     42  C   UNL A   1      41.934  25.417  28.142  1.00  0.00     0.049 A 
ATOM     43  N   UNL A   1      44.866  26.142  28.192  1.00  0.00    -0.248 NA
ATOM     44  C   UNL A   1      45.366  23.981  27.468  1.00  0.00     0.031 C 
ATOM     45  C   UNL A   1      40.503  25.105  28.180  1.00  0.00     0.029 A 
ATOM     46  N   UNL A   1      42.001  26.717  28.569  1.00  0.00    -0.354 N 
ATOM     47  C   UNL A   1      46.244  25.973  28.135  1.00  0.00     0.074 A 
ATOM     48  C   UNL A   1      46.494  24.597  27.778  1.00  0.00     0.031 C 
ATOM     49  C   UNL A   1      39.824  26.204  28.549  1.00  0.00     0.029 A 
ATOM     50  C   UNL A   1      40.772  27.282  28.810  1.00  0.00     0.049 A 
ATOM     51  H   UNL A   1      42.850  27.202  28.691  1.00  0.00     0.167 HD
ATOM     52  C   UNL A   1      47.220  26.890  28.326  1.00  0.00     0.031 A 
ATOM     53  C   UNL A   1      40.450  28.535  29.182  1.00  0.00     0.031 A 
ATOM     54  C   UNL A   1      46.968  28.265  28.649  1.00  0.00     0.049 A 
ATOM     55  C   UNL A   1      41.552  29.543  29.371  1.00  0.00     0.074 A 
ATOM     56  C   UNL A   1      47.877  29.297  28.797  1.00  0.00     0.029 A 
ATOM     57  N   UNL A   1      45.709  28.799  28.872  1.00  0.00    -0.354 N 
ATOM     58  N   UNL A   1      42.847  29.392  29.229  1.00  0.00    -0.248 NA
ATOM     59  C   UNL A   1      41.141  30.901  29.752  1.00  0.00     0.031 C 
ATOM     60  C   UNL A   1      47.169  30.447  29.164  1.00  0.00     0.029 A 
ATOM     61  C   UNL A   1      45.816  30.144  29.178  1.00  0.00     0.049 A 
ATOM     62  H   UNL A   1      44.863  28.297  28.821  1.00  0.00     0.167 HD
ATOM     63  C   UNL A   1      43.402  30.644  29.463  1.00  0.00     0.074 A 
ATOM     64  C   UNL A   1      42.301  31.543  29.741  1.00  0.00     0.031 C 
ATOM     65  C   UNL A   1      44.705  31.019  29.446  1.00  0.00     0.031 A 
BRANCH  52  66
ATOM     66  C   UNL A   1      48.643  26.423  28.187  1.00  0.00    -0.014 A 
ATOM     67  C   UNL A   1      49.384  25.983  29.298  1.00  0.00     0.009 A 
ATOM     68  C   UNL A   1      49.253  26.416  26.923  1.00  0.00     0.009 A 
ATOM     69  C   UNL A   1      50.716  25.593  29.153  1.00  0.00     0.001 A 
ATOM     70  C   UNL A   1      50.574  25.991  26.776  1.00  0.00     0.001 A 
ATOM     71  C   UNL A   1      51.309  25.592  27.892  1.00  0.00     0.000 A 
ENDBRANCH  52  66
BRANCH  53  72
ATOM     72  C   UNL A   1      39.025  28.927  29.351  1.00  0.00    -0.014 A 
ATOM     73  C   UNL A   1      38.399  28.820  30.603  1.00  0.00     0.009 A 
ATOM     74  C   UNL A   1      38.276  29.394  28.259  1.00  0.00     0.009 A 
ATOM     75  C   UNL A   1      37.048  29.137  30.752  1.00  0.00     0.001 A 
ATOM     76  C   UNL A   1      36.932  29.741  28.418  1.00  0.00     0.001 A 
ATOM     77  C   UNL A   1      36.316  29.601  29.661  1.00  0.00     0.000 A 
ENDBRANCH  53  72
BRANCH  65  78
ATOM     78  C   UNL A   1      45.002  32.474  29.682  1.00  0.00    -0.014 A 
ATOM     79  C   UNL A   1      45.030  33.400  28.628  1.00  0.00     0.009 A 
ATOM     80  C   UNL A   1      45.229  32.925  30.993  1.00  0.00     0.009 A 
ATOM     81  C   UNL A   1      45.326  34.741  28.878  1.00  0.00     0.001 A 
ATOM     82  C   UNL A   1      45.488  34.273  31.243  1.00  0.00     0.001 A 
ATOM     83  C   UNL A   1      45.550  35.177  30.184  1.00  0.00     0.000 A 
ENDBRANCH  65  78
ENDBRANCH  39  40
ENDBRANCH  31  34
ENDBRANCH  29  30
ENDBRANCH  28  29
ENDBRANCH  27  28
ENDBRANCH   1  27
TORSDOF 17
ENDMDL
MODEL 2
REMARK VINA RESULT:     -11.3      5.973     10.845
REMARK SMILES [NH3+][C@@H](CCCCC(=O)NCCCCNC(=O)c1ccc(-c2c3nc(c(-c4ccccc4)c4ccc([nH]4)c(-c4ccccc4)c4nc(c(-c5ccccc5)c5ccc2[nH]5)C=C4)C=C3)cc1)c1ccc2[nH]c(=O)[nH]c2c1
REMARK SMILES IDX 10 1 9 2 7 3 8 4 6 6 5 7 4 8 3 9 2 10 1 11 65 15 66 16 74 17
REMARK SMILES IDX 67 18 73 19 68 20 72 21 69 22 70 23 71 26 11 27 12 28 13 29
REMARK SMILES IDX 14 30 15 31 16 33 17 34 18 35 64 36 19 37 63 38 20 39 21 40
REMARK SMILES IDX 22 41 57 42 23 43 62 44 56 45 58 46 24 47 61 48 55 49 54 50
REMARK SMILES IDX 25 52 47 53 32 54 46 55 33 56 36 57 45 58 59 59 34 60 35 61
REMARK SMILES IDX 44 63 60 64 37 65 26 66 27 67 31 68 28 69 30 70 29 71 48 72
REMARK SMILES IDX 49 73 53 74 50 75 52 76 51 77 38 78 39 79 43 80 40 81 42 82
REMARK SMILES IDX 41 83
REMARK H PARENT 9 5 1 12 1 13 1 14 72 24 69 25 14 32 58 51 36 62
REMARK Flexibility Score: inf
ROOT
ATOM      1  C   UNL A   1      33.253  30.223  26.395  1.00  0.00     0.116 C 
ENDROOT
BRANCH   1   2
ATOM      2  N   UNL A   1      33.653  29.697  25.114  1.00  0.00    -0.356 N 
ATOM      3  C   UNL A   1      33.907  28.403  24.773  1.00  0.00     0.219 C 
ATOM      4  O   UNL A   1      34.339  28.168  23.644  1.00  0.00    -0.275 OA
ATOM      5  H   UNL A   1      33.757  30.358  24.392  1.00  0.00     0.163 HD
BRANCH   3   6
ATOM      6  C   UNL A   1      33.630  27.288  25.764  1.00  0.00     0.100 C 
BRANCH   6   7
ATOM      7  C   UNL A   1      32.279  26.592  25.579  1.00  0.00     0.010 C 
BRANCH   7   8
ATOM      8  C   UNL A   1      32.028  25.708  24.340  1.00  0.00     0.007 C 
BRANCH   8   9
ATOM      9  C   UNL A   1      30.706  25.864  23.561  1.00  0.00     0.070 C 
BRANCH   9  10
ATOM     10  C   UNL A   1      30.726  26.861  22.379  1.00  0.00     0.212 C 
BRANCH  10  11
ATOM     11  N   UNL A   1      32.091  27.221  22.001  1.00  0.00    -0.351 N 
ATOM     12  H   UNL A   1      32.501  26.469  21.447  1.00  0.00     0.345 HD
ATOM     13  H   UNL A   1      32.651  27.367  22.842  1.00  0.00     0.345 HD
ATOM     14  H   UNL A   1      32.077  28.079  21.450  1.00  0.00     0.345 HD
ENDBRANCH  10  11
BRANCH  10  15
ATOM     15  C   UNL A   1      29.831  28.040  22.715  1.00  0.00     0.011 A 
ATOM     16  C   UNL A   1      28.481  27.860  23.130  1.00  0.00     0.012 A 
ATOM     17  C   UNL A   1      30.299  29.329  22.393  1.00  0.00     0.038 A 
ATOM     18  C   UNL A   1      27.566  28.919  23.131  1.00  0.00     0.029 A 
ATOM     19  C   UNL A   1      29.378  30.347  22.395  1.00  0.00     0.067 A 
ATOM     20  C   UNL A   1      28.043  30.142  22.731  1.00  0.00     0.066 A 
ATOM     21  N   UNL A   1      29.528  31.671  22.006  1.00  0.00    -0.306 N 
ATOM     22  N   UNL A   1      27.366  31.338  22.530  1.00  0.00    -0.306 N 
ATOM     23  C   UNL A   1      28.277  32.301  22.072  1.00  0.00     0.323 A 
ATOM     24  H   UNL A   1      30.371  32.098  21.730  1.00  0.00     0.171 HD
ATOM     25  H   UNL A   1      26.405  31.485  22.682  1.00  0.00     0.171 HD
ATOM     26  O   UNL A   1      28.029  33.454  21.773  1.00  0.00    -0.248 OA
ENDBRANCH  10  15
ENDBRANCH   9  10
ENDBRANCH   8   9
ENDBRANCH   7   8
ENDBRANCH   6   7
ENDBRANCH   3   6
ENDBRANCH   1   2
BRANCH   1  27
ATOM     27  C   UNL A   1      31.761  30.553  26.399  1.00  0.00     0.023 C 
BRANCH  27  28
ATOM     28  C   UNL A   1      31.412  31.965  26.828  1.00  0.00     0.023 C 
BRANCH  28  29
ATOM     29  C   UNL A   1      32.602  32.776  27.291  1.00  0.00     0.116 C 
BRANCH  29  30
ATOM     30  N   UNL A   1      32.287  34.159  27.624  1.00  0.00    -0.352 N 
ATOM     31  C   UNL A   1      32.942  34.962  28.530  1.00  0.00     0.251 C 
ATOM     32  H   UNL A   1      31.523  34.562  27.153  1.00  0.00     0.163 HD
ATOM     33  O   UNL A   1      32.527  36.081  28.807  1.00  0.00    -0.269 OA
BRANCH  31  34
ATOM     34  C   UNL A   1      34.140  34.411  29.192  1.00  0.00     0.039 A 
ATOM     35  C   UNL A   1      33.989  33.608  30.322  1.00  0.00     0.014 A 
ATOM     36  C   UNL A   1      35.395  34.596  28.607  1.00  0.00     0.014 A 
ATOM     37  C   UNL A   1      35.104  32.948  30.837  1.00  0.00     0.010 A 
ATOM     38  C   UNL A   1      36.466  33.832  29.036  1.00  0.00     0.010 A 
ATOM     39  C   UNL A   1      36.345  33.034  30.182  1.00  0.00    -0.014 A 
BRANCH  39  40
ATOM     40  C   UNL A   1      37.550  32.363  30.721  1.00  0.00     0.031 A 
ATOM     41  C   UNL A   1      38.151  32.853  32.013  1.00  0.00     0.074 A 
ATOM     42  C   UNL A   1      38.120  31.347  30.045  1.00  0.00     0.049 A 
ATOM     43  N   UNL A   1      39.196  32.406  32.661  1.00  0.00    -0.248 NA
ATOM     44  C   UNL A   1      37.519  34.027  32.643  1.00  0.00     0.031 C 
ATOM     45  C   UNL A   1      37.667  30.821  28.754  1.00  0.00     0.029 A 
ATOM     46  N   UNL A   1      39.202  30.566  30.360  1.00  0.00    -0.354 N 
ATOM     47  C   UNL A   1      39.353  33.256  33.748  1.00  0.00     0.074 A 
ATOM     48  C   UNL A   1      38.354  34.291  33.633  1.00  0.00     0.031 C 
ATOM     49  C   UNL A   1      38.430  29.767  28.418  1.00  0.00     0.029 A 
ATOM     50  C   UNL A   1      39.444  29.568  29.447  1.00  0.00     0.049 A 
ATOM     51  H   UNL A   1      39.753  30.707  31.164  1.00  0.00     0.167 HD
ATOM     52  C   UNL A   1      40.229  33.167  34.776  1.00  0.00     0.031 A 
ATOM     53  C   UNL A   1      40.372  28.592  29.455  1.00  0.00     0.031 A 
ATOM     54  C   UNL A   1      41.200  32.118  34.906  1.00  0.00     0.049 A 
ATOM     55  C   UNL A   1      41.323  28.502  30.617  1.00  0.00     0.074 A 
ATOM     56  C   UNL A   1      42.090  31.890  35.939  1.00  0.00     0.029 A 
ATOM     57  N   UNL A   1      41.405  31.120  33.966  1.00  0.00    -0.354 N 
ATOM     58  N   UNL A   1      41.404  29.262  31.683  1.00  0.00    -0.248 NA
ATOM     59  C   UNL A   1      42.297  27.402  30.585  1.00  0.00     0.031 C 
ATOM     60  C   UNL A   1      42.873  30.781  35.598  1.00  0.00     0.029 A 
ATOM     61  C   UNL A   1      42.423  30.282  34.385  1.00  0.00     0.049 A 
ATOM     62  H   UNL A   1      40.901  31.022  33.126  1.00  0.00     0.167 HD
ATOM     63  C   UNL A   1      42.410  28.709  32.466  1.00  0.00     0.074 A 
ATOM     64  C   UNL A   1      42.896  27.543  31.759  1.00  0.00     0.031 C 
ATOM     65  C   UNL A   1      42.886  29.125  33.665  1.00  0.00     0.031 A 
BRANCH  52  66
ATOM     66  C   UNL A   1      40.164  34.235  35.833  1.00  0.00    -0.014 A 
ATOM     67  C   UNL A   1      39.356  34.091  36.974  1.00  0.00     0.009 A 
ATOM     68  C   UNL A   1      40.927  35.404  35.689  1.00  0.00     0.009 A 
ATOM     69  C   UNL A   1      39.279  35.113  37.923  1.00  0.00     0.001 A 
ATOM     70  C   UNL A   1      40.875  36.408  36.657  1.00  0.00     0.001 A 
ATOM     71  C   UNL A   1      40.042  36.268  37.766  1.00  0.00     0.000 A 
ENDBRANCH  52  66
BRANCH  53  72
ATOM     72  C   UNL A   1      40.418  27.591  28.355  1.00  0.00    -0.014 A 
ATOM     73  C   UNL A   1      41.155  27.846  27.188  1.00  0.00     0.009 A 
ATOM     74  C   UNL A   1      39.713  26.381  28.458  1.00  0.00     0.009 A 
ATOM     75  C   UNL A   1      41.157  26.931  26.133  1.00  0.00     0.001 A 
ATOM     76  C   UNL A   1      39.743  25.452  27.414  1.00  0.00     0.001 A 
ATOM     77  C   UNL A   1      40.454  25.733  26.249  1.00  0.00     0.000 A 
ENDBRANCH  53  72
BRANCH  65  78
ATOM     78  C   UNL A   1      43.951  28.282  34.310  1.00  0.00    -0.014 A 
ATOM     79  C   UNL A   1      45.316  28.536  34.105  1.00  0.00     0.009 A 
ATOM     80  C   UNL A   1      43.574  27.232  35.163  1.00  0.00     0.009 A 
ATOM     81  C   UNL A   1      46.281  27.725  34.705  1.00  0.00     0.001 A 
ATOM     82  C   UNL A   1      44.541  26.446  35.790  1.00  0.00     0.001 A 
ATOM     83  C   UNL A   1      45.893  26.685  35.549  1.00  0.00     0.000 A 
ENDBRANCH  65  78
ENDBRANCH  39  40
ENDBRANCH  31  34
ENDBRANCH  29  30
ENDBRANCH  28  29
ENDBRANCH  27  28
ENDBRANCH   1  27
TORSDOF 17
ENDMDL
MODEL 3
REMARK VINA RESULT:     -11.1      0.822      6.057
REMARK SMILES [NH3+][C@@H](CCCCC(=O)NCCCCNC(=O)c1ccc(-c2c3nc(c(-c4ccccc4)c4ccc([nH]4)c(-c4ccccc4)c4nc(c(-c5ccccc5)c5ccc2[nH]5)C=C4)C=C3)cc1)c1ccc2[nH]c(=O)[nH]c2c1
REMARK SMILES IDX 10 1 9 2 7 3 8 4 6 6 5 7 4 8 3 9 2 10 1 11 65 15 66 16 74 17
REMARK SMILES IDX 67 18 73 19 68 20 72 21 69 22 70 23 71 26 11 27 12 28 13 29
REMARK SMILES IDX 14 30 15 31 16 33 17 34 18 35 64 36 19 37 63 38 20 39 21 40
REMARK SMILES IDX 22 41 57 42 23 43 62 44 56 45 58 46 24 47 61 48 55 49 54 50
REMARK SMILES IDX 25 52 47 53 32 54 46 55 33 56 36 57 45 58 59 59 34 60 35 61
REMARK SMILES IDX 44 63 60 64 37 65 26 66 27 67 31 68 28 69 30 70 29 71 48 72
REMARK SMILES IDX 49 73 53 74 50 75 52 76 51 77 38 78 39 79 43 80 40 81 42 82
REMARK SMILES IDX 41 83
REMARK H PARENT 9 5 1 12 1 13 1 14 72 24 69 25 14 32 58 51 36 62
REMARK Flexibility Score: inf
ROOT
ATOM      1  C   UNL A   1      37.097  21.868  25.540  1.00  0.00     0.116 C 
ENDROOT
BRANCH   1   2
ATOM      2  N   UNL A   1      35.903  22.204  26.275  1.00  0.00    -0.356 N 
ATOM      3  C   UNL A   1      34.996  23.185  26.013  1.00  0.00     0.219 C 
ATOM      4  O   UNL A   1      34.090  23.379  26.824  1.00  0.00    -0.275 OA
ATOM      5  H   UNL A   1      35.719  21.653  27.071  1.00  0.00     0.163 HD
BRANCH   3   6
ATOM      6  C   UNL A   1      35.098  23.991  24.731  1.00  0.00     0.100 C 
BRANCH   6   7
ATOM      7  C   UNL A   1      34.584  23.271  23.483  1.00  0.00     0.010 C 
BRANCH   7   8
ATOM      8  C   UNL A   1      33.161  23.552  22.958  1.00  0.00     0.007 C 
BRANCH   8   9
ATOM      9  C   UNL A   1      32.070  22.475  23.128  1.00  0.00     0.070 C 
BRANCH   9  10
ATOM     10  C   UNL A   1      32.360  21.103  22.476  1.00  0.00     0.212 C 
BRANCH  10  11
ATOM     11  N   UNL A   1      31.454  20.834  21.361  1.00  0.00    -0.351 N 
ATOM     12  H   UNL A   1      31.024  21.707  21.053  1.00  0.00     0.345 HD
ATOM     13  H   UNL A   1      30.726  20.185  21.662  1.00  0.00     0.345 HD
ATOM     14  H   UNL A   1      31.978  20.423  20.588  1.00  0.00     0.345 HD
ENDBRANCH  10  11
BRANCH  10  15
ATOM     15  C   UNL A   1      32.369  20.036  23.555  1.00  0.00     0.011 A 
ATOM     16  C   UNL A   1      32.587  20.359  24.925  1.00  0.00     0.012 A 
ATOM     17  C   UNL A   1      32.376  18.689  23.143  1.00  0.00     0.038 A 
ATOM     18  C   UNL A   1      32.913  19.378  25.867  1.00  0.00     0.029 A 
ATOM     19  C   UNL A   1      32.706  17.749  24.087  1.00  0.00     0.067 A 
ATOM     20  C   UNL A   1      32.990  18.087  25.407  1.00  0.00     0.066 A 
ATOM     21  N   UNL A   1      32.908  16.383  23.937  1.00  0.00    -0.306 N 
ATOM     22  N   UNL A   1      33.388  16.930  26.066  1.00  0.00    -0.306 N 
ATOM     23  C   UNL A   1      33.347  15.859  25.162  1.00  0.00     0.323 A 
ATOM     24  H   UNL A   1      32.767  15.868  23.110  1.00  0.00     0.171 HD
ATOM     25  H   UNL A   1      33.654  16.872  27.012  1.00  0.00     0.171 HD
ATOM     26  O   UNL A   1      33.650  14.704  25.389  1.00  0.00    -0.248 OA
ENDBRANCH  10  15
ENDBRANCH   9  10
ENDBRANCH   8   9
ENDBRANCH   7   8
ENDBRANCH   6   7
ENDBRANCH   3   6
ENDBRANCH   1   2
BRANCH   1  27
ATOM     27  C   UNL A   1      36.918  20.544  24.799  1.00  0.00     0.023 C 
BRANCH  27  28
ATOM     28  C   UNL A   1      38.031  19.534  25.001  1.00  0.00     0.023 C 
BRANCH  28  29
ATOM     29  C   UNL A   1      39.257  20.102  25.682  1.00  0.00     0.116 C 
BRANCH  29  30
ATOM     30  N   UNL A   1      40.323  19.131  25.893  1.00  0.00    -0.352 N 
ATOM     31  C   UNL A   1      41.616  19.395  26.285  1.00  0.00     0.251 C 
ATOM     32  H   UNL A   1      40.096  18.187  25.739  1.00  0.00     0.163 HD
ATOM     33  O   UNL A   1      42.461  18.509  26.334  1.00  0.00    -0.269 OA
BRANCH  31  34
ATOM     34  C   UNL A   1      41.964  20.793  26.602  1.00  0.00     0.039 A 
ATOM     35  C   UNL A   1      42.205  21.155  27.928  1.00  0.00     0.014 A 
ATOM     36  C   UNL A   1      42.170  21.703  25.563  1.00  0.00     0.014 A 
ATOM     37  C   UNL A   1      42.703  22.427  28.201  1.00  0.00     0.010 A 
ATOM     38  C   UNL A   1      42.794  22.910  25.826  1.00  0.00     0.010 A 
ATOM     39  C   UNL A   1      43.027  23.304  27.151  1.00  0.00    -0.014 A 
BRANCH  39  40
ATOM     40  C   UNL A   1      43.535  24.670  27.415  1.00  0.00     0.031 A 
ATOM     41  C   UNL A   1      42.573  25.742  27.860  1.00  0.00     0.074 A 
ATOM     42  C   UNL A   1      44.837  24.957  27.226  1.00  0.00     0.049 A 
ATOM     43  N   UNL A   1      42.808  26.996  28.150  1.00  0.00    -0.248 NA
ATOM     44  C   UNL A   1      41.151  25.367  27.955  1.00  0.00     0.031 C 
ATOM     45  C   UNL A   1      45.855  24.022  26.740  1.00  0.00     0.029 A 
ATOM     46  N   UNL A   1      45.530  26.122  27.433  1.00  0.00    -0.354 N 
ATOM     47  C   UNL A   1      41.568  27.553  28.433  1.00  0.00     0.074 A 
ATOM     48  C   UNL A   1      40.575  26.531  28.203  1.00  0.00     0.031 C 
ATOM     49  C   UNL A   1      47.051  24.634  26.744  1.00  0.00     0.029 A 
ATOM     50  C   UNL A   1      46.878  26.011  27.195  1.00  0.00     0.049 A 
ATOM     51  H   UNL A   1      45.102  26.960  27.726  1.00  0.00     0.167 HD
ATOM     52  C   UNL A   1      41.278  28.796  28.881  1.00  0.00     0.031 A 
ATOM     53  C   UNL A   1      47.864  26.917  27.343  1.00  0.00     0.031 A 
ATOM     54  C   UNL A   1      42.270  29.801  29.140  1.00  0.00     0.049 A 
ATOM     55  C   UNL A   1      47.520  28.287  27.860  1.00  0.00     0.074 A 
ATOM     56  C   UNL A   1      42.097  31.070  29.661  1.00  0.00     0.029 A 
ATOM     57  N   UNL A   1      43.625  29.643  28.897  1.00  0.00    -0.354 N 
ATOM     58  N   UNL A   1      46.352  28.774  28.207  1.00  0.00    -0.248 NA
ATOM     59  C   UNL A   1      48.638  29.226  28.026  1.00  0.00     0.031 C 
ATOM     60  C   UNL A   1      43.345  31.702  29.682  1.00  0.00     0.029 A 
ATOM     61  C   UNL A   1      44.301  30.802  29.238  1.00  0.00     0.049 A 
ATOM     62  H   UNL A   1      44.045  28.830  28.536  1.00  0.00     0.167 HD
ATOM     63  C   UNL A   1      46.600  30.060  28.669  1.00  0.00     0.074 A 
ATOM     64  C   UNL A   1      48.030  30.269  28.572  1.00  0.00     0.031 C 
ATOM     65  C   UNL A   1      45.725  30.985  29.136  1.00  0.00     0.031 A 
BRANCH  52  66
ATOM     66  C   UNL A   1      39.829  29.125  29.116  1.00  0.00    -0.014 A 
ATOM     67  C   UNL A   1      39.244  29.000  30.388  1.00  0.00     0.009 A 
ATOM     68  C   UNL A   1      39.035  29.573  28.049  1.00  0.00     0.009 A 
ATOM     69  C   UNL A   1      37.888  29.271  30.576  1.00  0.00     0.001 A 
ATOM     70  C   UNL A   1      37.687  29.877  28.247  1.00  0.00     0.001 A 
ATOM     71  C   UNL A   1      37.112  29.714  29.506  1.00  0.00     0.000 A 
ENDBRANCH  52  66
BRANCH  53  72
ATOM     72  C   UNL A   1      49.274  26.547  27.049  1.00  0.00    -0.014 A 
ATOM     73  C   UNL A   1      49.803  26.720  25.760  1.00  0.00     0.009 A 
ATOM     74  C   UNL A   1      50.097  26.005  28.048  1.00  0.00     0.009 A 
ATOM     75  C   UNL A   1      51.110  26.325  25.468  1.00  0.00     0.001 A 
ATOM     76  C   UNL A   1      51.415  25.640  27.762  1.00  0.00     0.001 A 
ATOM     77  C   UNL A   1      51.916  25.790  26.470  1.00  0.00     0.000 A 
ENDBRANCH  53  72
BRANCH  65  78
ATOM     78  C   UNL A   1      46.299  32.284  29.628  1.00  0.00    -0.014 A 
ATOM     79  C   UNL A   1      46.668  32.465  30.970  1.00  0.00     0.009 A 
ATOM     80  C   UNL A   1      46.500  33.335  28.718  1.00  0.00     0.009 A 
ATOM     81  C   UNL A   1      47.183  33.690  31.399  1.00  0.00     0.001 A 
ATOM     82  C   UNL A   1      47.049  34.545  29.142  1.00  0.00     0.001 A 
ATOM     83  C   UNL A   1      47.377  34.726  30.485  1.00  0.00     0.000 A 
ENDBRANCH  65  78
ENDBRANCH  39  40
ENDBRANCH  31  34
ENDBRANCH  29  30
ENDBRANCH  28  29
ENDBRANCH  27  28
ENDBRANCH   1  27
TORSDOF 17
ENDMDL
