MODEL 1
REMARK VINA RESULT:     -11.3      0.000      0.000
REMARK SMILES O=C(NCCCCNC(=O)[C@H](CO)NC(=O)[C@H](CS)NC(=O)[C@H](Cc1c[nH]c2ccccc12)NC(=O)c1ccc(F)cc1)c1ccc(-c2c3nc(c(-c4ccccc4)c4ccc([nH]4)c(-c4ccccc4)c4nc(c(-c5ccccc5)c5ccc2[nH]5)C=C4)C=C3)cc1
REMARK SMILES IDX 8 1 9 2 10 3 7 5 6 6 5 7 4 8 3 9 1 10 2 11 44 13 45 14 91 15
REMARK SMILES IDX 46 16 90 17 47 18 48 19 49 20 84 21 50 22 89 23 83 24 85 25
REMARK SMILES IDX 51 26 88 27 82 28 81 29 52 31 74 32 59 33 73 34 60 35 63 36
REMARK SMILES IDX 72 37 86 38 61 39 62 40 71 42 87 43 64 44 53 45 54 46 58 47
REMARK SMILES IDX 55 48 57 49 56 50 75 51 76 52 80 53 77 54 79 55 78 56 65 57
REMARK SMILES IDX 66 58 70 59 67 60 69 61 68 62 11 63 14 64 15 65 16 67 17 68
REMARK SMILES IDX 20 69 21 70 22 72 23 73 34 74 35 75 36 77 37 78 38 79 43 80
REMARK SMILES IDX 39 81 42 82 40 83 41 84 24 85 25 86 26 87 33 88 27 89 28 90
REMARK SMILES IDX 32 91 29 93 31 94 30 95 18 96 19 97 12 99 13 100
REMARK H PARENT 8 4 3 12 85 30 63 41 14 66 20 71 34 76 27 92 19 98 13 101
REMARK Flexibility Score: inf
ROOT
ATOM      1  N   UNL A   1      35.645  18.025  24.269  1.00  0.00    -0.354 N 
ATOM      2  C   UNL A   1      34.422  17.416  24.295  1.00  0.00     0.244 C 
ATOM      3  O   UNL A   1      34.295  16.374  23.649  1.00  0.00    -0.273 OA
ATOM      4  H   UNL A   1      36.299  17.632  23.647  1.00  0.00     0.163 HD
ENDROOT
BRANCH   1   5
ATOM      5  C   UNL A   1      36.115  19.164  25.026  1.00  0.00     0.116 C 
BRANCH   5   6
ATOM      6  C   UNL A   1      37.511  19.585  24.574  1.00  0.00     0.023 C 
BRANCH   6   7
ATOM      7  C   UNL A   1      37.941  20.965  25.063  1.00  0.00     0.023 C 
BRANCH   7   8
ATOM      8  C   UNL A   1      39.112  20.945  26.026  1.00  0.00     0.116 C 
BRANCH   8   9
ATOM      9  N   UNL A   1      40.026  19.834  25.811  1.00  0.00    -0.352 N 
ATOM     10  O   UNL A   1      42.075  18.864  25.766  1.00  0.00    -0.269 OA
ATOM     11  C   UNL A   1      41.387  19.821  26.045  1.00  0.00     0.251 C 
ATOM     12  H   UNL A   1      39.633  19.002  25.462  1.00  0.00     0.163 HD
BRANCH  11  13
ATOM     13  C   UNL A   1      41.974  21.056  26.598  1.00  0.00     0.039 A 
ATOM     14  C   UNL A   1      42.002  21.246  27.980  1.00  0.00     0.014 A 
ATOM     15  C   UNL A   1      42.345  22.073  25.718  1.00  0.00     0.014 A 
ATOM     16  C   UNL A   1      42.256  22.513  28.481  1.00  0.00     0.010 A 
ATOM     17  C   UNL A   1      42.687  23.323  26.232  1.00  0.00     0.010 A 
ATOM     18  C   UNL A   1      42.602  23.563  27.613  1.00  0.00    -0.014 A 
BRANCH  18  19
ATOM     19  C   UNL A   1      42.908  24.895  28.181  1.00  0.00     0.031 A 
ATOM     20  C   UNL A   1      44.319  25.301  28.500  1.00  0.00     0.074 A 
ATOM     21  C   UNL A   1      41.890  25.754  28.373  1.00  0.00     0.049 A 
ATOM     22  N   UNL A   1      44.756  26.438  28.981  1.00  0.00    -0.248 NA
ATOM     23  C   UNL A   1      45.375  24.307  28.259  1.00  0.00     0.031 C 
ATOM     24  C   UNL A   1      40.480  25.467  28.092  1.00  0.00     0.029 A 
ATOM     25  N   UNL A   1      41.884  27.048  28.819  1.00  0.00    -0.354 N 
ATOM     26  C   UNL A   1      46.129  26.285  29.133  1.00  0.00     0.074 A 
ATOM     27  C   UNL A   1      46.452  24.941  28.703  1.00  0.00     0.031 C 
ATOM     28  C   UNL A   1      39.756  26.572  28.310  1.00  0.00     0.029 A 
ATOM     29  C   UNL A   1      40.636  27.621  28.810  1.00  0.00     0.049 A 
ATOM     30  H   UNL A   1      42.693  27.522  29.116  1.00  0.00     0.167 HD
ATOM     31  C   UNL A   1      47.033  27.183  29.593  1.00  0.00     0.031 A 
ATOM     32  C   UNL A   1      40.239  28.851  29.175  1.00  0.00     0.031 A 
ATOM     33  C   UNL A   1      46.705  28.523  30.004  1.00  0.00     0.049 A 
ATOM     34  C   UNL A   1      41.261  29.820  29.686  1.00  0.00     0.074 A 
ATOM     35  C   UNL A   1      47.554  29.521  30.453  1.00  0.00     0.029 A 
ATOM     36  N   UNL A   1      45.424  29.054  30.017  1.00  0.00    -0.354 N 
ATOM     37  N   UNL A   1      42.556  29.664  29.809  1.00  0.00    -0.248 NA
ATOM     38  C   UNL A   1      40.763  31.134  30.112  1.00  0.00     0.031 C 
ATOM     39  C   UNL A   1      46.780  30.641  30.779  1.00  0.00     0.029 A 
ATOM     40  C   UNL A   1      45.456  30.357  30.484  1.00  0.00     0.049 A 
ATOM     41  H   UNL A   1      44.611  28.574  29.736  1.00  0.00     0.167 HD
ATOM     42  C   UNL A   1      43.035  30.867  30.306  1.00  0.00     0.074 A 
ATOM     43  C   UNL A   1      41.891  31.747  30.446  1.00  0.00     0.031 C 
ATOM     44  C   UNL A   1      44.307  31.213  30.620  1.00  0.00     0.031 A 
BRANCH  31  45
ATOM     45  C   UNL A   1      48.462  26.731  29.712  1.00  0.00    -0.014 A 
ATOM     46  C   UNL A   1      49.392  26.953  28.685  1.00  0.00     0.009 A 
ATOM     47  C   UNL A   1      48.892  26.103  30.892  1.00  0.00     0.009 A 
ATOM     48  C   UNL A   1      50.716  26.526  28.825  1.00  0.00     0.001 A 
ATOM     49  C   UNL A   1      50.221  25.699  31.039  1.00  0.00     0.001 A 
ATOM     50  C   UNL A   1      51.130  25.903  30.002  1.00  0.00     0.000 A 
ENDBRANCH  31  45
BRANCH  32  51
ATOM     51  C   UNL A   1      38.809  29.227  29.058  1.00  0.00    -0.014 A 
ATOM     52  C   UNL A   1      38.304  29.734  27.852  1.00  0.00     0.009 A 
ATOM     53  C   UNL A   1      37.934  29.049  30.142  1.00  0.00     0.009 A 
ATOM     54  C   UNL A   1      36.954  30.069  27.739  1.00  0.00     0.001 A 
ATOM     55  C   UNL A   1      36.580  29.359  30.016  1.00  0.00     0.001 A 
ATOM     56  C   UNL A   1      36.093  29.876  28.818  1.00  0.00     0.000 A 
ENDBRANCH  32  51
BRANCH  44  57
ATOM     57  C   UNL A   1      44.523  32.616  31.107  1.00  0.00    -0.014 A 
ATOM     58  C   UNL A   1      44.792  33.665  30.214  1.00  0.00     0.009 A 
ATOM     59  C   UNL A   1      44.443  32.892  32.481  1.00  0.00     0.009 A 
ATOM     60  C   UNL A   1      45.017  34.957  30.693  1.00  0.00     0.001 A 
ATOM     61  C   UNL A   1      44.641  34.189  32.954  1.00  0.00     0.001 A 
ATOM     62  C   UNL A   1      44.939  35.218  32.061  1.00  0.00     0.000 A 
ENDBRANCH  44  57
ENDBRANCH  18  19
ENDBRANCH  11  13
ENDBRANCH   8   9
ENDBRANCH   7   8
ENDBRANCH   6   7
ENDBRANCH   5   6
ENDBRANCH   1   5
BRANCH   2  63
ATOM     63  C   UNL A   1      33.212  18.092  24.966  1.00  0.00     0.197 C 
BRANCH  63  64
ATOM     64  N   UNL A   1      32.576  19.089  24.094  1.00  0.00    -0.340 N 
ATOM     65  C   UNL A   1      32.764  20.423  23.923  1.00  0.00     0.244 C 
ATOM     66  H   UNL A   1      31.872  18.714  23.518  1.00  0.00     0.164 HD
ATOM     67  O   UNL A   1      32.142  20.914  22.972  1.00  0.00    -0.273 OA
BRANCH  65  68
ATOM     68  C   UNL A   1      33.484  21.311  24.951  1.00  0.00     0.181 C 
BRANCH  68  69
ATOM     69  N   UNL A   1      34.444  22.297  24.491  1.00  0.00    -0.342 N 
ATOM     70  C   UNL A   1      34.256  23.118  23.421  1.00  0.00     0.243 C 
ATOM     71  H   UNL A   1      35.289  22.378  24.989  1.00  0.00     0.164 HD
ATOM     72  O   UNL A   1      35.193  23.125  22.609  1.00  0.00    -0.273 OA
BRANCH  70  73
ATOM     73  C   UNL A   1      33.090  24.166  23.272  1.00  0.00     0.176 C 
BRANCH  73  74
ATOM     74  N   UNL A   1      32.911  24.502  21.846  1.00  0.00    -0.340 N 
ATOM     75  C   UNL A   1      32.338  25.609  21.277  1.00  0.00     0.251 C 
ATOM     76  H   UNL A   1      33.254  23.832  21.211  1.00  0.00     0.164 HD
ATOM     77  O   UNL A   1      31.989  25.577  20.101  1.00  0.00    -0.269 OA
BRANCH  75  78
ATOM     78  C   UNL A   1      32.121  26.844  22.059  1.00  0.00     0.040 A 
ATOM     79  C   UNL A   1      30.837  27.180  22.506  1.00  0.00     0.017 A 
ATOM     80  C   UNL A   1      33.227  27.603  22.458  1.00  0.00     0.017 A 
ATOM     81  C   UNL A   1      30.657  28.296  23.325  1.00  0.00     0.040 A 
ATOM     82  C   UNL A   1      33.042  28.717  23.282  1.00  0.00     0.040 A 
ATOM     83  C   UNL A   1      31.759  29.053  23.706  1.00  0.00     0.123 A 
ATOM     84  F   UNL A   1      31.587  30.110  24.511  1.00  0.00    -0.207 F 
ENDBRANCH  75  78
ENDBRANCH  73  74
BRANCH  73  85
ATOM     85  C   UNL A   1      31.721  24.233  23.986  1.00  0.00     0.072 C 
BRANCH  85  86
ATOM     86  C   UNL A   1      31.409  25.132  25.150  1.00  0.00    -0.020 A 
ATOM     87  C   UNL A   1      30.148  25.190  25.729  1.00  0.00     0.087 A 
ATOM     88  C   UNL A   1      32.215  26.087  25.870  1.00  0.00     0.003 A 
ATOM     89  N   UNL A   1      30.116  26.217  26.628  1.00  0.00    -0.361 N 
ATOM     90  C   UNL A   1      31.347  26.819  26.690  1.00  0.00     0.046 A 
ATOM     91  C   UNL A   1      33.561  26.503  25.817  1.00  0.00     0.010 A 
ATOM     92  H   UNL A   1      29.328  26.487  27.153  1.00  0.00     0.166 HD
ATOM     93  C   UNL A   1      31.736  27.966  27.392  1.00  0.00     0.026 A 
ATOM     94  C   UNL A   1      33.968  27.647  26.515  1.00  0.00     0.001 A 
ATOM     95  C   UNL A   1      33.062  28.378  27.277  1.00  0.00     0.002 A 
ENDBRANCH  85  86
ENDBRANCH  73  85
ENDBRANCH  70  73
ENDBRANCH  68  69
BRANCH  68  96
ATOM     96  C   UNL A   1      32.518  21.860  26.020  1.00  0.00     0.101 C 
BRANCH  96  97
ATOM     97  S   UNL A   1      33.359  22.581  27.464  1.00  0.00    -0.177 SA
ATOM     98  H   UNL A   1      33.919  23.770  27.117  1.00  0.00     0.102 HD
ENDBRANCH  96  97
ENDBRANCH  68  96
ENDBRANCH  65  68
ENDBRANCH  63  64
BRANCH  63  99
ATOM     99  C   UNL A   1      32.174  17.045  25.430  1.00  0.00     0.191 C 
BRANCH  99 100
ATOM    100  O   UNL A   1      32.723  15.800  25.834  1.00  0.00    -0.394 OA
ATOM    101  H   UNL A   1      33.526  15.618  25.320  1.00  0.00     0.210 HD
ENDBRANCH  99 100
ENDBRANCH  63  99
ENDBRANCH   2  63
TORSDOF 23
ENDMDL
MODEL 2
REMARK VINA RESULT:     -10.9      0.327      5.442
REMARK SMILES O=C(NCCCCNC(=O)[C@H](CO)NC(=O)[C@H](CS)NC(=O)[C@H](Cc1c[nH]c2ccccc12)NC(=O)c1ccc(F)cc1)c1ccc(-c2c3nc(c(-c4ccccc4)c4ccc([nH]4)c(-c4ccccc4)c4nc(c(-c5ccccc5)c5ccc2[nH]5)C=C4)C=C3)cc1
REMARK SMILES IDX 8 1 9 2 10 3 7 5 6 6 5 7 4 8 3 9 1 10 2 11 44 13 45 14 91 15
REMARK SMILES IDX 46 16 90 17 47 18 48 19 49 20 84 21 50 22 89 23 83 24 85 25
REMARK SMILES IDX 51 26 88 27 82 28 81 29 52 31 74 32 59 33 73 34 60 35 63 36
REMARK SMILES IDX 72 37 86 38 61 39 62 40 71 42 87 43 64 44 53 45 54 46 58 47
REMARK SMILES IDX 55 48 57 49 56 50 75 51 76 52 80 53 77 54 79 55 78 56 65 57
REMARK SMILES IDX 66 58 70 59 67 60 69 61 68 62 11 63 14 64 15 65 16 67 17 68
REMARK SMILES IDX 20 69 21 70 22 72 23 73 34 74 35 75 36 77 37 78 38 79 43 80
REMARK SMILES IDX 39 81 42 82 40 83 41 84 24 85 25 86 26 87 33 88 27 89 28 90
REMARK SMILES IDX 32 91 29 93 31 94 30 95 18 96 19 97 12 99 13 100
REMARK H PARENT 8 4 3 12 85 30 63 41 14 66 20 71 34 76 27 92 19 98 13 101
REMARK Flexibility Score: inf
ROOT
ATOM      1  N   UNL A   1      35.766  18.097  24.354  1.00  0.00    -0.354 N 
ATOM      2  C   UNL A   1      34.587  17.425  24.512  1.00  0.00     0.244 C 
ATOM      3  O   UNL A   1      34.491  16.318  23.979  1.00  0.00    -0.273 OA
ATOM      4  H   UNL A   1      36.409  17.683  23.735  1.00  0.00     0.163 HD
ENDROOT
BRANCH   1   5
ATOM      5  C   UNL A   1      36.202  19.332  24.968  1.00  0.00     0.116 C 
BRANCH   5   6
ATOM      6  C   UNL A   1      37.709  19.522  24.806  1.00  0.00     0.023 C 
BRANCH   6   7
ATOM      7  C   UNL A   1      38.207  20.921  25.155  1.00  0.00     0.023 C 
BRANCH   7   8
ATOM      8  C   UNL A   1      39.407  20.940  26.083  1.00  0.00     0.116 C 
BRANCH   8   9
ATOM      9  N   UNL A   1      40.353  19.863  25.835  1.00  0.00    -0.352 N 
ATOM     10  O   UNL A   1      42.434  18.970  25.716  1.00  0.00    -0.269 OA
ATOM     11  C   UNL A   1      41.722  19.901  26.019  1.00  0.00     0.251 C 
ATOM     12  H   UNL A   1      39.979  19.017  25.501  1.00  0.00     0.163 HD
BRANCH  11  13
ATOM     13  C   UNL A   1      42.282  21.159  26.549  1.00  0.00     0.039 A 
ATOM     14  C   UNL A   1      42.314  21.370  27.928  1.00  0.00     0.014 A 
ATOM     15  C   UNL A   1      42.622  22.171  25.652  1.00  0.00     0.014 A 
ATOM     16  C   UNL A   1      42.540  22.650  28.409  1.00  0.00     0.010 A 
ATOM     17  C   UNL A   1      42.936  23.437  26.145  1.00  0.00     0.010 A 
ATOM     18  C   UNL A   1      42.855  23.695  27.523  1.00  0.00    -0.014 A 
BRANCH  18  19
ATOM     19  C   UNL A   1      43.131  25.043  28.069  1.00  0.00     0.031 A 
ATOM     20  C   UNL A   1      42.020  26.016  28.341  1.00  0.00     0.074 A 
ATOM     21  C   UNL A   1      44.406  25.365  28.354  1.00  0.00     0.049 A 
ATOM     22  N   UNL A   1      42.092  27.226  28.838  1.00  0.00    -0.248 NA
ATOM     23  C   UNL A   1      40.653  25.587  28.005  1.00  0.00     0.031 C 
ATOM     24  C   UNL A   1      45.565  24.493  28.138  1.00  0.00     0.029 A 
ATOM     25  N   UNL A   1      44.939  26.495  28.913  1.00  0.00    -0.354 N 
ATOM     26  C   UNL A   1      40.791  27.715  28.842  1.00  0.00     0.074 A 
ATOM     27  C   UNL A   1      39.949  26.675  28.287  1.00  0.00     0.031 C 
ATOM     28  C   UNL A   1      46.661  25.094  28.618  1.00  0.00     0.029 A 
ATOM     29  C   UNL A   1      46.296  26.416  29.111  1.00  0.00     0.049 A 
ATOM     30  H   UNL A   1      44.404  27.285  29.151  1.00  0.00     0.167 HD
ATOM     31  C   UNL A   1      40.343  28.921  29.266  1.00  0.00     0.031 A 
ATOM     32  C   UNL A   1      47.155  27.312  29.624  1.00  0.00     0.031 A 
ATOM     33  C   UNL A   1      41.185  29.943  29.830  1.00  0.00     0.049 A 
ATOM     34  C   UNL A   1      46.632  28.640  30.078  1.00  0.00     0.074 A 
ATOM     35  C   UNL A   1      40.823  31.187  30.321  1.00  0.00     0.029 A 
ATOM     36  N   UNL A   1      42.560  29.841  29.979  1.00  0.00    -0.354 N 
ATOM     37  N   UNL A   1      45.398  29.080  30.089  1.00  0.00    -0.248 NA
ATOM     38  C   UNL A   1      47.623  29.597  30.587  1.00  0.00     0.031 C 
ATOM     39  C   UNL A   1      41.986  31.853  30.727  1.00  0.00     0.029 A 
ATOM     40  C   UNL A   1      43.065  31.004  30.535  1.00  0.00     0.049 A 
ATOM     41  H   UNL A   1      43.099  29.056  29.726  1.00  0.00     0.167 HD
ATOM     42  C   UNL A   1      45.458  30.358  30.626  1.00  0.00     0.074 A 
ATOM     43  C   UNL A   1      46.849  30.613  30.942  1.00  0.00     0.031 C 
ATOM     44  C   UNL A   1      44.452  31.240  30.838  1.00  0.00     0.031 A 
BRANCH  31  45
ATOM     45  C   UNL A   1      38.879  29.216  29.099  1.00  0.00    -0.014 A 
ATOM     46  C   UNL A   1      37.970  29.049  30.156  1.00  0.00     0.009 A 
ATOM     47  C   UNL A   1      38.407  29.706  27.871  1.00  0.00     0.009 A 
ATOM     48  C   UNL A   1      36.613  29.336  29.974  1.00  0.00     0.001 A 
ATOM     49  C   UNL A   1      37.056  30.014  27.699  1.00  0.00     0.001 A 
ATOM     50  C   UNL A   1      36.159  29.821  28.748  1.00  0.00     0.000 A 
ENDBRANCH  31  45
BRANCH  32  51
ATOM     51  C   UNL A   1      48.594  26.970  29.736  1.00  0.00    -0.014 A 
ATOM     52  C   UNL A   1      49.087  26.341  30.889  1.00  0.00     0.009 A 
ATOM     53  C   UNL A   1      49.476  27.239  28.677  1.00  0.00     0.009 A 
ATOM     54  C   UNL A   1      50.437  26.003  30.985  1.00  0.00     0.001 A 
ATOM     55  C   UNL A   1      50.820  26.874  28.766  1.00  0.00     0.001 A 
ATOM     56  C   UNL A   1      51.300  26.264  29.922  1.00  0.00     0.000 A 
ENDBRANCH  32  51
BRANCH  44  57
ATOM     57  C   UNL A   1      44.825  32.546  31.477  1.00  0.00    -0.014 A 
ATOM     58  C   UNL A   1      45.082  32.637  32.854  1.00  0.00     0.009 A 
ATOM     59  C   UNL A   1      44.933  33.699  30.684  1.00  0.00     0.009 A 
ATOM     60  C   UNL A   1      45.400  33.869  33.430  1.00  0.00     0.001 A 
ATOM     61  C   UNL A   1      45.277  34.922  31.258  1.00  0.00     0.001 A 
ATOM     62  C   UNL A   1      45.500  35.008  32.632  1.00  0.00     0.000 A 
ENDBRANCH  44  57
ENDBRANCH  18  19
ENDBRANCH  11  13
ENDBRANCH   8   9
ENDBRANCH   7   8
ENDBRANCH   6   7
ENDBRANCH   5   6
ENDBRANCH   1   5
BRANCH   2  63
ATOM     63  C   UNL A   1      33.374  18.095  25.186  1.00  0.00     0.197 C 
BRANCH  63  64
ATOM     64  N   UNL A   1      32.672  19.015  24.281  1.00  0.00    -0.340 N 
ATOM     65  C   UNL A   1      32.779  20.349  24.053  1.00  0.00     0.244 C 
ATOM     66  H   UNL A   1      31.986  18.575  23.730  1.00  0.00     0.164 HD
ATOM     67  O   UNL A   1      32.120  20.763  23.091  1.00  0.00    -0.273 OA
BRANCH  65  68
ATOM     68  C   UNL A   1      33.456  21.320  25.034  1.00  0.00     0.181 C 
BRANCH  68  69
ATOM     69  N   UNL A   1      34.451  22.253  24.541  1.00  0.00    -0.342 N 
ATOM     70  C   UNL A   1      34.278  23.071  23.465  1.00  0.00     0.243 C 
ATOM     71  H   UNL A   1      35.311  22.298  25.018  1.00  0.00     0.164 HD
ATOM     72  O   UNL A   1      35.194  23.022  22.631  1.00  0.00    -0.273 OA
BRANCH  70  73
ATOM     73  C   UNL A   1      33.161  24.172  23.330  1.00  0.00     0.176 C 
BRANCH  73  74
ATOM     74  N   UNL A   1      33.044  24.583  21.918  1.00  0.00    -0.340 N 
ATOM     75  C   UNL A   1      32.419  25.676  21.377  1.00  0.00     0.251 C 
ATOM     76  H   UNL A   1      33.480  23.984  21.269  1.00  0.00     0.164 HD
ATOM     77  O   UNL A   1      32.148  25.692  20.180  1.00  0.00    -0.269 OA
BRANCH  75  78
ATOM     78  C   UNL A   1      32.053  26.838  22.213  1.00  0.00     0.040 A 
ATOM     79  C   UNL A   1      33.024  27.780  22.578  1.00  0.00     0.017 A 
ATOM     80  C   UNL A   1      30.706  27.058  22.526  1.00  0.00     0.017 A 
ATOM     81  C   UNL A   1      32.651  28.924  23.286  1.00  0.00     0.040 A 
ATOM     82  C   UNL A   1      30.337  28.207  23.230  1.00  0.00     0.040 A 
ATOM     83  C   UNL A   1      31.313  29.128  23.604  1.00  0.00     0.123 A 
ATOM     84  F   UNL A   1      30.953  30.237  24.263  1.00  0.00    -0.207 F 
ENDBRANCH  75  78
ENDBRANCH  73  74
BRANCH  73  85
ATOM     85  C   UNL A   1      31.772  24.262  24.003  1.00  0.00     0.072 C 
BRANCH  85  86
ATOM     86  C   UNL A   1      31.445  25.150  25.171  1.00  0.00    -0.020 A 
ATOM     87  C   UNL A   1      30.195  25.158  25.775  1.00  0.00     0.087 A 
ATOM     88  C   UNL A   1      32.225  26.138  25.875  1.00  0.00     0.003 A 
ATOM     89  N   UNL A   1      30.138  26.184  26.673  1.00  0.00    -0.361 N 
ATOM     90  C   UNL A   1      31.344  26.836  26.710  1.00  0.00     0.046 A 
ATOM     91  C   UNL A   1      33.551  26.610  25.795  1.00  0.00     0.010 A 
ATOM     92  H   UNL A   1      29.349  26.422  27.212  1.00  0.00     0.166 HD
ATOM     93  C   UNL A   1      31.699  27.999  27.403  1.00  0.00     0.026 A 
ATOM     94  C   UNL A   1      33.925  27.771  26.483  1.00  0.00     0.001 A 
ATOM     95  C   UNL A   1      33.005  28.465  27.262  1.00  0.00     0.002 A 
ENDBRANCH  85  86
ENDBRANCH  73  85
ENDBRANCH  70  73
ENDBRANCH  68  69
BRANCH  68  96
ATOM     96  C   UNL A   1      32.441  21.971  25.997  1.00  0.00     0.101 C 
BRANCH  96  97
ATOM     97  S   UNL A   1      33.190  22.599  27.532  1.00  0.00    -0.177 SA
ATOM     98  H   UNL A   1      33.645  23.865  27.331  1.00  0.00     0.102 HD
ENDBRANCH  96  97
ENDBRANCH  68  96
ENDBRANCH  65  68
ENDBRANCH  63  64
BRANCH  63  99
ATOM     99  C   UNL A   1      32.393  17.039  25.745  1.00  0.00     0.191 C 
BRANCH  99 100
ATOM    100  O   UNL A   1      32.060  15.997  24.841  1.00  0.00    -0.394 OA
ATOM    101  H   UNL A   1      31.436  15.387  25.265  1.00  0.00     0.210 HD
ENDBRANCH  99 100
ENDBRANCH  63  99
ENDBRANCH   2  63
TORSDOF 23
ENDMDL
MODEL 3
REMARK VINA RESULT:     -10.8      2.512      4.497
REMARK SMILES O=C(NCCCCNC(=O)[C@H](CO)NC(=O)[C@H](CS)NC(=O)[C@H](Cc1c[nH]c2ccccc12)NC(=O)c1ccc(F)cc1)c1ccc(-c2c3nc(c(-c4ccccc4)c4ccc([nH]4)c(-c4ccccc4)c4nc(c(-c5ccccc5)c5ccc2[nH]5)C=C4)C=C3)cc1
REMARK SMILES IDX 8 1 9 2 10 3 7 5 6 6 5 7 4 8 3 9 1 10 2 11 44 13 45 14 91 15
REMARK SMILES IDX 46 16 90 17 47 18 48 19 49 20 84 21 50 22 89 23 83 24 85 25
REMARK SMILES IDX 51 26 88 27 82 28 81 29 52 31 74 32 59 33 73 34 60 35 63 36
REMARK SMILES IDX 72 37 86 38 61 39 62 40 71 42 87 43 64 44 53 45 54 46 58 47
REMARK SMILES IDX 55 48 57 49 56 50 75 51 76 52 80 53 77 54 79 55 78 56 65 57
REMARK SMILES IDX 66 58 70 59 67 60 69 61 68 62 11 63 14 64 15 65 16 67 17 68
REMARK SMILES IDX 20 69 21 70 22 72 23 73 34 74 35 75 36 77 37 78 38 79 43 80
REMARK SMILES IDX 39 81 42 82 40 83 41 84 24 85 25 86 26 87 33 88 27 89 28 90
REMARK SMILES IDX 32 91 29 93 31 94 30 95 18 96 19 97 12 99 13 100
REMARK H PARENT 8 4 3 12 85 30 63 41 14 66 20 71 34 76 27 92 19 98 13 101
REMARK Flexibility Score: inf
ROOT
ATOM      1  N   UNL A   1      39.207  21.469  25.777  1.00  0.00    -0.354 N 
ATOM      2  C   UNL A   1      37.989  21.908  25.344  1.00  0.00     0.244 C 
ATOM      3  O   UNL A   1      37.446  21.269  24.439  1.00  0.00    -0.273 OA
ATOM      4  H   UNL A   1      39.601  20.733  25.256  1.00  0.00     0.163 HD
ENDROOT
BRANCH   1   5
ATOM      5  C   UNL A   1      40.001  21.933  26.894  1.00  0.00     0.116 C 
BRANCH   5   6
ATOM      6  C   UNL A   1      41.470  21.553  26.718  1.00  0.00     0.023 C 
BRANCH   6   7
ATOM      7  C   UNL A   1      41.696  20.266  25.930  1.00  0.00     0.023 C 
BRANCH   7   8
ATOM      8  C   UNL A   1      43.037  19.607  26.189  1.00  0.00     0.116 C 
BRANCH   8   9
ATOM      9  N   UNL A   1      43.656  19.054  24.995  1.00  0.00    -0.352 N 
ATOM     10  O   UNL A   1      44.976  19.155  23.154  1.00  0.00    -0.269 OA
ATOM     11  C   UNL A   1      44.570  19.678  24.168  1.00  0.00     0.251 C 
ATOM     12  H   UNL A   1      43.397  18.137  24.750  1.00  0.00     0.163 HD
BRANCH  11  13
ATOM     13  C   UNL A   1      44.984  21.041  24.551  1.00  0.00     0.039 A 
ATOM     14  C   UNL A   1      45.664  21.241  25.753  1.00  0.00     0.014 A 
ATOM     15  C   UNL A   1      44.546  22.116  23.777  1.00  0.00     0.014 A 
ATOM     16  C   UNL A   1      45.773  22.526  26.259  1.00  0.00     0.010 A 
ATOM     17  C   UNL A   1      44.738  23.413  24.249  1.00  0.00     0.010 A 
ATOM     18  C   UNL A   1      45.313  23.624  25.512  1.00  0.00    -0.014 A 
BRANCH  18  19
ATOM     19  C   UNL A   1      45.480  24.989  26.062  1.00  0.00     0.031 A 
ATOM     20  C   UNL A   1      46.792  25.714  25.963  1.00  0.00     0.074 A 
ATOM     21  C   UNL A   1      44.412  25.585  26.623  1.00  0.00     0.049 A 
ATOM     22  N   UNL A   1      47.096  26.919  26.374  1.00  0.00    -0.248 NA
ATOM     23  C   UNL A   1      47.911  24.996  25.333  1.00  0.00     0.031 C 
ATOM     24  C   UNL A   1      43.086  24.975  26.766  1.00  0.00     0.029 A 
ATOM     25  N   UNL A   1      44.261  26.839  27.149  1.00  0.00    -0.354 N 
ATOM     26  C   UNL A   1      48.445  27.091  26.086  1.00  0.00     0.074 A 
ATOM     27  C   UNL A   1      48.905  25.863  25.474  1.00  0.00     0.031 C 
ATOM     28  C   UNL A   1      42.242  25.879  27.282  1.00  0.00     0.029 A 
ATOM     29  C   UNL A   1      42.980  27.103  27.568  1.00  0.00     0.049 A 
ATOM     30  H   UNL A   1      44.997  27.488  27.220  1.00  0.00     0.167 HD
ATOM     31  C   UNL A   1      49.226  28.174  26.315  1.00  0.00     0.031 A 
ATOM     32  C   UNL A   1      42.457  28.205  28.132  1.00  0.00     0.031 A 
ATOM     33  C   UNL A   1      48.757  29.399  26.910  1.00  0.00     0.049 A 
ATOM     34  C   UNL A   1      43.347  29.384  28.379  1.00  0.00     0.074 A 
ATOM     35  C   UNL A   1      49.462  30.566  27.154  1.00  0.00     0.029 A 
ATOM     36  N   UNL A   1      47.462  29.614  27.357  1.00  0.00    -0.354 N 
ATOM     37  N   UNL A   1      44.615  29.536  28.086  1.00  0.00    -0.248 NA
ATOM     38  C   UNL A   1      42.732  30.543  29.038  1.00  0.00     0.031 C 
ATOM     39  C   UNL A   1      48.603  31.472  27.787  1.00  0.00     0.029 A 
ATOM     40  C   UNL A   1      47.350  30.886  27.892  1.00  0.00     0.049 A 
ATOM     41  H   UNL A   1      46.729  28.958  27.302  1.00  0.00     0.167 HD
ATOM     42  C   UNL A   1      44.948  30.815  28.505  1.00  0.00     0.074 A 
ATOM     43  C   UNL A   1      43.742  31.401  29.057  1.00  0.00     0.031 C 
ATOM     44  C   UNL A   1      46.144  31.449  28.439  1.00  0.00     0.031 A 
BRANCH  31  45
ATOM     45  C   UNL A   1      50.682  28.070  25.955  1.00  0.00    -0.014 A 
ATOM     46  C   UNL A   1      51.151  28.418  24.678  1.00  0.00     0.009 A 
ATOM     47  C   UNL A   1      51.605  27.649  26.925  1.00  0.00     0.009 A 
ATOM     48  C   UNL A   1      52.511  28.315  24.372  1.00  0.00     0.001 A 
ATOM     49  C   UNL A   1      52.967  27.570  26.624  1.00  0.00     0.001 A 
ATOM     50  C   UNL A   1      53.418  27.895  25.346  1.00  0.00     0.000 A 
ENDBRANCH  31  45
BRANCH  32  51
ATOM     51  C   UNL A   1      41.018  28.235  28.489  1.00  0.00    -0.014 A 
ATOM     52  C   UNL A   1      40.577  27.703  29.709  1.00  0.00     0.009 A 
ATOM     53  C   UNL A   1      40.082  28.827  27.626  1.00  0.00     0.009 A 
ATOM     54  C   UNL A   1      39.225  27.750  30.052  1.00  0.00     0.001 A 
ATOM     55  C   UNL A   1      38.735  28.897  27.984  1.00  0.00     0.001 A 
ATOM     56  C   UNL A   1      38.307  28.351  29.192  1.00  0.00     0.000 A 
ENDBRANCH  32  51
BRANCH  44  57
ATOM     57  C   UNL A   1      46.187  32.861  28.945  1.00  0.00    -0.014 A 
ATOM     58  C   UNL A   1      46.557  33.150  30.268  1.00  0.00     0.009 A 
ATOM     59  C   UNL A   1      45.862  33.917  28.080  1.00  0.00     0.009 A 
ATOM     60  C   UNL A   1      46.562  34.470  30.724  1.00  0.00     0.001 A 
ATOM     61  C   UNL A   1      45.894  35.236  28.531  1.00  0.00     0.001 A 
ATOM     62  C   UNL A   1      46.233  35.511  29.855  1.00  0.00     0.000 A 
ENDBRANCH  44  57
ENDBRANCH  18  19
ENDBRANCH  11  13
ENDBRANCH   8   9
ENDBRANCH   7   8
ENDBRANCH   6   7
ENDBRANCH   5   6
ENDBRANCH   1   5
BRANCH   2  63
ATOM     63  C   UNL A   1      37.398  23.239  25.846  1.00  0.00     0.197 C 
BRANCH  63  64
ATOM     64  N   UNL A   1      36.231  23.037  26.715  1.00  0.00    -0.340 N 
ATOM     65  C   UNL A   1      34.929  23.414  26.619  1.00  0.00     0.244 C 
ATOM     66  H   UNL A   1      36.433  22.527  27.532  1.00  0.00     0.164 HD
ATOM     67  O   UNL A   1      34.185  22.925  27.479  1.00  0.00    -0.273 OA
BRANCH  65  68
ATOM     68  C   UNL A   1      34.444  24.535  25.686  1.00  0.00     0.181 C 
BRANCH  68  69
ATOM     69  N   UNL A   1      34.917  24.577  24.316  1.00  0.00    -0.342 N 
ATOM     70  C   UNL A   1      34.472  23.764  23.318  1.00  0.00     0.243 C 
ATOM     71  H   UNL A   1      35.609  25.240  24.092  1.00  0.00     0.164 HD
ATOM     72  O   UNL A   1      35.371  23.196  22.679  1.00  0.00    -0.273 OA
BRANCH  70  73
ATOM     73  C   UNL A   1      32.983  23.676  22.813  1.00  0.00     0.176 C 
BRANCH  73  74
ATOM     74  N   UNL A   1      32.907  24.157  21.420  1.00  0.00    -0.340 N 
ATOM     75  C   UNL A   1      32.506  25.375  20.939  1.00  0.00     0.251 C 
ATOM     76  H   UNL A   1      33.187  23.506  20.736  1.00  0.00     0.164 HD
ATOM     77  O   UNL A   1      32.205  25.494  19.755  1.00  0.00    -0.269 OA
BRANCH  75  78
ATOM     78  C   UNL A   1      32.418  26.555  21.826  1.00  0.00     0.040 A 
ATOM     79  C   UNL A   1      31.185  26.941  22.367  1.00  0.00     0.017 A 
ATOM     80  C   UNL A   1      33.595  27.201  22.223  1.00  0.00     0.017 A 
ATOM     81  C   UNL A   1      31.127  27.997  23.279  1.00  0.00     0.040 A 
ATOM     82  C   UNL A   1      33.532  28.254  23.140  1.00  0.00     0.040 A 
ATOM     83  C   UNL A   1      32.299  28.641  23.657  1.00  0.00     0.123 A 
ATOM     84  F   UNL A   1      32.243  29.639  24.550  1.00  0.00    -0.207 F 
ENDBRANCH  75  78
ENDBRANCH  73  74
BRANCH  73  85
ATOM     85  C   UNL A   1      31.929  22.566  23.026  1.00  0.00     0.072 C 
BRANCH  85  86
ATOM     86  C   UNL A   1      32.131  21.350  23.887  1.00  0.00    -0.020 A 
ATOM     87  C   UNL A   1      32.220  21.423  25.270  1.00  0.00     0.087 A 
ATOM     88  C   UNL A   1      32.304  19.957  23.556  1.00  0.00     0.003 A 
ATOM     89  N   UNL A   1      32.587  20.203  25.760  1.00  0.00    -0.361 N 
ATOM     90  C   UNL A   1      32.703  19.305  24.730  1.00  0.00     0.046 A 
ATOM     91  C   UNL A   1      32.299  19.202  22.366  1.00  0.00     0.010 A 
ATOM     92  H   UNL A   1      32.746  19.998  26.710  1.00  0.00     0.166 HD
ATOM     93  C   UNL A   1      33.155  17.980  24.758  1.00  0.00     0.026 A 
ATOM     94  C   UNL A   1      32.746  17.874  22.377  1.00  0.00     0.001 A 
ATOM     95  C   UNL A   1      33.185  17.279  23.555  1.00  0.00     0.002 A 
ENDBRANCH  85  86
ENDBRANCH  73  85
ENDBRANCH  70  73
ENDBRANCH  68  69
BRANCH  68  96
ATOM     96  C   UNL A   1      32.924  24.771  25.807  1.00  0.00     0.101 C 
BRANCH  96  97
ATOM     97  S   UNL A   1      32.489  26.425  26.431  1.00  0.00    -0.177 SA
ATOM     98  H   UNL A   1      33.554  26.957  27.088  1.00  0.00     0.102 HD
ENDBRANCH  96  97
ENDBRANCH  68  96
ENDBRANCH  65  68
ENDBRANCH  63  64
BRANCH  63  99
ATOM     99  C   UNL A   1      38.468  24.087  26.572  1.00  0.00     0.191 C 
BRANCH  99 100
ATOM    100  O   UNL A   1      39.403  24.724  25.716  1.00  0.00    -0.394 OA
ATOM    101  H   UNL A   1      39.032  24.790  24.822  1.00  0.00     0.210 HD
ENDBRANCH  99 100
ENDBRANCH  63  99
ENDBRANCH   2  63
TORSDOF 23
ENDMDL
