MODEL 1
REMARK VINA RESULT:     -11.8      0.000      0.000
REMARK SMILES Cc1ccn2c([C@H]3C[C@@H]3C(=O)NCCCCNC(=O)c3ccc(-c4c5nc(c(-c6ccccc6)c6ccc([nH]6)c(-c6ccccc6)c6nc(c(-c7ccccc7)c7ccc4[nH]7)C=C6)C=C5)cc3)nnc2c1
REMARK SMILES IDX 15 1 14 2 13 3 12 4 10 5 11 6 9 8 7 9 8 10 6 11 1 12 2 13
REMARK SMILES IDX 3 14 71 15 4 16 70 17 5 18 69 19 68 20 16 21 17 22 18 23
REMARK SMILES IDX 19 25 20 26 21 27 67 28 22 29 66 30 23 31 24 32 25 33 60 34
REMARK SMILES IDX 26 35 65 36 59 37 61 38 27 39 64 40 58 41 57 42 28 44 50 45
REMARK SMILES IDX 35 46 49 47 36 48 39 49 48 50 62 51 37 52 38 53 47 55 63 56
REMARK SMILES IDX 40 57 29 58 30 59 34 60 31 61 33 62 32 63 51 64 52 65 56 66
REMARK SMILES IDX 53 67 55 68 54 69 41 70 42 71 46 72 43 73 45 74 44 75
REMARK H PARENT 12 7 17 24 61 43 39 54
REMARK Flexibility Score: inf
ROOT
ATOM      1  C   UNL A   1      37.524  34.206  33.594  1.00  0.00     0.023 C 
ENDROOT
BRANCH   1   2
ATOM      2  C   UNL A   1      36.424  33.253  34.082  1.00  0.00     0.023 C 
BRANCH   2   3
ATOM      3  C   UNL A   1      35.008  33.722  33.755  1.00  0.00     0.116 C 
BRANCH   3   4
ATOM      4  N   UNL A   1      34.827  35.114  34.119  1.00  0.00    -0.356 N 
ATOM      5  C   UNL A   1      34.056  36.043  33.481  1.00  0.00     0.223 C 
ATOM      6  O   UNL A   1      34.015  37.208  33.865  1.00  0.00    -0.275 OA
ATOM      7  H   UNL A   1      35.316  35.424  34.915  1.00  0.00     0.163 HD
BRANCH   5   8
ATOM      8  C   UNL A   1      33.229  35.587  32.350  1.00  0.00     0.090 C 
ATOM      9  C   UNL A   1      33.411  36.185  30.964  1.00  0.00     0.071 C 
ATOM     10  C   UNL A   1      32.158  36.453  31.747  1.00  0.00     0.026 C 
BRANCH   9  11
ATOM     11  C   UNL A   1      33.403  35.208  29.800  1.00  0.00     0.141 A 
ATOM     12  C   UNL A   1      36.520  30.895  28.129  1.00  0.00     0.044 C 
ATOM     13  C   UNL A   1      35.662  32.018  28.631  1.00  0.00    -0.046 A 
ATOM     14  C   UNL A   1      36.130  32.736  29.819  1.00  0.00     0.022 A 
ATOM     15  C   UNL A   1      34.525  32.392  28.001  1.00  0.00     0.053 A 
ATOM     16  C   UNL A   1      35.415  33.775  30.284  1.00  0.00     0.095 A 
ATOM     17  C   UNL A   1      33.793  33.514  28.472  1.00  0.00     0.161 A 
ATOM     18  N   UNL A   1      34.258  34.151  29.611  1.00  0.00    -0.286 N 
ATOM     19  N   UNL A   1      32.742  34.153  28.007  1.00  0.00    -0.130 NA
ATOM     20  N   UNL A   1      32.527  35.248  28.815  1.00  0.00    -0.134 NA
ENDBRANCH   9  11
ENDBRANCH   5   8
ENDBRANCH   3   4
ENDBRANCH   2   3
ENDBRANCH   1   2
BRANCH   1  21
ATOM     21  C   UNL A   1      38.790  33.502  33.097  1.00  0.00     0.116 C 
BRANCH  21  22
ATOM     22  N   UNL A   1      39.462  34.224  32.036  1.00  0.00    -0.352 N 
ATOM     23  C   UNL A   1      40.050  33.871  30.856  1.00  0.00     0.251 C 
ATOM     24  H   UNL A   1      39.503  35.194  32.205  1.00  0.00     0.163 HD
ATOM     25  O   UNL A   1      40.417  34.801  30.132  1.00  0.00    -0.269 OA
BRANCH  23  26
ATOM     26  C   UNL A   1      40.334  32.478  30.420  1.00  0.00     0.039 A 
ATOM     27  C   UNL A   1      39.387  31.467  30.273  1.00  0.00     0.014 A 
ATOM     28  C   UNL A   1      41.695  32.155  30.245  1.00  0.00     0.014 A 
ATOM     29  C   UNL A   1      39.789  30.154  30.067  1.00  0.00     0.010 A 
ATOM     30  C   UNL A   1      42.104  30.844  30.030  1.00  0.00     0.010 A 
ATOM     31  C   UNL A   1      41.148  29.837  30.000  1.00  0.00    -0.014 A 
BRANCH  31  32
ATOM     32  C   UNL A   1      41.496  28.430  29.865  1.00  0.00     0.031 A 
ATOM     33  C   UNL A   1      42.276  27.856  30.994  1.00  0.00     0.074 A 
ATOM     34  C   UNL A   1      41.141  27.671  28.811  1.00  0.00     0.049 A 
ATOM     35  N   UNL A   1      43.491  27.413  30.973  1.00  0.00    -0.248 NA
ATOM     36  C   UNL A   1      41.661  27.872  32.327  1.00  0.00     0.031 C 
ATOM     37  C   UNL A   1      40.192  27.972  27.737  1.00  0.00     0.029 A 
ATOM     38  N   UNL A   1      41.529  26.396  28.531  1.00  0.00    -0.354 N 
ATOM     39  C   UNL A   1      43.764  26.967  32.264  1.00  0.00     0.074 A 
ATOM     40  C   UNL A   1      42.641  27.366  33.077  1.00  0.00     0.031 C 
ATOM     41  C   UNL A   1      39.913  26.836  27.056  1.00  0.00     0.029 A 
ATOM     42  C   UNL A   1      40.786  25.779  27.538  1.00  0.00     0.049 A 
ATOM     43  H   UNL A   1      42.274  25.951  28.996  1.00  0.00     0.167 HD
ATOM     44  C   UNL A   1      44.824  26.161  32.547  1.00  0.00     0.031 A 
ATOM     45  C   UNL A   1      40.864  24.478  27.171  1.00  0.00     0.031 A 
ATOM     46  C   UNL A   1      45.809  26.178  31.500  1.00  0.00     0.049 A 
ATOM     47  C   UNL A   1      42.189  23.975  27.593  1.00  0.00     0.074 A 
ATOM     48  C   UNL A   1      46.665  27.130  30.985  1.00  0.00     0.029 A 
ATOM     49  N   UNL A   1      45.771  25.162  30.578  1.00  0.00    -0.354 N 
ATOM     50  N   UNL A   1      43.312  24.377  27.071  1.00  0.00    -0.248 NA
ATOM     51  C   UNL A   1      42.300  23.309  28.880  1.00  0.00     0.031 C 
ATOM     52  C   UNL A   1      46.720  26.855  29.588  1.00  0.00     0.029 A 
ATOM     53  C   UNL A   1      45.934  25.727  29.340  1.00  0.00     0.049 A 
ATOM     54  H   UNL A   1      45.651  24.204  30.771  1.00  0.00     0.167 HD
ATOM     55  C   UNL A   1      44.205  24.404  28.130  1.00  0.00     0.074 A 
ATOM     56  C   UNL A   1      43.560  23.630  29.187  1.00  0.00     0.031 C 
ATOM     57  C   UNL A   1      45.255  25.276  28.144  1.00  0.00     0.031 A 
BRANCH  44  58
ATOM     58  C   UNL A   1      44.817  25.107  33.624  1.00  0.00    -0.014 A 
ATOM     59  C   UNL A   1      45.271  25.344  34.934  1.00  0.00     0.009 A 
ATOM     60  C   UNL A   1      44.096  23.917  33.412  1.00  0.00     0.009 A 
ATOM     61  C   UNL A   1      45.009  24.458  35.982  1.00  0.00     0.001 A 
ATOM     62  C   UNL A   1      43.797  23.046  34.468  1.00  0.00     0.001 A 
ATOM     63  C   UNL A   1      44.249  23.320  35.754  1.00  0.00     0.000 A 
ENDBRANCH  44  58
BRANCH  45  64
ATOM     64  C   UNL A   1      39.752  23.562  26.845  1.00  0.00    -0.014 A 
ATOM     65  C   UNL A   1      40.023  22.216  26.537  1.00  0.00     0.009 A 
ATOM     66  C   UNL A   1      38.482  24.067  26.523  1.00  0.00     0.009 A 
ATOM     67  C   UNL A   1      39.079  21.419  25.883  1.00  0.00     0.001 A 
ATOM     68  C   UNL A   1      37.537  23.267  25.868  1.00  0.00     0.001 A 
ATOM     69  C   UNL A   1      37.843  21.951  25.532  1.00  0.00     0.000 A 
ENDBRANCH  45  64
BRANCH  57  70
ATOM     70  C   UNL A   1      45.551  26.058  26.884  1.00  0.00    -0.014 A 
ATOM     71  C   UNL A   1      46.573  25.600  26.039  1.00  0.00     0.009 A 
ATOM     72  C   UNL A   1      44.991  27.323  26.627  1.00  0.00     0.009 A 
ATOM     73  C   UNL A   1      47.039  26.388  24.983  1.00  0.00     0.001 A 
ATOM     74  C   UNL A   1      45.442  28.102  25.555  1.00  0.00     0.001 A 
ATOM     75  C   UNL A   1      46.474  27.640  24.743  1.00  0.00     0.000 A 
ENDBRANCH  57  70
ENDBRANCH  31  32
ENDBRANCH  23  26
ENDBRANCH  21  22
ENDBRANCH   1  21
TORSDOF 12
ENDMDL
MODEL 2
REMARK VINA RESULT:     -11.4      4.591      8.618
REMARK SMILES Cc1ccn2c([C@H]3C[C@@H]3C(=O)NCCCCNC(=O)c3ccc(-c4c5nc(c(-c6ccccc6)c6ccc([nH]6)c(-c6ccccc6)c6nc(c(-c7ccccc7)c7ccc4[nH]7)C=C6)C=C5)cc3)nnc2c1
REMARK SMILES IDX 15 1 14 2 13 3 12 4 10 5 11 6 9 8 7 9 8 10 6 11 1 12 2 13
REMARK SMILES IDX 3 14 71 15 4 16 70 17 5 18 69 19 68 20 16 21 17 22 18 23
REMARK SMILES IDX 19 25 20 26 21 27 67 28 22 29 66 30 23 31 24 32 25 33 60 34
REMARK SMILES IDX 26 35 65 36 59 37 61 38 27 39 64 40 58 41 57 42 28 44 50 45
REMARK SMILES IDX 35 46 49 47 36 48 39 49 48 50 62 51 37 52 38 53 47 55 63 56
REMARK SMILES IDX 40 57 29 58 30 59 34 60 31 61 33 62 32 63 51 64 52 65 56 66
REMARK SMILES IDX 53 67 55 68 54 69 41 70 42 71 46 72 43 73 45 74 44 75
REMARK H PARENT 12 7 17 24 61 43 39 54
REMARK Flexibility Score: inf
ROOT
ATOM      1  C   UNL A   1      33.568  28.775  27.323  1.00  0.00     0.023 C 
ENDROOT
BRANCH   1   2
ATOM      2  C   UNL A   1      32.562  29.779  26.745  1.00  0.00     0.023 C 
BRANCH   2   3
ATOM      3  C   UNL A   1      32.558  29.843  25.219  1.00  0.00     0.116 C 
BRANCH   3   4
ATOM      4  N   UNL A   1      31.287  30.336  24.726  1.00  0.00    -0.356 N 
ATOM      5  C   UNL A   1      30.333  29.632  24.047  1.00  0.00     0.223 C 
ATOM      6  O   UNL A   1      29.308  30.173  23.646  1.00  0.00    -0.275 OA
ATOM      7  H   UNL A   1      31.088  31.284  24.900  1.00  0.00     0.163 HD
BRANCH   5   8
ATOM      8  C   UNL A   1      30.550  28.186  23.863  1.00  0.00     0.090 C 
ATOM      9  C   UNL A   1      30.726  27.598  22.472  1.00  0.00     0.071 C 
ATOM     10  C   UNL A   1      29.495  27.292  23.275  1.00  0.00     0.026 C 
BRANCH   9  11
ATOM     11  C   UNL A   1      31.824  26.560  22.310  1.00  0.00     0.141 A 
ATOM     12  C   UNL A   1      32.436  21.127  23.410  1.00  0.00     0.044 C 
ATOM     13  C   UNL A   1      32.226  22.572  23.068  1.00  0.00    -0.046 A 
ATOM     14  C   UNL A   1      30.967  23.184  23.497  1.00  0.00     0.022 A 
ATOM     15  C   UNL A   1      33.167  23.303  22.428  1.00  0.00     0.053 A 
ATOM     16  C   UNL A   1      30.749  24.487  23.247  1.00  0.00     0.095 A 
ATOM     17  C   UNL A   1      32.950  24.688  22.199  1.00  0.00     0.161 A 
ATOM     18  N   UNL A   1      31.736  25.222  22.602  1.00  0.00    -0.286 N 
ATOM     19  N   UNL A   1      33.712  25.643  21.713  1.00  0.00    -0.130 NA
ATOM     20  N   UNL A   1      33.022  26.829  21.829  1.00  0.00    -0.134 NA
ENDBRANCH   9  11
ENDBRANCH   5   8
ENDBRANCH   3   4
ENDBRANCH   2   3
ENDBRANCH   1   2
BRANCH   1  21
ATOM     21  C   UNL A   1      34.990  29.324  27.471  1.00  0.00     0.116 C 
BRANCH  21  22
ATOM     22  N   UNL A   1      35.310  29.712  28.830  1.00  0.00    -0.352 N 
ATOM     23  C   UNL A   1      36.447  29.716  29.586  1.00  0.00     0.251 C 
ATOM     24  H   UNL A   1      34.527  30.051  29.322  1.00  0.00     0.163 HD
ATOM     25  O   UNL A   1      36.360  30.250  30.695  1.00  0.00    -0.269 OA
BRANCH  23  26
ATOM     26  C   UNL A   1      37.734  29.076  29.205  1.00  0.00     0.039 A 
ATOM     27  C   UNL A   1      38.448  28.167  29.984  1.00  0.00     0.014 A 
ATOM     28  C   UNL A   1      38.305  29.517  27.995  1.00  0.00     0.014 A 
ATOM     29  C   UNL A   1      39.736  27.797  29.625  1.00  0.00     0.010 A 
ATOM     30  C   UNL A   1      39.591  29.143  27.624  1.00  0.00     0.010 A 
ATOM     31  C   UNL A   1      40.326  28.328  28.473  1.00  0.00    -0.014 A 
BRANCH  31  32
ATOM     32  C   UNL A   1      41.707  27.957  28.204  1.00  0.00     0.031 A 
ATOM     33  C   UNL A   1      41.896  26.637  27.546  1.00  0.00     0.074 A 
ATOM     34  C   UNL A   1      42.762  28.738  28.505  1.00  0.00     0.049 A 
ATOM     35  N   UNL A   1      42.468  25.583  28.032  1.00  0.00    -0.248 NA
ATOM     36  C   UNL A   1      41.283  26.438  26.226  1.00  0.00     0.031 C 
ATOM     37  C   UNL A   1      42.780  30.141  28.925  1.00  0.00     0.029 A 
ATOM     38  N   UNL A   1      44.085  28.426  28.417  1.00  0.00    -0.354 N 
ATOM     39  C   UNL A   1      42.409  24.615  27.033  1.00  0.00     0.074 A 
ATOM     40  C   UNL A   1      41.582  25.161  25.985  1.00  0.00     0.031 C 
ATOM     41  C   UNL A   1      44.044  30.618  28.838  1.00  0.00     0.029 A 
ATOM     42  C   UNL A   1      44.936  29.514  28.523  1.00  0.00     0.049 A 
ATOM     43  H   UNL A   1      44.409  27.505  28.289  1.00  0.00     0.167 HD
ATOM     44  C   UNL A   1      43.174  23.489  27.066  1.00  0.00     0.031 A 
ATOM     45  C   UNL A   1      46.275  29.505  28.326  1.00  0.00     0.031 A 
ATOM     46  C   UNL A   1      43.693  23.227  28.381  1.00  0.00     0.049 A 
ATOM     47  C   UNL A   1      46.744  28.116  28.515  1.00  0.00     0.074 A 
ATOM     48  C   UNL A   1      43.137  22.890  29.598  1.00  0.00     0.029 A 
ATOM     49  N   UNL A   1      44.973  23.644  28.650  1.00  0.00    -0.354 N 
ATOM     50  N   UNL A   1      46.727  27.500  29.662  1.00  0.00    -0.248 NA
ATOM     51  C   UNL A   1      46.867  27.260  27.346  1.00  0.00     0.031 C 
ATOM     52  C   UNL A   1      43.937  23.564  30.565  1.00  0.00     0.029 A 
ATOM     53  C   UNL A   1      44.959  24.233  29.888  1.00  0.00     0.049 A 
ATOM     54  H   UNL A   1      45.756  23.538  28.064  1.00  0.00     0.167 HD
ATOM     55  C   UNL A   1      46.409  26.187  29.353  1.00  0.00     0.074 A 
ATOM     56  C   UNL A   1      46.621  26.076  27.912  1.00  0.00     0.031 C 
ATOM     57  C   UNL A   1      45.745  25.395  30.245  1.00  0.00     0.031 A 
BRANCH  44  58
ATOM     58  C   UNL A   1      43.716  22.802  25.840  1.00  0.00    -0.014 A 
ATOM     59  C   UNL A   1      44.477  23.466  24.860  1.00  0.00     0.009 A 
ATOM     60  C   UNL A   1      43.701  21.395  25.779  1.00  0.00     0.009 A 
ATOM     61  C   UNL A   1      45.197  22.773  23.883  1.00  0.00     0.001 A 
ATOM     62  C   UNL A   1      44.453  20.697  24.827  1.00  0.00     0.001 A 
ATOM     63  C   UNL A   1      45.206  21.386  23.883  1.00  0.00     0.000 A 
ENDBRANCH  44  58
BRANCH  45  64
ATOM     64  C   UNL A   1      47.092  30.513  27.618  1.00  0.00    -0.014 A 
ATOM     65  C   UNL A   1      48.463  30.632  27.911  1.00  0.00     0.009 A 
ATOM     66  C   UNL A   1      46.479  31.555  26.904  1.00  0.00     0.009 A 
ATOM     67  C   UNL A   1      49.183  31.774  27.552  1.00  0.00     0.001 A 
ATOM     68  C   UNL A   1      47.202  32.700  26.544  1.00  0.00     0.001 A 
ATOM     69  C   UNL A   1      48.547  32.817  26.885  1.00  0.00     0.000 A 
ENDBRANCH  45  64
BRANCH  57  70
ATOM     70  C   UNL A   1      45.560  25.908  31.656  1.00  0.00    -0.014 A 
ATOM     71  C   UNL A   1      44.538  26.837  31.899  1.00  0.00     0.009 A 
ATOM     72  C   UNL A   1      46.486  25.651  32.684  1.00  0.00     0.009 A 
ATOM     73  C   UNL A   1      44.454  27.508  33.122  1.00  0.00     0.001 A 
ATOM     74  C   UNL A   1      46.388  26.306  33.917  1.00  0.00     0.001 A 
ATOM     75  C   UNL A   1      45.380  27.243  34.130  1.00  0.00     0.000 A 
ENDBRANCH  57  70
ENDBRANCH  31  32
ENDBRANCH  23  26
ENDBRANCH  21  22
ENDBRANCH   1  21
TORSDOF 12
ENDMDL
MODEL 3
REMARK VINA RESULT:     -11.4      4.360      6.899
REMARK SMILES Cc1ccn2c([C@H]3C[C@@H]3C(=O)NCCCCNC(=O)c3ccc(-c4c5nc(c(-c6ccccc6)c6ccc([nH]6)c(-c6ccccc6)c6nc(c(-c7ccccc7)c7ccc4[nH]7)C=C6)C=C5)cc3)nnc2c1
REMARK SMILES IDX 15 1 14 2 13 3 12 4 10 5 11 6 9 8 7 9 8 10 6 11 1 12 2 13
REMARK SMILES IDX 3 14 71 15 4 16 70 17 5 18 69 19 68 20 16 21 17 22 18 23
REMARK SMILES IDX 19 25 20 26 21 27 67 28 22 29 66 30 23 31 24 32 25 33 60 34
REMARK SMILES IDX 26 35 65 36 59 37 61 38 27 39 64 40 58 41 57 42 28 44 50 45
REMARK SMILES IDX 35 46 49 47 36 48 39 49 48 50 62 51 37 52 38 53 47 55 63 56
REMARK SMILES IDX 40 57 29 58 30 59 34 60 31 61 33 62 32 63 51 64 52 65 56 66
REMARK SMILES IDX 53 67 55 68 54 69 41 70 42 71 46 72 43 73 45 74 44 75
REMARK H PARENT 12 7 17 24 61 43 39 54
REMARK Flexibility Score: inf
ROOT
ATOM      1  C   UNL A   1      33.912  29.142  26.234  1.00  0.00     0.023 C 
ENDROOT
BRANCH   1   2
ATOM      2  C   UNL A   1      33.212  29.438  24.900  1.00  0.00     0.023 C 
BRANCH   2   3
ATOM      3  C   UNL A   1      31.713  29.699  25.031  1.00  0.00     0.116 C 
BRANCH   3   4
ATOM      4  N   UNL A   1      31.044  29.519  23.758  1.00  0.00    -0.356 N 
ATOM      5  C   UNL A   1      30.296  28.448  23.360  1.00  0.00     0.223 C 
ATOM      6  O   UNL A   1      29.809  28.394  22.235  1.00  0.00    -0.275 OA
ATOM      7  H   UNL A   1      31.140  30.250  23.106  1.00  0.00     0.163 HD
BRANCH   5   8
ATOM      8  C   UNL A   1      30.043  27.383  24.348  1.00  0.00     0.090 C 
ATOM      9  C   UNL A   1      30.357  25.932  24.022  1.00  0.00     0.071 C 
ATOM     10  C   UNL A   1      28.934  26.385  24.175  1.00  0.00     0.026 C 
BRANCH   9  11
ATOM     11  C   UNL A   1      31.036  25.125  25.116  1.00  0.00     0.141 A 
ATOM     12  C   UNL A   1      36.145  23.095  26.056  1.00  0.00     0.044 C 
ATOM     13  C   UNL A   1      34.796  23.703  25.810  1.00  0.00    -0.046 A 
ATOM     14  C   UNL A   1      34.588  24.369  24.523  1.00  0.00     0.022 A 
ATOM     15  C   UNL A   1      33.791  23.612  26.711  1.00  0.00     0.053 A 
ATOM     16  C   UNL A   1      33.383  24.895  24.240  1.00  0.00     0.095 A 
ATOM     17  C   UNL A   1      32.509  24.135  26.394  1.00  0.00     0.161 A 
ATOM     18  N   UNL A   1      32.361  24.776  25.174  1.00  0.00    -0.286 N 
ATOM     19  N   UNL A   1      31.350  24.094  27.014  1.00  0.00    -0.130 NA
ATOM     20  N   UNL A   1      30.413  24.673  26.187  1.00  0.00    -0.134 NA
ENDBRANCH   9  11
ENDBRANCH   5   8
ENDBRANCH   3   4
ENDBRANCH   2   3
ENDBRANCH   1   2
BRANCH   1  21
ATOM     21  C   UNL A   1      33.390  29.966  27.414  1.00  0.00     0.116 C 
BRANCH  21  22
ATOM     22  N   UNL A   1      33.933  31.309  27.454  1.00  0.00    -0.352 N 
ATOM     23  C   UNL A   1      35.159  31.842  27.729  1.00  0.00     0.251 C 
ATOM     24  H   UNL A   1      33.263  31.995  27.231  1.00  0.00     0.163 HD
ATOM     25  O   UNL A   1      35.281  33.054  27.534  1.00  0.00    -0.269 OA
BRANCH  23  26
ATOM     26  C   UNL A   1      36.313  31.095  28.298  1.00  0.00     0.039 A 
ATOM     27  C   UNL A   1      37.382  31.662  28.989  1.00  0.00     0.014 A 
ATOM     28  C   UNL A   1      36.350  29.715  28.016  1.00  0.00     0.014 A 
ATOM     29  C   UNL A   1      38.503  30.901  29.290  1.00  0.00     0.010 A 
ATOM     30  C   UNL A   1      37.466  28.945  28.323  1.00  0.00     0.010 A 
ATOM     31  C   UNL A   1      38.565  29.557  28.908  1.00  0.00    -0.014 A 
BRANCH  31  32
ATOM     32  C   UNL A   1      39.804  28.845  29.185  1.00  0.00     0.031 A 
ATOM     33  C   UNL A   1      40.137  28.682  30.626  1.00  0.00     0.074 A 
ATOM     34  C   UNL A   1      40.608  28.344  28.228  1.00  0.00     0.049 A 
ATOM     35  N   UNL A   1      41.134  29.195  31.272  1.00  0.00    -0.248 NA
ATOM     36  C   UNL A   1      39.187  27.943  31.467  1.00  0.00     0.031 C 
ATOM     37  C   UNL A   1      40.348  28.190  26.795  1.00  0.00     0.029 A 
ATOM     38  N   UNL A   1      41.841  27.788  28.379  1.00  0.00    -0.354 N 
ATOM     39  C   UNL A   1      41.021  28.740  32.583  1.00  0.00     0.074 A 
ATOM     40  C   UNL A   1      39.752  28.058  32.669  1.00  0.00     0.031 C 
ATOM     41  C   UNL A   1      41.292  27.384  26.254  1.00  0.00     0.029 A 
ATOM     42  C   UNL A   1      42.303  27.111  27.262  1.00  0.00     0.049 A 
ATOM     43  H   UNL A   1      42.361  27.860  29.212  1.00  0.00     0.167 HD
ATOM     44  C   UNL A   1      42.050  28.818  33.471  1.00  0.00     0.031 A 
ATOM     45  C   UNL A   1      43.420  26.350  27.192  1.00  0.00     0.031 A 
ATOM     46  C   UNL A   1      43.054  29.757  33.052  1.00  0.00     0.049 A 
ATOM     47  C   UNL A   1      44.323  26.783  28.280  1.00  0.00     0.074 A 
ATOM     48  C   UNL A   1      43.096  31.125  32.877  1.00  0.00     0.029 A 
ATOM     49  N   UNL A   1      44.156  29.257  32.403  1.00  0.00    -0.354 N 
ATOM     50  N   UNL A   1      44.901  27.948  28.317  1.00  0.00    -0.248 NA
ATOM     51  C   UNL A   1      44.276  26.066  29.545  1.00  0.00     0.031 C 
ATOM     52  C   UNL A   1      43.943  31.324  31.749  1.00  0.00     0.029 A 
ATOM     53  C   UNL A   1      44.404  30.073  31.331  1.00  0.00     0.049 A 
ATOM     54  H   UNL A   1      44.673  28.460  32.662  1.00  0.00     0.167 HD
ATOM     55  C   UNL A   1      44.906  28.298  29.657  1.00  0.00     0.074 A 
ATOM     56  C   UNL A   1      44.617  27.058  30.373  1.00  0.00     0.031 C 
ATOM     57  C   UNL A   1      44.876  29.607  30.044  1.00  0.00     0.031 A 
BRANCH  44  58
ATOM     58  C   UNL A   1      42.302  27.807  34.559  1.00  0.00    -0.014 A 
ATOM     59  C   UNL A   1      41.746  27.908  35.847  1.00  0.00     0.009 A 
ATOM     60  C   UNL A   1      42.897  26.575  34.224  1.00  0.00     0.009 A 
ATOM     61  C   UNL A   1      41.761  26.840  36.749  1.00  0.00     0.001 A 
ATOM     62  C   UNL A   1      42.878  25.490  35.110  1.00  0.00     0.001 A 
ATOM     63  C   UNL A   1      42.305  25.622  36.370  1.00  0.00     0.000 A 
ENDBRANCH  44  58
BRANCH  45  64
ATOM     64  C   UNL A   1      43.587  25.048  26.513  1.00  0.00    -0.014 A 
ATOM     65  C   UNL A   1      44.524  24.919  25.471  1.00  0.00     0.009 A 
ATOM     66  C   UNL A   1      42.624  24.037  26.661  1.00  0.00     0.009 A 
ATOM     67  C   UNL A   1      44.467  23.846  24.576  1.00  0.00     0.001 A 
ATOM     68  C   UNL A   1      42.568  22.963  25.764  1.00  0.00     0.001 A 
ATOM     69  C   UNL A   1      43.477  22.879  24.712  1.00  0.00     0.000 A 
ENDBRANCH  45  64
BRANCH  57  70
ATOM     70  C   UNL A   1      45.057  30.669  28.984  1.00  0.00    -0.014 A 
ATOM     71  C   UNL A   1      43.979  30.953  28.132  1.00  0.00     0.009 A 
ATOM     72  C   UNL A   1      46.309  31.237  28.685  1.00  0.00     0.009 A 
ATOM     73  C   UNL A   1      44.149  31.759  27.003  1.00  0.00     0.001 A 
ATOM     74  C   UNL A   1      46.473  32.063  27.567  1.00  0.00     0.001 A 
ATOM     75  C   UNL A   1      45.396  32.312  26.720  1.00  0.00     0.000 A 
ENDBRANCH  57  70
ENDBRANCH  31  32
ENDBRANCH  23  26
ENDBRANCH  21  22
ENDBRANCH   1  21
TORSDOF 12
ENDMDL
