MODEL 1
REMARK VINA RESULT:      -8.6      0.000      0.000
REMARK SMILES C[C@H]([C@@H](C)O)[N@H+]1CC[C@@](C)(C(=O)NCCCCNC(=O)c2ccc(-c3c4nc(c(-c5ccccc5)c5ccc([nH]5)c(-c5ccccc5)c5nc(c(-c6ccccc6)c6ccc3[nH]6)C=C5)C=C4)cc2)C1
REMARK SMILES IDX 15 1 14 2 13 3 11 4 12 5 9 7 6 8 7 9 69 10 8 12 10 13 2 14
REMARK SMILES IDX 1 15 3 16 4 17 5 18 16 20 17 21 18 22 19 23 20 25 21 26
REMARK SMILES IDX 22 27 68 28 23 29 67 30 24 31 25 32 26 33 61 34 27 35 66 36
REMARK SMILES IDX 60 37 62 38 28 39 65 40 59 41 58 42 29 44 51 45 36 46 50 47
REMARK SMILES IDX 37 48 40 49 49 50 63 51 38 52 39 53 48 55 64 56 41 57 30 58
REMARK SMILES IDX 31 59 35 60 32 61 34 62 33 63 52 64 53 65 57 66 54 67 56 68
REMARK SMILES IDX 55 69 42 70 43 71 47 72 44 73 46 74 45 75
REMARK H PARENT 13 6 6 11 5 19 18 24 62 43 40 54
REMARK Flexibility Score: inf
ROOT
ATOM      1  C   UNL A   1      34.550  34.798  33.825  1.00  0.00     0.023 C 
ENDROOT
BRANCH   1   2
ATOM      2  C   UNL A   1      35.739  33.850  33.664  1.00  0.00     0.116 C 
BRANCH   2   3
ATOM      3  N   UNL A   1      36.986  34.572  33.809  1.00  0.00    -0.355 N 
ATOM      4  C   UNL A   1      38.031  34.400  34.665  1.00  0.00     0.231 C 
ATOM      5  O   UNL A   1      38.918  35.255  34.594  1.00  0.00    -0.274 OA
ATOM      6  H   UNL A   1      37.098  35.320  33.178  1.00  0.00     0.163 HD
BRANCH   4   7
ATOM      7  C   UNL A   1      38.139  33.167  35.593  1.00  0.00     0.100 C 
ATOM      8  N   UNL A   1      38.833  31.104  34.493  1.00  0.00    -0.330 N 
ATOM      9  C   UNL A   1      40.009  31.932  34.739  1.00  0.00     0.263 C 
ATOM     10  C   UNL A   1      37.641  31.907  34.834  1.00  0.00     0.279 C 
ATOM     11  H   UNL A   1      38.848  30.287  35.103  1.00  0.00     0.348 HD
ATOM     12  C   UNL A   1      39.579  32.760  35.933  1.00  0.00     0.084 C 
ATOM     13  C   UNL A   1      37.287  33.431  36.849  1.00  0.00     0.028 C 
BRANCH   8  14
ATOM     14  C   UNL A   1      38.816  30.437  33.165  1.00  0.00     0.209 C 
ATOM     15  C   UNL A   1      37.479  29.786  32.783  1.00  0.00     0.078 C 
BRANCH  14  16
ATOM     16  C   UNL A   1      40.015  29.446  33.063  1.00  0.00     0.169 C 
ATOM     17  C   UNL A   1      39.647  28.074  32.514  1.00  0.00     0.045 C 
BRANCH  16  18
ATOM     18  O   UNL A   1      40.999  30.012  32.184  1.00  0.00    -0.387 OA
ATOM     19  H   UNL A   1      41.359  29.316  31.611  1.00  0.00     0.211 HD
ENDBRANCH  16  18
ENDBRANCH  14  16
ENDBRANCH   8  14
ENDBRANCH   4   7
ENDBRANCH   2   3
ENDBRANCH   1   2
BRANCH   1  20
ATOM     20  C   UNL A   1      33.501  34.694  32.714  1.00  0.00     0.023 C 
BRANCH  20  21
ATOM     21  C   UNL A   1      33.693  35.660  31.551  1.00  0.00     0.116 C 
BRANCH  21  22
ATOM     22  N   UNL A   1      32.929  35.291  30.369  1.00  0.00    -0.352 N 
ATOM     23  C   UNL A   1      33.289  34.461  29.338  1.00  0.00     0.251 C 
ATOM     24  H   UNL A   1      32.032  35.692  30.301  1.00  0.00     0.163 HD
ATOM     25  O   UNL A   1      32.567  34.344  28.352  1.00  0.00    -0.269 OA
BRANCH  23  26
ATOM     26  C   UNL A   1      34.575  33.739  29.405  1.00  0.00     0.039 A 
ATOM     27  C   UNL A   1      35.629  34.166  28.595  1.00  0.00     0.014 A 
ATOM     28  C   UNL A   1      34.746  32.670  30.289  1.00  0.00     0.014 A 
ATOM     29  C   UNL A   1      36.882  33.568  28.725  1.00  0.00     0.010 A 
ATOM     30  C   UNL A   1      36.012  32.120  30.463  1.00  0.00     0.010 A 
ATOM     31  C   UNL A   1      37.092  32.568  29.689  1.00  0.00    -0.014 A 
BRANCH  31  32
ATOM     32  C   UNL A   1      38.439  31.992  29.915  1.00  0.00     0.031 A 
ATOM     33  C   UNL A   1      39.493  32.787  30.630  1.00  0.00     0.074 A 
ATOM     34  C   UNL A   1      38.733  30.778  29.409  1.00  0.00     0.049 A 
ATOM     35  N   UNL A   1      40.742  32.475  30.865  1.00  0.00    -0.248 NA
ATOM     36  C   UNL A   1      39.100  34.117  31.122  1.00  0.00     0.031 C 
ATOM     37  C   UNL A   1      37.810  29.925  28.657  1.00  0.00     0.029 A 
ATOM     38  N   UNL A   1      39.898  30.056  29.444  1.00  0.00    -0.354 N 
ATOM     39  C   UNL A   1      41.287  33.575  31.515  1.00  0.00     0.074 A 
ATOM     40  C   UNL A   1      40.247  34.577  31.597  1.00  0.00     0.031 C 
ATOM     41  C   UNL A   1      38.437  28.784  28.326  1.00  0.00     0.029 A 
ATOM     42  C   UNL A   1      39.813  28.842  28.807  1.00  0.00     0.049 A 
ATOM     43  H   UNL A   1      40.718  30.376  29.886  1.00  0.00     0.167 HD
ATOM     44  C   UNL A   1      42.536  33.729  32.017  1.00  0.00     0.031 A 
ATOM     45  C   UNL A   1      40.741  27.884  28.626  1.00  0.00     0.031 A 
ATOM     46  C   UNL A   1      43.566  32.729  31.946  1.00  0.00     0.049 A 
ATOM     47  C   UNL A   1      42.122  28.083  29.181  1.00  0.00     0.074 A 
ATOM     48  C   UNL A   1      44.842  32.766  32.480  1.00  0.00     0.029 A 
ATOM     49  N   UNL A   1      43.438  31.511  31.296  1.00  0.00    -0.354 N 
ATOM     50  N   UNL A   1      42.600  29.100  29.857  1.00  0.00    -0.248 NA
ATOM     51  C   UNL A   1      43.088  27.000  28.955  1.00  0.00     0.031 C 
ATOM     52  C   UNL A   1      45.503  31.588  32.113  1.00  0.00     0.029 A 
ATOM     53  C   UNL A   1      44.621  30.798  31.393  1.00  0.00     0.049 A 
ATOM     54  H   UNL A   1      42.626  31.199  30.835  1.00  0.00     0.167 HD
ATOM     55  C   UNL A   1      43.916  28.769  30.156  1.00  0.00     0.074 A 
ATOM     56  C   UNL A   1      44.154  27.451  29.602  1.00  0.00     0.031 C 
ATOM     57  C   UNL A   1      44.842  29.491  30.830  1.00  0.00     0.031 A 
BRANCH  44  58
ATOM     58  C   UNL A   1      42.854  35.039  32.681  1.00  0.00    -0.014 A 
ATOM     59  C   UNL A   1      42.528  35.269  34.028  1.00  0.00     0.009 A 
ATOM     60  C   UNL A   1      43.507  36.048  31.959  1.00  0.00     0.009 A 
ATOM     61  C   UNL A   1      42.817  36.497  34.626  1.00  0.00     0.001 A 
ATOM     62  C   UNL A   1      43.820  37.265  32.568  1.00  0.00     0.001 A 
ATOM     63  C   UNL A   1      43.465  37.492  33.897  1.00  0.00     0.000 A 
ENDBRANCH  44  58
BRANCH  45  64
ATOM     64  C   UNL A   1      40.389  26.638  27.897  1.00  0.00    -0.014 A 
ATOM     65  C   UNL A   1      39.680  25.615  28.544  1.00  0.00     0.009 A 
ATOM     66  C   UNL A   1      40.757  26.467  26.553  1.00  0.00     0.009 A 
ATOM     67  C   UNL A   1      39.365  24.435  27.866  1.00  0.00     0.001 A 
ATOM     68  C   UNL A   1      40.418  25.297  25.871  1.00  0.00     0.001 A 
ATOM     69  C   UNL A   1      39.731  24.279  26.530  1.00  0.00     0.000 A 
ENDBRANCH  45  64
BRANCH  57  70
ATOM     70  C   UNL A   1      46.192  28.861  31.025  1.00  0.00    -0.014 A 
ATOM     71  C   UNL A   1      47.233  29.080  30.109  1.00  0.00     0.009 A 
ATOM     72  C   UNL A   1      46.434  28.072  32.159  1.00  0.00     0.009 A 
ATOM     73  C   UNL A   1      48.484  28.494  30.313  1.00  0.00     0.001 A 
ATOM     74  C   UNL A   1      47.693  27.509  32.373  1.00  0.00     0.001 A 
ATOM     75  C   UNL A   1      48.714  27.713  31.446  1.00  0.00     0.000 A 
ENDBRANCH  57  70
ENDBRANCH  31  32
ENDBRANCH  23  26
ENDBRANCH  21  22
ENDBRANCH  20  21
ENDBRANCH   1  20
TORSDOF 14
ENDMDL
MODEL 2
REMARK VINA RESULT:      -8.4      5.161     10.897
REMARK SMILES C[C@H]([C@@H](C)O)[N@H+]1CC[C@@](C)(C(=O)NCCCCNC(=O)c2ccc(-c3c4nc(c(-c5ccccc5)c5ccc([nH]5)c(-c5ccccc5)c5nc(c(-c6ccccc6)c6ccc3[nH]6)C=C5)C=C4)cc2)C1
REMARK SMILES IDX 15 1 14 2 13 3 11 4 12 5 9 7 6 8 7 9 69 10 8 12 10 13 2 14
REMARK SMILES IDX 1 15 3 16 4 17 5 18 16 20 17 21 18 22 19 23 20 25 21 26
REMARK SMILES IDX 22 27 68 28 23 29 67 30 24 31 25 32 26 33 61 34 27 35 66 36
REMARK SMILES IDX 60 37 62 38 28 39 65 40 59 41 58 42 29 44 51 45 36 46 50 47
REMARK SMILES IDX 37 48 40 49 49 50 63 51 38 52 39 53 48 55 64 56 41 57 30 58
REMARK SMILES IDX 31 59 35 60 32 61 34 62 33 63 52 64 53 65 57 66 54 67 56 68
REMARK SMILES IDX 55 69 42 70 43 71 47 72 44 73 46 74 45 75
REMARK H PARENT 13 6 6 11 5 19 18 24 62 43 40 54
REMARK Flexibility Score: inf
ROOT
ATOM      1  C   UNL A   1      35.434  23.916  23.442  1.00  0.00     0.023 C 
ENDROOT
BRANCH   1   2
ATOM      2  C   UNL A   1      34.046  23.721  24.054  1.00  0.00     0.116 C 
BRANCH   2   3
ATOM      3  N   UNL A   1      33.244  22.845  23.224  1.00  0.00    -0.355 N 
ATOM      4  C   UNL A   1      32.722  21.611  23.460  1.00  0.00     0.231 C 
ATOM      5  O   UNL A   1      32.157  21.084  22.498  1.00  0.00    -0.274 OA
ATOM      6  H   UNL A   1      33.043  23.207  22.330  1.00  0.00     0.163 HD
BRANCH   4   7
ATOM      7  C   UNL A   1      32.756  20.959  24.862  1.00  0.00     0.100 C 
ATOM      8  N   UNL A   1      33.824  18.769  24.957  1.00  0.00    -0.330 N 
ATOM      9  C   UNL A   1      34.854  19.801  24.939  1.00  0.00     0.263 C 
ATOM     10  C   UNL A   1      32.524  19.429  24.723  1.00  0.00     0.279 C 
ATOM     11  H   UNL A   1      33.792  18.325  25.875  1.00  0.00     0.348 HD
ATOM     12  C   UNL A   1      34.132  20.992  25.539  1.00  0.00     0.084 C 
ATOM     13  C   UNL A   1      31.657  21.609  25.725  1.00  0.00     0.028 C 
BRANCH   8  14
ATOM     14  C   UNL A   1      34.122  17.587  24.107  1.00  0.00     0.209 C 
ATOM     15  C   UNL A   1      33.232  17.440  22.864  1.00  0.00     0.078 C 
BRANCH  14  16
ATOM     16  C   UNL A   1      34.137  16.301  24.987  1.00  0.00     0.169 C 
ATOM     17  C   UNL A   1      35.531  15.827  25.378  1.00  0.00     0.045 C 
BRANCH  16  18
ATOM     18  O   UNL A   1      33.418  16.570  26.200  1.00  0.00    -0.387 OA
ATOM     19  H   UNL A   1      32.488  16.752  25.991  1.00  0.00     0.211 HD
ENDBRANCH  16  18
ENDBRANCH  14  16
ENDBRANCH   8  14
ENDBRANCH   4   7
ENDBRANCH   2   3
ENDBRANCH   1   2
BRANCH   1  20
ATOM     20  C   UNL A   1      36.501  22.955  23.972  1.00  0.00     0.023 C 
BRANCH  20  21
ATOM     21  C   UNL A   1      37.374  23.510  25.090  1.00  0.00     0.116 C 
BRANCH  21  22
ATOM     22  N   UNL A   1      38.506  22.654  25.411  1.00  0.00    -0.352 N 
ATOM     23  C   UNL A   1      39.629  22.951  26.141  1.00  0.00     0.251 C 
ATOM     24  H   UNL A   1      38.459  21.736  25.055  1.00  0.00     0.163 HD
ATOM     25  O   UNL A   1      40.549  22.143  26.223  1.00  0.00    -0.269 OA
BRANCH  23  26
ATOM     26  C   UNL A   1      39.739  24.270  26.795  1.00  0.00     0.039 A 
ATOM     27  C   UNL A   1      39.188  24.437  28.067  1.00  0.00     0.014 A 
ATOM     28  C   UNL A   1      40.413  25.321  26.169  1.00  0.00     0.014 A 
ATOM     29  C   UNL A   1      39.379  25.640  28.746  1.00  0.00     0.010 A 
ATOM     30  C   UNL A   1      40.658  26.496  26.874  1.00  0.00     0.010 A 
ATOM     31  C   UNL A   1      40.149  26.663  28.170  1.00  0.00    -0.014 A 
BRANCH  31  32
ATOM     32  C   UNL A   1      40.451  27.908  28.915  1.00  0.00     0.031 A 
ATOM     33  C   UNL A   1      41.746  28.050  29.662  1.00  0.00     0.074 A 
ATOM     34  C   UNL A   1      39.523  28.883  28.979  1.00  0.00     0.049 A 
ATOM     35  N   UNL A   1      42.157  29.036  30.418  1.00  0.00    -0.248 NA
ATOM     36  C   UNL A   1      42.691  26.927  29.568  1.00  0.00     0.031 C 
ATOM     37  C   UNL A   1      38.208  28.848  28.334  1.00  0.00     0.029 A 
ATOM     38  N   UNL A   1      39.542  30.092  29.627  1.00  0.00    -0.354 N 
ATOM     39  C   UNL A   1      43.399  28.644  30.903  1.00  0.00     0.074 A 
ATOM     40  C   UNL A   1      43.652  27.314  30.392  1.00  0.00     0.031 C 
ATOM     41  C   UNL A   1      37.559  29.993  28.597  1.00  0.00     0.029 A 
ATOM     42  C   UNL A   1      38.393  30.824  29.458  1.00  0.00     0.049 A 
ATOM     43  H   UNL A   1      40.307  30.406  30.161  1.00  0.00     0.167 HD
ATOM     44  C   UNL A   1      44.259  29.336  31.686  1.00  0.00     0.031 A 
ATOM     45  C   UNL A   1      38.046  32.030  29.946  1.00  0.00     0.031 A 
ATOM     46  C   UNL A   1      44.012  30.662  32.184  1.00  0.00     0.049 A 
ATOM     47  C   UNL A   1      39.013  32.774  30.823  1.00  0.00     0.074 A 
ATOM     48  C   UNL A   1      44.849  31.472  32.932  1.00  0.00     0.029 A 
ATOM     49  N   UNL A   1      42.838  31.372  31.987  1.00  0.00    -0.354 N 
ATOM     50  N   UNL A   1      40.213  32.419  31.213  1.00  0.00    -0.248 NA
ATOM     51  C   UNL A   1      38.579  34.087  31.319  1.00  0.00     0.031 C 
ATOM     52  C   UNL A   1      44.162  32.655  33.228  1.00  0.00     0.029 A 
ATOM     53  C   UNL A   1      42.917  32.601  32.621  1.00  0.00     0.049 A 
ATOM     54  H   UNL A   1      42.063  31.051  31.472  1.00  0.00     0.167 HD
ATOM     55  C   UNL A   1      40.687  33.474  31.982  1.00  0.00     0.074 A 
ATOM     56  C   UNL A   1      39.651  34.487  31.990  1.00  0.00     0.031 C 
ATOM     57  C   UNL A   1      41.874  33.593  32.624  1.00  0.00     0.031 A 
BRANCH  44  58
ATOM     58  C   UNL A   1      45.549  28.660  32.058  1.00  0.00    -0.014 A 
ATOM     59  C   UNL A   1      46.697  28.797  31.262  1.00  0.00     0.009 A 
ATOM     60  C   UNL A   1      45.623  27.894  33.231  1.00  0.00     0.009 A 
ATOM     61  C   UNL A   1      47.883  28.150  31.614  1.00  0.00     0.001 A 
ATOM     62  C   UNL A   1      46.818  27.271  33.596  1.00  0.00     0.001 A 
ATOM     63  C   UNL A   1      47.943  27.391  32.781  1.00  0.00     0.000 A 
ENDBRANCH  44  58
BRANCH  45  64
ATOM     64  C   UNL A   1      36.727  32.619  29.602  1.00  0.00    -0.014 A 
ATOM     65  C   UNL A   1      36.542  33.279  28.378  1.00  0.00     0.009 A 
ATOM     66  C   UNL A   1      35.646  32.523  30.493  1.00  0.00     0.009 A 
ATOM     67  C   UNL A   1      35.307  33.850  28.062  1.00  0.00     0.001 A 
ATOM     68  C   UNL A   1      34.405  33.073  30.163  1.00  0.00     0.001 A 
ATOM     69  C   UNL A   1      34.240  33.743  28.952  1.00  0.00     0.000 A 
ENDBRANCH  45  64
BRANCH  57  70
ATOM     70  C   UNL A   1      42.124  34.873  33.368  1.00  0.00    -0.014 A 
ATOM     71  C   UNL A   1      41.571  35.093  34.639  1.00  0.00     0.009 A 
ATOM     72  C   UNL A   1      42.955  35.854  32.806  1.00  0.00     0.009 A 
ATOM     73  C   UNL A   1      41.823  36.285  35.320  1.00  0.00     0.001 A 
ATOM     74  C   UNL A   1      43.226  37.034  33.501  1.00  0.00     0.001 A 
ATOM     75  C   UNL A   1      42.653  37.252  34.753  1.00  0.00     0.000 A 
ENDBRANCH  57  70
ENDBRANCH  31  32
ENDBRANCH  23  26
ENDBRANCH  21  22
ENDBRANCH  20  21
ENDBRANCH   1  20
TORSDOF 14
ENDMDL
MODEL 3
REMARK VINA RESULT:      -8.3      4.525      7.388
REMARK SMILES C[C@H]([C@@H](C)O)[N@H+]1CC[C@@](C)(C(=O)NCCCCNC(=O)c2ccc(-c3c4nc(c(-c5ccccc5)c5ccc([nH]5)c(-c5ccccc5)c5nc(c(-c6ccccc6)c6ccc3[nH]6)C=C5)C=C4)cc2)C1
REMARK SMILES IDX 15 1 14 2 13 3 11 4 12 5 9 7 6 8 7 9 69 10 8 12 10 13 2 14
REMARK SMILES IDX 1 15 3 16 4 17 5 18 16 20 17 21 18 22 19 23 20 25 21 26
REMARK SMILES IDX 22 27 68 28 23 29 67 30 24 31 25 32 26 33 61 34 27 35 66 36
REMARK SMILES IDX 60 37 62 38 28 39 65 40 59 41 58 42 29 44 51 45 36 46 50 47
REMARK SMILES IDX 37 48 40 49 49 50 63 51 38 52 39 53 48 55 64 56 41 57 30 58
REMARK SMILES IDX 31 59 35 60 32 61 34 62 33 63 52 64 53 65 57 66 54 67 56 68
REMARK SMILES IDX 55 69 42 70 43 71 47 72 44 73 46 74 45 75
REMARK H PARENT 13 6 6 11 5 19 18 24 62 43 40 54
REMARK Flexibility Score: inf
ROOT
ATOM      1  C   UNL A   1      31.480  30.919  25.917  1.00  0.00     0.023 C 
ENDROOT
BRANCH   1   2
ATOM      2  C   UNL A   1      32.742  30.065  26.045  1.00  0.00     0.116 C 
BRANCH   2   3
ATOM      3  N   UNL A   1      33.246  29.704  24.736  1.00  0.00    -0.355 N 
ATOM      4  C   UNL A   1      33.016  28.616  23.951  1.00  0.00     0.231 C 
ATOM      5  O   UNL A   1      33.682  28.562  22.915  1.00  0.00    -0.274 OA
ATOM      6  H   UNL A   1      33.866  30.362  24.345  1.00  0.00     0.163 HD
BRANCH   4   7
ATOM      7  C   UNL A   1      31.927  27.571  24.293  1.00  0.00     0.100 C 
ATOM      8  N   UNL A   1      29.829  27.831  23.078  1.00  0.00    -0.330 N 
ATOM      9  C   UNL A   1      30.802  27.171  22.214  1.00  0.00     0.263 C 
ATOM     10  C   UNL A   1      30.536  28.262  24.301  1.00  0.00     0.279 C 
ATOM     11  H   UNL A   1      29.101  27.171  23.351  1.00  0.00     0.348 HD
ATOM     12  C   UNL A   1      31.722  26.500  23.214  1.00  0.00     0.084 C 
ATOM     13  C   UNL A   1      32.253  26.966  25.673  1.00  0.00     0.028 C 
BRANCH   8  14
ATOM     14  C   UNL A   1      29.003  28.863  22.399  1.00  0.00     0.209 C 
ATOM     15  C   UNL A   1      29.784  30.075  21.870  1.00  0.00     0.078 C 
BRANCH  14  16
ATOM     16  C   UNL A   1      27.816  29.273  23.323  1.00  0.00     0.169 C 
ATOM     17  C   UNL A   1      27.650  30.777  23.496  1.00  0.00     0.045 C 
BRANCH  16  18
ATOM     18  O   UNL A   1      26.600  28.768  22.753  1.00  0.00    -0.387 OA
ATOM     19  H   UNL A   1      26.802  28.013  22.177  1.00  0.00     0.211 HD
ENDBRANCH  16  18
ENDBRANCH  14  16
ENDBRANCH   8  14
ENDBRANCH   4   7
ENDBRANCH   2   3
ENDBRANCH   1   2
BRANCH   1  20
ATOM     20  C   UNL A   1      31.341  32.009  26.983  1.00  0.00     0.023 C 
BRANCH  20  21
ATOM     21  C   UNL A   1      32.603  32.821  27.246  1.00  0.00     0.116 C 
BRANCH  21  22
ATOM     22  N   UNL A   1      32.328  34.202  27.612  1.00  0.00    -0.352 N 
ATOM     23  C   UNL A   1      32.961  34.986  28.543  1.00  0.00     0.251 C 
ATOM     24  H   UNL A   1      31.588  34.632  27.125  1.00  0.00     0.163 HD
ATOM     25  O   UNL A   1      32.529  36.104  28.812  1.00  0.00    -0.269 OA
BRANCH  23  26
ATOM     26  C   UNL A   1      34.144  34.459  29.251  1.00  0.00     0.039 A 
ATOM     27  C   UNL A   1      33.962  33.807  30.472  1.00  0.00     0.014 A 
ATOM     28  C   UNL A   1      35.420  34.576  28.692  1.00  0.00     0.014 A 
ATOM     29  C   UNL A   1      35.052  33.205  31.100  1.00  0.00     0.010 A 
ATOM     30  C   UNL A   1      36.493  33.920  29.286  1.00  0.00     0.010 A 
ATOM     31  C   UNL A   1      36.318  33.224  30.490  1.00  0.00    -0.014 A 
BRANCH  31  32
ATOM     32  C   UNL A   1      37.467  32.503  31.088  1.00  0.00     0.031 A 
ATOM     33  C   UNL A   1      38.083  32.987  32.369  1.00  0.00     0.074 A 
ATOM     34  C   UNL A   1      38.002  31.453  30.435  1.00  0.00     0.049 A 
ATOM     35  N   UNL A   1      39.127  32.526  33.007  1.00  0.00    -0.248 NA
ATOM     36  C   UNL A   1      37.458  34.160  33.002  1.00  0.00     0.031 C 
ATOM     37  C   UNL A   1      37.524  30.912  29.160  1.00  0.00     0.029 A 
ATOM     38  N   UNL A   1      39.075  30.658  30.750  1.00  0.00    -0.354 N 
ATOM     39  C   UNL A   1      39.296  33.360  34.105  1.00  0.00     0.074 A 
ATOM     40  C   UNL A   1      38.275  34.382  34.020  1.00  0.00     0.031 C 
ATOM     41  C   UNL A   1      38.283  29.859  28.817  1.00  0.00     0.029 A 
ATOM     42  C   UNL A   1      39.322  29.675  29.824  1.00  0.00     0.049 A 
ATOM     43  H   UNL A   1      39.615  30.780  31.564  1.00  0.00     0.167 HD
ATOM     44  C   UNL A   1      40.206  33.273  35.103  1.00  0.00     0.031 A 
ATOM     45  C   UNL A   1      40.282  28.732  29.788  1.00  0.00     0.031 A 
ATOM     46  C   UNL A   1      41.214  32.252  35.193  1.00  0.00     0.049 A 
ATOM     47  C   UNL A   1      41.288  28.663  30.901  1.00  0.00     0.074 A 
ATOM     48  C   UNL A   1      42.141  32.041  36.199  1.00  0.00     0.029 A 
ATOM     49  N   UNL A   1      41.428  31.270  34.237  1.00  0.00    -0.354 N 
ATOM     50  N   UNL A   1      41.389  29.416  31.969  1.00  0.00    -0.248 NA
ATOM     51  C   UNL A   1      42.306  27.608  30.807  1.00  0.00     0.031 C 
ATOM     52  C   UNL A   1      42.948  30.959  35.828  1.00  0.00     0.029 A 
ATOM     53  C   UNL A   1      42.491  30.467  34.616  1.00  0.00     0.049 A 
ATOM     54  H   UNL A   1      40.903  31.161  33.412  1.00  0.00     0.167 HD
ATOM     55  C   UNL A   1      42.467  28.913  32.685  1.00  0.00     0.074 A 
ATOM     56  C   UNL A   1      42.977  27.781  31.937  1.00  0.00     0.031 C 
ATOM     57  C   UNL A   1      42.988  29.349  33.857  1.00  0.00     0.031 A 
BRANCH  44  58
ATOM     58  C   UNL A   1      40.154  34.324  36.177  1.00  0.00    -0.014 A 
ATOM     59  C   UNL A   1      39.334  34.168  37.307  1.00  0.00     0.009 A 
ATOM     60  C   UNL A   1      40.951  35.473  36.070  1.00  0.00     0.009 A 
ATOM     61  C   UNL A   1      39.286  35.160  38.287  1.00  0.00     0.001 A 
ATOM     62  C   UNL A   1      40.921  36.451  37.066  1.00  0.00     0.001 A 
ATOM     63  C   UNL A   1      40.081  36.298  38.168  1.00  0.00     0.000 A 
ENDBRANCH  44  58
BRANCH  45  64
ATOM     64  C   UNL A   1      40.328  27.763  28.663  1.00  0.00    -0.014 A 
ATOM     65  C   UNL A   1      39.652  26.537  28.755  1.00  0.00     0.009 A 
ATOM     66  C   UNL A   1      41.045  28.059  27.492  1.00  0.00     0.009 A 
ATOM     67  C   UNL A   1      39.711  25.617  27.705  1.00  0.00     0.001 A 
ATOM     68  C   UNL A   1      41.080  27.148  26.435  1.00  0.00     0.001 A 
ATOM     69  C   UNL A   1      40.421  25.925  26.546  1.00  0.00     0.000 A 
ENDBRANCH  45  64
BRANCH  57  70
ATOM     70  C   UNL A   1      44.156  28.586  34.413  1.00  0.00    -0.014 A 
ATOM     71  C   UNL A   1      43.965  27.505  35.288  1.00  0.00     0.009 A 
ATOM     72  C   UNL A   1      45.459  28.928  34.025  1.00  0.00     0.009 A 
ATOM     73  C   UNL A   1      45.063  26.801  35.787  1.00  0.00     0.001 A 
ATOM     74  C   UNL A   1      46.553  28.206  34.504  1.00  0.00     0.001 A 
ATOM     75  C   UNL A   1      46.354  27.148  35.391  1.00  0.00     0.000 A 
ENDBRANCH  57  70
ENDBRANCH  31  32
ENDBRANCH  23  26
ENDBRANCH  21  22
ENDBRANCH  20  21
ENDBRANCH   1  20
TORSDOF 14
ENDMDL
