MODEL 1
REMARK VINA RESULT:     -10.7      0.000      0.000
REMARK SMILES CC(C)[C@H](NC(N)=O)C(=O)N[C@H](C)C(=O)NCCCCNC(=O)c1ccc(-c2c3nc(c(-c4ccccc4)c4ccc([nH]4)c(-c4ccccc4)c4nc(c(-c5ccccc5)c5ccc2[nH]5)C=C4)C=C3)cc1
REMARK SMILES IDX 18 1 17 2 16 3 14 4 15 5 12 7 13 8 11 9 9 10 10 11 4 13 2 14
REMARK SMILES IDX 1 15 3 16 5 17 6 18 7 20 8 21 19 24 20 25 21 26 22 27 23 29
REMARK SMILES IDX 24 30 25 31 71 32 26 33 70 34 27 35 28 36 29 37 64 38 30 39
REMARK SMILES IDX 69 40 63 41 65 42 31 43 68 44 62 45 61 46 32 48 54 49 39 50
REMARK SMILES IDX 53 51 40 52 43 53 52 54 66 55 41 56 42 57 51 59 67 60 44 61
REMARK SMILES IDX 33 62 34 63 38 64 35 65 37 66 36 67 55 68 56 69 60 70 57 71
REMARK SMILES IDX 59 72 58 73 45 74 46 75 50 76 47 77 49 78 48 79
REMARK H PARENT 16 6 11 12 5 19 7 22 7 23 21 28 65 47 43 58
REMARK Flexibility Score: inf
ROOT
ATOM      1  C   UNL A   1      36.677  20.135  24.999  1.00  0.00     0.023 C 
ENDROOT
BRANCH   1   2
ATOM      2  C   UNL A   1      35.375  20.924  25.172  1.00  0.00     0.116 C 
BRANCH   2   3
ATOM      3  N   UNL A   1      34.193  20.091  25.302  1.00  0.00    -0.354 N 
ATOM      4  C   UNL A   1      32.866  20.421  25.223  1.00  0.00     0.242 C 
ATOM      5  O   UNL A   1      32.044  19.509  25.328  1.00  0.00    -0.273 OA
ATOM      6  H   UNL A   1      34.374  19.139  25.474  1.00  0.00     0.163 HD
BRANCH   4   7
ATOM      7  C   UNL A   1      32.425  21.897  25.078  1.00  0.00     0.168 C 
ATOM      8  C   UNL A   1      32.064  22.111  23.622  1.00  0.00     0.041 C 
BRANCH   7   9
ATOM      9  N   UNL A   1      31.364  22.192  26.043  1.00  0.00    -0.343 N 
ATOM     10  C   UNL A   1      30.735  23.322  26.441  1.00  0.00     0.243 C 
ATOM     11  O   UNL A   1      30.005  23.197  27.435  1.00  0.00    -0.273 OA
ATOM     12  H   UNL A   1      31.033  21.388  26.505  1.00  0.00     0.164 HD
BRANCH  10  13
ATOM     13  C   UNL A   1      30.823  24.707  25.743  1.00  0.00     0.175 C 
BRANCH  13  14
ATOM     14  C   UNL A   1      31.881  25.661  26.378  1.00  0.00     0.015 C 
ATOM     15  C   UNL A   1      33.084  25.834  25.422  1.00  0.00     0.010 C 
ATOM     16  C   UNL A   1      31.436  27.063  26.790  1.00  0.00     0.010 C 
ENDBRANCH  13  14
BRANCH  13  17
ATOM     17  N   UNL A   1      29.587  25.207  25.136  1.00  0.00    -0.326 N 
ATOM     18  C   UNL A   1      29.382  26.037  24.091  1.00  0.00     0.312 C 
ATOM     19  H   UNL A   1      28.763  24.882  25.565  1.00  0.00     0.166 HD
ATOM     20  N   UNL A   1      28.079  26.354  23.915  1.00  0.00    -0.352 N 
ATOM     21  O   UNL A   1      30.211  26.517  23.335  1.00  0.00    -0.249 OA
ATOM     22  H   UNL A   1      27.396  25.977  24.514  1.00  0.00     0.161 HD
ATOM     23  H   UNL A   1      27.815  26.963  23.188  1.00  0.00     0.161 HD
ENDBRANCH  13  17
ENDBRANCH  10  13
ENDBRANCH   7   9
ENDBRANCH   4   7
ENDBRANCH   2   3
ENDBRANCH   1   2
BRANCH   1  24
ATOM     24  C   UNL A   1      37.927  20.966  24.759  1.00  0.00     0.023 C 
BRANCH  24  25
ATOM     25  C   UNL A   1      38.929  20.928  25.894  1.00  0.00     0.116 C 
BRANCH  25  26
ATOM     26  N   UNL A   1      39.845  19.799  25.810  1.00  0.00    -0.352 N 
ATOM     27  C   UNL A   1      41.190  19.782  26.086  1.00  0.00     0.251 C 
ATOM     28  H   UNL A   1      39.452  18.944  25.521  1.00  0.00     0.163 HD
ATOM     29  O   UNL A   1      41.868  18.786  25.868  1.00  0.00    -0.269 OA
BRANCH  27  30
ATOM     30  C   UNL A   1      41.806  21.013  26.610  1.00  0.00     0.039 A 
ATOM     31  C   UNL A   1      42.261  21.976  25.708  1.00  0.00     0.014 A 
ATOM     32  C   UNL A   1      41.830  21.250  27.986  1.00  0.00     0.014 A 
ATOM     33  C   UNL A   1      42.684  23.211  26.191  1.00  0.00     0.010 A 
ATOM     34  C   UNL A   1      42.153  22.514  28.455  1.00  0.00     0.010 A 
ATOM     35  C   UNL A   1      42.596  23.502  27.563  1.00  0.00    -0.014 A 
BRANCH  35  36
ATOM     36  C   UNL A   1      42.982  24.831  28.093  1.00  0.00     0.031 A 
ATOM     37  C   UNL A   1      41.926  25.874  28.328  1.00  0.00     0.074 A 
ATOM     38  C   UNL A   1      44.281  25.115  28.305  1.00  0.00     0.049 A 
ATOM     39  N   UNL A   1      42.062  27.106  28.747  1.00  0.00    -0.248 NA
ATOM     40  C   UNL A   1      40.536  25.494  28.022  1.00  0.00     0.031 C 
ATOM     41  C   UNL A   1      45.402  24.201  28.066  1.00  0.00     0.029 A 
ATOM     42  N   UNL A   1      44.879  26.258  28.769  1.00  0.00    -0.354 N 
ATOM     43  C   UNL A   1      40.784  27.647  28.737  1.00  0.00     0.074 A 
ATOM     44  C   UNL A   1      39.896  26.637  28.210  1.00  0.00     0.031 C 
ATOM     45  C   UNL A   1      46.546  24.808  28.421  1.00  0.00     0.029 A 
ATOM     46  C   UNL A   1      46.246  26.164  28.870  1.00  0.00     0.049 A 
ATOM     47  H   UNL A   1      44.376  27.071  29.006  1.00  0.00     0.167 HD
ATOM     48  C   UNL A   1      40.380  28.870  29.152  1.00  0.00     0.031 A 
ATOM     49  C   UNL A   1      47.154  27.070  29.277  1.00  0.00     0.031 A 
ATOM     50  C   UNL A   1      41.264  29.869  29.685  1.00  0.00     0.049 A 
ATOM     51  C   UNL A   1      46.681  28.426  29.723  1.00  0.00     0.074 A 
ATOM     52  C   UNL A   1      40.950  31.117  30.191  1.00  0.00     0.029 A 
ATOM     53  N   UNL A   1      42.641  29.733  29.776  1.00  0.00    -0.354 N 
ATOM     54  N   UNL A   1      45.459  28.898  29.783  1.00  0.00    -0.248 NA
ATOM     55  C   UNL A   1      47.714  29.370  30.170  1.00  0.00     0.031 C 
ATOM     56  C   UNL A   1      42.144  31.760  30.535  1.00  0.00     0.029 A 
ATOM     57  C   UNL A   1      43.195  30.887  30.304  1.00  0.00     0.049 A 
ATOM     58  H   UNL A   1      43.150  28.935  29.505  1.00  0.00     0.167 HD
ATOM     59  C   UNL A   1      45.573  30.181  30.301  1.00  0.00     0.074 A 
ATOM     60  C   UNL A   1      46.982  30.406  30.554  1.00  0.00     0.031 C 
ATOM     61  C   UNL A   1      44.600  31.092  30.547  1.00  0.00     0.031 A 
BRANCH  48  62
ATOM     62  C   UNL A   1      38.915  29.191  29.035  1.00  0.00    -0.014 A 
ATOM     63  C   UNL A   1      38.364  29.663  27.831  1.00  0.00     0.009 A 
ATOM     64  C   UNL A   1      38.069  29.000  30.138  1.00  0.00     0.009 A 
ATOM     65  C   UNL A   1      37.006  29.977  27.749  1.00  0.00     0.001 A 
ATOM     66  C   UNL A   1      36.706  29.284  30.043  1.00  0.00     0.001 A 
ATOM     67  C   UNL A   1      36.178  29.782  28.853  1.00  0.00     0.000 A 
ENDBRANCH  48  62
BRANCH  49  68
ATOM     68  C   UNL A   1      48.598  26.719  29.300  1.00  0.00    -0.014 A 
ATOM     69  C   UNL A   1      49.163  26.096  30.424  1.00  0.00     0.009 A 
ATOM     70  C   UNL A   1      49.422  27.010  28.202  1.00  0.00     0.009 A 
ATOM     71  C   UNL A   1      50.527  25.796  30.458  1.00  0.00     0.001 A 
ATOM     72  C   UNL A   1      50.780  26.681  28.227  1.00  0.00     0.001 A 
ATOM     73  C   UNL A   1      51.332  26.084  29.358  1.00  0.00     0.000 A 
ENDBRANCH  49  68
BRANCH  61  74
ATOM     74  C   UNL A   1      45.021  32.402  31.151  1.00  0.00    -0.014 A 
ATOM     75  C   UNL A   1      45.343  33.508  30.351  1.00  0.00     0.009 A 
ATOM     76  C   UNL A   1      45.054  32.540  32.548  1.00  0.00     0.009 A 
ATOM     77  C   UNL A   1      45.723  34.716  30.938  1.00  0.00     0.001 A 
ATOM     78  C   UNL A   1      45.402  33.757  33.132  1.00  0.00     0.001 A 
ATOM     79  C   UNL A   1      45.747  34.842  32.327  1.00  0.00     0.000 A 
ENDBRANCH  61  74
ENDBRANCH  35  36
ENDBRANCH  27  30
ENDBRANCH  25  26
ENDBRANCH  24  25
ENDBRANCH   1  24
TORSDOF 15
ENDMDL
MODEL 2
REMARK VINA RESULT:     -10.7      0.534      6.096
REMARK SMILES CC(C)[C@H](NC(N)=O)C(=O)N[C@H](C)C(=O)NCCCCNC(=O)c1ccc(-c2c3nc(c(-c4ccccc4)c4ccc([nH]4)c(-c4ccccc4)c4nc(c(-c5ccccc5)c5ccc2[nH]5)C=C4)C=C3)cc1
REMARK SMILES IDX 18 1 17 2 16 3 14 4 15 5 12 7 13 8 11 9 9 10 10 11 4 13 2 14
REMARK SMILES IDX 1 15 3 16 5 17 6 18 7 20 8 21 19 24 20 25 21 26 22 27 23 29
REMARK SMILES IDX 24 30 25 31 71 32 26 33 70 34 27 35 28 36 29 37 64 38 30 39
REMARK SMILES IDX 69 40 63 41 65 42 31 43 68 44 62 45 61 46 32 48 54 49 39 50
REMARK SMILES IDX 53 51 40 52 43 53 52 54 66 55 41 56 42 57 51 59 67 60 44 61
REMARK SMILES IDX 33 62 34 63 38 64 35 65 37 66 36 67 55 68 56 69 60 70 57 71
REMARK SMILES IDX 59 72 58 73 45 74 46 75 50 76 47 77 49 78 48 79
REMARK H PARENT 16 6 11 12 5 19 7 22 7 23 21 28 65 47 43 58
REMARK Flexibility Score: inf
ROOT
ATOM      1  C   UNL A   1      36.944  21.347  24.667  1.00  0.00     0.023 C 
ENDROOT
BRANCH   1   2
ATOM      2  C   UNL A   1      35.794  21.674  25.624  1.00  0.00     0.116 C 
BRANCH   2   3
ATOM      3  N   UNL A   1      34.794  20.626  25.724  1.00  0.00    -0.354 N 
ATOM      4  C   UNL A   1      33.450  20.659  25.461  1.00  0.00     0.242 C 
ATOM      5  O   UNL A   1      32.818  19.608  25.584  1.00  0.00    -0.273 OA
ATOM      6  H   UNL A   1      35.135  19.754  26.028  1.00  0.00     0.163 HD
BRANCH   4   7
ATOM      7  C   UNL A   1      32.748  21.989  25.092  1.00  0.00     0.168 C 
ATOM      8  C   UNL A   1      32.304  21.869  23.649  1.00  0.00     0.041 C 
BRANCH   7   9
ATOM      9  N   UNL A   1      31.686  22.271  26.059  1.00  0.00    -0.343 N 
ATOM     10  C   UNL A   1      31.038  23.391  26.451  1.00  0.00     0.243 C 
ATOM     11  O   UNL A   1      30.314  23.260  27.450  1.00  0.00    -0.273 OA
ATOM     12  H   UNL A   1      31.372  21.464  26.529  1.00  0.00     0.164 HD
BRANCH  10  13
ATOM     13  C   UNL A   1      31.096  24.772  25.742  1.00  0.00     0.175 C 
BRANCH  13  14
ATOM     14  C   UNL A   1      32.175  25.732  26.330  1.00  0.00     0.015 C 
ATOM     15  C   UNL A   1      33.415  25.768  25.408  1.00  0.00     0.010 C 
ATOM     16  C   UNL A   1      31.782  27.183  26.604  1.00  0.00     0.010 C 
ENDBRANCH  13  14
BRANCH  13  17
ATOM     17  N   UNL A   1      29.836  25.267  25.181  1.00  0.00    -0.326 N 
ATOM     18  C   UNL A   1      29.572  25.918  24.028  1.00  0.00     0.312 C 
ATOM     19  H   UNL A   1      29.045  25.094  25.741  1.00  0.00     0.166 HD
ATOM     20  N   UNL A   1      28.282  26.313  23.928  1.00  0.00    -0.352 N 
ATOM     21  O   UNL A   1      30.341  26.187  23.119  1.00  0.00    -0.249 OA
ATOM     22  H   UNL A   1      27.647  26.106  24.650  1.00  0.00     0.161 HD
ATOM     23  H   UNL A   1      27.980  26.808  23.132  1.00  0.00     0.161 HD
ENDBRANCH  13  17
ENDBRANCH  10  13
ENDBRANCH   7   9
ENDBRANCH   4   7
ENDBRANCH   2   3
ENDBRANCH   1   2
BRANCH   1  24
ATOM     24  C   UNL A   1      37.790  20.139  25.037  1.00  0.00     0.023 C 
BRANCH  24  25
ATOM     25  C   UNL A   1      39.029  20.469  25.842  1.00  0.00     0.116 C 
BRANCH  25  26
ATOM     26  N   UNL A   1      39.999  19.383  25.868  1.00  0.00    -0.352 N 
ATOM     27  C   UNL A   1      41.334  19.451  26.186  1.00  0.00     0.251 C 
ATOM     28  H   UNL A   1      39.657  18.491  25.630  1.00  0.00     0.163 HD
ATOM     29  O   UNL A   1      42.064  18.476  26.061  1.00  0.00    -0.269 OA
BRANCH  27  30
ATOM     30  C   UNL A   1      41.874  20.745  26.637  1.00  0.00     0.039 A 
ATOM     31  C   UNL A   1      42.329  21.655  25.684  1.00  0.00     0.014 A 
ATOM     32  C   UNL A   1      41.825  21.086  27.991  1.00  0.00     0.014 A 
ATOM     33  C   UNL A   1      42.679  22.942  26.086  1.00  0.00     0.010 A 
ATOM     34  C   UNL A   1      42.074  22.396  28.373  1.00  0.00     0.010 A 
ATOM     35  C   UNL A   1      42.515  23.332  27.427  1.00  0.00    -0.014 A 
BRANCH  35  36
ATOM     36  C   UNL A   1      42.822  24.713  27.866  1.00  0.00     0.031 A 
ATOM     37  C   UNL A   1      44.251  25.123  28.091  1.00  0.00     0.074 A 
ATOM     38  C   UNL A   1      41.817  25.574  28.118  1.00  0.00     0.049 A 
ATOM     39  N   UNL A   1      44.723  26.268  28.512  1.00  0.00    -0.248 NA
ATOM     40  C   UNL A   1      45.282  24.103  27.840  1.00  0.00     0.031 C 
ATOM     41  C   UNL A   1      40.388  25.276  27.985  1.00  0.00     0.029 A 
ATOM     42  N   UNL A   1      41.845  26.877  28.542  1.00  0.00    -0.354 N 
ATOM     43  C   UNL A   1      46.099  26.096  28.592  1.00  0.00     0.074 A 
ATOM     44  C   UNL A   1      46.380  24.724  28.240  1.00  0.00     0.031 C 
ATOM     45  C   UNL A   1      39.680  26.377  28.285  1.00  0.00     0.029 A 
ATOM     46  C   UNL A   1      40.600  27.443  28.671  1.00  0.00     0.049 A 
ATOM     47  H   UNL A   1      42.681  27.362  28.735  1.00  0.00     0.167 HD
ATOM     48  C   UNL A   1      47.048  27.009  28.906  1.00  0.00     0.031 A 
ATOM     49  C   UNL A   1      40.242  28.680  29.059  1.00  0.00     0.031 A 
ATOM     50  C   UNL A   1      46.765  28.376  29.246  1.00  0.00     0.049 A 
ATOM     51  C   UNL A   1      41.314  29.672  29.415  1.00  0.00     0.074 A 
ATOM     52  C   UNL A   1      47.656  29.397  29.521  1.00  0.00     0.029 A 
ATOM     53  N   UNL A   1      45.491  28.911  29.361  1.00  0.00    -0.354 N 
ATOM     54  N   UNL A   1      42.616  29.520  29.409  1.00  0.00    -0.248 NA
ATOM     55  C   UNL A   1      40.866  31.012  29.818  1.00  0.00     0.031 C 
ATOM     56  C   UNL A   1      46.919  30.537  29.860  1.00  0.00     0.029 A 
ATOM     57  C   UNL A   1      45.571  30.243  29.731  1.00  0.00     0.049 A 
ATOM     58  H   UNL A   1      44.654  28.418  29.202  1.00  0.00     0.167 HD
ATOM     59  C   UNL A   1      43.143  30.750  29.778  1.00  0.00     0.074 A 
ATOM     60  C   UNL A   1      42.019  31.642  29.984  1.00  0.00     0.031 C 
ATOM     61  C   UNL A   1      44.441  31.112  29.933  1.00  0.00     0.031 A 
BRANCH  48  62
ATOM     62  C   UNL A   1      48.479  26.546  28.903  1.00  0.00    -0.014 A 
ATOM     63  C   UNL A   1      49.265  26.607  27.740  1.00  0.00     0.009 A 
ATOM     64  C   UNL A   1      49.056  26.058  30.085  1.00  0.00     0.009 A 
ATOM     65  C   UNL A   1      50.584  26.151  27.751  1.00  0.00     0.001 A 
ATOM     66  C   UNL A   1      50.385  25.632  30.102  1.00  0.00     0.001 A 
ATOM     67  C   UNL A   1      51.144  25.669  28.933  1.00  0.00     0.000 A 
ENDBRANCH  48  62
BRANCH  49  68
ATOM     68  C   UNL A   1      38.804  29.057  29.114  1.00  0.00    -0.014 A 
ATOM     69  C   UNL A   1      38.165  29.598  27.987  1.00  0.00     0.009 A 
ATOM     70  C   UNL A   1      38.064  28.883  30.293  1.00  0.00     0.009 A 
ATOM     71  C   UNL A   1      36.824  29.982  28.049  1.00  0.00     0.001 A 
ATOM     72  C   UNL A   1      36.714  29.240  30.343  1.00  0.00     0.001 A 
ATOM     73  C   UNL A   1      36.099  29.798  29.225  1.00  0.00     0.000 A 
ENDBRANCH  49  68
BRANCH  61  74
ATOM     74  C   UNL A   1      44.716  32.541  30.309  1.00  0.00    -0.014 A 
ATOM     75  C   UNL A   1      44.919  33.529  29.335  1.00  0.00     0.009 A 
ATOM     76  C   UNL A   1      44.728  32.909  31.664  1.00  0.00     0.009 A 
ATOM     77  C   UNL A   1      45.164  34.851  29.711  1.00  0.00     0.001 A 
ATOM     78  C   UNL A   1      44.940  34.236  32.036  1.00  0.00     0.001 A 
ATOM     79  C   UNL A   1      45.169  35.205  31.060  1.00  0.00     0.000 A 
ENDBRANCH  61  74
ENDBRANCH  35  36
ENDBRANCH  27  30
ENDBRANCH  25  26
ENDBRANCH  24  25
ENDBRANCH   1  24
TORSDOF 15
ENDMDL
MODEL 3
REMARK VINA RESULT:     -10.6      3.600      8.870
REMARK SMILES CC(C)[C@H](NC(N)=O)C(=O)N[C@H](C)C(=O)NCCCCNC(=O)c1ccc(-c2c3nc(c(-c4ccccc4)c4ccc([nH]4)c(-c4ccccc4)c4nc(c(-c5ccccc5)c5ccc2[nH]5)C=C4)C=C3)cc1
REMARK SMILES IDX 18 1 17 2 16 3 14 4 15 5 12 7 13 8 11 9 9 10 10 11 4 13 2 14
REMARK SMILES IDX 1 15 3 16 5 17 6 18 7 20 8 21 19 24 20 25 21 26 22 27 23 29
REMARK SMILES IDX 24 30 25 31 71 32 26 33 70 34 27 35 28 36 29 37 64 38 30 39
REMARK SMILES IDX 69 40 63 41 65 42 31 43 68 44 62 45 61 46 32 48 54 49 39 50
REMARK SMILES IDX 53 51 40 52 43 53 52 54 66 55 41 56 42 57 51 59 67 60 44 61
REMARK SMILES IDX 33 62 34 63 38 64 35 65 37 66 36 67 55 68 56 69 60 70 57 71
REMARK SMILES IDX 59 72 58 73 45 74 46 75 50 76 47 77 49 78 48 79
REMARK H PARENT 16 6 11 12 5 19 7 22 7 23 21 28 65 47 43 58
REMARK Flexibility Score: inf
ROOT
ATOM      1  C   UNL A   1      32.292  29.520  26.408  1.00  0.00     0.023 C 
ENDROOT
BRANCH   1   2
ATOM      2  C   UNL A   1      32.938  29.253  25.045  1.00  0.00     0.116 C 
BRANCH   2   3
ATOM      3  N   UNL A   1      32.079  29.559  23.915  1.00  0.00    -0.354 N 
ATOM      4  C   UNL A   1      31.392  28.722  23.075  1.00  0.00     0.242 C 
ATOM      5  O   UNL A   1      30.688  29.238  22.206  1.00  0.00    -0.273 OA
ATOM      6  H   UNL A   1      31.972  30.518  23.722  1.00  0.00     0.163 HD
BRANCH   4   7
ATOM      7  C   UNL A   1      31.558  27.187  23.179  1.00  0.00     0.168 C 
ATOM      8  C   UNL A   1      30.231  26.628  23.649  1.00  0.00     0.041 C 
BRANCH   7   9
ATOM      9  N   UNL A   1      32.053  26.657  21.906  1.00  0.00    -0.343 N 
ATOM     10  C   UNL A   1      32.725  25.540  21.544  1.00  0.00     0.243 C 
ATOM     11  O   UNL A   1      33.139  25.530  20.376  1.00  0.00    -0.273 OA
ATOM     12  H   UNL A   1      31.849  27.245  21.142  1.00  0.00     0.164 HD
BRANCH  10  13
ATOM     13  C   UNL A   1      32.969  24.294  22.439  1.00  0.00     0.175 C 
BRANCH  13  14
ATOM     14  C   UNL A   1      34.259  24.393  23.310  1.00  0.00     0.015 C 
ATOM     15  C   UNL A   1      33.885  24.596  24.796  1.00  0.00     0.010 C 
ATOM     16  C   UNL A   1      35.258  23.238  23.256  1.00  0.00     0.010 C 
ENDBRANCH  13  14
BRANCH  13  17
ATOM     17  N   UNL A   1      32.474  23.017  21.920  1.00  0.00    -0.326 N 
ATOM     18  C   UNL A   1      32.085  21.890  22.555  1.00  0.00     0.312 C 
ATOM     19  H   UNL A   1      32.415  22.971  20.939  1.00  0.00     0.166 HD
ATOM     20  N   UNL A   1      31.805  20.875  21.707  1.00  0.00    -0.352 N 
ATOM     21  O   UNL A   1      31.979  21.699  23.756  1.00  0.00    -0.249 OA
ATOM     22  H   UNL A   1      31.884  21.010  20.735  1.00  0.00     0.161 HD
ATOM     23  H   UNL A   1      31.522  20.001  22.062  1.00  0.00     0.161 HD
ENDBRANCH  13  17
ENDBRANCH  10  13
ENDBRANCH   7   9
ENDBRANCH   4   7
ENDBRANCH   2   3
ENDBRANCH   1   2
BRANCH   1  24
ATOM     24  C   UNL A   1      31.884  30.960  26.676  1.00  0.00     0.023 C 
BRANCH  24  25
ATOM     25  C   UNL A   1      32.975  31.814  27.285  1.00  0.00     0.116 C 
BRANCH  25  26
ATOM     26  N   UNL A   1      32.534  33.167  27.598  1.00  0.00    -0.352 N 
ATOM     27  C   UNL A   1      33.149  34.088  28.410  1.00  0.00     0.251 C 
ATOM     28  H   UNL A   1      31.693  33.456  27.176  1.00  0.00     0.163 HD
ATOM     29  O   UNL A   1      32.612  35.156  28.676  1.00  0.00    -0.269 OA
BRANCH  27  30
ATOM     30  C   UNL A   1      34.456  33.736  28.992  1.00  0.00     0.039 A 
ATOM     31  C   UNL A   1      34.491  33.034  30.197  1.00  0.00     0.014 A 
ATOM     32  C   UNL A   1      35.630  34.011  28.286  1.00  0.00     0.014 A 
ATOM     33  C   UNL A   1      35.709  32.548  30.664  1.00  0.00     0.010 A 
ATOM     34  C   UNL A   1      36.823  33.439  28.700  1.00  0.00     0.010 A 
ATOM     35  C   UNL A   1      36.876  32.713  29.899  1.00  0.00    -0.014 A 
BRANCH  35  36
ATOM     36  C   UNL A   1      38.172  32.152  30.346  1.00  0.00     0.031 A 
ATOM     37  C   UNL A   1      38.653  30.845  29.779  1.00  0.00     0.074 A 
ATOM     38  C   UNL A   1      38.883  32.785  31.299  1.00  0.00     0.049 A 
ATOM     39  N   UNL A   1      39.735  30.169  30.067  1.00  0.00    -0.248 NA
ATOM     40  C   UNL A   1      37.788  30.197  28.778  1.00  0.00     0.031 C 
ATOM     41  C   UNL A   1      38.495  34.033  31.962  1.00  0.00     0.029 A 
ATOM     42  N   UNL A   1      40.083  32.461  31.878  1.00  0.00    -0.354 N 
ATOM     43  C   UNL A   1      39.669  29.014  29.299  1.00  0.00     0.074 A 
ATOM     44  C   UNL A   1      38.415  29.048  28.584  1.00  0.00     0.031 C 
ATOM     45  C   UNL A   1      39.458  34.387  32.829  1.00  0.00     0.029 A 
ATOM     46  C   UNL A   1      40.507  33.373  32.815  1.00  0.00     0.049 A 
ATOM     47  H   UNL A   1      40.592  31.651  31.645  1.00  0.00     0.167 HD
ATOM     48  C   UNL A   1      40.584  28.024  29.181  1.00  0.00     0.031 A 
ATOM     49  C   UNL A   1      41.616  33.386  33.577  1.00  0.00     0.031 A 
ATOM     50  C   UNL A   1      41.835  27.999  29.887  1.00  0.00     0.049 A 
ATOM     51  C   UNL A   1      42.611  32.269  33.436  1.00  0.00     0.074 A 
ATOM     52  C   UNL A   1      42.859  27.074  29.793  1.00  0.00     0.029 A 
ATOM     53  N   UNL A   1      42.230  28.944  30.822  1.00  0.00    -0.354 N 
ATOM     54  N   UNL A   1      42.574  31.222  32.647  1.00  0.00    -0.248 NA
ATOM     55  C   UNL A   1      43.810  32.342  34.282  1.00  0.00     0.031 C 
ATOM     56  C   UNL A   1      43.849  27.428  30.716  1.00  0.00     0.029 A 
ATOM     57  C   UNL A   1      43.472  28.608  31.336  1.00  0.00     0.049 A 
ATOM     58  H   UNL A   1      41.706  29.735  31.083  1.00  0.00     0.167 HD
ATOM     59  C   UNL A   1      43.754  30.529  32.880  1.00  0.00     0.074 A 
ATOM     60  C   UNL A   1      44.493  31.284  33.871  1.00  0.00     0.031 C 
ATOM     61  C   UNL A   1      44.190  29.372  32.324  1.00  0.00     0.031 A 
BRANCH  48  62
ATOM     62  C   UNL A   1      40.252  26.884  28.258  1.00  0.00    -0.014 A 
ATOM     63  C   UNL A   1      40.716  26.859  26.931  1.00  0.00     0.009 A 
ATOM     64  C   UNL A   1      39.481  25.810  28.725  1.00  0.00     0.009 A 
ATOM     65  C   UNL A   1      40.378  25.804  26.082  1.00  0.00     0.001 A 
ATOM     66  C   UNL A   1      39.171  24.740  27.884  1.00  0.00     0.001 A 
ATOM     67  C   UNL A   1      39.611  24.743  26.561  1.00  0.00     0.000 A 
ENDBRANCH  48  62
BRANCH  49  68
ATOM     68  C   UNL A   1      41.853  34.505  34.528  1.00  0.00    -0.014 A 
ATOM     69  C   UNL A   1      41.429  34.408  35.863  1.00  0.00     0.009 A 
ATOM     70  C   UNL A   1      42.499  35.677  34.106  1.00  0.00     0.009 A 
ATOM     71  C   UNL A   1      41.623  35.472  36.747  1.00  0.00     0.001 A 
ATOM     72  C   UNL A   1      42.719  36.727  35.000  1.00  0.00     0.001 A 
ATOM     73  C   UNL A   1      42.272  36.628  36.316  1.00  0.00     0.000 A 
ENDBRANCH  49  68
BRANCH  61  74
ATOM     74  C   UNL A   1      45.541  28.871  32.748  1.00  0.00    -0.014 A 
ATOM     75  C   UNL A   1      46.712  29.274  32.089  1.00  0.00     0.009 A 
ATOM     76  C   UNL A   1      45.645  28.014  33.855  1.00  0.00     0.009 A 
ATOM     77  C   UNL A   1      47.956  28.801  32.508  1.00  0.00     0.001 A 
ATOM     78  C   UNL A   1      46.892  27.569  34.293  1.00  0.00     0.001 A 
ATOM     79  C   UNL A   1      48.046  27.954  33.612  1.00  0.00     0.000 A 
ENDBRANCH  61  74
ENDBRANCH  35  36
ENDBRANCH  27  30
ENDBRANCH  25  26
ENDBRANCH  24  25
ENDBRANCH   1  24
TORSDOF 15
ENDMDL
