MODEL 1
REMARK VINA RESULT:     -10.7      0.000      0.000
REMARK SMILES CCOc1cc(N2CCOCC2)ccc1[C@H]([NH3+])C(=O)NCCCCNC(=O)c1ccc(-c2c3nc(c(-c4ccccc4)c4ccc([nH]4)c(-c4ccccc4)c4nc(c(-c5ccccc5)c5ccc2[nH]5)C=C4)C=C3)cc1
REMARK SMILES IDX 22 1 21 2 20 3 18 4 19 5 16 7 15 8 4 9 5 10 6 11 14 12 13 13
REMARK SMILES IDX 3 14 2 15 1 16 7 17 8 18 12 19 9 20 11 21 10 22 17 23 23 27
REMARK SMILES IDX 24 28 25 29 26 30 27 32 28 33 29 34 75 35 30 36 74 37 31 38
REMARK SMILES IDX 32 39 33 40 68 41 34 42 73 43 67 44 69 45 35 46 72 47 66 48
REMARK SMILES IDX 65 49 36 51 58 52 43 53 57 54 44 55 47 56 56 57 70 58 45 59
REMARK SMILES IDX 46 60 55 62 71 63 48 64 37 65 38 66 42 67 39 68 41 69 40 70
REMARK SMILES IDX 59 71 60 72 64 73 61 74 63 75 62 76 49 77 50 78 54 79 51 80
REMARK SMILES IDX 53 81 52 82
REMARK H PARENT 20 6 17 24 17 25 17 26 25 31 69 50 47 61
REMARK Flexibility Score: inf
ROOT
ATOM      1  C   UNL A   1      32.360  29.736  26.143  1.00  0.00     0.023 C 
ENDROOT
BRANCH   1   2
ATOM      2  C   UNL A   1      33.832  29.297  26.244  1.00  0.00     0.116 C 
BRANCH   2   3
ATOM      3  N   UNL A   1      33.926  27.849  26.309  1.00  0.00    -0.351 N 
ATOM      4  C   UNL A   1      33.652  26.803  25.490  1.00  0.00     0.283 C 
ATOM      5  O   UNL A   1      33.801  25.708  26.064  1.00  0.00    -0.268 OA
ATOM      6  H   UNL A   1      34.282  27.547  27.176  1.00  0.00     0.163 HD
BRANCH   4   7
ATOM      7  C   UNL A   1      33.252  26.803  23.981  1.00  0.00     0.306 C 
BRANCH   7   8
ATOM      8  C   UNL A   1      31.984  27.476  23.498  1.00  0.00     0.061 A 
ATOM      9  C   UNL A   1      30.681  26.975  23.666  1.00  0.00     0.131 A 
ATOM     10  C   UNL A   1      29.563  27.695  23.199  1.00  0.00     0.072 A 
ATOM     11  C   UNL A   1      29.714  28.922  22.533  1.00  0.00     0.040 A 
ATOM     12  C   UNL A   1      32.126  28.658  22.755  1.00  0.00     0.016 A 
ATOM     13  C   UNL A   1      31.016  29.354  22.273  1.00  0.00     0.027 A 
BRANCH   9  14
ATOM     14  O   UNL A   1      30.490  25.696  24.145  1.00  0.00    -0.493 OA
BRANCH  14  15
ATOM     15  C   UNL A   1      30.091  25.677  25.515  1.00  0.00     0.226 C 
ATOM     16  C   UNL A   1      30.587  24.401  26.178  1.00  0.00     0.049 C 
ENDBRANCH  14  15
ENDBRANCH   9  14
BRANCH  11  17
ATOM     17  N   UNL A   1      28.617  29.683  22.168  1.00  0.00    -0.367 N 
ATOM     18  C   UNL A   1      28.776  30.787  21.207  1.00  0.00     0.145 C 
ATOM     19  C   UNL A   1      27.493  29.861  23.107  1.00  0.00     0.145 C 
ATOM     20  C   UNL A   1      28.762  32.141  21.947  1.00  0.00     0.181 C 
ATOM     21  C   UNL A   1      27.521  31.256  23.751  1.00  0.00     0.181 C 
ATOM     22  O   UNL A   1      27.583  32.294  22.760  1.00  0.00    -0.378 OA
ENDBRANCH  11  17
ENDBRANCH   7   8
BRANCH   7  23
ATOM     23  N   UNL A   1      33.456  25.467  23.377  1.00  0.00    -0.343 N 
ATOM     24  H   UNL A   1      33.372  25.535  22.363  1.00  0.00     0.345 HD
ATOM     25  H   UNL A   1      32.751  24.821  23.734  1.00  0.00     0.345 HD
ATOM     26  H   UNL A   1      34.386  25.122  23.618  1.00  0.00     0.345 HD
ENDBRANCH   7  23
ENDBRANCH   4   7
ENDBRANCH   2   3
ENDBRANCH   1   2
BRANCH   1  27
ATOM     27  C   UNL A   1      31.941  30.937  26.983  1.00  0.00     0.023 C 
BRANCH  27  28
ATOM     28  C   UNL A   1      33.049  31.949  27.242  1.00  0.00     0.116 C 
BRANCH  28  29
ATOM     29  N   UNL A   1      32.580  33.286  27.596  1.00  0.00    -0.352 N 
ATOM     30  C   UNL A   1      33.199  34.216  28.407  1.00  0.00     0.251 C 
ATOM     31  H   UNL A   1      31.717  33.557  27.208  1.00  0.00     0.163 HD
ATOM     32  O   UNL A   1      32.672  35.290  28.655  1.00  0.00    -0.269 OA
BRANCH  30  33
ATOM     33  C   UNL A   1      34.493  33.855  29.024  1.00  0.00     0.039 A 
ATOM     34  C   UNL A   1      34.495  33.079  30.185  1.00  0.00     0.014 A 
ATOM     35  C   UNL A   1      35.688  34.176  28.379  1.00  0.00     0.014 A 
ATOM     36  C   UNL A   1      35.697  32.533  30.638  1.00  0.00     0.010 A 
ATOM     37  C   UNL A   1      36.863  33.552  28.773  1.00  0.00     0.010 A 
ATOM     38  C   UNL A   1      36.879  32.718  29.901  1.00  0.00    -0.014 A 
BRANCH  38  39
ATOM     39  C   UNL A   1      38.149  32.053  30.282  1.00  0.00     0.031 A 
ATOM     40  C   UNL A   1      39.081  32.728  31.248  1.00  0.00     0.074 A 
ATOM     41  C   UNL A   1      38.505  30.894  29.694  1.00  0.00     0.049 A 
ATOM     42  N   UNL A   1      40.281  32.370  31.626  1.00  0.00    -0.248 NA
ATOM     43  C   UNL A   1      38.619  33.996  31.839  1.00  0.00     0.031 C 
ATOM     44  C   UNL A   1      37.716  30.162  28.699  1.00  0.00     0.029 A 
ATOM     45  N   UNL A   1      39.632  30.126  29.850  1.00  0.00    -0.354 N 
ATOM     46  C   UNL A   1      40.727  33.383  32.464  1.00  0.00     0.074 A 
ATOM     47  C   UNL A   1      39.694  34.393  32.501  1.00  0.00     0.031 C 
ATOM     48  C   UNL A   1      38.362  29.031  28.371  1.00  0.00     0.029 A 
ATOM     49  C   UNL A   1      39.625  28.976  29.097  1.00  0.00     0.049 A 
ATOM     50  H   UNL A   1      40.376  30.377  30.444  1.00  0.00     0.167 HD
ATOM     51  C   UNL A   1      41.883  33.457  33.163  1.00  0.00     0.031 A 
ATOM     52  C   UNL A   1      40.533  27.986  29.011  1.00  0.00     0.031 A 
ATOM     53  C   UNL A   1      42.891  32.434  33.164  1.00  0.00     0.049 A 
ATOM     54  C   UNL A   1      41.792  28.073  29.826  1.00  0.00     0.074 A 
ATOM     55  C   UNL A   1      44.068  32.384  33.888  1.00  0.00     0.029 A 
ATOM     56  N   UNL A   1      42.830  31.272  32.412  1.00  0.00    -0.354 N 
ATOM     57  N   UNL A   1      42.178  29.016  30.650  1.00  0.00    -0.248 NA
ATOM     58  C   UNL A   1      42.735  26.952  29.706  1.00  0.00     0.031 C 
ATOM     59  C   UNL A   1      44.734  31.200  33.554  1.00  0.00     0.029 A 
ATOM     60  C   UNL A   1      43.951  30.498  32.653  1.00  0.00     0.049 A 
ATOM     61  H   UNL A   1      42.097  31.033  31.800  1.00  0.00     0.167 HD
ATOM     62  C   UNL A   1      43.395  28.591  31.166  1.00  0.00     0.074 A 
ATOM     63  C   UNL A   1      43.678  27.301  30.571  1.00  0.00     0.031 C 
ATOM     64  C   UNL A   1      44.206  29.213  32.055  1.00  0.00     0.031 A 
BRANCH  51  65
ATOM     65  C   UNL A   1      42.106  34.689  33.992  1.00  0.00    -0.014 A 
ATOM     66  C   UNL A   1      41.755  34.720  35.351  1.00  0.00     0.009 A 
ATOM     67  C   UNL A   1      42.685  35.828  33.414  1.00  0.00     0.009 A 
ATOM     68  C   UNL A   1      41.943  35.880  36.105  1.00  0.00     0.001 A 
ATOM     69  C   UNL A   1      42.898  36.978  34.176  1.00  0.00     0.001 A 
ATOM     70  C   UNL A   1      42.518  37.007  35.517  1.00  0.00     0.000 A 
ENDBRANCH  51  65
BRANCH  52  71
ATOM     71  C   UNL A   1      40.264  26.799  28.160  1.00  0.00    -0.014 A 
ATOM     72  C   UNL A   1      40.755  26.750  26.847  1.00  0.00     0.009 A 
ATOM     73  C   UNL A   1      39.518  25.716  28.647  1.00  0.00     0.009 A 
ATOM     74  C   UNL A   1      40.487  25.651  26.029  1.00  0.00     0.001 A 
ATOM     75  C   UNL A   1      39.270  24.606  27.834  1.00  0.00     0.001 A 
ATOM     76  C   UNL A   1      39.748  24.579  26.524  1.00  0.00     0.000 A 
ENDBRANCH  52  71
BRANCH  64  77
ATOM     77  C   UNL A   1      45.456  28.491  32.467  1.00  0.00    -0.014 A 
ATOM     78  C   UNL A   1      46.665  28.685  31.782  1.00  0.00     0.009 A 
ATOM     79  C   UNL A   1      45.431  27.649  33.589  1.00  0.00     0.009 A 
ATOM     80  C   UNL A   1      47.821  28.026  32.200  1.00  0.00     0.001 A 
ATOM     81  C   UNL A   1      46.594  27.010  34.018  1.00  0.00     0.001 A 
ATOM     82  C   UNL A   1      47.786  27.194  33.320  1.00  0.00     0.000 A 
ENDBRANCH  64  77
ENDBRANCH  38  39
ENDBRANCH  30  33
ENDBRANCH  28  29
ENDBRANCH  27  28
ENDBRANCH   1  27
TORSDOF 16
ENDMDL
MODEL 2
REMARK VINA RESULT:     -10.3      4.600      9.661
REMARK SMILES CCOc1cc(N2CCOCC2)ccc1[C@H]([NH3+])C(=O)NCCCCNC(=O)c1ccc(-c2c3nc(c(-c4ccccc4)c4ccc([nH]4)c(-c4ccccc4)c4nc(c(-c5ccccc5)c5ccc2[nH]5)C=C4)C=C3)cc1
REMARK SMILES IDX 22 1 21 2 20 3 18 4 19 5 16 7 15 8 4 9 5 10 6 11 14 12 13 13
REMARK SMILES IDX 3 14 2 15 1 16 7 17 8 18 12 19 9 20 11 21 10 22 17 23 23 27
REMARK SMILES IDX 24 28 25 29 26 30 27 32 28 33 29 34 75 35 30 36 74 37 31 38
REMARK SMILES IDX 32 39 33 40 68 41 34 42 73 43 67 44 69 45 35 46 72 47 66 48
REMARK SMILES IDX 65 49 36 51 58 52 43 53 57 54 44 55 47 56 56 57 70 58 45 59
REMARK SMILES IDX 46 60 55 62 71 63 48 64 37 65 38 66 42 67 39 68 41 69 40 70
REMARK SMILES IDX 59 71 60 72 64 73 61 74 63 75 62 76 49 77 50 78 54 79 51 80
REMARK SMILES IDX 53 81 52 82
REMARK H PARENT 20 6 17 24 17 25 17 26 25 31 69 50 47 61
REMARK Flexibility Score: inf
ROOT
ATOM      1  C   UNL A   1      39.310  23.189  26.793  1.00  0.00     0.023 C 
ENDROOT
BRANCH   1   2
ATOM      2  C   UNL A   1      38.032  23.944  26.387  1.00  0.00     0.116 C 
BRANCH   2   3
ATOM      3  N   UNL A   1      37.770  23.769  24.969  1.00  0.00    -0.351 N 
ATOM      4  C   UNL A   1      36.699  23.476  24.191  1.00  0.00     0.283 C 
ATOM      5  O   UNL A   1      37.016  23.321  22.996  1.00  0.00    -0.268 OA
ATOM      6  H   UNL A   1      38.584  23.897  24.430  1.00  0.00     0.163 HD
BRANCH   4   7
ATOM      7  C   UNL A   1      35.189  23.375  24.579  1.00  0.00     0.306 C 
BRANCH   7   8
ATOM      8  C   UNL A   1      34.465  22.045  24.601  1.00  0.00     0.061 A 
ATOM      9  C   UNL A   1      33.072  21.877  24.681  1.00  0.00     0.131 A 
ATOM     10  C   UNL A   1      32.496  20.590  24.669  1.00  0.00     0.072 A 
ATOM     11  C   UNL A   1      33.294  19.437  24.600  1.00  0.00     0.040 A 
ATOM     12  C   UNL A   1      35.254  20.884  24.621  1.00  0.00     0.016 A 
ATOM     13  C   UNL A   1      34.679  19.613  24.634  1.00  0.00     0.027 A 
BRANCH   9  14
ATOM     14  O   UNL A   1      32.260  22.961  24.936  1.00  0.00    -0.493 OA
BRANCH  14  15
ATOM     15  C   UNL A   1      31.023  22.899  24.227  1.00  0.00     0.226 C 
ATOM     16  C   UNL A   1      30.790  24.206  23.483  1.00  0.00     0.049 C 
ENDBRANCH  14  15
ENDBRANCH   9  14
BRANCH  11  17
ATOM     17  N   UNL A   1      32.731  18.178  24.481  1.00  0.00    -0.367 N 
ATOM     18  C   UNL A   1      32.524  17.349  25.679  1.00  0.00     0.145 C 
ATOM     19  C   UNL A   1      32.905  17.403  23.238  1.00  0.00     0.145 C 
ATOM     20  C   UNL A   1      33.600  16.245  25.753  1.00  0.00     0.181 C 
ATOM     21  C   UNL A   1      33.947  16.288  23.417  1.00  0.00     0.181 C 
ATOM     22  O   UNL A   1      33.641  15.457  24.548  1.00  0.00    -0.378 OA
ENDBRANCH  11  17
ENDBRANCH   7   8
BRANCH   7  23
ATOM     23  N   UNL A   1      34.400  24.445  23.926  1.00  0.00    -0.343 N 
ATOM     24  H   UNL A   1      34.946  25.307  23.907  1.00  0.00     0.345 HD
ATOM     25  H   UNL A   1      33.539  24.600  24.450  1.00  0.00     0.345 HD
ATOM     26  H   UNL A   1      34.172  24.166  22.972  1.00  0.00     0.345 HD
ENDBRANCH   7  23
ENDBRANCH   4   7
ENDBRANCH   2   3
ENDBRANCH   1   2
BRANCH   1  27
ATOM     27  C   UNL A   1      39.523  21.813  26.173  1.00  0.00     0.023 C 
BRANCH  27  28
ATOM     28  C   UNL A   1      40.433  20.890  26.972  1.00  0.00     0.116 C 
BRANCH  28  29
ATOM     29  N   UNL A   1      41.391  20.136  26.168  1.00  0.00    -0.352 N 
ATOM     30  C   UNL A   1      42.639  20.538  25.736  1.00  0.00     0.251 C 
ATOM     31  H   UNL A   1      41.113  19.230  25.903  1.00  0.00     0.163 HD
ATOM     32  O   UNL A   1      43.326  19.818  25.029  1.00  0.00    -0.269 OA
BRANCH  30  33
ATOM     33  C   UNL A   1      43.101  21.895  26.099  1.00  0.00     0.039 A 
ATOM     34  C   UNL A   1      43.038  22.909  25.141  1.00  0.00     0.014 A 
ATOM     35  C   UNL A   1      43.469  22.179  27.415  1.00  0.00     0.014 A 
ATOM     36  C   UNL A   1      43.239  24.233  25.535  1.00  0.00     0.010 A 
ATOM     37  C   UNL A   1      43.570  23.501  27.822  1.00  0.00     0.010 A 
ATOM     38  C   UNL A   1      43.449  24.542  26.889  1.00  0.00    -0.014 A 
BRANCH  38  39
ATOM     39  C   UNL A   1      43.545  25.944  27.364  1.00  0.00     0.031 A 
ATOM     40  C   UNL A   1      44.890  26.608  27.458  1.00  0.00     0.074 A 
ATOM     41  C   UNL A   1      42.440  26.587  27.795  1.00  0.00     0.049 A 
ATOM     42  N   UNL A   1      45.201  27.780  27.947  1.00  0.00    -0.248 NA
ATOM     43  C   UNL A   1      46.046  25.833  26.974  1.00  0.00     0.031 C 
ATOM     44  C   UNL A   1      41.082  26.037  27.808  1.00  0.00     0.029 A 
ATOM     45  N   UNL A   1      42.290  27.850  28.309  1.00  0.00    -0.354 N 
ATOM     46  C   UNL A   1      46.584  27.866  27.863  1.00  0.00     0.074 A 
ATOM     47  C   UNL A   1      47.058  26.610  27.325  1.00  0.00     0.031 C 
ATOM     48  C   UNL A   1      40.233  26.974  28.261  1.00  0.00     0.029 A 
ATOM     49  C   UNL A   1      40.987  28.172  28.608  1.00  0.00     0.049 A 
ATOM     50  H   UNL A   1      43.044  28.467  28.452  1.00  0.00     0.167 HD
ATOM     51  C   UNL A   1      47.390  28.904  28.181  1.00  0.00     0.031 A 
ATOM     52  C   UNL A   1      40.462  29.311  29.098  1.00  0.00     0.031 A 
ATOM     53  C   UNL A   1      46.918  30.169  28.672  1.00  0.00     0.049 A 
ATOM     54  C   UNL A   1      41.374  30.465  29.408  1.00  0.00     0.074 A 
ATOM     55  C   UNL A   1      47.647  31.308  28.963  1.00  0.00     0.029 A 
ATOM     56  N   UNL A   1      45.590  30.464  28.930  1.00  0.00    -0.354 N 
ATOM     57  N   UNL A   1      42.676  30.546  29.279  1.00  0.00    -0.248 NA
ATOM     58  C   UNL A   1      40.739  31.688  29.921  1.00  0.00     0.031 C 
ATOM     59  C   UNL A   1      46.760  32.287  29.423  1.00  0.00     0.029 A 
ATOM     60  C   UNL A   1      45.476  31.768  29.380  1.00  0.00     0.049 A 
ATOM     61  H   UNL A   1      44.838  29.839  28.811  1.00  0.00     0.167 HD
ATOM     62  C   UNL A   1      43.014  31.835  29.670  1.00  0.00     0.074 A 
ATOM     63  C   UNL A   1      41.780  32.503  30.029  1.00  0.00     0.031 C 
ATOM     64  C   UNL A   1      44.237  32.414  29.724  1.00  0.00     0.031 A 
BRANCH  51  65
ATOM     65  C   UNL A   1      48.867  28.711  27.993  1.00  0.00    -0.014 A 
ATOM     66  C   UNL A   1      49.670  28.211  29.030  1.00  0.00     0.009 A 
ATOM     67  C   UNL A   1      49.462  29.019  26.761  1.00  0.00     0.009 A 
ATOM     68  C   UNL A   1      51.046  28.061  28.850  1.00  0.00     0.001 A 
ATOM     69  C   UNL A   1      50.834  28.841  26.574  1.00  0.00     0.001 A 
ATOM     70  C   UNL A   1      51.627  28.373  27.622  1.00  0.00     0.000 A 
ENDBRANCH  51  65
BRANCH  52  71
ATOM     71  C   UNL A   1      38.994  29.438  29.278  1.00  0.00    -0.014 A 
ATOM     72  C   UNL A   1      38.414  29.175  30.529  1.00  0.00     0.009 A 
ATOM     73  C   UNL A   1      38.165  29.817  28.212  1.00  0.00     0.009 A 
ATOM     74  C   UNL A   1      37.032  29.267  30.705  1.00  0.00     0.001 A 
ATOM     75  C   UNL A   1      36.784  29.930  28.396  1.00  0.00     0.001 A 
ATOM     76  C   UNL A   1      36.219  29.647  29.639  1.00  0.00     0.000 A 
ENDBRANCH  52  71
BRANCH  64  77
ATOM     77  C   UNL A   1      44.298  33.851  30.152  1.00  0.00    -0.014 A 
ATOM     78  C   UNL A   1      44.506  34.199  31.495  1.00  0.00     0.009 A 
ATOM     79  C   UNL A   1      44.201  34.865  29.188  1.00  0.00     0.009 A 
ATOM     80  C   UNL A   1      44.588  35.542  31.867  1.00  0.00     0.001 A 
ATOM     81  C   UNL A   1      44.308  36.205  29.560  1.00  0.00     0.001 A 
ATOM     82  C   UNL A   1      44.495  36.542  30.899  1.00  0.00     0.000 A 
ENDBRANCH  64  77
ENDBRANCH  38  39
ENDBRANCH  30  33
ENDBRANCH  28  29
ENDBRANCH  27  28
ENDBRANCH   1  27
TORSDOF 16
ENDMDL
MODEL 3
REMARK VINA RESULT:     -10.3      2.311      7.430
REMARK SMILES CCOc1cc(N2CCOCC2)ccc1[C@H]([NH3+])C(=O)NCCCCNC(=O)c1ccc(-c2c3nc(c(-c4ccccc4)c4ccc([nH]4)c(-c4ccccc4)c4nc(c(-c5ccccc5)c5ccc2[nH]5)C=C4)C=C3)cc1
REMARK SMILES IDX 22 1 21 2 20 3 18 4 19 5 16 7 15 8 4 9 5 10 6 11 14 12 13 13
REMARK SMILES IDX 3 14 2 15 1 16 7 17 8 18 12 19 9 20 11 21 10 22 17 23 23 27
REMARK SMILES IDX 24 28 25 29 26 30 27 32 28 33 29 34 75 35 30 36 74 37 31 38
REMARK SMILES IDX 32 39 33 40 68 41 34 42 73 43 67 44 69 45 35 46 72 47 66 48
REMARK SMILES IDX 65 49 36 51 58 52 43 53 57 54 44 55 47 56 56 57 70 58 45 59
REMARK SMILES IDX 46 60 55 62 71 63 48 64 37 65 38 66 42 67 39 68 41 69 40 70
REMARK SMILES IDX 59 71 60 72 64 73 61 74 63 75 62 76 49 77 50 78 54 79 51 80
REMARK SMILES IDX 53 81 52 82
REMARK H PARENT 20 6 17 24 17 25 17 26 25 31 69 50 47 61
REMARK Flexibility Score: inf
ROOT
ATOM      1  C   UNL A   1      35.899  21.486  26.112  1.00  0.00     0.023 C 
ENDROOT
BRANCH   1   2
ATOM      2  C   UNL A   1      35.626  20.604  24.881  1.00  0.00     0.116 C 
BRANCH   2   3
ATOM      3  N   UNL A   1      34.226  20.223  24.831  1.00  0.00    -0.351 N 
ATOM      4  C   UNL A   1      33.075  20.751  24.343  1.00  0.00     0.283 C 
ATOM      5  O   UNL A   1      32.078  20.074  24.659  1.00  0.00    -0.268 OA
ATOM      6  H   UNL A   1      34.070  19.354  25.264  1.00  0.00     0.163 HD
BRANCH   4   7
ATOM      7  C   UNL A   1      32.866  22.002  23.432  1.00  0.00     0.306 C 
BRANCH   7   8
ATOM      8  C   UNL A   1      32.948  23.408  23.987  1.00  0.00     0.061 A 
ATOM      9  C   UNL A   1      32.105  23.945  24.976  1.00  0.00     0.131 A 
ATOM     10  C   UNL A   1      32.284  25.263  25.443  1.00  0.00     0.072 A 
ATOM     11  C   UNL A   1      33.293  26.088  24.922  1.00  0.00     0.040 A 
ATOM     12  C   UNL A   1      33.895  24.271  23.414  1.00  0.00     0.016 A 
ATOM     13  C   UNL A   1      34.051  25.583  23.863  1.00  0.00     0.027 A 
BRANCH   9  14
ATOM     14  O   UNL A   1      30.990  23.245  25.385  1.00  0.00    -0.493 OA
BRANCH  14  15
ATOM     15  C   UNL A   1      30.476  23.713  26.631  1.00  0.00     0.226 C 
ATOM     16  C   UNL A   1      29.447  22.726  27.167  1.00  0.00     0.049 C 
ENDBRANCH  14  15
ENDBRANCH   9  14
BRANCH  11  17
ATOM     17  N   UNL A   1      33.542  27.344  25.450  1.00  0.00    -0.367 N 
ATOM     18  C   UNL A   1      33.046  27.686  26.793  1.00  0.00     0.145 C 
ATOM     19  C   UNL A   1      33.704  28.505  24.556  1.00  0.00     0.145 C 
ATOM     20  C   UNL A   1      31.805  28.595  26.685  1.00  0.00     0.181 C 
ATOM     21  C   UNL A   1      32.446  29.388  24.554  1.00  0.00     0.181 C 
ATOM     22  O   UNL A   1      32.066  29.766  25.887  1.00  0.00    -0.378 OA
ENDBRANCH  11  17
ENDBRANCH   7   8
BRANCH   7  23
ATOM     23  N   UNL A   1      31.710  21.811  22.526  1.00  0.00    -0.343 N 
ATOM     24  H   UNL A   1      31.937  22.178  21.602  1.00  0.00     0.345 HD
ATOM     25  H   UNL A   1      30.900  22.308  22.898  1.00  0.00     0.345 HD
ATOM     26  H   UNL A   1      31.494  20.817  22.453  1.00  0.00     0.345 HD
ENDBRANCH   7  23
ENDBRANCH   4   7
ENDBRANCH   2   3
ENDBRANCH   1   2
BRANCH   1  27
ATOM     27  C   UNL A   1      36.078  22.979  25.864  1.00  0.00     0.023 C 
BRANCH  27  28
ATOM     28  C   UNL A   1      37.353  23.352  25.121  1.00  0.00     0.116 C 
BRANCH  28  29
ATOM     29  N   UNL A   1      38.523  22.560  25.487  1.00  0.00    -0.352 N 
ATOM     30  C   UNL A   1      39.580  22.930  26.295  1.00  0.00     0.251 C 
ATOM     31  H   UNL A   1      38.563  21.650  25.113  1.00  0.00     0.163 HD
ATOM     32  O   UNL A   1      40.524  22.178  26.487  1.00  0.00    -0.269 OA
BRANCH  30  33
ATOM     33  C   UNL A   1      39.575  24.291  26.874  1.00  0.00     0.039 A 
ATOM     34  C   UNL A   1      39.035  24.482  28.146  1.00  0.00     0.014 A 
ATOM     35  C   UNL A   1      40.219  25.334  26.207  1.00  0.00     0.014 A 
ATOM     36  C   UNL A   1      39.239  25.700  28.798  1.00  0.00     0.010 A 
ATOM     37  C   UNL A   1      40.506  26.505  26.894  1.00  0.00     0.010 A 
ATOM     38  C   UNL A   1      40.026  26.697  28.199  1.00  0.00    -0.014 A 
BRANCH  38  39
ATOM     39  C   UNL A   1      40.368  27.954  28.909  1.00  0.00     0.031 A 
ATOM     40  C   UNL A   1      41.713  28.097  29.564  1.00  0.00     0.074 A 
ATOM     41  C   UNL A   1      39.443  28.925  29.043  1.00  0.00     0.049 A 
ATOM     42  N   UNL A   1      42.166  29.062  30.320  1.00  0.00    -0.248 NA
ATOM     43  C   UNL A   1      42.663  26.986  29.375  1.00  0.00     0.031 C 
ATOM     44  C   UNL A   1      38.081  28.889  28.502  1.00  0.00     0.029 A 
ATOM     45  N   UNL A   1      39.511  30.137  29.683  1.00  0.00    -0.354 N 
ATOM     46  C   UNL A   1      43.431  28.659  30.726  1.00  0.00     0.074 A 
ATOM     47  C   UNL A   1      43.656  27.341  30.174  1.00  0.00     0.031 C 
ATOM     48  C   UNL A   1      37.461  30.044  28.793  1.00  0.00     0.029 A 
ATOM     49  C   UNL A   1      38.363  30.885  29.573  1.00  0.00     0.049 A 
ATOM     50  H   UNL A   1      40.307  30.442  30.175  1.00  0.00     0.167 HD
ATOM     51  C   UNL A   1      44.338  29.333  31.469  1.00  0.00     0.031 A 
ATOM     52  C   UNL A   1      38.074  32.113  30.043  1.00  0.00     0.031 A 
ATOM     53  C   UNL A   1      44.135  30.660  31.979  1.00  0.00     0.049 A 
ATOM     54  C   UNL A   1      39.113  32.858  30.834  1.00  0.00     0.074 A 
ATOM     55  C   UNL A   1      45.017  31.456  32.688  1.00  0.00     0.029 A 
ATOM     56  N   UNL A   1      42.971  31.393  31.818  1.00  0.00    -0.354 N 
ATOM     57  N   UNL A   1      40.322  32.480  31.169  1.00  0.00    -0.248 NA
ATOM     58  C   UNL A   1      38.747  34.203  31.302  1.00  0.00     0.031 C 
ATOM     59  C   UNL A   1      44.375  32.664  32.980  1.00  0.00     0.029 A 
ATOM     60  C   UNL A   1      43.109  32.632  32.418  1.00  0.00     0.049 A 
ATOM     61  H   UNL A   1      42.165  31.079  31.347  1.00  0.00     0.167 HD
ATOM     62  C   UNL A   1      40.872  33.550  31.863  1.00  0.00     0.074 A 
ATOM     63  C   UNL A   1      39.868  34.594  31.892  1.00  0.00     0.031 C 
ATOM     64  C   UNL A   1      42.099  33.658  32.426  1.00  0.00     0.031 A 
BRANCH  51  65
ATOM     65  C   UNL A   1      45.638  28.640  31.761  1.00  0.00    -0.014 A 
ATOM     66  C   UNL A   1      45.775  27.799  32.878  1.00  0.00     0.009 A 
ATOM     67  C   UNL A   1      46.735  28.817  30.906  1.00  0.00     0.009 A 
ATOM     68  C   UNL A   1      46.996  27.182  33.153  1.00  0.00     0.001 A 
ATOM     69  C   UNL A   1      47.947  28.177  31.167  1.00  0.00     0.001 A 
ATOM     70  C   UNL A   1      48.080  27.369  32.296  1.00  0.00     0.000 A 
ENDBRANCH  51  65
BRANCH  52  71
ATOM     71  C   UNL A   1      36.765  32.741  29.734  1.00  0.00    -0.014 A 
ATOM     72  C   UNL A   1      36.559  33.363  28.493  1.00  0.00     0.009 A 
ATOM     73  C   UNL A   1      35.719  32.728  30.668  1.00  0.00     0.009 A 
ATOM     74  C   UNL A   1      35.341  33.979  28.200  1.00  0.00     0.001 A 
ATOM     75  C   UNL A   1      34.493  33.326  30.365  1.00  0.00     0.001 A 
ATOM     76  C   UNL A   1      34.308  33.957  29.135  1.00  0.00     0.000 A 
ENDBRANCH  52  71
BRANCH  64  77
ATOM     77  C   UNL A   1      42.439  34.962  33.087  1.00  0.00    -0.014 A 
ATOM     78  C   UNL A   1      43.205  35.933  32.426  1.00  0.00     0.009 A 
ATOM     79  C   UNL A   1      41.936  35.240  34.368  1.00  0.00     0.009 A 
ATOM     80  C   UNL A   1      43.484  37.150  33.048  1.00  0.00     0.001 A 
ATOM     81  C   UNL A   1      42.198  36.467  34.977  1.00  0.00     0.001 A 
ATOM     82  C   UNL A   1      42.976  37.418  34.320  1.00  0.00     0.000 A 
ENDBRANCH  64  77
ENDBRANCH  38  39
ENDBRANCH  30  33
ENDBRANCH  28  29
ENDBRANCH  27  28
ENDBRANCH   1  27
TORSDOF 16
ENDMDL
