MODEL 1
REMARK VINA RESULT:     -11.1      0.000      0.000
REMARK SMILES Cc1nc(Nc2ccc(F)cc2)nc(OCC(=O)NCCCCNC(=O)c2ccc(-c3c4nc(c(-c5ccccc5)c5ccc([nH]5)c(-c5ccccc5)c5nc(c(-c6ccccc6)c6ccc3[nH]6)C=C5)C=C4)cc2)c1CCO
REMARK SMILES IDX 20 1 19 2 17 3 18 4 16 6 15 7 14 8 1 9 2 10 3 11 75 12 4 13
REMARK SMILES IDX 13 14 76 15 77 16 78 17 5 19 6 21 7 22 12 23 8 24 11 25 9 26
REMARK SMILES IDX 10 27 21 28 22 29 23 30 24 31 25 32 26 34 27 35 28 36 74 37
REMARK SMILES IDX 29 38 73 39 30 40 31 41 32 42 67 43 33 44 72 45 66 46 68 47
REMARK SMILES IDX 34 48 71 49 65 50 64 51 35 53 57 54 42 55 56 56 43 57 46 58
REMARK SMILES IDX 55 59 69 60 44 61 45 62 54 64 70 65 47 66 36 67 37 68 41 69
REMARK SMILES IDX 38 70 40 71 39 72 58 73 59 74 63 75 60 76 62 77 61 78 48 79
REMARK SMILES IDX 49 80 53 81 50 82 52 83 51 84
REMARK H PARENT 19 5 78 18 5 20 24 33 68 52 46 63
REMARK Flexibility Score: inf
ROOT
ATOM      1  C   UNL A   1      31.877  25.873  26.127  1.00  0.00     0.116 C 
ENDROOT
BRANCH   1   2
ATOM      2  N   UNL A   1      31.268  24.871  26.974  1.00  0.00    -0.353 N 
ATOM      3  C   UNL A   1      30.678  23.700  26.614  1.00  0.00     0.258 C 
ATOM      4  O   UNL A   1      30.256  22.974  27.516  1.00  0.00    -0.271 OA
ATOM      5  H   UNL A   1      31.283  25.062  27.939  1.00  0.00     0.163 HD
BRANCH   3   6
ATOM      6  C   UNL A   1      30.625  23.292  25.136  1.00  0.00     0.331 C 
BRANCH   6   7
ATOM      7  O   UNL A   1      31.548  22.379  24.579  1.00  0.00    -0.467 OA
BRANCH   7   8
ATOM      8  C   UNL A   1      32.728  22.773  24.031  1.00  0.00     0.222 A 
ATOM      9  C   UNL A   1      36.461  22.479  23.621  1.00  0.00     0.067 C 
ATOM     10  C   UNL A   1      35.012  22.865  23.544  1.00  0.00     0.050 A 
ATOM     11  N   UNL A   1      34.796  23.916  22.735  1.00  0.00    -0.218 NA
ATOM     12  C   UNL A   1      34.001  22.281  24.305  1.00  0.00     0.038 A 
ATOM     13  C   UNL A   1      33.572  24.439  22.671  1.00  0.00     0.230 A 
ATOM     14  N   UNL A   1      32.521  23.868  23.263  1.00  0.00    -0.177 NA
BRANCH  12  15
ATOM     15  C   UNL A   1      34.338  21.306  25.403  1.00  0.00     0.071 C 
BRANCH  15  16
ATOM     16  C   UNL A   1      33.687  19.927  25.246  1.00  0.00     0.161 C 
BRANCH  16  17
ATOM     17  O   UNL A   1      32.382  19.858  25.802  1.00  0.00    -0.396 OA
ATOM     18  H   UNL A   1      31.939  19.052  25.490  1.00  0.00     0.210 HD
ENDBRANCH  16  17
ENDBRANCH  15  16
ENDBRANCH  12  15
BRANCH  13  19
ATOM     19  N   UNL A   1      33.399  25.698  22.092  1.00  0.00    -0.324 N 
ATOM     20  H   UNL A   1      33.900  25.869  21.262  1.00  0.00     0.170 HD
BRANCH  19  21
ATOM     21  C   UNL A   1      32.592  26.747  22.555  1.00  0.00     0.041 A 
ATOM     22  C   UNL A   1      31.210  26.763  22.309  1.00  0.00     0.029 A 
ATOM     23  C   UNL A   1      33.174  27.876  23.151  1.00  0.00     0.029 A 
ATOM     24  C   UNL A   1      30.425  27.865  22.657  1.00  0.00     0.041 A 
ATOM     25  C   UNL A   1      32.394  28.991  23.482  1.00  0.00     0.041 A 
ATOM     26  C   UNL A   1      31.028  28.974  23.232  1.00  0.00     0.123 A 
ATOM     27  F   UNL A   1      30.285  30.047  23.534  1.00  0.00    -0.207 F 
ENDBRANCH  19  21
ENDBRANCH  13  19
ENDBRANCH   7   8
ENDBRANCH   6   7
ENDBRANCH   3   6
ENDBRANCH   1   2
BRANCH   1  28
ATOM     28  C   UNL A   1      31.372  27.273  26.455  1.00  0.00     0.023 C 
BRANCH  28  29
ATOM     29  C   UNL A   1      32.090  27.972  27.612  1.00  0.00     0.023 C 
BRANCH  29  30
ATOM     30  C   UNL A   1      33.396  28.677  27.260  1.00  0.00     0.116 C 
BRANCH  30  31
ATOM     31  N   UNL A   1      33.414  30.082  27.630  1.00  0.00    -0.352 N 
ATOM     32  C   UNL A   1      34.438  30.816  28.174  1.00  0.00     0.251 C 
ATOM     33  H   UNL A   1      32.577  30.574  27.468  1.00  0.00     0.163 HD
ATOM     34  O   UNL A   1      34.257  31.985  28.504  1.00  0.00    -0.269 OA
BRANCH  32  35
ATOM     35  C   UNL A   1      35.750  30.179  28.403  1.00  0.00     0.039 A 
ATOM     36  C   UNL A   1      36.685  30.186  27.365  1.00  0.00     0.014 A 
ATOM     37  C   UNL A   1      36.069  29.612  29.640  1.00  0.00     0.014 A 
ATOM     38  C   UNL A   1      37.967  29.683  27.591  1.00  0.00     0.010 A 
ATOM     39  C   UNL A   1      37.368  29.177  29.884  1.00  0.00     0.010 A 
ATOM     40  C   UNL A   1      38.330  29.209  28.862  1.00  0.00    -0.014 A 
BRANCH  40  41
ATOM     41  C   UNL A   1      39.713  28.747  29.139  1.00  0.00     0.031 A 
ATOM     42  C   UNL A   1      40.695  29.663  29.814  1.00  0.00     0.074 A 
ATOM     43  C   UNL A   1      40.101  27.522  28.734  1.00  0.00     0.049 A 
ATOM     44  N   UNL A   1      41.955  29.454  30.101  1.00  0.00    -0.248 NA
ATOM     45  C   UNL A   1      40.204  30.998  30.195  1.00  0.00     0.031 C 
ATOM     46  C   UNL A   1      39.255  26.552  28.035  1.00  0.00     0.029 A 
ATOM     47  N   UNL A   1      41.311  26.885  28.851  1.00  0.00    -0.354 N 
ATOM     48  C   UNL A   1      42.409  30.634  30.681  1.00  0.00     0.074 A 
ATOM     49  C   UNL A   1      41.306  31.569  30.656  1.00  0.00     0.031 C 
ATOM     50  C   UNL A   1      39.963  25.433  27.813  1.00  0.00     0.029 A 
ATOM     51  C   UNL A   1      41.320  25.620  28.316  1.00  0.00     0.049 A 
ATOM     52  H   UNL A   1      42.097  27.296  29.277  1.00  0.00     0.167 HD
ATOM     53  C   UNL A   1      43.628  30.906  31.205  1.00  0.00     0.031 A 
ATOM     54  C   UNL A   1      42.311  24.712  28.238  1.00  0.00     0.031 A 
ATOM     55  C   UNL A   1      44.722  29.974  31.238  1.00  0.00     0.049 A 
ATOM     56  C   UNL A   1      43.660  25.046  28.811  1.00  0.00     0.074 A 
ATOM     57  C   UNL A   1      45.978  30.137  31.794  1.00  0.00     0.029 A 
ATOM     58  N   UNL A   1      44.689  28.701  30.686  1.00  0.00    -0.354 N 
ATOM     59  N   UNL A   1      44.052  26.140  29.416  1.00  0.00    -0.248 NA
ATOM     60  C   UNL A   1      44.699  24.012  28.700  1.00  0.00     0.031 C 
ATOM     61  C   UNL A   1      46.724  28.982  31.535  1.00  0.00     0.029 A 
ATOM     62  C   UNL A   1      45.913  28.079  30.869  1.00  0.00     0.049 A 
ATOM     63  H   UNL A   1      43.913  28.301  30.233  1.00  0.00     0.167 HD
ATOM     64  C   UNL A   1      45.373  25.916  29.784  1.00  0.00     0.074 A 
ATOM     65  C   UNL A   1      45.708  24.576  29.348  1.00  0.00     0.031 C 
ATOM     66  C   UNL A   1      46.230  26.745  30.428  1.00  0.00     0.031 A 
BRANCH  53  67
ATOM     67  C   UNL A   1      43.837  32.279  31.781  1.00  0.00    -0.014 A 
ATOM     68  C   UNL A   1      44.226  33.357  30.969  1.00  0.00     0.009 A 
ATOM     69  C   UNL A   1      43.616  32.504  33.148  1.00  0.00     0.009 A 
ATOM     70  C   UNL A   1      44.429  34.623  31.523  1.00  0.00     0.001 A 
ATOM     71  C   UNL A   1      43.790  33.778  33.694  1.00  0.00     0.001 A 
ATOM     72  C   UNL A   1      44.206  34.833  32.883  1.00  0.00     0.000 A 
ENDBRANCH  53  67
BRANCH  54  73
ATOM     73  C   UNL A   1      42.063  23.389  27.606  1.00  0.00    -0.014 A 
ATOM     74  C   UNL A   1      42.423  23.162  26.268  1.00  0.00     0.009 A 
ATOM     75  C   UNL A   1      41.456  22.351  28.330  1.00  0.00     0.009 A 
ATOM     76  C   UNL A   1      42.157  21.931  25.662  1.00  0.00     0.001 A 
ATOM     77  C   UNL A   1      41.217  21.113  27.730  1.00  0.00     0.001 A 
ATOM     78  C   UNL A   1      41.558  20.907  26.394  1.00  0.00     0.000 A 
ENDBRANCH  54  73
BRANCH  66  79
ATOM     79  C   UNL A   1      47.603  26.212  30.731  1.00  0.00    -0.014 A 
ATOM     80  C   UNL A   1      47.968  25.828  32.030  1.00  0.00     0.009 A 
ATOM     81  C   UNL A   1      48.531  26.058  29.688  1.00  0.00     0.009 A 
ATOM     82  C   UNL A   1      49.249  25.333  32.284  1.00  0.00     0.001 A 
ATOM     83  C   UNL A   1      49.798  25.532  29.940  1.00  0.00     0.001 A 
ATOM     84  C   UNL A   1      50.160  25.179  31.240  1.00  0.00     0.000 A 
ENDBRANCH  66  79
ENDBRANCH  40  41
ENDBRANCH  32  35
ENDBRANCH  30  31
ENDBRANCH  29  30
ENDBRANCH  28  29
ENDBRANCH   1  28
TORSDOF 18
ENDMDL
MODEL 2
REMARK VINA RESULT:     -10.7      2.640      7.771
REMARK SMILES Cc1nc(Nc2ccc(F)cc2)nc(OCC(=O)NCCCCNC(=O)c2ccc(-c3c4nc(c(-c5ccccc5)c5ccc([nH]5)c(-c5ccccc5)c5nc(c(-c6ccccc6)c6ccc3[nH]6)C=C5)C=C4)cc2)c1CCO
REMARK SMILES IDX 20 1 19 2 17 3 18 4 16 6 15 7 14 8 1 9 2 10 3 11 75 12 4 13
REMARK SMILES IDX 13 14 76 15 77 16 78 17 5 19 6 21 7 22 12 23 8 24 11 25 9 26
REMARK SMILES IDX 10 27 21 28 22 29 23 30 24 31 25 32 26 34 27 35 28 36 74 37
REMARK SMILES IDX 29 38 73 39 30 40 31 41 32 42 67 43 33 44 72 45 66 46 68 47
REMARK SMILES IDX 34 48 71 49 65 50 64 51 35 53 57 54 42 55 56 56 43 57 46 58
REMARK SMILES IDX 55 59 69 60 44 61 45 62 54 64 70 65 47 66 36 67 37 68 41 69
REMARK SMILES IDX 38 70 40 71 39 72 58 73 59 74 63 75 60 76 62 77 61 78 48 79
REMARK SMILES IDX 49 80 53 81 50 82 52 83 51 84
REMARK H PARENT 19 5 78 18 5 20 24 33 68 52 46 63
REMARK Flexibility Score: inf
ROOT
ATOM      1  C   UNL A   1      34.424  25.411  24.364  1.00  0.00     0.116 C 
ENDROOT
BRANCH   1   2
ATOM      2  N   UNL A   1      34.061  25.123  22.994  1.00  0.00    -0.353 N 
ATOM      3  C   UNL A   1      33.538  25.961  22.060  1.00  0.00     0.258 C 
ATOM      4  O   UNL A   1      33.340  25.506  20.933  1.00  0.00    -0.271 OA
ATOM      5  H   UNL A   1      34.214  24.196  22.698  1.00  0.00     0.163 HD
BRANCH   3   6
ATOM      6  C   UNL A   1      33.286  27.434  22.409  1.00  0.00     0.331 C 
BRANCH   6   7
ATOM      7  O   UNL A   1      32.062  27.873  22.960  1.00  0.00    -0.467 OA
BRANCH   7   8
ATOM      8  C   UNL A   1      31.638  27.498  24.196  1.00  0.00     0.222 A 
ATOM      9  C   UNL A   1      31.344  28.040  27.912  1.00  0.00     0.067 C 
ATOM     10  C   UNL A   1      31.271  27.524  26.504  1.00  0.00     0.050 A 
ATOM     11  N   UNL A   1      30.642  26.339  26.416  1.00  0.00    -0.218 NA
ATOM     12  C   UNL A   1      31.879  28.135  25.410  1.00  0.00     0.038 A 
ATOM     13  C   UNL A   1      30.614  25.710  25.242  1.00  0.00     0.230 A 
ATOM     14  N   UNL A   1      31.057  26.278  24.119  1.00  0.00    -0.177 NA
BRANCH  12  15
ATOM     15  C   UNL A   1      32.811  29.303  25.608  1.00  0.00     0.071 C 
BRANCH  15  16
ATOM     16  C   UNL A   1      34.181  28.926  26.183  1.00  0.00     0.161 C 
BRANCH  16  17
ATOM     17  O   UNL A   1      34.945  30.051  26.594  1.00  0.00    -0.396 OA
ATOM     18  H   UNL A   1      35.868  29.934  26.318  1.00  0.00     0.210 HD
ENDBRANCH  16  17
ENDBRANCH  15  16
ENDBRANCH  12  15
BRANCH  13  19
ATOM     19  N   UNL A   1      30.248  24.363  25.200  1.00  0.00    -0.324 N 
ATOM     20  H   UNL A   1      29.330  24.152  25.485  1.00  0.00     0.170 HD
BRANCH  19  21
ATOM     21  C   UNL A   1      31.038  23.276  24.798  1.00  0.00     0.041 A 
ATOM     22  C   UNL A   1      31.354  23.069  23.446  1.00  0.00     0.029 A 
ATOM     23  C   UNL A   1      31.408  22.290  25.725  1.00  0.00     0.029 A 
ATOM     24  C   UNL A   1      32.031  21.921  23.028  1.00  0.00     0.041 A 
ATOM     25  C   UNL A   1      32.069  21.129  25.308  1.00  0.00     0.041 A 
ATOM     26  C   UNL A   1      32.374  20.956  23.963  1.00  0.00     0.123 A 
ATOM     27  F   UNL A   1      32.991  19.836  23.561  1.00  0.00    -0.207 F 
ENDBRANCH  19  21
ENDBRANCH  13  19
ENDBRANCH   7   8
ENDBRANCH   6   7
ENDBRANCH   3   6
ENDBRANCH   1   2
BRANCH   1  28
ATOM     28  C   UNL A   1      34.613  24.136  25.179  1.00  0.00     0.023 C 
BRANCH  28  29
ATOM     29  C   UNL A   1      36.007  23.947  25.783  1.00  0.00     0.023 C 
BRANCH  29  30
ATOM     30  C   UNL A   1      37.114  23.574  24.803  1.00  0.00     0.116 C 
BRANCH  30  31
ATOM     31  N   UNL A   1      38.043  22.588  25.328  1.00  0.00    -0.352 N 
ATOM     32  C   UNL A   1      39.098  22.771  26.188  1.00  0.00     0.251 C 
ATOM     33  H   UNL A   1      37.896  21.664  25.025  1.00  0.00     0.163 HD
ATOM     34  O   UNL A   1      39.839  21.833  26.469  1.00  0.00    -0.269 OA
BRANCH  32  35
ATOM     35  C   UNL A   1      39.365  24.114  26.739  1.00  0.00     0.039 A 
ATOM     36  C   UNL A   1      38.922  24.405  28.031  1.00  0.00     0.014 A 
ATOM     37  C   UNL A   1      40.077  25.066  26.003  1.00  0.00     0.014 A 
ATOM     38  C   UNL A   1      39.252  25.630  28.613  1.00  0.00     0.010 A 
ATOM     39  C   UNL A   1      40.465  26.256  26.611  1.00  0.00     0.010 A 
ATOM     40  C   UNL A   1      40.057  26.549  27.921  1.00  0.00    -0.014 A 
BRANCH  40  41
ATOM     41  C   UNL A   1      40.484  27.821  28.557  1.00  0.00     0.031 A 
ATOM     42  C   UNL A   1      41.898  27.986  29.041  1.00  0.00     0.074 A 
ATOM     43  C   UNL A   1      39.586  28.806  28.749  1.00  0.00     0.049 A 
ATOM     44  N   UNL A   1      42.445  29.003  29.657  1.00  0.00    -0.248 NA
ATOM     45  C   UNL A   1      42.810  26.851  28.825  1.00  0.00     0.031 C 
ATOM     46  C   UNL A   1      38.175  28.754  28.360  1.00  0.00     0.029 A 
ATOM     47  N   UNL A   1      39.728  30.044  29.323  1.00  0.00    -0.354 N 
ATOM     48  C   UNL A   1      43.757  28.624  29.915  1.00  0.00     0.074 A 
ATOM     49  C   UNL A   1      43.908  27.268  29.437  1.00  0.00     0.031 C 
ATOM     50  C   UNL A   1      37.589  29.920  28.680  1.00  0.00     0.029 A 
ATOM     51  C   UNL A   1      38.570  30.783  29.329  1.00  0.00     0.049 A 
ATOM     52  H   UNL A   1      40.578  30.371  29.696  1.00  0.00     0.167 HD
ATOM     53  C   UNL A   1      44.753  29.348  30.480  1.00  0.00     0.031 A 
ATOM     54  C   UNL A   1      38.324  32.018  29.808  1.00  0.00     0.031 A 
ATOM     55  C   UNL A   1      44.606  30.700  30.948  1.00  0.00     0.049 A 
ATOM     56  C   UNL A   1      39.442  32.793  30.447  1.00  0.00     0.074 A 
ATOM     57  C   UNL A   1      45.568  31.535  31.487  1.00  0.00     0.029 A 
ATOM     58  N   UNL A   1      43.417  31.413  30.935  1.00  0.00    -0.354 N 
ATOM     59  N   UNL A   1      40.694  32.446  30.622  1.00  0.00    -0.248 NA
ATOM     60  C   UNL A   1      39.113  34.137  30.944  1.00  0.00     0.031 C 
ATOM     61  C   UNL A   1      44.950  32.738  31.847  1.00  0.00     0.029 A 
ATOM     62  C   UNL A   1      43.617  32.671  31.479  1.00  0.00     0.049 A 
ATOM     63  H   UNL A   1      42.559  31.076  30.591  1.00  0.00     0.167 HD
ATOM     64  C   UNL A   1      41.309  33.538  31.221  1.00  0.00     0.074 A 
ATOM     65  C   UNL A   1      40.295  34.563  31.365  1.00  0.00     0.031 C 
ATOM     66  C   UNL A   1      42.598  33.680  31.615  1.00  0.00     0.031 A 
BRANCH  53  67
ATOM     67  C   UNL A   1      46.091  28.679  30.628  1.00  0.00    -0.014 A 
ATOM     68  C   UNL A   1      47.062  28.763  29.616  1.00  0.00     0.009 A 
ATOM     69  C   UNL A   1      46.397  27.980  31.806  1.00  0.00     0.009 A 
ATOM     70  C   UNL A   1      48.296  28.124  29.764  1.00  0.00     0.001 A 
ATOM     71  C   UNL A   1      47.643  27.369  31.964  1.00  0.00     0.001 A 
ATOM     72  C   UNL A   1      48.587  27.433  30.939  1.00  0.00     0.000 A 
ENDBRANCH  53  67
BRANCH  54  73
ATOM     73  C   UNL A   1      36.965  32.609  29.686  1.00  0.00    -0.014 A 
ATOM     74  C   UNL A   1      36.629  33.391  28.570  1.00  0.00     0.009 A 
ATOM     75  C   UNL A   1      36.003  32.405  30.686  1.00  0.00     0.009 A 
ATOM     76  C   UNL A   1      35.364  33.977  28.472  1.00  0.00     0.001 A 
ATOM     77  C   UNL A   1      34.730  32.968  30.571  1.00  0.00     0.001 A 
ATOM     78  C   UNL A   1      34.415  33.762  29.470  1.00  0.00     0.000 A 
ENDBRANCH  54  73
BRANCH  66  79
ATOM     79  C   UNL A   1      42.993  35.003  32.207  1.00  0.00    -0.014 A 
ATOM     80  C   UNL A   1      43.550  36.020  31.417  1.00  0.00     0.009 A 
ATOM     81  C   UNL A   1      42.767  35.246  33.572  1.00  0.00     0.009 A 
ATOM     82  C   UNL A   1      43.905  37.243  31.991  1.00  0.00     0.001 A 
ATOM     83  C   UNL A   1      43.094  36.480  34.135  1.00  0.00     0.001 A 
ATOM     84  C   UNL A   1      43.672  37.475  33.345  1.00  0.00     0.000 A 
ENDBRANCH  66  79
ENDBRANCH  40  41
ENDBRANCH  32  35
ENDBRANCH  30  31
ENDBRANCH  29  30
ENDBRANCH  28  29
ENDBRANCH   1  28
TORSDOF 18
ENDMDL
MODEL 3
REMARK VINA RESULT:     -10.5      2.470      4.195
REMARK SMILES Cc1nc(Nc2ccc(F)cc2)nc(OCC(=O)NCCCCNC(=O)c2ccc(-c3c4nc(c(-c5ccccc5)c5ccc([nH]5)c(-c5ccccc5)c5nc(c(-c6ccccc6)c6ccc3[nH]6)C=C5)C=C4)cc2)c1CCO
REMARK SMILES IDX 20 1 19 2 17 3 18 4 16 6 15 7 14 8 1 9 2 10 3 11 75 12 4 13
REMARK SMILES IDX 13 14 76 15 77 16 78 17 5 19 6 21 7 22 12 23 8 24 11 25 9 26
REMARK SMILES IDX 10 27 21 28 22 29 23 30 24 31 25 32 26 34 27 35 28 36 74 37
REMARK SMILES IDX 29 38 73 39 30 40 31 41 32 42 67 43 33 44 72 45 66 46 68 47
REMARK SMILES IDX 34 48 71 49 65 50 64 51 35 53 57 54 42 55 56 56 43 57 46 58
REMARK SMILES IDX 55 59 69 60 44 61 45 62 54 64 70 65 47 66 36 67 37 68 41 69
REMARK SMILES IDX 38 70 40 71 39 72 58 73 59 74 63 75 60 76 62 77 61 78 48 79
REMARK SMILES IDX 49 80 53 81 50 82 52 83 51 84
REMARK H PARENT 19 5 78 18 5 20 24 33 68 52 46 63
REMARK Flexibility Score: inf
ROOT
ATOM      1  C   UNL A   1      32.222  26.356  24.582  1.00  0.00     0.116 C 
ENDROOT
BRANCH   1   2
ATOM      2  N   UNL A   1      32.900  26.849  23.404  1.00  0.00    -0.353 N 
ATOM      3  C   UNL A   1      33.326  26.155  22.316  1.00  0.00     0.258 C 
ATOM      4  O   UNL A   1      33.851  26.793  21.402  1.00  0.00    -0.271 OA
ATOM      5  H   UNL A   1      33.075  27.818  23.387  1.00  0.00     0.163 HD
BRANCH   3   6
ATOM      6  C   UNL A   1      33.079  24.643  22.227  1.00  0.00     0.331 C 
BRANCH   6   7
ATOM      7  O   UNL A   1      33.995  23.703  22.751  1.00  0.00    -0.467 OA
BRANCH   7   8
ATOM      8  C   UNL A   1      33.757  23.006  23.892  1.00  0.00     0.222 A 
ATOM      9  C   UNL A   1      34.152  22.469  27.600  1.00  0.00     0.067 C 
ATOM     10  C   UNL A   1      33.795  22.382  26.145  1.00  0.00     0.050 A 
ATOM     11  N   UNL A   1      33.058  21.296  25.855  1.00  0.00    -0.218 NA
ATOM     12  C   UNL A   1      34.258  23.259  25.166  1.00  0.00     0.038 A 
ATOM     13  C   UNL A   1      32.774  21.031  24.580  1.00  0.00     0.230 A 
ATOM     14  N   UNL A   1      33.066  21.880  23.594  1.00  0.00    -0.177 NA
BRANCH  12  15
ATOM     15  C   UNL A   1      35.310  24.286  25.498  1.00  0.00     0.071 C 
BRANCH  15  16
ATOM     16  C   UNL A   1      36.751  23.800  25.302  1.00  0.00     0.161 C 
BRANCH  16  17
ATOM     17  O   UNL A   1      37.346  23.316  26.497  1.00  0.00    -0.396 OA
ATOM     18  H   UNL A   1      38.264  23.626  26.550  1.00  0.00     0.210 HD
ENDBRANCH  16  17
ENDBRANCH  15  16
ENDBRANCH  12  15
BRANCH  13  19
ATOM     19  N   UNL A   1      32.288  19.766  24.239  1.00  0.00    -0.324 N 
ATOM     20  H   UNL A   1      31.434  19.745  23.751  1.00  0.00     0.170 HD
BRANCH  19  21
ATOM     21  C   UNL A   1      32.878  18.524  24.511  1.00  0.00     0.041 A 
ATOM     22  C   UNL A   1      33.689  17.882  23.561  1.00  0.00     0.029 A 
ATOM     23  C   UNL A   1      32.551  17.827  25.684  1.00  0.00     0.029 A 
ATOM     24  C   UNL A   1      34.174  16.590  23.777  1.00  0.00     0.041 A 
ATOM     25  C   UNL A   1      33.017  16.524  25.895  1.00  0.00     0.041 A 
ATOM     26  C   UNL A   1      33.824  15.919  24.939  1.00  0.00     0.123 A 
ATOM     27  F   UNL A   1      34.257  14.666  25.134  1.00  0.00    -0.207 F 
ENDBRANCH  19  21
ENDBRANCH  13  19
ENDBRANCH   7   8
ENDBRANCH   6   7
ENDBRANCH   3   6
ENDBRANCH   1   2
BRANCH   1  28
ATOM     28  C   UNL A   1      31.845  27.486  25.533  1.00  0.00     0.023 C 
BRANCH  28  29
ATOM     29  C   UNL A   1      32.896  27.827  26.592  1.00  0.00     0.023 C 
BRANCH  29  30
ATOM     30  C   UNL A   1      33.886  28.926  26.221  1.00  0.00     0.116 C 
BRANCH  30  31
ATOM     31  N   UNL A   1      33.691  30.157  26.968  1.00  0.00    -0.352 N 
ATOM     32  C   UNL A   1      34.521  30.744  27.891  1.00  0.00     0.251 C 
ATOM     33  H   UNL A   1      32.850  30.635  26.786  1.00  0.00     0.163 HD
ATOM     34  O   UNL A   1      34.163  31.752  28.494  1.00  0.00    -0.269 OA
BRANCH  32  35
ATOM     35  C   UNL A   1      35.829  30.130  28.191  1.00  0.00     0.039 A 
ATOM     36  C   UNL A   1      36.838  30.206  27.227  1.00  0.00     0.014 A 
ATOM     37  C   UNL A   1      36.071  29.516  29.423  1.00  0.00     0.014 A 
ATOM     38  C   UNL A   1      38.113  29.726  27.526  1.00  0.00     0.010 A 
ATOM     39  C   UNL A   1      37.361  29.103  29.744  1.00  0.00     0.010 A 
ATOM     40  C   UNL A   1      38.394  29.205  28.800  1.00  0.00    -0.014 A 
BRANCH  40  41
ATOM     41  C   UNL A   1      39.766  28.765  29.160  1.00  0.00     0.031 A 
ATOM     42  C   UNL A   1      40.676  29.681  29.929  1.00  0.00     0.074 A 
ATOM     43  C   UNL A   1      40.210  27.562  28.747  1.00  0.00     0.049 A 
ATOM     44  N   UNL A   1      41.917  29.492  30.297  1.00  0.00    -0.248 NA
ATOM     45  C   UNL A   1      40.127  30.992  30.312  1.00  0.00     0.031 C 
ATOM     46  C   UNL A   1      39.439  26.596  27.962  1.00  0.00     0.029 A 
ATOM     47  N   UNL A   1      41.424  26.948  28.931  1.00  0.00    -0.354 N 
ATOM     48  C   UNL A   1      42.301  30.662  30.941  1.00  0.00     0.074 A 
ATOM     49  C   UNL A   1      41.180  31.573  30.866  1.00  0.00     0.031 C 
ATOM     50  C   UNL A   1      40.188  25.499  27.758  1.00  0.00     0.029 A 
ATOM     51  C   UNL A   1      41.501  25.701  28.361  1.00  0.00     0.049 A 
ATOM     52  H   UNL A   1      42.168  27.363  29.423  1.00  0.00     0.167 HD
ATOM     53  C   UNL A   1      43.473  30.945  31.558  1.00  0.00     0.031 A 
ATOM     54  C   UNL A   1      42.517  24.818  28.326  1.00  0.00     0.031 A 
ATOM     55  C   UNL A   1      44.585  30.037  31.640  1.00  0.00     0.049 A 
ATOM     56  C   UNL A   1      43.814  25.163  29.002  1.00  0.00     0.074 A 
ATOM     57  C   UNL A   1      45.795  30.211  32.288  1.00  0.00     0.029 A 
ATOM     58  N   UNL A   1      44.622  28.781  31.051  1.00  0.00    -0.354 N 
ATOM     59  N   UNL A   1      44.137  26.247  29.665  1.00  0.00    -0.248 NA
ATOM     60  C   UNL A   1      44.883  24.157  28.934  1.00  0.00     0.031 C 
ATOM     61  C   UNL A   1      46.585  29.081  32.048  1.00  0.00     0.029 A 
ATOM     62  C   UNL A   1      45.844  28.181  31.301  1.00  0.00     0.049 A 
ATOM     63  H   UNL A   1      43.889  28.379  30.532  1.00  0.00     0.167 HD
ATOM     64  C   UNL A   1      45.434  26.041  30.118  1.00  0.00     0.074 A 
ATOM     65  C   UNL A   1      45.831  24.723  29.667  1.00  0.00     0.031 C 
ATOM     66  C   UNL A   1      46.224  26.868  30.845  1.00  0.00     0.031 A 
BRANCH  53  67
ATOM     67  C   UNL A   1      43.609  32.304  32.187  1.00  0.00    -0.014 A 
ATOM     68  C   UNL A   1      43.250  32.525  33.526  1.00  0.00     0.009 A 
ATOM     69  C   UNL A   1      44.130  33.371  31.439  1.00  0.00     0.009 A 
ATOM     70  C   UNL A   1      43.371  33.797  34.091  1.00  0.00     0.001 A 
ATOM     71  C   UNL A   1      44.279  34.635  32.015  1.00  0.00     0.001 A 
ATOM     72  C   UNL A   1      43.890  34.848  33.337  1.00  0.00     0.000 A 
ENDBRANCH  53  67
BRANCH  54  73
ATOM     73  C   UNL A   1      42.345  23.510  27.639  1.00  0.00    -0.014 A 
ATOM     74  C   UNL A   1      42.725  23.357  26.297  1.00  0.00     0.009 A 
ATOM     75  C   UNL A   1      41.793  22.412  28.317  1.00  0.00     0.009 A 
ATOM     76  C   UNL A   1      42.530  22.139  25.640  1.00  0.00     0.001 A 
ATOM     77  C   UNL A   1      41.625  21.188  27.666  1.00  0.00     0.001 A 
ATOM     78  C   UNL A   1      41.985  21.055  26.326  1.00  0.00     0.000 A 
ENDBRANCH  54  73
BRANCH  66  79
ATOM     79  C   UNL A   1      47.585  26.357  31.227  1.00  0.00    -0.014 A 
ATOM     80  C   UNL A   1      47.800  25.692  32.444  1.00  0.00     0.009 A 
ATOM     81  C   UNL A   1      48.658  26.512  30.335  1.00  0.00     0.009 A 
ATOM     82  C   UNL A   1      49.074  25.223  32.774  1.00  0.00     0.001 A 
ATOM     83  C   UNL A   1      49.922  26.014  30.654  1.00  0.00     0.001 A 
ATOM     84  C   UNL A   1      50.130  25.379  31.878  1.00  0.00     0.000 A 
ENDBRANCH  66  79
ENDBRANCH  40  41
ENDBRANCH  32  35
ENDBRANCH  30  31
ENDBRANCH  29  30
ENDBRANCH  28  29
ENDBRANCH   1  28
TORSDOF 18
ENDMDL
