MODEL 1
REMARK VINA RESULT:     -12.7      0.000      0.000
REMARK SMILES O=C(NCCCCNC(=O)[C@H]1Cc2c([nH]c3ccccc23)[C@H](c2c[nH]c3ccccc23)[NH2+]1)c1ccc(-c2c3nc(c(-c4ccccc4)c4ccc([nH]4)c(-c4ccccc4)c4nc(c(-c5ccccc5)c5ccc2[nH]5)C=C4)C=C3)cc1
REMARK SMILES IDX 5 1 4 2 3 3 1 4 2 5 33 7 34 8 80 9 35 10 79 11 36 12 37 13
REMARK SMILES IDX 38 14 73 15 39 16 78 17 72 18 74 19 40 20 77 21 71 22 70 23
REMARK SMILES IDX 41 25 63 26 48 27 62 28 49 29 52 30 61 31 75 32 50 33 51 34
REMARK SMILES IDX 60 36 76 37 53 38 42 39 43 40 47 41 44 42 46 43 45 44 64 45
REMARK SMILES IDX 65 46 69 47 66 48 68 49 67 50 54 51 55 52 59 53 56 54 58 55
REMARK SMILES IDX 57 56 6 57 7 58 8 59 9 60 10 62 11 63 12 64 32 65 13 66
REMARK SMILES IDX 22 67 14 70 21 71 15 72 16 73 20 74 17 76 19 77 18 78 23 79
REMARK SMILES IDX 24 80 31 81 25 82 26 83 30 84 27 86 29 87 28 88
REMARK H PARENT 3 6 74 24 52 35 8 61 32 68 32 69 15 75 25 85
REMARK Flexibility Score: inf
ROOT
ATOM      1  C   UNL A   1      33.543  32.233  28.000  1.00  0.00     0.023 C 
ENDROOT
BRANCH   1   2
ATOM      2  C   UNL A   1      33.788  33.729  27.888  1.00  0.00     0.116 C 
BRANCH   2   3
ATOM      3  N   UNL A   1      33.262  34.474  29.020  1.00  0.00    -0.352 N 
ATOM      4  O   UNL A   1      33.082  35.066  31.192  1.00  0.00    -0.269 OA
ATOM      5  C   UNL A   1      33.706  34.480  30.319  1.00  0.00     0.251 C 
ATOM      6  H   UNL A   1      32.486  35.050  28.830  1.00  0.00     0.163 HD
BRANCH   5   7
ATOM      7  C   UNL A   1      34.937  33.737  30.654  1.00  0.00     0.039 A 
ATOM      8  C   UNL A   1      36.168  34.122  30.117  1.00  0.00     0.014 A 
ATOM      9  C   UNL A   1      34.843  32.635  31.507  1.00  0.00     0.014 A 
ATOM     10  C   UNL A   1      37.294  33.339  30.347  1.00  0.00     0.010 A 
ATOM     11  C   UNL A   1      35.987  31.890  31.790  1.00  0.00     0.010 A 
ATOM     12  C   UNL A   1      37.214  32.225  31.196  1.00  0.00    -0.014 A 
BRANCH  12  13
ATOM     13  C   UNL A   1      38.434  31.454  31.518  1.00  0.00     0.031 A 
ATOM     14  C   UNL A   1      39.337  31.873  32.640  1.00  0.00     0.074 A 
ATOM     15  C   UNL A   1      38.739  30.386  30.758  1.00  0.00     0.049 A 
ATOM     16  N   UNL A   1      40.480  31.355  33.010  1.00  0.00    -0.248 NA
ATOM     17  C   UNL A   1      38.907  33.028  33.442  1.00  0.00     0.031 C 
ATOM     18  C   UNL A   1      37.936  29.894  29.636  1.00  0.00     0.029 A 
ATOM     19  N   UNL A   1      39.807  29.532  30.807  1.00  0.00    -0.354 N 
ATOM     20  C   UNL A   1      40.921  32.135  34.072  1.00  0.00     0.074 A 
ATOM     21  C   UNL A   1      39.930  33.170  34.276  1.00  0.00     0.031 C 
ATOM     22  C   UNL A   1      38.537  28.819  29.107  1.00  0.00     0.029 A 
ATOM     23  C   UNL A   1      39.789  28.583  29.815  1.00  0.00     0.049 A 
ATOM     24  H   UNL A   1      40.517  29.591  31.486  1.00  0.00     0.167 HD
ATOM     25  C   UNL A   1      42.050  31.997  34.805  1.00  0.00     0.031 A 
ATOM     26  C   UNL A   1      40.697  27.648  29.484  1.00  0.00     0.031 A 
ATOM     27  C   UNL A   1      43.032  30.966  34.592  1.00  0.00     0.049 A 
ATOM     28  C   UNL A   1      41.955  27.535  30.290  1.00  0.00     0.074 A 
ATOM     29  C   UNL A   1      44.186  30.711  35.312  1.00  0.00     0.029 A 
ATOM     30  N   UNL A   1      42.981  30.026  33.573  1.00  0.00    -0.354 N 
ATOM     31  N   UNL A   1      42.338  28.249  31.320  1.00  0.00    -0.248 NA
ATOM     32  C   UNL A   1      42.906  26.490  29.889  1.00  0.00     0.031 C 
ATOM     33  C   UNL A   1      44.859  29.649  34.698  1.00  0.00     0.029 A 
ATOM     34  C   UNL A   1      44.098  29.209  33.626  1.00  0.00     0.049 A 
ATOM     35  H   UNL A   1      42.256  29.951  32.911  1.00  0.00     0.167 HD
ATOM     36  C   UNL A   1      43.566  27.732  31.703  1.00  0.00     0.074 A 
ATOM     37  C   UNL A   1      43.859  26.635  30.801  1.00  0.00     0.031 C 
ATOM     38  C   UNL A   1      44.376  28.130  32.714  1.00  0.00     0.031 A 
BRANCH  25  39
ATOM     39  C   UNL A   1      42.304  33.015  35.881  1.00  0.00    -0.014 A 
ATOM     40  C   UNL A   1      43.010  34.199  35.619  1.00  0.00     0.009 A 
ATOM     41  C   UNL A   1      41.807  32.794  37.176  1.00  0.00     0.009 A 
ATOM     42  C   UNL A   1      43.246  35.123  36.642  1.00  0.00     0.001 A 
ATOM     43  C   UNL A   1      42.023  33.730  38.188  1.00  0.00     0.001 A 
ATOM     44  C   UNL A   1      42.751  34.889  37.923  1.00  0.00     0.000 A 
ENDBRANCH  25  39
BRANCH  26  45
ATOM     45  C   UNL A   1      40.438  26.773  28.315  1.00  0.00    -0.014 A 
ATOM     46  C   UNL A   1      41.010  27.057  27.068  1.00  0.00     0.009 A 
ATOM     47  C   UNL A   1      39.670  25.606  28.463  1.00  0.00     0.009 A 
ATOM     48  C   UNL A   1      40.814  26.191  25.989  1.00  0.00     0.001 A 
ATOM     49  C   UNL A   1      39.497  24.730  27.391  1.00  0.00     0.001 A 
ATOM     50  C   UNL A   1      40.065  25.026  26.154  1.00  0.00     0.000 A 
ENDBRANCH  26  45
BRANCH  38  51
ATOM     51  C   UNL A   1      45.649  27.359  32.912  1.00  0.00    -0.014 A 
ATOM     52  C   UNL A   1      45.679  26.203  33.707  1.00  0.00     0.009 A 
ATOM     53  C   UNL A   1      46.818  27.765  32.250  1.00  0.00     0.009 A 
ATOM     54  C   UNL A   1      46.864  25.479  33.850  1.00  0.00     0.001 A 
ATOM     55  C   UNL A   1      47.994  27.026  32.377  1.00  0.00     0.001 A 
ATOM     56  C   UNL A   1      48.018  25.888  33.181  1.00  0.00     0.000 A 
ENDBRANCH  38  51
ENDBRANCH  12  13
ENDBRANCH   5   7
ENDBRANCH   2   3
ENDBRANCH   1   2
BRANCH   1  57
ATOM     57  C   UNL A   1      34.789  31.367  27.817  1.00  0.00     0.023 C 
BRANCH  57  58
ATOM     58  C   UNL A   1      34.514  29.956  27.286  1.00  0.00     0.116 C 
BRANCH  58  59
ATOM     59  N   UNL A   1      33.413  29.350  28.005  1.00  0.00    -0.351 N 
ATOM     60  C   UNL A   1      32.455  28.485  27.568  1.00  0.00     0.278 C 
ATOM     61  H   UNL A   1      33.346  29.601  28.954  1.00  0.00     0.163 HD
ATOM     62  O   UNL A   1      31.584  28.163  28.384  1.00  0.00    -0.268 OA
BRANCH  60  63
ATOM     63  C   UNL A   1      32.490  27.840  26.166  1.00  0.00     0.277 C 
ATOM     64  C   UNL A   1      33.588  26.767  25.994  1.00  0.00     0.114 C 
ATOM     65  N   UNL A   1      31.101  27.422  25.808  1.00  0.00    -0.324 N 
ATOM     66  C   UNL A   1      33.302  25.905  24.819  1.00  0.00    -0.006 A 
ATOM     67  C   UNL A   1      30.971  26.934  24.425  1.00  0.00     0.264 C 
ATOM     68  H   UNL A   1      30.483  28.225  25.925  1.00  0.00     0.347 HD
ATOM     69  H   UNL A   1      30.852  26.648  26.424  1.00  0.00     0.347 HD
ATOM     70  C   UNL A   1      32.111  25.999  24.130  1.00  0.00     0.083 A 
ATOM     71  C   UNL A   1      34.060  24.847  24.257  1.00  0.00     0.003 A 
ATOM     72  N   UNL A   1      32.134  25.053  23.140  1.00  0.00    -0.353 N 
ATOM     73  C   UNL A   1      33.314  24.339  23.192  1.00  0.00     0.046 A 
ATOM     74  C   UNL A   1      35.303  24.259  24.559  1.00  0.00     0.010 A 
ATOM     75  H   UNL A   1      31.413  24.904  22.486  1.00  0.00     0.166 HD
ATOM     76  C   UNL A   1      33.769  23.285  22.392  1.00  0.00     0.026 A 
ATOM     77  C   UNL A   1      35.766  23.196  23.776  1.00  0.00     0.001 A 
ATOM     78  C   UNL A   1      35.011  22.722  22.705  1.00  0.00     0.002 A 
BRANCH  67  79
ATOM     79  C   UNL A   1      30.814  28.024  23.373  1.00  0.00     0.041 A 
ATOM     80  C   UNL A   1      31.896  28.513  22.646  1.00  0.00     0.093 A 
ATOM     81  C   UNL A   1      29.661  28.752  22.872  1.00  0.00     0.009 A 
ATOM     82  N   UNL A   1      31.482  29.538  21.848  1.00  0.00    -0.361 N 
ATOM     83  C   UNL A   1      30.130  29.718  21.975  1.00  0.00     0.046 A 
ATOM     84  C   UNL A   1      28.261  28.720  23.083  1.00  0.00     0.011 A 
ATOM     85  H   UNL A   1      32.069  30.072  21.267  1.00  0.00     0.166 HD
ATOM     86  C   UNL A   1      29.305  30.664  21.351  1.00  0.00     0.026 A 
ATOM     87  C   UNL A   1      27.420  29.661  22.474  1.00  0.00     0.001 A 
ATOM     88  C   UNL A   1      27.939  30.629  21.628  1.00  0.00     0.002 A 
ENDBRANCH  67  79
ENDBRANCH  60  63
ENDBRANCH  58  59
ENDBRANCH  57  58
ENDBRANCH   1  57
TORSDOF 12
ENDMDL
MODEL 2
REMARK VINA RESULT:     -12.5      1.546      5.936
REMARK SMILES O=C(NCCCCNC(=O)[C@H]1Cc2c([nH]c3ccccc23)[C@H](c2c[nH]c3ccccc23)[NH2+]1)c1ccc(-c2c3nc(c(-c4ccccc4)c4ccc([nH]4)c(-c4ccccc4)c4nc(c(-c5ccccc5)c5ccc2[nH]5)C=C4)C=C3)cc1
REMARK SMILES IDX 5 1 4 2 3 3 1 4 2 5 33 7 34 8 80 9 35 10 79 11 36 12 37 13
REMARK SMILES IDX 38 14 73 15 39 16 78 17 72 18 74 19 40 20 77 21 71 22 70 23
REMARK SMILES IDX 41 25 63 26 48 27 62 28 49 29 52 30 61 31 75 32 50 33 51 34
REMARK SMILES IDX 60 36 76 37 53 38 42 39 43 40 47 41 44 42 46 43 45 44 64 45
REMARK SMILES IDX 65 46 69 47 66 48 68 49 67 50 54 51 55 52 59 53 56 54 58 55
REMARK SMILES IDX 57 56 6 57 7 58 8 59 9 60 10 62 11 63 12 64 32 65 13 66
REMARK SMILES IDX 22 67 14 70 21 71 15 72 16 73 20 74 17 76 19 77 18 78 23 79
REMARK SMILES IDX 24 80 31 81 25 82 26 83 30 84 27 86 29 87 28 88
REMARK H PARENT 3 6 74 24 52 35 8 61 32 68 32 69 15 75 25 85
REMARK Flexibility Score: inf
ROOT
ATOM      1  C   UNL A   1      31.423  32.293  26.534  1.00  0.00     0.023 C 
ENDROOT
BRANCH   1   2
ATOM      2  C   UNL A   1      32.609  32.916  27.254  1.00  0.00     0.116 C 
BRANCH   2   3
ATOM      3  N   UNL A   1      32.336  34.262  27.730  1.00  0.00    -0.352 N 
ATOM      4  O   UNL A   1      32.580  36.061  29.074  1.00  0.00    -0.269 OA
ATOM      5  C   UNL A   1      33.004  34.980  28.691  1.00  0.00     0.251 C 
ATOM      6  H   UNL A   1      31.573  34.719  27.308  1.00  0.00     0.163 HD
BRANCH   5   7
ATOM      7  C   UNL A   1      34.230  34.409  29.283  1.00  0.00     0.039 A 
ATOM      8  C   UNL A   1      35.472  34.610  28.675  1.00  0.00     0.014 A 
ATOM      9  C   UNL A   1      34.121  33.656  30.454  1.00  0.00     0.014 A 
ATOM     10  C   UNL A   1      36.596  33.965  29.179  1.00  0.00     0.010 A 
ATOM     11  C   UNL A   1      35.262  33.064  30.995  1.00  0.00     0.010 A 
ATOM     12  C   UNL A   1      36.501  33.198  30.349  1.00  0.00    -0.014 A 
BRANCH  12  13
ATOM     13  C   UNL A   1      37.718  32.597  30.938  1.00  0.00     0.031 A 
ATOM     14  C   UNL A   1      38.370  31.404  30.305  1.00  0.00     0.074 A 
ATOM     15  C   UNL A   1      38.209  33.121  32.075  1.00  0.00     0.049 A 
ATOM     16  N   UNL A   1      39.396  30.710  30.727  1.00  0.00    -0.248 NA
ATOM     17  C   UNL A   1      37.791  30.921  29.043  1.00  0.00     0.031 C 
ATOM     18  C   UNL A   1      37.648  34.276  32.781  1.00  0.00     0.029 A 
ATOM     19  N   UNL A   1      39.278  32.745  32.843  1.00  0.00    -0.354 N 
ATOM     20  C   UNL A   1      39.571  29.692  29.799  1.00  0.00     0.074 A 
ATOM     21  C   UNL A   1      38.535  29.850  28.799  1.00  0.00     0.031 C 
ATOM     22  C   UNL A   1      38.384  34.520  33.874  1.00  0.00     0.029 A 
ATOM     23  C   UNL A   1      39.429  33.507  33.974  1.00  0.00     0.049 A 
ATOM     24  H   UNL A   1      39.880  32.003  32.606  1.00  0.00     0.167 HD
ATOM     25  C   UNL A   1      40.509  28.716  29.786  1.00  0.00     0.031 A 
ATOM     26  C   UNL A   1      40.288  33.386  35.002  1.00  0.00     0.031 A 
ATOM     27  C   UNL A   1      41.532  28.565  30.787  1.00  0.00     0.049 A 
ATOM     28  C   UNL A   1      41.297  32.278  34.981  1.00  0.00     0.074 A 
ATOM     29  C   UNL A   1      42.560  27.639  30.837  1.00  0.00     0.029 A 
ATOM     30  N   UNL A   1      41.649  29.355  31.921  1.00  0.00    -0.354 N 
ATOM     31  N   UNL A   1      41.481  31.351  34.074  1.00  0.00    -0.248 NA
ATOM     32  C   UNL A   1      42.215  32.200  36.124  1.00  0.00     0.031 C 
ATOM     33  C   UNL A   1      43.267  27.837  32.029  1.00  0.00     0.029 A 
ATOM     34  C   UNL A   1      42.712  28.918  32.695  1.00  0.00     0.049 A 
ATOM     35  H   UNL A   1      41.063  30.114  32.143  1.00  0.00     0.167 HD
ATOM     36  C   UNL A   1      42.545  30.586  34.525  1.00  0.00     0.074 A 
ATOM     37  C   UNL A   1      42.975  31.166  35.783  1.00  0.00     0.031 C 
ATOM     38  C   UNL A   1      43.117  29.502  33.947  1.00  0.00     0.031 A 
BRANCH  25  39
ATOM     39  C   UNL A   1      40.444  27.709  28.672  1.00  0.00    -0.014 A 
ATOM     40  C   UNL A   1      41.112  27.918  27.455  1.00  0.00     0.009 A 
ATOM     41  C   UNL A   1      39.718  26.521  28.852  1.00  0.00     0.009 A 
ATOM     42  C   UNL A   1      41.023  26.973  26.429  1.00  0.00     0.001 A 
ATOM     43  C   UNL A   1      39.653  25.568  27.835  1.00  0.00     0.001 A 
ATOM     44  C   UNL A   1      40.296  25.799  26.620  1.00  0.00     0.000 A 
ENDBRANCH  25  39
BRANCH  26  45
ATOM     45  C   UNL A   1      40.194  34.335  36.137  1.00  0.00    -0.014 A 
ATOM     46  C   UNL A   1      40.885  35.554  36.110  1.00  0.00     0.009 A 
ATOM     47  C   UNL A   1      39.350  34.053  37.224  1.00  0.00     0.009 A 
ATOM     48  C   UNL A   1      40.737  36.471  37.153  1.00  0.00     0.001 A 
ATOM     49  C   UNL A   1      39.186  34.982  38.253  1.00  0.00     0.001 A 
ATOM     50  C   UNL A   1      39.882  36.187  38.219  1.00  0.00     0.000 A 
ENDBRANCH  26  45
BRANCH  38  51
ATOM     51  C   UNL A   1      44.285  28.885  34.660  1.00  0.00    -0.014 A 
ATOM     52  C   UNL A   1      44.105  27.831  35.569  1.00  0.00     0.009 A 
ATOM     53  C   UNL A   1      45.586  29.328  34.374  1.00  0.00     0.009 A 
ATOM     54  C   UNL A   1      45.208  27.247  36.194  1.00  0.00     0.001 A 
ATOM     55  C   UNL A   1      46.687  28.726  34.984  1.00  0.00     0.001 A 
ATOM     56  C   UNL A   1      46.496  27.690  35.898  1.00  0.00     0.000 A 
ENDBRANCH  38  51
ENDBRANCH  12  13
ENDBRANCH   5   7
ENDBRANCH   2   3
ENDBRANCH   1   2
BRANCH   1  57
ATOM     57  C   UNL A   1      31.650  30.859  26.056  1.00  0.00     0.023 C 
BRANCH  57  58
ATOM     58  C   UNL A   1      32.930  30.204  26.585  1.00  0.00     0.116 C 
BRANCH  58  59
ATOM     59  N   UNL A   1      32.621  29.279  27.655  1.00  0.00    -0.351 N 
ATOM     60  C   UNL A   1      32.113  28.016  27.598  1.00  0.00     0.278 C 
ATOM     61  H   UNL A   1      32.805  29.613  28.562  1.00  0.00     0.163 HD
ATOM     62  O   UNL A   1      31.885  27.459  28.678  1.00  0.00    -0.268 OA
BRANCH  60  63
ATOM     63  C   UNL A   1      31.922  27.252  26.270  1.00  0.00     0.277 C 
ATOM     64  C   UNL A   1      32.725  25.936  26.180  1.00  0.00     0.114 C 
ATOM     65  N   UNL A   1      30.457  27.148  25.996  1.00  0.00    -0.324 N 
ATOM     66  C   UNL A   1      32.183  25.061  25.109  1.00  0.00    -0.006 A 
ATOM     67  C   UNL A   1      30.144  26.578  24.676  1.00  0.00     0.264 C 
ATOM     68  H   UNL A   1      30.052  28.083  26.047  1.00  0.00     0.347 HD
ATOM     69  H   UNL A   1      30.065  26.518  26.696  1.00  0.00     0.347 HD
ATOM     70  C   UNL A   1      31.014  25.373  24.447  1.00  0.00     0.083 A 
ATOM     71  C   UNL A   1      32.640  23.804  24.639  1.00  0.00     0.003 A 
ATOM     72  N   UNL A   1      30.762  24.360  23.560  1.00  0.00    -0.353 N 
ATOM     73  C   UNL A   1      31.741  23.393  23.653  1.00  0.00     0.046 A 
ATOM     74  C   UNL A   1      33.723  22.966  24.965  1.00  0.00     0.010 A 
ATOM     75  H   UNL A   1      29.994  24.327  22.946  1.00  0.00     0.166 HD
ATOM     76  C   UNL A   1      31.892  22.189  22.955  1.00  0.00     0.026 A 
ATOM     77  C   UNL A   1      33.881  21.754  24.285  1.00  0.00     0.001 A 
ATOM     78  C   UNL A   1      32.981  21.377  23.289  1.00  0.00     0.002 A 
BRANCH  67  79
ATOM     79  C   UNL A   1      30.195  27.569  23.521  1.00  0.00     0.041 A 
ATOM     80  C   UNL A   1      31.274  27.631  22.644  1.00  0.00     0.093 A 
ATOM     81  C   UNL A   1      29.262  28.578  23.046  1.00  0.00     0.009 A 
ATOM     82  N   UNL A   1      31.094  28.664  21.773  1.00  0.00    -0.361 N 
ATOM     83  C   UNL A   1      29.887  29.269  22.001  1.00  0.00     0.046 A 
ATOM     84  C   UNL A   1      27.956  29.004  23.388  1.00  0.00     0.011 A 
ATOM     85  H   UNL A   1      31.738  28.936  21.081  1.00  0.00     0.166 HD
ATOM     86  C   UNL A   1      29.315  30.371  21.349  1.00  0.00     0.026 A 
ATOM     87  C   UNL A   1      27.371  30.107  22.752  1.00  0.00     0.001 A 
ATOM     88  C   UNL A   1      28.048  30.789  21.753  1.00  0.00     0.002 A 
ENDBRANCH  67  79
ENDBRANCH  60  63
ENDBRANCH  58  59
ENDBRANCH  57  58
ENDBRANCH   1  57
TORSDOF 12
ENDMDL
MODEL 3
REMARK VINA RESULT:     -12.4      1.587      2.286
REMARK SMILES O=C(NCCCCNC(=O)[C@H]1Cc2c([nH]c3ccccc23)[C@H](c2c[nH]c3ccccc23)[NH2+]1)c1ccc(-c2c3nc(c(-c4ccccc4)c4ccc([nH]4)c(-c4ccccc4)c4nc(c(-c5ccccc5)c5ccc2[nH]5)C=C4)C=C3)cc1
REMARK SMILES IDX 5 1 4 2 3 3 1 4 2 5 33 7 34 8 80 9 35 10 79 11 36 12 37 13
REMARK SMILES IDX 38 14 73 15 39 16 78 17 72 18 74 19 40 20 77 21 71 22 70 23
REMARK SMILES IDX 41 25 63 26 48 27 62 28 49 29 52 30 61 31 75 32 50 33 51 34
REMARK SMILES IDX 60 36 76 37 53 38 42 39 43 40 47 41 44 42 46 43 45 44 64 45
REMARK SMILES IDX 65 46 69 47 66 48 68 49 67 50 54 51 55 52 59 53 56 54 58 55
REMARK SMILES IDX 57 56 6 57 7 58 8 59 9 60 10 62 11 63 12 64 32 65 13 66
REMARK SMILES IDX 22 67 14 70 21 71 15 72 16 73 20 74 17 76 19 77 18 78 23 79
REMARK SMILES IDX 24 80 31 81 25 82 26 83 30 84 27 86 29 87 28 88
REMARK H PARENT 3 6 74 24 52 35 8 61 32 68 32 69 15 75 25 85
REMARK Flexibility Score: inf
ROOT
ATOM      1  C   UNL A   1      31.696  32.999  26.703  1.00  0.00     0.023 C 
ENDROOT
BRANCH   1   2
ATOM      2  C   UNL A   1      32.897  33.489  27.497  1.00  0.00     0.116 C 
BRANCH   2   3
ATOM      3  N   UNL A   1      32.689  34.804  28.081  1.00  0.00    -0.352 N 
ATOM      4  O   UNL A   1      32.902  36.421  29.643  1.00  0.00    -0.269 OA
ATOM      5  C   UNL A   1      33.270  35.342  29.203  1.00  0.00     0.251 C 
ATOM      6  H   UNL A   1      32.048  35.385  27.611  1.00  0.00     0.163 HD
BRANCH   5   7
ATOM      7  C   UNL A   1      34.329  34.578  29.892  1.00  0.00     0.039 A 
ATOM      8  C   UNL A   1      34.049  33.877  31.068  1.00  0.00     0.014 A 
ATOM      9  C   UNL A   1      35.617  34.582  29.353  1.00  0.00     0.014 A 
ATOM     10  C   UNL A   1      35.084  33.266  31.767  1.00  0.00     0.010 A 
ATOM     11  C   UNL A   1      36.641  33.912  30.021  1.00  0.00     0.010 A 
ATOM     12  C   UNL A   1      36.384  33.268  31.241  1.00  0.00    -0.014 A 
BRANCH  12  13
ATOM     13  C   UNL A   1      37.462  32.530  31.937  1.00  0.00     0.031 A 
ATOM     14  C   UNL A   1      37.979  32.995  33.266  1.00  0.00     0.074 A 
ATOM     15  C   UNL A   1      37.995  31.452  31.335  1.00  0.00     0.049 A 
ATOM     16  N   UNL A   1      38.964  32.510  33.977  1.00  0.00    -0.248 NA
ATOM     17  C   UNL A   1      37.312  34.158  33.869  1.00  0.00     0.031 C 
ATOM     18  C   UNL A   1      37.574  30.917  30.038  1.00  0.00     0.029 A 
ATOM     19  N   UNL A   1      39.011  30.622  31.726  1.00  0.00    -0.354 N 
ATOM     20  C   UNL A   1      39.055  33.323  35.099  1.00  0.00     0.074 A 
ATOM     21  C   UNL A   1      38.035  34.342  34.967  1.00  0.00     0.031 C 
ATOM     22  C   UNL A   1      38.320  29.843  29.745  1.00  0.00     0.029 A 
ATOM     23  C   UNL A   1      39.305  29.651  30.802  1.00  0.00     0.049 A 
ATOM     24  H   UNL A   1      39.483  30.712  32.586  1.00  0.00     0.167 HD
ATOM     25  C   UNL A   1      39.914  33.227  36.142  1.00  0.00     0.031 A 
ATOM     26  C   UNL A   1      40.283  28.727  30.786  1.00  0.00     0.031 A 
ATOM     27  C   UNL A   1      40.928  32.213  36.263  1.00  0.00     0.049 A 
ATOM     28  C   UNL A   1      41.242  28.661  31.936  1.00  0.00     0.074 A 
ATOM     29  C   UNL A   1      41.815  31.999  37.304  1.00  0.00     0.029 A 
ATOM     30  N   UNL A   1      41.198  31.248  35.303  1.00  0.00    -0.354 N 
ATOM     31  N   UNL A   1      41.287  29.406  33.013  1.00  0.00    -0.248 NA
ATOM     32  C   UNL A   1      42.283  27.627  31.869  1.00  0.00     0.031 C 
ATOM     33  C   UNL A   1      42.656  30.938  36.950  1.00  0.00     0.029 A 
ATOM     34  C   UNL A   1      42.259  30.457  35.712  1.00  0.00     0.049 A 
ATOM     35  H   UNL A   1      40.708  31.142  34.456  1.00  0.00     0.167 HD
ATOM     36  C   UNL A   1      42.350  28.924  33.761  1.00  0.00     0.074 A 
ATOM     37  C   UNL A   1      42.915  27.814  33.021  1.00  0.00     0.031 C 
ATOM     38  C   UNL A   1      42.813  29.363  34.957  1.00  0.00     0.031 A 
BRANCH  25  39
ATOM     39  C   UNL A   1      39.818  34.275  37.215  1.00  0.00    -0.014 A 
ATOM     40  C   UNL A   1      40.497  35.499  37.108  1.00  0.00     0.009 A 
ATOM     41  C   UNL A   1      39.016  34.040  38.343  1.00  0.00     0.009 A 
ATOM     42  C   UNL A   1      40.403  36.450  38.128  1.00  0.00     0.001 A 
ATOM     43  C   UNL A   1      38.904  35.003  39.348  1.00  0.00     0.001 A 
ATOM     44  C   UNL A   1      39.606  36.203  39.244  1.00  0.00     0.000 A 
ENDBRANCH  25  39
BRANCH  26  45
ATOM     45  C   UNL A   1      40.400  27.821  29.619  1.00  0.00    -0.014 A 
ATOM     46  C   UNL A   1      39.581  26.689  29.506  1.00  0.00     0.009 A 
ATOM     47  C   UNL A   1      41.287  28.127  28.573  1.00  0.00     0.009 A 
ATOM     48  C   UNL A   1      39.651  25.879  28.371  1.00  0.00     0.001 A 
ATOM     49  C   UNL A   1      41.337  27.329  27.430  1.00  0.00     0.001 A 
ATOM     50  C   UNL A   1      40.523  26.204  27.332  1.00  0.00     0.000 A 
ENDBRANCH  26  45
BRANCH  38  51
ATOM     51  C   UNL A   1      43.977  28.624  35.550  1.00  0.00    -0.014 A 
ATOM     52  C   UNL A   1      45.295  29.052  35.328  1.00  0.00     0.009 A 
ATOM     53  C   UNL A   1      43.747  27.521  36.387  1.00  0.00     0.009 A 
ATOM     54  C   UNL A   1      46.363  28.372  35.918  1.00  0.00     0.001 A 
ATOM     55  C   UNL A   1      44.815  26.859  36.993  1.00  0.00     0.001 A 
ATOM     56  C   UNL A   1      46.122  27.282  36.753  1.00  0.00     0.000 A 
ENDBRANCH  38  51
ENDBRANCH  12  13
ENDBRANCH   5   7
ENDBRANCH   2   3
ENDBRANCH   1   2
BRANCH   1  57
ATOM     57  C   UNL A   1      31.639  31.485  26.503  1.00  0.00     0.023 C 
BRANCH  57  58
ATOM     58  C   UNL A   1      32.875  30.728  26.999  1.00  0.00     0.116 C 
BRANCH  58  59
ATOM     59  N   UNL A   1      32.489  29.662  27.899  1.00  0.00    -0.351 N 
ATOM     60  C   UNL A   1      32.121  28.379  27.627  1.00  0.00     0.278 C 
ATOM     61  H   UNL A   1      32.492  29.901  28.854  1.00  0.00     0.163 HD
ATOM     62  O   UNL A   1      31.777  27.683  28.589  1.00  0.00    -0.268 OA
BRANCH  60  63
ATOM     63  C   UNL A   1      32.220  27.764  26.214  1.00  0.00     0.277 C 
ATOM     64  C   UNL A   1      33.347  26.719  26.060  1.00  0.00     0.114 C 
ATOM     65  N   UNL A   1      30.854  27.325  25.797  1.00  0.00    -0.324 N 
ATOM     66  C   UNL A   1      33.122  25.877  24.858  1.00  0.00    -0.006 A 
ATOM     67  C   UNL A   1      30.784  26.863  24.401  1.00  0.00     0.264 C 
ATOM     68  H   UNL A   1      30.214  28.111  25.909  1.00  0.00     0.347 HD
ATOM     69  H   UNL A   1      30.601  26.532  26.388  1.00  0.00     0.347 HD
ATOM     70  C   UNL A   1      31.954  25.960  24.128  1.00  0.00     0.083 A 
ATOM     71  C   UNL A   1      33.923  24.847  24.302  1.00  0.00     0.003 A 
ATOM     72  N   UNL A   1      32.034  25.035  23.120  1.00  0.00    -0.353 N 
ATOM     73  C   UNL A   1      33.227  24.346  23.200  1.00  0.00     0.046 A 
ATOM     74  C   UNL A   1      35.167  24.279  24.636  1.00  0.00     0.010 A 
ATOM     75  H   UNL A   1      31.340  24.884  22.439  1.00  0.00     0.166 HD
ATOM     76  C   UNL A   1      33.733  23.319  22.396  1.00  0.00     0.026 A 
ATOM     77  C   UNL A   1      35.681  23.244  23.850  1.00  0.00     0.001 A 
ATOM     78  C   UNL A   1      34.976  22.777  22.742  1.00  0.00     0.002 A 
BRANCH  67  79
ATOM     79  C   UNL A   1      30.641  27.972  23.367  1.00  0.00     0.041 A 
ATOM     80  C   UNL A   1      31.724  28.442  22.629  1.00  0.00     0.093 A 
ATOM     81  C   UNL A   1      29.500  28.736  22.894  1.00  0.00     0.009 A 
ATOM     82  N   UNL A   1      31.326  29.489  21.853  1.00  0.00    -0.361 N 
ATOM     83  C   UNL A   1      29.981  29.702  22.002  1.00  0.00     0.046 A 
ATOM     84  C   UNL A   1      28.103  28.738  23.125  1.00  0.00     0.011 A 
ATOM     85  H   UNL A   1      31.918  30.016  21.270  1.00  0.00     0.166 HD
ATOM     86  C   UNL A   1      29.172  30.679  21.404  1.00  0.00     0.026 A 
ATOM     87  C   UNL A   1      27.279  29.710  22.542  1.00  0.00     0.001 A 
ATOM     88  C   UNL A   1      27.810  30.676  21.701  1.00  0.00     0.002 A 
ENDBRANCH  67  79
ENDBRANCH  60  63
ENDBRANCH  58  59
ENDBRANCH  57  58
ENDBRANCH   1  57
TORSDOF 12
ENDMDL
