MODEL 1
REMARK VINA RESULT:     -11.1      0.000      0.000
REMARK SMILES O=C(CN1C(=O)N[C@](c2cccs2)(C2CC2)C1=O)NCCCCNC(=O)c1ccc(-c2c3nc(c(-c4ccccc4)c4ccc([nH]4)c(-c4ccccc4)c4nc(c(-c5ccccc5)c5ccc2[nH]5)C=C4)C=C3)cc1
REMARK SMILES IDX 21 1 20 2 19 3 1 4 2 5 3 7 4 8 5 9 17 10 6 11 7 12 8 13
REMARK SMILES IDX 18 14 14 16 15 17 16 18 9 19 10 20 13 21 11 22 12 23 22 24
REMARK SMILES IDX 23 25 24 26 25 27 26 29 27 30 28 31 74 32 29 33 73 34 30 35
REMARK SMILES IDX 31 36 32 37 67 38 33 39 72 40 66 41 68 42 34 43 71 44 65 45
REMARK SMILES IDX 64 46 35 48 57 49 42 50 56 51 43 52 46 53 55 54 69 55 44 56
REMARK SMILES IDX 45 57 54 59 70 60 47 61 36 62 37 63 41 64 38 65 40 66 39 67
REMARK SMILES IDX 58 68 59 69 63 70 60 71 62 72 61 73 48 74 49 75 53 76 50 77
REMARK SMILES IDX 52 78 51 79
REMARK H PARENT 19 6 7 15 24 28 68 47 46 58
REMARK Flexibility Score: inf
ROOT
ATOM      1  C   UNL A   1      36.407  21.043  24.699  1.00  0.00     0.023 C 
ENDROOT
BRANCH   1   2
ATOM      2  C   UNL A   1      35.520  21.330  25.912  1.00  0.00     0.116 C 
BRANCH   2   3
ATOM      3  N   UNL A   1      34.143  21.545  25.525  1.00  0.00    -0.355 N 
ATOM      4  O   UNL A   1      33.371  22.395  27.517  1.00  0.00    -0.273 OA
ATOM      5  C   UNL A   1      33.165  22.042  26.361  1.00  0.00     0.240 C 
ATOM      6  H   UNL A   1      33.887  21.322  24.602  1.00  0.00     0.163 HD
BRANCH   5   7
ATOM      7  C   UNL A   1      31.781  22.102  25.708  1.00  0.00     0.230 C 
BRANCH   7   8
ATOM      8  N   UNL A   1      31.249  23.450  25.711  1.00  0.00    -0.252 N 
ATOM      9  C   UNL A   1      30.263  23.884  26.539  1.00  0.00     0.325 C 
ATOM     10  C   UNL A   1      31.528  24.408  24.773  1.00  0.00     0.262 C 
ATOM     11  O   UNL A   1      29.706  23.252  27.424  1.00  0.00    -0.248 OA
ATOM     12  N   UNL A   1      29.927  25.170  26.197  1.00  0.00    -0.318 N 
ATOM     13  C   UNL A   1      30.715  25.698  25.104  1.00  0.00     0.158 C 
ATOM     14  O   UNL A   1      32.287  24.258  23.817  1.00  0.00    -0.271 OA
ATOM     15  H   UNL A   1      29.220  25.682  26.652  1.00  0.00     0.166 HD
BRANCH  13  16
ATOM     16  C   UNL A   1      29.768  25.960  23.948  1.00  0.00     0.030 C 
ATOM     17  C   UNL A   1      28.402  26.595  24.059  1.00  0.00     0.007 C 
ATOM     18  C   UNL A   1      29.511  27.313  23.329  1.00  0.00     0.007 C 
ENDBRANCH  13  16
BRANCH  13  19
ATOM     19  C   UNL A   1      31.682  26.707  25.733  1.00  0.00     0.040 A 
ATOM     20  C   UNL A   1      31.508  27.394  26.935  1.00  0.00     0.018 A 
ATOM     21  S   UNL A   1      33.147  27.220  24.999  1.00  0.00    -0.146 S 
ATOM     22  C   UNL A   1      32.567  28.295  27.240  1.00  0.00     0.012 A 
ATOM     23  C   UNL A   1      33.533  28.290  26.266  1.00  0.00     0.065 A 
ENDBRANCH  13  19
ENDBRANCH   7   8
ENDBRANCH   5   7
ENDBRANCH   2   3
ENDBRANCH   1   2
BRANCH   1  24
ATOM     24  C   UNL A   1      37.514  20.005  24.923  1.00  0.00     0.023 C 
BRANCH  24  25
ATOM     25  C   UNL A   1      38.749  20.507  25.666  1.00  0.00     0.116 C 
BRANCH  25  26
ATOM     26  N   UNL A   1      39.808  19.512  25.731  1.00  0.00    -0.352 N 
ATOM     27  C   UNL A   1      41.127  19.647  26.093  1.00  0.00     0.251 C 
ATOM     28  H   UNL A   1      39.537  18.601  25.476  1.00  0.00     0.163 HD
ATOM     29  O   UNL A   1      41.900  18.706  25.935  1.00  0.00    -0.269 OA
BRANCH  27  30
ATOM     30  C   UNL A   1      41.636  20.924  26.643  1.00  0.00     0.039 A 
ATOM     31  C   UNL A   1      42.126  21.889  25.756  1.00  0.00     0.014 A 
ATOM     32  C   UNL A   1      41.658  21.171  28.018  1.00  0.00     0.014 A 
ATOM     33  C   UNL A   1      42.567  23.124  26.241  1.00  0.00     0.010 A 
ATOM     34  C   UNL A   1      42.027  22.430  28.493  1.00  0.00     0.010 A 
ATOM     35  C   UNL A   1      42.483  23.422  27.611  1.00  0.00    -0.014 A 
BRANCH  35  36
ATOM     36  C   UNL A   1      42.850  24.765  28.132  1.00  0.00     0.031 A 
ATOM     37  C   UNL A   1      41.799  25.823  28.335  1.00  0.00     0.074 A 
ATOM     38  C   UNL A   1      44.145  25.057  28.367  1.00  0.00     0.049 A 
ATOM     39  N   UNL A   1      41.942  27.065  28.726  1.00  0.00    -0.248 NA
ATOM     40  C   UNL A   1      40.409  25.442  28.037  1.00  0.00     0.031 C 
ATOM     41  C   UNL A   1      45.269  24.136  28.181  1.00  0.00     0.029 A 
ATOM     42  N   UNL A   1      44.736  26.215  28.808  1.00  0.00    -0.354 N 
ATOM     43  C   UNL A   1      40.667  27.616  28.708  1.00  0.00     0.074 A 
ATOM     44  C   UNL A   1      39.771  26.589  28.218  1.00  0.00     0.031 C 
ATOM     45  C   UNL A   1      46.407  24.756  28.531  1.00  0.00     0.029 A 
ATOM     46  C   UNL A   1      46.103  26.130  28.920  1.00  0.00     0.049 A 
ATOM     47  H   UNL A   1      44.228  27.031  29.024  1.00  0.00     0.167 HD
ATOM     48  C   UNL A   1      40.271  28.856  29.083  1.00  0.00     0.031 A 
ATOM     49  C   UNL A   1      47.013  27.052  29.284  1.00  0.00     0.031 A 
ATOM     50  C   UNL A   1      41.159  29.880  29.569  1.00  0.00     0.049 A 
ATOM     51  C   UNL A   1      46.553  28.433  29.662  1.00  0.00     0.074 A 
ATOM     52  C   UNL A   1      40.845  31.150  30.018  1.00  0.00     0.029 A 
ATOM     53  N   UNL A   1      42.536  29.753  29.661  1.00  0.00    -0.354 N 
ATOM     54  N   UNL A   1      45.336  28.916  29.702  1.00  0.00    -0.248 NA
ATOM     55  C   UNL A   1      47.595  29.393  30.055  1.00  0.00     0.031 C 
ATOM     56  C   UNL A   1      42.037  31.814  30.324  1.00  0.00     0.029 A 
ATOM     57  C   UNL A   1      43.088  30.933  30.132  1.00  0.00     0.049 A 
ATOM     58  H   UNL A   1      43.046  28.943  29.428  1.00  0.00     0.167 HD
ATOM     59  C   UNL A   1      45.462  30.224  30.155  1.00  0.00     0.074 A 
ATOM     60  C   UNL A   1      46.872  30.452  30.390  1.00  0.00     0.031 C 
ATOM     61  C   UNL A   1      44.495  31.152  30.359  1.00  0.00     0.031 A 
BRANCH  48  62
ATOM     62  C   UNL A   1      38.805  29.180  28.966  1.00  0.00    -0.014 A 
ATOM     63  C   UNL A   1      38.251  29.624  27.755  1.00  0.00     0.009 A 
ATOM     64  C   UNL A   1      37.961  29.007  30.074  1.00  0.00     0.009 A 
ATOM     65  C   UNL A   1      36.890  29.929  27.668  1.00  0.00     0.001 A 
ATOM     66  C   UNL A   1      36.594  29.281  29.974  1.00  0.00     0.001 A 
ATOM     67  C   UNL A   1      36.063  29.753  28.776  1.00  0.00     0.000 A 
ENDBRANCH  48  62
BRANCH  49  68
ATOM     68  C   UNL A   1      48.458  26.701  29.315  1.00  0.00    -0.014 A 
ATOM     69  C   UNL A   1      49.021  26.095  30.448  1.00  0.00     0.009 A 
ATOM     70  C   UNL A   1      49.284  26.974  28.212  1.00  0.00     0.009 A 
ATOM     71  C   UNL A   1      50.386  25.797  30.488  1.00  0.00     0.001 A 
ATOM     72  C   UNL A   1      50.640  26.646  28.242  1.00  0.00     0.001 A 
ATOM     73  C   UNL A   1      51.193  26.068  29.383  1.00  0.00     0.000 A 
ENDBRANCH  49  68
BRANCH  61  74
ATOM     74  C   UNL A   1      44.923  32.489  30.897  1.00  0.00    -0.014 A 
ATOM     75  C   UNL A   1      45.244  33.556  30.043  1.00  0.00     0.009 A 
ATOM     76  C   UNL A   1      44.968  32.694  32.286  1.00  0.00     0.009 A 
ATOM     77  C   UNL A   1      45.636  34.789  30.570  1.00  0.00     0.001 A 
ATOM     78  C   UNL A   1      45.327  33.937  32.808  1.00  0.00     0.001 A 
ATOM     79  C   UNL A   1      45.672  34.981  31.951  1.00  0.00     0.000 A 
ENDBRANCH  61  74
ENDBRANCH  35  36
ENDBRANCH  27  30
ENDBRANCH  25  26
ENDBRANCH  24  25
ENDBRANCH   1  24
TORSDOF 14
ENDMDL
MODEL 2
REMARK VINA RESULT:     -10.8      3.727      8.846
REMARK SMILES O=C(CN1C(=O)N[C@](c2cccs2)(C2CC2)C1=O)NCCCCNC(=O)c1ccc(-c2c3nc(c(-c4ccccc4)c4ccc([nH]4)c(-c4ccccc4)c4nc(c(-c5ccccc5)c5ccc2[nH]5)C=C4)C=C3)cc1
REMARK SMILES IDX 21 1 20 2 19 3 1 4 2 5 3 7 4 8 5 9 17 10 6 11 7 12 8 13
REMARK SMILES IDX 18 14 14 16 15 17 16 18 9 19 10 20 13 21 11 22 12 23 22 24
REMARK SMILES IDX 23 25 24 26 25 27 26 29 27 30 28 31 74 32 29 33 73 34 30 35
REMARK SMILES IDX 31 36 32 37 67 38 33 39 72 40 66 41 68 42 34 43 71 44 65 45
REMARK SMILES IDX 64 46 35 48 57 49 42 50 56 51 43 52 46 53 55 54 69 55 44 56
REMARK SMILES IDX 45 57 54 59 70 60 47 61 36 62 37 63 41 64 38 65 40 66 39 67
REMARK SMILES IDX 58 68 59 69 63 70 60 71 62 72 61 73 48 74 49 75 53 76 50 77
REMARK SMILES IDX 52 78 51 79
REMARK H PARENT 19 6 7 15 24 28 68 47 46 58
REMARK Flexibility Score: inf
ROOT
ATOM      1  C   UNL A   1      31.527  30.282  26.561  1.00  0.00     0.023 C 
ENDROOT
BRANCH   1   2
ATOM      2  C   UNL A   1      32.331  29.733  25.382  1.00  0.00     0.116 C 
BRANCH   2   3
ATOM      3  N   UNL A   1      31.922  28.389  25.038  1.00  0.00    -0.355 N 
ATOM      4  O   UNL A   1      33.019  28.215  23.025  1.00  0.00    -0.273 OA
ATOM      5  C   UNL A   1      32.278  27.736  23.876  1.00  0.00     0.240 C 
ATOM      6  H   UNL A   1      31.350  27.907  25.678  1.00  0.00     0.163 HD
BRANCH   5   7
ATOM      7  C   UNL A   1      31.646  26.348  23.742  1.00  0.00     0.230 C 
BRANCH   7   8
ATOM      8  N   UNL A   1      32.428  25.339  24.428  1.00  0.00    -0.252 N 
ATOM      9  C   UNL A   1      32.368  25.096  25.763  1.00  0.00     0.325 C 
ATOM     10  C   UNL A   1      33.455  24.625  23.868  1.00  0.00     0.262 C 
ATOM     11  O   UNL A   1      31.638  25.634  26.582  1.00  0.00    -0.248 OA
ATOM     12  N   UNL A   1      33.316  24.160  26.090  1.00  0.00    -0.318 N 
ATOM     13  C   UNL A   1      34.070  23.684  24.950  1.00  0.00     0.158 C 
ATOM     14  O   UNL A   1      33.833  24.729  22.703  1.00  0.00    -0.271 OA
ATOM     15  H   UNL A   1      33.467  23.843  27.010  1.00  0.00     0.166 HD
BRANCH  13  16
ATOM     16  C   UNL A   1      35.515  24.099  25.158  1.00  0.00     0.030 C 
ATOM     17  C   UNL A   1      36.510  23.396  26.052  1.00  0.00     0.007 C 
ATOM     18  C   UNL A   1      36.712  23.401  24.555  1.00  0.00     0.007 C 
ENDBRANCH  13  16
BRANCH  13  19
ATOM     19  C   UNL A   1      33.564  22.265  24.674  1.00  0.00     0.040 A 
ATOM     20  C   UNL A   1      32.856  21.834  23.551  1.00  0.00     0.018 A 
ATOM     21  S   UNL A   1      33.733  20.953  25.769  1.00  0.00    -0.146 S 
ATOM     22  C   UNL A   1      32.490  20.459  23.596  1.00  0.00     0.012 A 
ATOM     23  C   UNL A   1      32.918  19.858  24.753  1.00  0.00     0.065 A 
ENDBRANCH  13  19
ENDBRANCH   7   8
ENDBRANCH   5   7
ENDBRANCH   2   3
ENDBRANCH   1   2
BRANCH   1  24
ATOM     24  C   UNL A   1      31.422  31.810  26.633  1.00  0.00     0.023 C 
BRANCH  24  25
ATOM     25  C   UNL A   1      32.714  32.546  26.978  1.00  0.00     0.116 C 
BRANCH  25  26
ATOM     26  N   UNL A   1      32.475  33.855  27.567  1.00  0.00    -0.352 N 
ATOM     27  C   UNL A   1      33.159  34.518  28.557  1.00  0.00     0.251 C 
ATOM     28  H   UNL A   1      31.702  34.340  27.198  1.00  0.00     0.163 HD
ATOM     29  O   UNL A   1      32.703  35.559  29.019  1.00  0.00    -0.269 OA
BRANCH  27  30
ATOM     30  C   UNL A   1      34.428  33.976  29.095  1.00  0.00     0.039 A 
ATOM     31  C   UNL A   1      34.381  33.160  30.230  1.00  0.00     0.014 A 
ATOM     32  C   UNL A   1      35.660  34.279  28.510  1.00  0.00     0.014 A 
ATOM     33  C   UNL A   1      35.556  32.593  30.733  1.00  0.00     0.010 A 
ATOM     34  C   UNL A   1      36.821  33.653  28.966  1.00  0.00     0.010 A 
ATOM     35  C   UNL A   1      36.782  32.801  30.079  1.00  0.00    -0.014 A 
BRANCH  35  36
ATOM     36  C   UNL A   1      38.024  32.124  30.537  1.00  0.00     0.031 A 
ATOM     37  C   UNL A   1      38.890  32.746  31.600  1.00  0.00     0.074 A 
ATOM     38  C   UNL A   1      38.410  30.972  29.951  1.00  0.00     0.049 A 
ATOM     39  N   UNL A   1      40.034  32.328  32.082  1.00  0.00    -0.248 NA
ATOM     40  C   UNL A   1      38.420  34.014  32.180  1.00  0.00     0.031 C 
ATOM     41  C   UNL A   1      37.684  30.278  28.886  1.00  0.00     0.029 A 
ATOM     42  N   UNL A   1      39.516  30.186  30.165  1.00  0.00    -0.354 N 
ATOM     43  C   UNL A   1      40.426  33.287  33.009  1.00  0.00     0.074 A 
ATOM     44  C   UNL A   1      39.424  34.331  32.984  1.00  0.00     0.031 C 
ATOM     45  C   UNL A   1      38.347  29.157  28.560  1.00  0.00     0.029 A 
ATOM     46  C   UNL A   1      39.568  29.076  29.356  1.00  0.00     0.049 A 
ATOM     47  H   UNL A   1      40.205  30.396  30.835  1.00  0.00     0.167 HD
ATOM     48  C   UNL A   1      41.509  33.290  33.822  1.00  0.00     0.031 A 
ATOM     49  C   UNL A   1      40.496  28.107  29.256  1.00  0.00     0.031 A 
ATOM     50  C   UNL A   1      42.509  32.254  33.848  1.00  0.00     0.049 A 
ATOM     51  C   UNL A   1      41.708  28.150  30.144  1.00  0.00     0.074 A 
ATOM     52  C   UNL A   1      43.616  32.146  34.671  1.00  0.00     0.029 A 
ATOM     53  N   UNL A   1      42.526  31.151  33.009  1.00  0.00    -0.354 N 
ATOM     54  N   UNL A   1      42.029  29.030  31.062  1.00  0.00    -0.248 NA
ATOM     55  C   UNL A   1      42.682  27.059  29.989  1.00  0.00     0.031 C 
ATOM     56  C   UNL A   1      44.337  31.010  34.288  1.00  0.00     0.029 A 
ATOM     57  C   UNL A   1      43.641  30.373  33.274  1.00  0.00     0.049 A 
ATOM     58  H   UNL A   1      41.846  30.950  32.326  1.00  0.00     0.167 HD
ATOM     59  C   UNL A   1      43.222  28.583  31.614  1.00  0.00     0.074 A 
ATOM     60  C   UNL A   1      43.560  27.347  30.940  1.00  0.00     0.031 C 
ATOM     61  C   UNL A   1      43.971  29.146  32.594  1.00  0.00     0.031 A 
BRANCH  48  62
ATOM     62  C   UNL A   1      41.678  34.467  34.745  1.00  0.00    -0.014 A 
ATOM     63  C   UNL A   1      42.343  35.632  34.328  1.00  0.00     0.009 A 
ATOM     64  C   UNL A   1      41.136  34.424  36.040  1.00  0.00     0.009 A 
ATOM     65  C   UNL A   1      42.498  36.711  35.202  1.00  0.00     0.001 A 
ATOM     66  C   UNL A   1      41.265  35.517  36.900  1.00  0.00     0.001 A 
ATOM     67  C   UNL A   1      41.955  36.654  36.485  1.00  0.00     0.000 A 
ENDBRANCH  48  62
BRANCH  49  68
ATOM     68  C   UNL A   1      40.316  27.002  28.276  1.00  0.00    -0.014 A 
ATOM     69  C   UNL A   1      39.607  25.843  28.629  1.00  0.00     0.009 A 
ATOM     70  C   UNL A   1      40.856  27.098  26.983  1.00  0.00     0.009 A 
ATOM     71  C   UNL A   1      39.468  24.793  27.718  1.00  0.00     0.001 A 
ATOM     72  C   UNL A   1      40.688  26.060  26.064  1.00  0.00     0.001 A 
ATOM     73  C   UNL A   1      40.004  24.904  26.435  1.00  0.00     0.000 A 
ENDBRANCH  49  68
BRANCH  61  74
ATOM     74  C   UNL A   1      45.211  28.412  33.024  1.00  0.00    -0.014 A 
ATOM     75  C   UNL A   1      46.461  28.682  32.447  1.00  0.00     0.009 A 
ATOM     76  C   UNL A   1      45.130  27.461  34.055  1.00  0.00     0.009 A 
ATOM     77  C   UNL A   1      47.598  27.987  32.868  1.00  0.00     0.001 A 
ATOM     78  C   UNL A   1      46.273  26.793  34.495  1.00  0.00     0.001 A 
ATOM     79  C   UNL A   1      47.505  27.048  33.894  1.00  0.00     0.000 A 
ENDBRANCH  61  74
ENDBRANCH  35  36
ENDBRANCH  27  30
ENDBRANCH  25  26
ENDBRANCH  24  25
ENDBRANCH   1  24
TORSDOF 14
ENDMDL
MODEL 3
REMARK VINA RESULT:     -10.8      3.447      8.649
REMARK SMILES O=C(CN1C(=O)N[C@](c2cccs2)(C2CC2)C1=O)NCCCCNC(=O)c1ccc(-c2c3nc(c(-c4ccccc4)c4ccc([nH]4)c(-c4ccccc4)c4nc(c(-c5ccccc5)c5ccc2[nH]5)C=C4)C=C3)cc1
REMARK SMILES IDX 21 1 20 2 19 3 1 4 2 5 3 7 4 8 5 9 17 10 6 11 7 12 8 13
REMARK SMILES IDX 18 14 14 16 15 17 16 18 9 19 10 20 13 21 11 22 12 23 22 24
REMARK SMILES IDX 23 25 24 26 25 27 26 29 27 30 28 31 74 32 29 33 73 34 30 35
REMARK SMILES IDX 31 36 32 37 67 38 33 39 72 40 66 41 68 42 34 43 71 44 65 45
REMARK SMILES IDX 64 46 35 48 57 49 42 50 56 51 43 52 46 53 55 54 69 55 44 56
REMARK SMILES IDX 45 57 54 59 70 60 47 61 36 62 37 63 41 64 38 65 40 66 39 67
REMARK SMILES IDX 58 68 59 69 63 70 60 71 62 72 61 73 48 74 49 75 53 76 50 77
REMARK SMILES IDX 52 78 51 79
REMARK H PARENT 19 6 7 15 24 28 68 47 46 58
REMARK Flexibility Score: inf
ROOT
ATOM      1  C   UNL A   1      31.413  30.199  25.500  1.00  0.00     0.023 C 
ENDROOT
BRANCH   1   2
ATOM      2  C   UNL A   1      32.286  28.946  25.418  1.00  0.00     0.116 C 
BRANCH   2   3
ATOM      3  N   UNL A   1      31.501  27.770  25.114  1.00  0.00    -0.355 N 
ATOM      4  O   UNL A   1      31.019  27.130  27.269  1.00  0.00    -0.273 OA
ATOM      5  C   UNL A   1      30.943  26.936  26.061  1.00  0.00     0.240 C 
ATOM      6  H   UNL A   1      31.356  27.549  24.166  1.00  0.00     0.163 HD
BRANCH   5   7
ATOM      7  C   UNL A   1      30.221  25.729  25.457  1.00  0.00     0.230 C 
BRANCH   7   8
ATOM      8  N   UNL A   1      30.961  24.502  25.677  1.00  0.00    -0.252 N 
ATOM      9  C   UNL A   1      30.618  23.551  26.585  1.00  0.00     0.325 C 
ATOM     10  C   UNL A   1      32.189  24.217  25.142  1.00  0.00     0.262 C 
ATOM     11  O   UNL A   1      29.638  23.542  27.315  1.00  0.00    -0.248 OA
ATOM     12  N   UNL A   1      31.592  22.584  26.609  1.00  0.00    -0.318 N 
ATOM     13  C   UNL A   1      32.663  22.825  25.666  1.00  0.00     0.158 C 
ATOM     14  O   UNL A   1      32.816  24.955  24.385  1.00  0.00    -0.271 OA
ATOM     15  H   UNL A   1      31.564  21.804  27.208  1.00  0.00     0.166 HD
BRANCH  13  16
ATOM     16  C   UNL A   1      33.933  23.039  26.468  1.00  0.00     0.030 C 
ATOM     17  C   UNL A   1      34.390  22.189  27.630  1.00  0.00     0.007 C 
ATOM     18  C   UNL A   1      35.185  22.202  26.346  1.00  0.00     0.007 C 
ENDBRANCH  13  16
BRANCH  13  19
ATOM     19  C   UNL A   1      32.463  21.811  24.536  1.00  0.00     0.040 A 
ATOM     20  C   UNL A   1      32.190  22.095  23.196  1.00  0.00     0.018 A 
ATOM     21  S   UNL A   1      32.475  20.108  24.757  1.00  0.00    -0.146 S 
ATOM     22  C   UNL A   1      32.020  20.937  22.387  1.00  0.00     0.012 A 
ATOM     23  C   UNL A   1      32.160  19.783  23.116  1.00  0.00     0.065 A 
ENDBRANCH  13  19
ENDBRANCH   7   8
ENDBRANCH   5   7
ENDBRANCH   2   3
ENDBRANCH   1   2
BRANCH   1  24
ATOM     24  C   UNL A   1      31.557  31.021  26.787  1.00  0.00     0.023 C 
BRANCH  24  25
ATOM     25  C   UNL A   1      32.784  31.926  26.858  1.00  0.00     0.116 C 
BRANCH  25  26
ATOM     26  N   UNL A   1      32.475  33.251  27.374  1.00  0.00    -0.352 N 
ATOM     27  C   UNL A   1      33.143  34.018  28.299  1.00  0.00     0.251 C 
ATOM     28  H   UNL A   1      31.661  33.661  27.003  1.00  0.00     0.163 HD
ATOM     29  O   UNL A   1      32.631  35.054  28.713  1.00  0.00    -0.269 OA
BRANCH  27  30
ATOM     30  C   UNL A   1      34.460  33.594  28.826  1.00  0.00     0.039 A 
ATOM     31  C   UNL A   1      34.497  32.772  29.957  1.00  0.00     0.014 A 
ATOM     32  C   UNL A   1      35.654  34.015  28.235  1.00  0.00     0.014 A 
ATOM     33  C   UNL A   1      35.723  32.315  30.448  1.00  0.00     0.010 A 
ATOM     34  C   UNL A   1      36.871  33.498  28.680  1.00  0.00     0.010 A 
ATOM     35  C   UNL A   1      36.920  32.640  29.789  1.00  0.00    -0.014 A 
BRANCH  35  36
ATOM     36  C   UNL A   1      38.223  32.080  30.235  1.00  0.00     0.031 A 
ATOM     37  C   UNL A   1      38.716  30.762  29.700  1.00  0.00     0.074 A 
ATOM     38  C   UNL A   1      38.941  32.729  31.174  1.00  0.00     0.049 A 
ATOM     39  N   UNL A   1      39.798  30.095  30.017  1.00  0.00    -0.248 NA
ATOM     40  C   UNL A   1      37.872  30.097  28.696  1.00  0.00     0.031 C 
ATOM     41  C   UNL A   1      38.565  33.998  31.802  1.00  0.00     0.029 A 
ATOM     42  N   UNL A   1      40.136  32.407  31.769  1.00  0.00    -0.354 N 
ATOM     43  C   UNL A   1      39.756  28.929  29.262  1.00  0.00     0.074 A 
ATOM     44  C   UNL A   1      38.519  28.956  28.512  1.00  0.00     0.031 C 
ATOM     45  C   UNL A   1      39.522  34.358  32.672  1.00  0.00     0.029 A 
ATOM     46  C   UNL A   1      40.554  33.327  32.700  1.00  0.00     0.049 A 
ATOM     47  H   UNL A   1      40.646  31.594  31.549  1.00  0.00     0.167 HD
ATOM     48  C   UNL A   1      40.672  27.934  29.184  1.00  0.00     0.031 A 
ATOM     49  C   UNL A   1      41.640  33.339  33.496  1.00  0.00     0.031 A 
ATOM     50  C   UNL A   1      41.904  27.902  29.930  1.00  0.00     0.049 A 
ATOM     51  C   UNL A   1      42.626  32.206  33.416  1.00  0.00     0.074 A 
ATOM     52  C   UNL A   1      42.917  26.961  29.882  1.00  0.00     0.029 A 
ATOM     53  N   UNL A   1      42.286  28.852  30.865  1.00  0.00    -0.354 N 
ATOM     54  N   UNL A   1      42.603  31.144  32.649  1.00  0.00    -0.248 NA
ATOM     55  C   UNL A   1      43.793  32.281  34.308  1.00  0.00     0.031 C 
ATOM     56  C   UNL A   1      43.882  27.307  30.832  1.00  0.00     0.029 A 
ATOM     57  C   UNL A   1      43.505  28.502  31.422  1.00  0.00     0.049 A 
ATOM     58  H   UNL A   1      41.767  29.656  31.098  1.00  0.00     0.167 HD
ATOM     59  C   UNL A   1      43.765  30.441  32.941  1.00  0.00     0.074 A 
ATOM     60  C   UNL A   1      44.477  31.205  33.944  1.00  0.00     0.031 C 
ATOM     61  C   UNL A   1      44.204  29.267  32.423  1.00  0.00     0.031 A 
BRANCH  48  62
ATOM     62  C   UNL A   1      40.367  26.782  28.264  1.00  0.00    -0.014 A 
ATOM     63  C   UNL A   1      39.580  25.698  28.689  1.00  0.00     0.009 A 
ATOM     64  C   UNL A   1      40.844  26.795  26.945  1.00  0.00     0.009 A 
ATOM     65  C   UNL A   1      39.314  24.633  27.824  1.00  0.00     0.001 A 
ATOM     66  C   UNL A   1      40.549  25.744  26.073  1.00  0.00     0.001 A 
ATOM     67  C   UNL A   1      39.795  24.660  26.516  1.00  0.00     0.000 A 
ENDBRANCH  48  62
BRANCH  49  68
ATOM     68  C   UNL A   1      41.859  34.468  34.439  1.00  0.00    -0.014 A 
ATOM     69  C   UNL A   1      41.355  34.413  35.748  1.00  0.00     0.009 A 
ATOM     70  C   UNL A   1      42.570  35.609  34.035  1.00  0.00     0.009 A 
ATOM     71  C   UNL A   1      41.534  35.489  36.622  1.00  0.00     0.001 A 
ATOM     72  C   UNL A   1      42.775  36.670  34.920  1.00  0.00     0.001 A 
ATOM     73  C   UNL A   1      42.247  36.614  36.209  1.00  0.00     0.000 A 
ENDBRANCH  49  68
BRANCH  61  74
ATOM     74  C   UNL A   1      45.533  28.755  32.904  1.00  0.00    -0.014 A 
ATOM     75  C   UNL A   1      46.733  29.133  32.282  1.00  0.00     0.009 A 
ATOM     76  C   UNL A   1      45.586  27.910  34.025  1.00  0.00     0.009 A 
ATOM     77  C   UNL A   1      47.956  28.644  32.751  1.00  0.00     0.001 A 
ATOM     78  C   UNL A   1      46.811  27.451  34.510  1.00  0.00     0.001 A 
ATOM     79  C   UNL A   1      47.994  27.809  33.867  1.00  0.00     0.000 A 
ENDBRANCH  61  74
ENDBRANCH  35  36
ENDBRANCH  27  30
ENDBRANCH  25  26
ENDBRANCH  24  25
ENDBRANCH   1  24
TORSDOF 14
ENDMDL
