MODEL 1
REMARK VINA RESULT:      -9.0      0.000      0.000
REMARK SMILES O=C(NCCCCNC(=O)[C@@H](c1ccccc1)N1C(=O)/C(=C\c2ccc(-c3ccc(F)cc3)o2)SC1=S)c1ccc(-c2c3nc(c(-c4ccccc4)c4ccc([nH]4)c(-c4ccccc4)c4nc(c(-c5ccccc5)c5ccc2[nH]5)C=C4)C=C3)cc1
REMARK SMILES IDX 6 1 5 2 4 3 3 4 1 5 2 6 38 8 39 9 85 10 40 11 84 12 41 13
REMARK SMILES IDX 42 14 43 15 78 16 44 17 83 18 77 19 79 20 45 21 82 22 76 23
REMARK SMILES IDX 75 24 46 26 68 27 53 28 67 29 54 30 57 31 66 32 80 33 55 34
REMARK SMILES IDX 56 35 65 37 81 38 58 39 47 40 48 41 52 42 49 43 51 44 50 45
REMARK SMILES IDX 69 46 70 47 74 48 71 49 73 50 72 51 59 52 60 53 64 54 61 55
REMARK SMILES IDX 63 56 62 57 7 58 8 59 9 60 10 62 11 63 12 64 13 65 17 66
REMARK SMILES IDX 14 67 16 68 15 69 18 70 19 71 36 72 20 73 21 74 35 75 37 76
REMARK SMILES IDX 22 77 23 78 24 79 34 80 25 81 26 82 27 83 28 84 33 85 29 86
REMARK SMILES IDX 32 87 30 88 31 89
REMARK H PARENT 3 7 79 25 57 36 8 61
REMARK Flexibility Score: inf
ROOT
ATOM      1  C   UNL A   1      43.606  25.467  25.084  1.00  0.00     0.023 C 
ENDROOT
BRANCH   1   2
ATOM      2  C   UNL A   1      43.448  23.958  25.115  1.00  0.00     0.023 C 
BRANCH   2   3
ATOM      3  C   UNL A   1      42.645  23.406  26.279  1.00  0.00     0.116 C 
BRANCH   3   4
ATOM      4  N   UNL A   1      41.381  22.782  25.912  1.00  0.00    -0.352 N 
ATOM      5  O   UNL A   1      39.121  22.611  25.756  1.00  0.00    -0.269 OA
ATOM      6  C   UNL A   1      40.099  23.248  26.120  1.00  0.00     0.251 C 
ATOM      7  H   UNL A   1      41.450  21.912  25.456  1.00  0.00     0.163 HD
BRANCH   6   8
ATOM      8  C   UNL A   1      39.920  24.530  26.828  1.00  0.00     0.039 A 
ATOM      9  C   UNL A   1      40.424  25.705  26.274  1.00  0.00     0.014 A 
ATOM     10  C   UNL A   1      39.348  24.532  28.103  1.00  0.00     0.014 A 
ATOM     11  C   UNL A   1      40.563  26.824  27.080  1.00  0.00     0.010 A 
ATOM     12  C   UNL A   1      39.380  25.699  28.870  1.00  0.00     0.010 A 
ATOM     13  C   UNL A   1      40.045  26.836  28.388  1.00  0.00    -0.014 A 
BRANCH  13  14
ATOM     14  C   UNL A   1      40.211  28.066  29.204  1.00  0.00     0.031 A 
ATOM     15  C   UNL A   1      39.173  29.156  29.203  1.00  0.00     0.074 A 
ATOM     16  C   UNL A   1      41.276  28.144  30.025  1.00  0.00     0.049 A 
ATOM     17  N   UNL A   1      39.141  30.257  29.913  1.00  0.00    -0.248 NA
ATOM     18  C   UNL A   1      38.030  29.005  28.287  1.00  0.00     0.031 C 
ATOM     19  C   UNL A   1      42.347  27.148  30.111  1.00  0.00     0.029 A 
ATOM     20  N   UNL A   1      41.609  29.073  30.975  1.00  0.00    -0.354 N 
ATOM     21  C   UNL A   1      37.998  30.938  29.513  1.00  0.00     0.074 A 
ATOM     22  C   UNL A   1      37.368  30.137  28.486  1.00  0.00     0.031 C 
ATOM     23  C   UNL A   1      43.171  27.474  31.115  1.00  0.00     0.029 A 
ATOM     24  C   UNL A   1      42.731  28.737  31.693  1.00  0.00     0.049 A 
ATOM     25  H   UNL A   1      41.096  29.898  31.128  1.00  0.00     0.167 HD
ATOM     26  C   UNL A   1      37.516  32.122  29.962  1.00  0.00     0.031 A 
ATOM     27  C   UNL A   1      43.347  29.377  32.702  1.00  0.00     0.031 A 
ATOM     28  C   UNL A   1      38.138  32.913  30.993  1.00  0.00     0.049 A 
ATOM     29  C   UNL A   1      42.784  30.677  33.186  1.00  0.00     0.074 A 
ATOM     30  C   UNL A   1      37.733  34.130  31.512  1.00  0.00     0.029 A 
ATOM     31  N   UNL A   1      39.295  32.557  31.668  1.00  0.00    -0.354 N 
ATOM     32  N   UNL A   1      41.710  31.310  32.783  1.00  0.00    -0.248 NA
ATOM     33  C   UNL A   1      43.522  31.353  34.261  1.00  0.00     0.031 C 
ATOM     34  C   UNL A   1      38.661  34.527  32.481  1.00  0.00     0.029 A 
ATOM     35  C   UNL A   1      39.622  33.535  32.594  1.00  0.00     0.049 A 
ATOM     36  H   UNL A   1      39.810  31.732  31.513  1.00  0.00     0.167 HD
ATOM     37  C   UNL A   1      41.648  32.466  33.546  1.00  0.00     0.074 A 
ATOM     38  C   UNL A   1      42.768  32.423  34.465  1.00  0.00     0.031 C 
ATOM     39  C   UNL A   1      40.752  33.480  33.483  1.00  0.00     0.031 A 
BRANCH  26  40
ATOM     40  C   UNL A   1      36.263  32.654  29.324  1.00  0.00    -0.014 A 
ATOM     41  C   UNL A   1      34.996  32.190  29.711  1.00  0.00     0.009 A 
ATOM     42  C   UNL A   1      36.348  33.674  28.363  1.00  0.00     0.009 A 
ATOM     43  C   UNL A   1      33.841  32.722  29.130  1.00  0.00     0.001 A 
ATOM     44  C   UNL A   1      35.192  34.220  27.801  1.00  0.00     0.001 A 
ATOM     45  C   UNL A   1      33.940  33.740  28.182  1.00  0.00     0.000 A 
ENDBRANCH  26  40
BRANCH  27  46
ATOM     46  C   UNL A   1      44.578  28.798  33.295  1.00  0.00    -0.014 A 
ATOM     47  C   UNL A   1      45.841  29.121  32.782  1.00  0.00     0.009 A 
ATOM     48  C   UNL A   1      44.491  27.938  34.402  1.00  0.00     0.009 A 
ATOM     49  C   UNL A   1      46.995  28.583  33.358  1.00  0.00     0.001 A 
ATOM     50  C   UNL A   1      45.645  27.427  34.994  1.00  0.00     0.001 A 
ATOM     51  C   UNL A   1      46.896  27.742  34.467  1.00  0.00     0.000 A 
ENDBRANCH  27  46
BRANCH  39  52
ATOM     52  C   UNL A   1      40.963  34.618  34.437  1.00  0.00    -0.014 A 
ATOM     53  C   UNL A   1      40.267  34.674  35.655  1.00  0.00     0.009 A 
ATOM     54  C   UNL A   1      41.864  35.644  34.114  1.00  0.00     0.009 A 
ATOM     55  C   UNL A   1      40.440  35.759  36.515  1.00  0.00     0.001 A 
ATOM     56  C   UNL A   1      42.051  36.715  34.988  1.00  0.00     0.001 A 
ATOM     57  C   UNL A   1      41.331  36.778  36.181  1.00  0.00     0.000 A 
ENDBRANCH  39  52
ENDBRANCH  13  14
ENDBRANCH   6   8
ENDBRANCH   3   4
ENDBRANCH   2   3
ENDBRANCH   1   2
BRANCH   1  58
ATOM     58  C   UNL A   1      45.030  25.982  25.206  1.00  0.00     0.116 C 
BRANCH  58  59
ATOM     59  N   UNL A   1      45.971  25.042  25.787  1.00  0.00    -0.354 N 
ATOM     60  C   UNL A   1      46.352  24.891  27.092  1.00  0.00     0.247 C 
ATOM     61  H   UNL A   1      46.397  24.425  25.148  1.00  0.00     0.163 HD
ATOM     62  O   UNL A   1      46.970  23.851  27.359  1.00  0.00    -0.272 OA
BRANCH  60  63
ATOM     63  C   UNL A   1      45.938  25.870  28.229  1.00  0.00     0.211 C 
BRANCH  63  64
ATOM     64  C   UNL A   1      45.540  25.233  29.558  1.00  0.00    -0.016 A 
ATOM     65  C   UNL A   1      44.607  24.191  29.646  1.00  0.00     0.006 A 
ATOM     66  C   UNL A   1      46.144  25.676  30.754  1.00  0.00     0.006 A 
ATOM     67  C   UNL A   1      44.194  23.706  30.891  1.00  0.00     0.000 A 
ATOM     68  C   UNL A   1      45.723  25.199  31.997  1.00  0.00     0.000 A 
ATOM     69  C   UNL A   1      44.733  24.227  32.065  1.00  0.00     0.000 A 
ENDBRANCH  63  64
BRANCH  63  70
ATOM     70  N   UNL A   1      46.917  26.990  28.218  1.00  0.00    -0.276 N 
ATOM     71  C   UNL A   1      46.509  28.296  28.019  1.00  0.00     0.267 C 
ATOM     72  C   UNL A   1      48.262  26.834  28.504  1.00  0.00     0.149 C 
ATOM     73  O   UNL A   1      45.458  28.674  27.529  1.00  0.00    -0.268 OA
ATOM     74  C   UNL A   1      47.576  29.253  28.398  1.00  0.00     0.084 C 
ATOM     75  S   UNL A   1      49.066  28.409  28.518  1.00  0.00    -0.054 SA
ATOM     76  S   UNL A   1      49.124  25.436  28.800  1.00  0.00    -0.052 S 
ATOM     77  C   UNL A   1      47.421  30.551  28.694  1.00  0.00     0.068 C 
BRANCH  77  78
ATOM     78  C   UNL A   1      46.144  31.155  28.864  1.00  0.00     0.128 A 
ATOM     79  C   UNL A   1      45.166  30.818  29.794  1.00  0.00     0.051 A 
ATOM     80  O   UNL A   1      45.687  32.241  28.150  1.00  0.00    -0.457 OA
ATOM     81  C   UNL A   1      44.102  31.735  29.654  1.00  0.00     0.051 A 
ATOM     82  C   UNL A   1      44.455  32.587  28.631  1.00  0.00     0.134 A 
BRANCH  82  83
ATOM     83  C   UNL A   1      43.803  33.747  28.035  1.00  0.00     0.017 A 
ATOM     84  C   UNL A   1      43.068  34.653  28.812  1.00  0.00     0.015 A 
ATOM     85  C   UNL A   1      43.934  33.992  26.656  1.00  0.00     0.015 A 
ATOM     86  C   UNL A   1      42.478  35.778  28.224  1.00  0.00     0.040 A 
ATOM     87  C   UNL A   1      43.335  35.109  26.067  1.00  0.00     0.040 A 
ATOM     88  C   UNL A   1      42.615  35.992  26.858  1.00  0.00     0.123 A 
ATOM     89  F   UNL A   1      42.048  37.068  26.296  1.00  0.00    -0.207 F 
ENDBRANCH  82  83
ENDBRANCH  77  78
ENDBRANCH  63  70
ENDBRANCH  60  63
ENDBRANCH  58  59
ENDBRANCH   1  58
TORSDOF 15
ENDMDL
MODEL 2
REMARK VINA RESULT:      -8.9      4.542      9.760
REMARK SMILES O=C(NCCCCNC(=O)[C@@H](c1ccccc1)N1C(=O)/C(=C\c2ccc(-c3ccc(F)cc3)o2)SC1=S)c1ccc(-c2c3nc(c(-c4ccccc4)c4ccc([nH]4)c(-c4ccccc4)c4nc(c(-c5ccccc5)c5ccc2[nH]5)C=C4)C=C3)cc1
REMARK SMILES IDX 6 1 5 2 4 3 3 4 1 5 2 6 38 8 39 9 85 10 40 11 84 12 41 13
REMARK SMILES IDX 42 14 43 15 78 16 44 17 83 18 77 19 79 20 45 21 82 22 76 23
REMARK SMILES IDX 75 24 46 26 68 27 53 28 67 29 54 30 57 31 66 32 80 33 55 34
REMARK SMILES IDX 56 35 65 37 81 38 58 39 47 40 48 41 52 42 49 43 51 44 50 45
REMARK SMILES IDX 69 46 70 47 74 48 71 49 73 50 72 51 59 52 60 53 64 54 61 55
REMARK SMILES IDX 63 56 62 57 7 58 8 59 9 60 10 62 11 63 12 64 13 65 17 66
REMARK SMILES IDX 14 67 16 68 15 69 18 70 19 71 36 72 20 73 21 74 35 75 37 76
REMARK SMILES IDX 22 77 23 78 24 79 34 80 25 81 26 82 27 83 28 84 33 85 29 86
REMARK SMILES IDX 32 87 30 88 31 89
REMARK H PARENT 3 7 79 25 57 36 8 61
REMARK Flexibility Score: inf
ROOT
ATOM      1  C   UNL A   1      39.988  28.530  27.831  1.00  0.00     0.023 C 
ENDROOT
BRANCH   1   2
ATOM      2  C   UNL A   1      39.384  27.138  27.815  1.00  0.00     0.023 C 
BRANCH   2   3
ATOM      3  C   UNL A   1      40.132  26.089  28.618  1.00  0.00     0.116 C 
BRANCH   3   4
ATOM      4  N   UNL A   1      40.171  24.764  28.013  1.00  0.00    -0.352 N 
ATOM      5  O   UNL A   1      41.070  23.059  26.811  1.00  0.00    -0.269 OA
ATOM      6  C   UNL A   1      41.175  24.191  27.259  1.00  0.00     0.251 C 
ATOM      7  H   UNL A   1      39.376  24.203  28.162  1.00  0.00     0.163 HD
BRANCH   6   8
ATOM      8  C   UNL A   1      42.382  24.989  26.970  1.00  0.00     0.039 A 
ATOM      9  C   UNL A   1      43.315  25.227  27.977  1.00  0.00     0.014 A 
ATOM     10  C   UNL A   1      42.517  25.592  25.716  1.00  0.00     0.014 A 
ATOM     11  C   UNL A   1      44.246  26.239  27.807  1.00  0.00     0.010 A 
ATOM     12  C   UNL A   1      43.535  26.526  25.509  1.00  0.00     0.010 A 
ATOM     13  C   UNL A   1      44.368  26.903  26.572  1.00  0.00    -0.014 A 
BRANCH  13  14
ATOM     14  C   UNL A   1      45.390  27.972  26.441  1.00  0.00     0.031 A 
ATOM     15  C   UNL A   1      45.041  29.423  26.641  1.00  0.00     0.074 A 
ATOM     16  C   UNL A   1      46.669  27.606  26.227  1.00  0.00     0.049 A 
ATOM     17  N   UNL A   1      45.834  30.465  26.628  1.00  0.00    -0.248 NA
ATOM     18  C   UNL A   1      43.626  29.754  26.877  1.00  0.00     0.031 C 
ATOM     19  C   UNL A   1      47.126  26.229  26.018  1.00  0.00     0.029 A 
ATOM     20  N   UNL A   1      47.821  28.346  26.201  1.00  0.00    -0.354 N 
ATOM     21  C   UNL A   1      45.017  31.571  26.825  1.00  0.00     0.074 A 
ATOM     22  C   UNL A   1      43.662  31.078  26.940  1.00  0.00     0.031 C 
ATOM     23  C   UNL A   1      48.464  26.213  25.969  1.00  0.00     0.029 A 
ATOM     24  C   UNL A   1      48.954  27.582  26.067  1.00  0.00     0.049 A 
ATOM     25  H   UNL A   1      47.835  29.327  26.272  1.00  0.00     0.167 HD
ATOM     26  C   UNL A   1      45.365  32.879  26.904  1.00  0.00     0.031 A 
ATOM     27  C   UNL A   1      50.250  27.940  26.019  1.00  0.00     0.031 A 
ATOM     28  C   UNL A   1      46.716  33.367  26.801  1.00  0.00     0.049 A 
ATOM     29  C   UNL A   1      50.604  29.390  26.123  1.00  0.00     0.074 A 
ATOM     30  C   UNL A   1      47.170  34.673  26.860  1.00  0.00     0.029 A 
ATOM     31  N   UNL A   1      47.832  32.565  26.625  1.00  0.00    -0.354 N 
ATOM     32  N   UNL A   1      49.813  30.421  26.294  1.00  0.00    -0.248 NA
ATOM     33  C   UNL A   1      52.030  29.727  26.021  1.00  0.00     0.031 C 
ATOM     34  C   UNL A   1      48.559  34.664  26.690  1.00  0.00     0.029 A 
ATOM     35  C   UNL A   1      48.973  33.348  26.567  1.00  0.00     0.049 A 
ATOM     36  H   UNL A   1      47.817  31.582  26.553  1.00  0.00     0.167 HD
ATOM     37  C   UNL A   1      50.643  31.531  26.310  1.00  0.00     0.074 A 
ATOM     38  C   UNL A   1      52.001  31.043  26.174  1.00  0.00     0.031 C 
ATOM     39  C   UNL A   1      50.311  32.841  26.412  1.00  0.00     0.031 A 
BRANCH  26  40
ATOM     40  C   UNL A   1      44.262  33.885  27.089  1.00  0.00    -0.014 A 
ATOM     41  C   UNL A   1      43.823  34.256  28.369  1.00  0.00     0.009 A 
ATOM     42  C   UNL A   1      43.696  34.512  25.968  1.00  0.00     0.009 A 
ATOM     43  C   UNL A   1      42.821  35.218  28.521  1.00  0.00     0.001 A 
ATOM     44  C   UNL A   1      42.711  35.490  26.124  1.00  0.00     0.001 A 
ATOM     45  C   UNL A   1      42.271  35.839  27.399  1.00  0.00     0.000 A 
ENDBRANCH  26  40
BRANCH  27  46
ATOM     46  C   UNL A   1      51.292  26.899  25.841  1.00  0.00    -0.014 A 
ATOM     47  C   UNL A   1      51.800  26.196  26.941  1.00  0.00     0.009 A 
ATOM     48  C   UNL A   1      51.761  26.584  24.554  1.00  0.00     0.009 A 
ATOM     49  C   UNL A   1      52.768  25.205  26.759  1.00  0.00     0.001 A 
ATOM     50  C   UNL A   1      52.705  25.574  24.372  1.00  0.00     0.001 A 
ATOM     51  C   UNL A   1      53.215  24.892  25.475  1.00  0.00     0.000 A 
ENDBRANCH  27  46
BRANCH  39  52
ATOM     52  C   UNL A   1      51.444  33.822  26.377  1.00  0.00    -0.014 A 
ATOM     53  C   UNL A   1      51.894  34.358  25.159  1.00  0.00     0.009 A 
ATOM     54  C   UNL A   1      52.070  34.213  27.570  1.00  0.00     0.009 A 
ATOM     55  C   UNL A   1      52.977  35.237  25.134  1.00  0.00     0.001 A 
ATOM     56  C   UNL A   1      53.138  35.110  27.543  1.00  0.00     0.001 A 
ATOM     57  C   UNL A   1      53.597  35.612  26.325  1.00  0.00     0.000 A 
ENDBRANCH  39  52
ENDBRANCH  13  14
ENDBRANCH   6   8
ENDBRANCH   3   4
ENDBRANCH   2   3
ENDBRANCH   1   2
BRANCH   1  58
ATOM     58  C   UNL A   1      39.166  29.595  28.538  1.00  0.00     0.116 C 
BRANCH  58  59
ATOM     59  N   UNL A   1      38.061  29.087  29.330  1.00  0.00    -0.354 N 
ATOM     60  C   UNL A   1      37.784  29.278  30.657  1.00  0.00     0.247 C 
ATOM     61  H   UNL A   1      37.418  28.523  28.842  1.00  0.00     0.163 HD
ATOM     62  O   UNL A   1      36.648  28.952  31.025  1.00  0.00    -0.272 OA
BRANCH  60  63
ATOM     63  C   UNL A   1      38.756  29.985  31.645  1.00  0.00     0.211 C 
BRANCH  63  64
ATOM     64  C   UNL A   1      40.224  30.039  31.228  1.00  0.00    -0.016 A 
ATOM     65  C   UNL A   1      40.838  31.215  30.776  1.00  0.00     0.006 A 
ATOM     66  C   UNL A   1      41.020  28.876  31.318  1.00  0.00     0.006 A 
ATOM     67  C   UNL A   1      42.154  31.198  30.306  1.00  0.00     0.000 A 
ATOM     68  C   UNL A   1      42.330  28.857  30.837  1.00  0.00     0.000 A 
ATOM     69  C   UNL A   1      42.891  30.015  30.313  1.00  0.00     0.000 A 
ENDBRANCH  63  64
BRANCH  63  70
ATOM     70  N   UNL A   1      38.081  31.228  32.106  1.00  0.00    -0.276 N 
ATOM     71  C   UNL A   1      37.447  32.071  31.211  1.00  0.00     0.267 C 
ATOM     72  C   UNL A   1      37.944  31.579  33.437  1.00  0.00     0.149 C 
ATOM     73  O   UNL A   1      37.611  32.123  30.003  1.00  0.00    -0.268 OA
ATOM     74  C   UNL A   1      36.562  33.030  31.915  1.00  0.00     0.084 C 
ATOM     75  S   UNL A   1      36.974  33.050  33.581  1.00  0.00    -0.054 SA
ATOM     76  S   UNL A   1      38.556  30.826  34.795  1.00  0.00    -0.052 S 
ATOM     77  C   UNL A   1      35.539  33.714  31.385  1.00  0.00     0.068 C 
BRANCH  77  78
ATOM     78  C   UNL A   1      35.041  33.464  30.076  1.00  0.00     0.128 A 
ATOM     79  C   UNL A   1      34.983  34.354  29.008  1.00  0.00     0.051 A 
ATOM     80  O   UNL A   1      34.577  32.245  29.632  1.00  0.00    -0.457 OA
ATOM     81  C   UNL A   1      34.495  33.651  27.886  1.00  0.00     0.051 A 
ATOM     82  C   UNL A   1      34.250  32.364  28.309  1.00  0.00     0.134 A 
BRANCH  82  83
ATOM     83  C   UNL A   1      33.771  31.168  27.626  1.00  0.00     0.017 A 
ATOM     84  C   UNL A   1      32.530  31.144  26.974  1.00  0.00     0.015 A 
ATOM     85  C   UNL A   1      34.575  30.015  27.587  1.00  0.00     0.015 A 
ATOM     86  C   UNL A   1      32.105  29.995  26.297  1.00  0.00     0.040 A 
ATOM     87  C   UNL A   1      34.146  28.864  26.921  1.00  0.00     0.040 A 
ATOM     88  C   UNL A   1      32.916  28.866  26.281  1.00  0.00     0.123 A 
ATOM     89  F   UNL A   1      32.506  27.766  25.635  1.00  0.00    -0.207 F 
ENDBRANCH  82  83
ENDBRANCH  77  78
ENDBRANCH  63  70
ENDBRANCH  60  63
ENDBRANCH  58  59
ENDBRANCH   1  58
TORSDOF 15
ENDMDL
MODEL 3
REMARK VINA RESULT:      -8.9      6.447     11.072
REMARK SMILES O=C(NCCCCNC(=O)[C@@H](c1ccccc1)N1C(=O)/C(=C\c2ccc(-c3ccc(F)cc3)o2)SC1=S)c1ccc(-c2c3nc(c(-c4ccccc4)c4ccc([nH]4)c(-c4ccccc4)c4nc(c(-c5ccccc5)c5ccc2[nH]5)C=C4)C=C3)cc1
REMARK SMILES IDX 6 1 5 2 4 3 3 4 1 5 2 6 38 8 39 9 85 10 40 11 84 12 41 13
REMARK SMILES IDX 42 14 43 15 78 16 44 17 83 18 77 19 79 20 45 21 82 22 76 23
REMARK SMILES IDX 75 24 46 26 68 27 53 28 67 29 54 30 57 31 66 32 80 33 55 34
REMARK SMILES IDX 56 35 65 37 81 38 58 39 47 40 48 41 52 42 49 43 51 44 50 45
REMARK SMILES IDX 69 46 70 47 74 48 71 49 73 50 72 51 59 52 60 53 64 54 61 55
REMARK SMILES IDX 63 56 62 57 7 58 8 59 9 60 10 62 11 63 12 64 13 65 17 66
REMARK SMILES IDX 14 67 16 68 15 69 18 70 19 71 36 72 20 73 21 74 35 75 37 76
REMARK SMILES IDX 22 77 23 78 24 79 34 80 25 81 26 82 27 83 28 84 33 85 29 86
REMARK SMILES IDX 32 87 30 88 31 89
REMARK H PARENT 3 7 79 25 57 36 8 61
REMARK Flexibility Score: inf
ROOT
ATOM      1  C   UNL A   1      34.719  24.385  23.888  1.00  0.00     0.023 C 
ENDROOT
BRANCH   1   2
ATOM      2  C   UNL A   1      35.078  24.256  25.357  1.00  0.00     0.023 C 
BRANCH   2   3
ATOM      3  C   UNL A   1      36.546  24.448  25.692  1.00  0.00     0.116 C 
BRANCH   3   4
ATOM      4  N   UNL A   1      37.348  23.232  25.661  1.00  0.00    -0.352 N 
ATOM      5  O   UNL A   1      39.176  21.943  26.055  1.00  0.00    -0.269 OA
ATOM      6  C   UNL A   1      38.620  23.027  26.153  1.00  0.00     0.251 C 
ATOM      7  H   UNL A   1      36.926  22.453  25.231  1.00  0.00     0.163 HD
BRANCH   6   8
ATOM      8  C   UNL A   1      39.325  24.161  26.782  1.00  0.00     0.039 A 
ATOM      9  C   UNL A   1      39.164  24.409  28.143  1.00  0.00     0.014 A 
ATOM     10  C   UNL A   1      40.054  25.042  25.978  1.00  0.00     0.014 A 
ATOM     11  C   UNL A   1      39.535  25.644  28.651  1.00  0.00     0.010 A 
ATOM     12  C   UNL A   1      40.533  26.235  26.524  1.00  0.00     0.010 A 
ATOM     13  C   UNL A   1      40.222  26.574  27.849  1.00  0.00    -0.014 A 
BRANCH  13  14
ATOM     14  C   UNL A   1      40.606  27.878  28.446  1.00  0.00     0.031 A 
ATOM     15  C   UNL A   1      39.591  28.967  28.674  1.00  0.00     0.074 A 
ATOM     16  C   UNL A   1      41.875  28.035  28.868  1.00  0.00     0.049 A 
ATOM     17  N   UNL A   1      39.757  30.133  29.248  1.00  0.00    -0.248 NA
ATOM     18  C   UNL A   1      38.220  28.728  28.195  1.00  0.00     0.031 C 
ATOM     19  C   UNL A   1      42.945  27.048  28.699  1.00  0.00     0.029 A 
ATOM     20  N   UNL A   1      42.468  29.053  29.566  1.00  0.00    -0.354 N 
ATOM     21  C   UNL A   1      38.527  30.775  29.175  1.00  0.00     0.074 A 
ATOM     22  C   UNL A   1      37.624  29.877  28.488  1.00  0.00     0.031 C 
ATOM     23  C   UNL A   1      44.039  27.471  29.348  1.00  0.00     0.029 A 
ATOM     24  C   UNL A   1      43.771  28.787  29.913  1.00  0.00     0.049 A 
ATOM     25  H   UNL A   1      42.008  29.891  29.797  1.00  0.00     0.167 HD
ATOM     26  C   UNL A   1      38.181  32.000  29.639  1.00  0.00     0.031 A 
ATOM     27  C   UNL A   1      44.659  29.523  30.604  1.00  0.00     0.031 A 
ATOM     28  C   UNL A   1      39.078  32.888  30.333  1.00  0.00     0.049 A 
ATOM     29  C   UNL A   1      44.245  30.866  31.116  1.00  0.00     0.074 A 
ATOM     30  C   UNL A   1      38.825  34.152  30.837  1.00  0.00     0.029 A 
ATOM     31  N   UNL A   1      40.400  32.598  30.631  1.00  0.00    -0.354 N 
ATOM     32  N   UNL A   1      43.080  31.459  31.021  1.00  0.00    -0.248 NA
ATOM     33  C   UNL A   1      45.269  31.644  31.825  1.00  0.00     0.031 C 
ATOM     34  C   UNL A   1      40.004  34.640  31.412  1.00  0.00     0.029 A 
ATOM     35  C   UNL A   1      40.978  33.662  31.304  1.00  0.00     0.049 A 
ATOM     36  H   UNL A   1      40.861  31.759  30.398  1.00  0.00     0.167 HD
ATOM     37  C   UNL A   1      43.233  32.686  31.650  1.00  0.00     0.074 A 
ATOM     38  C   UNL A   1      44.589  32.732  32.157  1.00  0.00     0.031 C 
ATOM     39  C   UNL A   1      42.335  33.692  31.781  1.00  0.00     0.031 A 
BRANCH  26  40
ATOM     40  C   UNL A   1      36.774  32.469  29.391  1.00  0.00    -0.014 A 
ATOM     41  C   UNL A   1      35.765  32.281  30.348  1.00  0.00     0.009 A 
ATOM     42  C   UNL A   1      36.468  33.160  28.208  1.00  0.00     0.009 A 
ATOM     43  C   UNL A   1      34.471  32.756  30.114  1.00  0.00     0.001 A 
ATOM     44  C   UNL A   1      35.180  33.653  27.986  1.00  0.00     0.001 A 
ATOM     45  C   UNL A   1      34.182  33.446  28.937  1.00  0.00     0.000 A 
ENDBRANCH  26  40
BRANCH  27  46
ATOM     46  C   UNL A   1      46.032  29.001  30.820  1.00  0.00    -0.014 A 
ATOM     47  C   UNL A   1      47.057  29.280  29.906  1.00  0.00     0.009 A 
ATOM     48  C   UNL A   1      46.327  28.245  31.966  1.00  0.00     0.009 A 
ATOM     49  C   UNL A   1      48.350  28.798  30.129  1.00  0.00     0.001 A 
ATOM     50  C   UNL A   1      47.624  27.791  32.201  1.00  0.00     0.001 A 
ATOM     51  C   UNL A   1      48.633  28.060  31.278  1.00  0.00     0.000 A 
ENDBRANCH  27  46
BRANCH  39  52
ATOM     52  C   UNL A   1      42.808  34.919  32.502  1.00  0.00    -0.014 A 
ATOM     53  C   UNL A   1      43.499  35.933  31.819  1.00  0.00     0.009 A 
ATOM     54  C   UNL A   1      42.564  35.062  33.876  1.00  0.00     0.009 A 
ATOM     55  C   UNL A   1      43.972  37.050  32.509  1.00  0.00     0.001 A 
ATOM     56  C   UNL A   1      43.019  36.191  34.557  1.00  0.00     0.001 A 
ATOM     57  C   UNL A   1      43.731  37.178  33.876  1.00  0.00     0.000 A 
ENDBRANCH  39  52
ENDBRANCH  13  14
ENDBRANCH   6   8
ENDBRANCH   3   4
ENDBRANCH   2   3
ENDBRANCH   1   2
BRANCH   1  58
ATOM     58  C   UNL A   1      34.105  25.712  23.475  1.00  0.00     0.116 C 
BRANCH  58  59
ATOM     59  N   UNL A   1      33.115  25.624  22.417  1.00  0.00    -0.354 N 
ATOM     60  C   UNL A   1      31.981  26.365  22.227  1.00  0.00     0.247 C 
ATOM     61  H   UNL A   1      33.284  24.929  21.740  1.00  0.00     0.163 HD
ATOM     62  O   UNL A   1      31.448  26.264  21.113  1.00  0.00    -0.272 OA
BRANCH  60  63
ATOM     63  C   UNL A   1      31.437  27.388  23.266  1.00  0.00     0.211 C 
BRANCH  63  64
ATOM     64  C   UNL A   1      30.270  28.261  22.808  1.00  0.00    -0.016 A 
ATOM     65  C   UNL A   1      30.449  29.416  22.035  1.00  0.00     0.006 A 
ATOM     66  C   UNL A   1      28.949  27.893  23.142  1.00  0.00     0.006 A 
ATOM     67  C   UNL A   1      29.365  30.242  21.725  1.00  0.00     0.000 A 
ATOM     68  C   UNL A   1      27.869  28.724  22.842  1.00  0.00     0.000 A 
ATOM     69  C   UNL A   1      28.081  29.910  22.149  1.00  0.00     0.000 A 
ENDBRANCH  63  64
BRANCH  63  70
ATOM     70  N   UNL A   1      31.353  26.681  24.572  1.00  0.00    -0.276 N 
ATOM     71  C   UNL A   1      31.096  25.323  24.634  1.00  0.00     0.267 C 
ATOM     72  C   UNL A   1      31.621  27.282  25.789  1.00  0.00     0.149 C 
ATOM     73  O   UNL A   1      30.607  24.624  23.762  1.00  0.00    -0.268 OA
ATOM     74  C   UNL A   1      31.406  24.782  25.979  1.00  0.00     0.084 C 
ATOM     75  S   UNL A   1      31.541  26.086  27.088  1.00  0.00    -0.054 SA
ATOM     76  S   UNL A   1      31.970  28.879  26.122  1.00  0.00    -0.052 S 
ATOM     77  C   UNL A   1      31.640  23.500  26.294  1.00  0.00     0.068 C 
BRANCH  77  78
ATOM     78  C   UNL A   1      31.804  22.484  25.311  1.00  0.00     0.128 A 
ATOM     79  C   UNL A   1      31.774  22.630  23.929  1.00  0.00     0.051 A 
ATOM     80  O   UNL A   1      32.086  21.163  25.587  1.00  0.00    -0.457 OA
ATOM     81  C   UNL A   1      32.066  21.375  23.354  1.00  0.00     0.051 A 
ATOM     82  C   UNL A   1      32.243  20.499  24.402  1.00  0.00     0.134 A 
BRANCH  82  83
ATOM     83  C   UNL A   1      32.589  19.084  24.467  1.00  0.00     0.017 A 
ATOM     84  C   UNL A   1      32.616  18.392  25.686  1.00  0.00     0.015 A 
ATOM     85  C   UNL A   1      32.873  18.377  23.284  1.00  0.00     0.015 A 
ATOM     86  C   UNL A   1      32.919  17.026  25.721  1.00  0.00     0.040 A 
ATOM     87  C   UNL A   1      33.186  17.016  23.321  1.00  0.00     0.040 A 
ATOM     88  C   UNL A   1      33.204  16.353  24.539  1.00  0.00     0.123 A 
ATOM     89  F   UNL A   1      33.496  15.046  24.575  1.00  0.00    -0.207 F 
ENDBRANCH  82  83
ENDBRANCH  77  78
ENDBRANCH  63  70
ENDBRANCH  60  63
ENDBRANCH  58  59
ENDBRANCH   1  58
TORSDOF 15
ENDMDL
