MODEL 1
REMARK VINA RESULT:     -10.4      0.000      0.000
REMARK SMILES C=CCN(CC(=O)NCCCCNC(=O)c1ccc(-c2c3nc(c(-c4ccccc4)c4ccc([nH]4)c(-c4ccccc4)c4nc(c(-c5ccccc5)c5ccc2[nH]5)C=C4)C=C3)cc1)c1ccc([N+](=O)[O-])cc1Br
REMARK SMILES IDX 10 1 9 2 8 3 6 4 7 5 5 7 4 8 3 9 2 10 1 11 64 12 65 13 72 14
REMARK SMILES IDX 66 15 71 16 73 17 67 18 68 19 69 20 70 21 11 22 12 23 13 24
REMARK SMILES IDX 14 25 15 27 16 28 17 29 63 30 18 31 62 32 19 33 20 34 21 35
REMARK SMILES IDX 56 36 22 37 61 38 55 39 57 40 23 41 60 42 54 43 53 44 24 46
REMARK SMILES IDX 46 47 31 48 45 49 32 50 35 51 44 52 58 53 33 54 34 55 43 57
REMARK SMILES IDX 59 58 36 59 25 60 26 61 30 62 27 63 29 64 28 65 47 66 48 67
REMARK SMILES IDX 52 68 49 69 51 70 50 71 37 72 38 73 42 74 39 75 41 76 40 77
REMARK H PARENT 8 6 13 26 57 45 35 56
REMARK Flexibility Score: inf
ROOT
ATOM      1  C   UNL A   1      33.693  26.948  25.576  1.00  0.00     0.023 C 
ENDROOT
BRANCH   1   2
ATOM      2  C   UNL A   1      32.239  26.499  25.416  1.00  0.00     0.116 C 
BRANCH   2   3
ATOM      3  N   UNL A   1      31.848  25.519  26.406  1.00  0.00    -0.355 N 
ATOM      4  C   UNL A   1      31.452  24.219  26.259  1.00  0.00     0.239 C 
ATOM      5  O   UNL A   1      31.189  23.603  27.298  1.00  0.00    -0.273 OA
ATOM      6  H   UNL A   1      31.873  25.840  27.336  1.00  0.00     0.163 HD
BRANCH   4   7
ATOM      7  C   UNL A   1      31.366  23.528  24.886  1.00  0.00     0.216 C 
BRANCH   7   8
ATOM      8  N   UNL A   1      32.607  22.899  24.380  1.00  0.00    -0.358 N 
BRANCH   8   9
ATOM      9  C   UNL A   1      33.558  23.723  23.631  1.00  0.00     0.144 C 
BRANCH   9  10
ATOM     10  C   UNL A   1      34.934  23.704  24.208  1.00  0.00    -0.014 C 
ATOM     11  C   UNL A   1      35.936  22.958  23.721  1.00  0.00     0.006 C 
ENDBRANCH   9  10
ENDBRANCH   8   9
BRANCH   8  12
ATOM     12  C   UNL A   1      32.704  21.509  24.301  1.00  0.00     0.052 A 
ATOM     13  C   UNL A   1      32.176  20.833  23.182  1.00  0.00     0.034 A 
ATOM     14  C   UNL A   1      33.346  20.708  25.270  1.00  0.00     0.048 A 
ATOM     15  C   UNL A   1      32.325  19.456  22.993  1.00  0.00     0.088 A 
ATOM     16  C   UNL A   1      33.548  19.332  25.074  1.00  0.00     0.103 A 
ATOM     17  Br  UNL A   1      33.863  21.368  26.980  1.00  0.00    -0.048 Br
ATOM     18  C   UNL A   1      33.041  18.716  23.929  1.00  0.00     0.270 A 
BRANCH  18  19
ATOM     19  N   UNL A   1      33.251  17.283  23.713  1.00  0.00     0.062 N 
ATOM     20  O   UNL A   1      32.884  16.506  24.606  1.00  0.00    -0.258 OA
ATOM     21  O   UNL A   1      33.769  16.934  22.643  1.00  0.00    -0.258 OA
ENDBRANCH  18  19
ENDBRANCH   8  12
ENDBRANCH   7   8
ENDBRANCH   4   7
ENDBRANCH   2   3
ENDBRANCH   1   2
BRANCH   1  22
ATOM     22  C   UNL A   1      33.888  28.401  26.006  1.00  0.00     0.023 C 
BRANCH  22  23
ATOM     23  C   UNL A   1      33.572  28.689  27.466  1.00  0.00     0.116 C 
BRANCH  23  24
ATOM     24  N   UNL A   1      33.612  30.106  27.795  1.00  0.00    -0.352 N 
ATOM     25  C   UNL A   1      34.660  30.846  28.284  1.00  0.00     0.251 C 
ATOM     26  H   UNL A   1      32.775  30.600  27.646  1.00  0.00     0.163 HD
ATOM     27  O   UNL A   1      34.491  32.019  28.604  1.00  0.00    -0.269 OA
BRANCH  25  28
ATOM     28  C   UNL A   1      35.982  30.211  28.463  1.00  0.00     0.039 A 
ATOM     29  C   UNL A   1      36.897  30.253  27.408  1.00  0.00     0.014 A 
ATOM     30  C   UNL A   1      36.326  29.604  29.673  1.00  0.00     0.014 A 
ATOM     31  C   UNL A   1      38.185  29.748  27.592  1.00  0.00     0.010 A 
ATOM     32  C   UNL A   1      37.630  29.167  29.878  1.00  0.00     0.010 A 
ATOM     33  C   UNL A   1      38.572  29.237  28.840  1.00  0.00    -0.014 A 
BRANCH  33  34
ATOM     34  C   UNL A   1      39.957  28.771  29.089  1.00  0.00     0.031 A 
ATOM     35  C   UNL A   1      40.963  29.693  29.716  1.00  0.00     0.074 A 
ATOM     36  C   UNL A   1      40.331  27.542  28.683  1.00  0.00     0.049 A 
ATOM     37  N   UNL A   1      42.237  29.496  29.945  1.00  0.00    -0.248 NA
ATOM     38  C   UNL A   1      40.478  31.025  30.114  1.00  0.00     0.031 C 
ATOM     39  C   UNL A   1      39.460  26.563  28.029  1.00  0.00     0.029 A 
ATOM     40  N   UNL A   1      41.548  26.912  28.754  1.00  0.00    -0.354 N 
ATOM     41  C   UNL A   1      42.708  30.681  30.491  1.00  0.00     0.074 A 
ATOM     42  C   UNL A   1      41.598  31.609  30.516  1.00  0.00     0.031 C 
ATOM     43  C   UNL A   1      40.164  25.445  27.787  1.00  0.00     0.029 A 
ATOM     44  C   UNL A   1      41.541  25.643  28.229  1.00  0.00     0.049 A 
ATOM     45  H   UNL A   1      42.349  27.329  29.143  1.00  0.00     0.167 HD
ATOM     46  C   UNL A   1      43.950  30.969  30.951  1.00  0.00     0.031 A 
ATOM     47  C   UNL A   1      42.532  24.741  28.115  1.00  0.00     0.031 A 
ATOM     48  C   UNL A   1      45.053  30.046  30.936  1.00  0.00     0.049 A 
ATOM     49  C   UNL A   1      43.906  25.087  28.615  1.00  0.00     0.074 A 
ATOM     50  C   UNL A   1      46.333  30.223  31.430  1.00  0.00     0.029 A 
ATOM     51  N   UNL A   1      45.003  28.770  30.397  1.00  0.00    -0.354 N 
ATOM     52  N   UNL A   1      44.322  26.192  29.185  1.00  0.00    -0.248 NA
ATOM     53  C   UNL A   1      44.943  24.057  28.462  1.00  0.00     0.031 C 
ATOM     54  C   UNL A   1      47.072  29.069  31.149  1.00  0.00     0.029 A 
ATOM     55  C   UNL A   1      46.238  28.156  30.525  1.00  0.00     0.049 A 
ATOM     56  H   UNL A   1      44.209  28.361  29.984  1.00  0.00     0.167 HD
ATOM     57  C   UNL A   1      45.662  25.981  29.483  1.00  0.00     0.074 A 
ATOM     58  C   UNL A   1      45.985  24.639  29.040  1.00  0.00     0.031 C 
ATOM     59  C   UNL A   1      46.544  26.823  30.076  1.00  0.00     0.031 A 
BRANCH  46  60
ATOM     60  C   UNL A   1      44.173  32.352  31.496  1.00  0.00    -0.014 A 
ATOM     61  C   UNL A   1      44.608  33.399  30.667  1.00  0.00     0.009 A 
ATOM     62  C   UNL A   1      43.939  32.613  32.854  1.00  0.00     0.009 A 
ATOM     63  C   UNL A   1      44.850  34.668  31.198  1.00  0.00     0.001 A 
ATOM     64  C   UNL A   1      44.153  33.890  33.376  1.00  0.00     0.001 A 
ATOM     65  C   UNL A   1      44.620  34.913  32.551  1.00  0.00     0.000 A 
ENDBRANCH  46  60
BRANCH  47  66
ATOM     66  C   UNL A   1      42.253  23.406  27.526  1.00  0.00    -0.014 A 
ATOM     67  C   UNL A   1      42.514  23.165  26.169  1.00  0.00     0.009 A 
ATOM     68  C   UNL A   1      41.741  22.366  28.316  1.00  0.00     0.009 A 
ATOM     69  C   UNL A   1      42.249  21.913  25.609  1.00  0.00     0.001 A 
ATOM     70  C   UNL A   1      41.499  21.108  27.759  1.00  0.00     0.001 A 
ATOM     71  C   UNL A   1      41.748  20.884  26.405  1.00  0.00     0.000 A 
ENDBRANCH  47  66
BRANCH  59  72
ATOM     72  C   UNL A   1      47.934  26.304  30.308  1.00  0.00    -0.014 A 
ATOM     73  C   UNL A   1      48.915  26.372  29.307  1.00  0.00     0.009 A 
ATOM     74  C   UNL A   1      48.276  25.778  31.563  1.00  0.00     0.009 A 
ATOM     75  C   UNL A   1      50.203  25.896  29.550  1.00  0.00     0.001 A 
ATOM     76  C   UNL A   1      49.573  25.326  31.812  1.00  0.00     0.001 A 
ATOM     77  C   UNL A   1      50.534  25.378  30.803  1.00  0.00     0.000 A 
ENDBRANCH  59  72
ENDBRANCH  33  34
ENDBRANCH  25  28
ENDBRANCH  23  24
ENDBRANCH  22  23
ENDBRANCH   1  22
TORSDOF 16
ENDMDL
MODEL 2
REMARK VINA RESULT:     -10.2      1.603      2.118
REMARK SMILES C=CCN(CC(=O)NCCCCNC(=O)c1ccc(-c2c3nc(c(-c4ccccc4)c4ccc([nH]4)c(-c4ccccc4)c4nc(c(-c5ccccc5)c5ccc2[nH]5)C=C4)C=C3)cc1)c1ccc([N+](=O)[O-])cc1Br
REMARK SMILES IDX 10 1 9 2 8 3 6 4 7 5 5 7 4 8 3 9 2 10 1 11 64 12 65 13 72 14
REMARK SMILES IDX 66 15 71 16 73 17 67 18 68 19 69 20 70 21 11 22 12 23 13 24
REMARK SMILES IDX 14 25 15 27 16 28 17 29 63 30 18 31 62 32 19 33 20 34 21 35
REMARK SMILES IDX 56 36 22 37 61 38 55 39 57 40 23 41 60 42 54 43 53 44 24 46
REMARK SMILES IDX 46 47 31 48 45 49 32 50 35 51 44 52 58 53 33 54 34 55 43 57
REMARK SMILES IDX 59 58 36 59 25 60 26 61 30 62 27 63 29 64 28 65 47 66 48 67
REMARK SMILES IDX 52 68 49 69 51 70 50 71 37 72 38 73 42 74 39 75 41 76 40 77
REMARK H PARENT 8 6 13 26 57 45 35 56
REMARK Flexibility Score: inf
ROOT
ATOM      1  C   UNL A   1      31.885  27.999  26.631  1.00  0.00     0.023 C 
ENDROOT
BRANCH   1   2
ATOM      2  C   UNL A   1      31.226  26.840  25.881  1.00  0.00     0.116 C 
BRANCH   2   3
ATOM      3  N   UNL A   1      31.051  25.669  26.711  1.00  0.00    -0.355 N 
ATOM      4  C   UNL A   1      31.037  24.342  26.383  1.00  0.00     0.239 C 
ATOM      5  O   UNL A   1      30.881  23.546  27.315  1.00  0.00    -0.273 OA
ATOM      6  H   UNL A   1      30.921  25.859  27.668  1.00  0.00     0.163 HD
BRANCH   4   7
ATOM      7  C   UNL A   1      31.240  23.843  24.941  1.00  0.00     0.216 C 
BRANCH   7   8
ATOM      8  N   UNL A   1      32.545  23.219  24.631  1.00  0.00    -0.358 N 
BRANCH   8   9
ATOM      9  C   UNL A   1      33.624  24.064  24.116  1.00  0.00     0.144 C 
BRANCH   9  10
ATOM     10  C   UNL A   1      34.478  24.650  25.192  1.00  0.00    -0.014 C 
ATOM     11  C   UNL A   1      35.702  24.198  25.499  1.00  0.00     0.006 C 
ENDBRANCH   9  10
ENDBRANCH   8   9
BRANCH   8  12
ATOM     12  C   UNL A   1      32.642  21.834  24.489  1.00  0.00     0.052 A 
ATOM     13  C   UNL A   1      32.139  21.212  23.328  1.00  0.00     0.034 A 
ATOM     14  C   UNL A   1      33.261  20.986  25.435  1.00  0.00     0.048 A 
ATOM     15  C   UNL A   1      32.290  19.845  23.078  1.00  0.00     0.088 A 
ATOM     16  C   UNL A   1      33.466  19.620  25.179  1.00  0.00     0.103 A 
ATOM     17  Br  UNL A   1      33.739  21.565  27.185  1.00  0.00    -0.048 Br
ATOM     18  C   UNL A   1      32.984  19.060  23.995  1.00  0.00     0.270 A 
BRANCH  18  19
ATOM     19  N   UNL A   1      33.197  17.639  23.716  1.00  0.00     0.062 N 
ATOM     20  O   UNL A   1      33.348  16.879  24.684  1.00  0.00    -0.258 OA
ATOM     21  O   UNL A   1      33.199  17.280  22.530  1.00  0.00    -0.258 OA
ENDBRANCH  18  19
ENDBRANCH   8  12
ENDBRANCH   7   8
ENDBRANCH   4   7
ENDBRANCH   2   3
ENDBRANCH   1   2
BRANCH   1  22
ATOM     22  C   UNL A   1      33.388  27.855  26.872  1.00  0.00     0.023 C 
BRANCH  22  23
ATOM     23  C   UNL A   1      34.246  28.951  26.257  1.00  0.00     0.116 C 
BRANCH  23  24
ATOM     24  N   UNL A   1      33.864  30.288  26.684  1.00  0.00    -0.352 N 
ATOM     25  C   UNL A   1      34.474  31.106  27.604  1.00  0.00     0.251 C 
ATOM     26  H   UNL A   1      33.059  30.656  26.255  1.00  0.00     0.163 HD
ATOM     27  O   UNL A   1      33.956  32.172  27.921  1.00  0.00    -0.269 OA
BRANCH  25  28
ATOM     28  C   UNL A   1      35.735  30.675  28.241  1.00  0.00     0.039 A 
ATOM     29  C   UNL A   1      35.673  29.817  29.343  1.00  0.00     0.014 A 
ATOM     30  C   UNL A   1      36.970  31.090  27.738  1.00  0.00     0.014 A 
ATOM     31  C   UNL A   1      36.853  29.318  29.895  1.00  0.00     0.010 A 
ATOM     32  C   UNL A   1      38.141  30.537  28.244  1.00  0.00     0.010 A 
ATOM     33  C   UNL A   1      38.093  29.644  29.326  1.00  0.00    -0.014 A 
BRANCH  33  34
ATOM     34  C   UNL A   1      39.357  29.064  29.840  1.00  0.00     0.031 A 
ATOM     35  C   UNL A   1      40.095  29.737  30.962  1.00  0.00     0.074 A 
ATOM     36  C   UNL A   1      39.879  27.974  29.247  1.00  0.00     0.049 A 
ATOM     37  N   UNL A   1      41.249  29.426  31.496  1.00  0.00    -0.248 NA
ATOM     38  C   UNL A   1      39.465  30.934  31.542  1.00  0.00     0.031 C 
ATOM     39  C   UNL A   1      39.281  27.247  28.126  1.00  0.00     0.029 A 
ATOM     40  N   UNL A   1      41.042  27.291  29.504  1.00  0.00    -0.354 N 
ATOM     41  C   UNL A   1      41.492  30.397  32.457  1.00  0.00     0.074 A 
ATOM     42  C   UNL A   1      40.392  31.335  32.400  1.00  0.00     0.031 C 
ATOM     43  C   UNL A   1      40.065  26.204  27.811  1.00  0.00     0.029 A 
ATOM     44  C   UNL A   1      41.239  26.211  28.679  1.00  0.00     0.049 A 
ATOM     45  H   UNL A   1      41.675  27.551  30.211  1.00  0.00     0.167 HD
ATOM     46  C   UNL A   1      42.529  30.493  33.324  1.00  0.00     0.031 A 
ATOM     47  C   UNL A   1      42.252  25.328  28.624  1.00  0.00     0.031 A 
ATOM     48  C   UNL A   1      43.619  29.557  33.389  1.00  0.00     0.049 A 
ATOM     49  C   UNL A   1      43.400  25.463  29.584  1.00  0.00     0.074 A 
ATOM     50  C   UNL A   1      44.686  29.535  34.270  1.00  0.00     0.029 A 
ATOM     51  N   UNL A   1      43.779  28.477  32.537  1.00  0.00    -0.354 N 
ATOM     52  N   UNL A   1      43.586  26.352  30.528  1.00  0.00    -0.248 NA
ATOM     53  C   UNL A   1      44.473  24.463  29.474  1.00  0.00     0.031 C 
ATOM     54  C   UNL A   1      45.517  28.466  33.920  1.00  0.00     0.029 A 
ATOM     55  C   UNL A   1      44.942  27.793  32.854  1.00  0.00     0.049 A 
ATOM     56  H   UNL A   1      43.160  28.231  31.812  1.00  0.00     0.167 HD
ATOM     57  C   UNL A   1      44.783  26.007  31.142  1.00  0.00     0.074 A 
ATOM     58  C   UNL A   1      45.272  24.820  30.470  1.00  0.00     0.031 C 
ATOM     59  C   UNL A   1      45.416  26.617  32.174  1.00  0.00     0.031 A 
BRANCH  46  60
ATOM     60  C   UNL A   1      42.528  31.667  34.263  1.00  0.00    -0.014 A 
ATOM     61  C   UNL A   1      41.905  31.593  35.520  1.00  0.00     0.009 A 
ATOM     62  C   UNL A   1      43.164  32.860  33.890  1.00  0.00     0.009 A 
ATOM     63  C   UNL A   1      41.877  32.706  36.362  1.00  0.00     0.001 A 
ATOM     64  C   UNL A   1      43.161  33.962  34.747  1.00  0.00     0.001 A 
ATOM     65  C   UNL A   1      42.508  33.888  35.977  1.00  0.00     0.000 A 
ENDBRANCH  46  60
BRANCH  47  66
ATOM     66  C   UNL A   1      42.210  24.214  27.643  1.00  0.00    -0.014 A 
ATOM     67  C   UNL A   1      42.800  24.366  26.379  1.00  0.00     0.009 A 
ATOM     68  C   UNL A   1      41.596  22.995  27.966  1.00  0.00     0.009 A 
ATOM     69  C   UNL A   1      42.761  23.324  25.450  1.00  0.00     0.001 A 
ATOM     70  C   UNL A   1      41.579  21.946  27.042  1.00  0.00     0.001 A 
ATOM     71  C   UNL A   1      42.155  22.114  25.784  1.00  0.00     0.000 A 
ENDBRANCH  47  66
BRANCH  59  72
ATOM     72  C   UNL A   1      46.692  25.990  32.660  1.00  0.00    -0.014 A 
ATOM     73  C   UNL A   1      46.686  25.006  33.659  1.00  0.00     0.009 A 
ATOM     74  C   UNL A   1      47.912  26.362  32.076  1.00  0.00     0.009 A 
ATOM     75  C   UNL A   1      47.883  24.428  34.086  1.00  0.00     0.001 A 
ATOM     76  C   UNL A   1      49.105  25.764  32.486  1.00  0.00     0.001 A 
ATOM     77  C   UNL A   1      49.090  24.804  33.495  1.00  0.00     0.000 A 
ENDBRANCH  59  72
ENDBRANCH  33  34
ENDBRANCH  25  28
ENDBRANCH  23  24
ENDBRANCH  22  23
ENDBRANCH   1  22
TORSDOF 16
ENDMDL
MODEL 3
REMARK VINA RESULT:     -10.0      2.349      7.337
REMARK SMILES C=CCN(CC(=O)NCCCCNC(=O)c1ccc(-c2c3nc(c(-c4ccccc4)c4ccc([nH]4)c(-c4ccccc4)c4nc(c(-c5ccccc5)c5ccc2[nH]5)C=C4)C=C3)cc1)c1ccc([N+](=O)[O-])cc1Br
REMARK SMILES IDX 10 1 9 2 8 3 6 4 7 5 5 7 4 8 3 9 2 10 1 11 64 12 65 13 72 14
REMARK SMILES IDX 66 15 71 16 73 17 67 18 68 19 69 20 70 21 11 22 12 23 13 24
REMARK SMILES IDX 14 25 15 27 16 28 17 29 63 30 18 31 62 32 19 33 20 34 21 35
REMARK SMILES IDX 56 36 22 37 61 38 55 39 57 40 23 41 60 42 54 43 53 44 24 46
REMARK SMILES IDX 46 47 31 48 45 49 32 50 35 51 44 52 58 53 33 54 34 55 43 57
REMARK SMILES IDX 59 58 36 59 25 60 26 61 30 62 27 63 29 64 28 65 47 66 48 67
REMARK SMILES IDX 52 68 49 69 51 70 50 71 37 72 38 73 42 74 39 75 41 76 40 77
REMARK H PARENT 8 6 13 26 57 45 35 56
REMARK Flexibility Score: inf
ROOT
ATOM      1  C   UNL A   1      39.151  22.234  26.399  1.00  0.00     0.023 C 
ENDROOT
BRANCH   1   2
ATOM      2  C   UNL A   1      37.906  23.017  25.978  1.00  0.00     0.116 C 
BRANCH   2   3
ATOM      3  N   UNL A   1      37.623  22.895  24.565  1.00  0.00    -0.355 N 
ATOM      4  C   UNL A   1      36.485  23.171  23.860  1.00  0.00     0.239 C 
ATOM      5  O   UNL A   1      36.534  22.984  22.640  1.00  0.00    -0.273 OA
ATOM      6  H   UNL A   1      38.373  22.560  24.023  1.00  0.00     0.163 HD
BRANCH   4   7
ATOM      7  C   UNL A   1      35.210  23.721  24.526  1.00  0.00     0.216 C 
BRANCH   7   8
ATOM      8  N   UNL A   1      34.399  22.758  25.304  1.00  0.00    -0.358 N 
BRANCH   8   9
ATOM      9  C   UNL A   1      34.306  22.929  26.756  1.00  0.00     0.144 C 
BRANCH   9  10
ATOM     10  C   UNL A   1      32.900  23.033  27.247  1.00  0.00    -0.014 C 
ATOM     11  C   UNL A   1      32.003  23.901  26.759  1.00  0.00     0.006 C 
ENDBRANCH   9  10
ENDBRANCH   8   9
BRANCH   8  12
ATOM     12  C   UNL A   1      34.035  21.534  24.742  1.00  0.00     0.052 A 
ATOM     13  C   UNL A   1      34.799  20.382  25.016  1.00  0.00     0.034 A 
ATOM     14  C   UNL A   1      32.900  21.351  23.921  1.00  0.00     0.048 A 
ATOM     15  C   UNL A   1      34.435  19.110  24.565  1.00  0.00     0.088 A 
ATOM     16  C   UNL A   1      32.492  20.075  23.500  1.00  0.00     0.103 A 
ATOM     17  Br  UNL A   1      31.908  22.803  23.190  1.00  0.00    -0.048 Br
ATOM     18  C   UNL A   1      33.261  18.960  23.833  1.00  0.00     0.270 A 
BRANCH  18  19
ATOM     19  N   UNL A   1      32.842  17.624  23.404  1.00  0.00     0.062 N 
ATOM     20  O   UNL A   1      32.927  16.701  24.227  1.00  0.00    -0.258 OA
ATOM     21  O   UNL A   1      32.414  17.501  22.247  1.00  0.00    -0.258 OA
ENDBRANCH  18  19
ENDBRANCH   8  12
ENDBRANCH   7   8
ENDBRANCH   4   7
ENDBRANCH   2   3
ENDBRANCH   1   2
BRANCH   1  22
ATOM     22  C   UNL A   1      39.342  20.884  25.707  1.00  0.00     0.023 C 
BRANCH  22  23
ATOM     23  C   UNL A   1      40.037  19.823  26.548  1.00  0.00     0.116 C 
BRANCH  23  24
ATOM     24  N   UNL A   1      41.305  19.384  25.986  1.00  0.00    -0.352 N 
ATOM     25  C   UNL A   1      42.480  20.084  25.862  1.00  0.00     0.251 C 
ATOM     26  H   UNL A   1      41.323  18.459  25.650  1.00  0.00     0.163 HD
ATOM     27  O   UNL A   1      43.433  19.590  25.266  1.00  0.00    -0.269 OA
BRANCH  25  28
ATOM     28  C   UNL A   1      42.576  21.452  26.411  1.00  0.00     0.039 A 
ATOM     29  C   UNL A   1      42.537  21.624  27.798  1.00  0.00     0.014 A 
ATOM     30  C   UNL A   1      42.732  22.553  25.567  1.00  0.00     0.014 A 
ATOM     31  C   UNL A   1      42.728  22.896  28.340  1.00  0.00     0.010 A 
ATOM     32  C   UNL A   1      42.993  23.806  26.110  1.00  0.00     0.010 A 
ATOM     33  C   UNL A   1      42.995  23.989  27.502  1.00  0.00    -0.014 A 
BRANCH  33  34
ATOM     34  C   UNL A   1      43.284  25.334  28.054  1.00  0.00     0.031 A 
ATOM     35  C   UNL A   1      42.162  26.295  28.328  1.00  0.00     0.074 A 
ATOM     36  C   UNL A   1      44.561  25.719  28.238  1.00  0.00     0.049 A 
ATOM     37  N   UNL A   1      42.218  27.536  28.737  1.00  0.00    -0.248 NA
ATOM     38  C   UNL A   1      40.797  25.801  28.082  1.00  0.00     0.031 C 
ATOM     39  C   UNL A   1      45.743  24.895  27.976  1.00  0.00     0.029 A 
ATOM     40  N   UNL A   1      45.077  26.911  28.682  1.00  0.00    -0.354 N 
ATOM     41  C   UNL A   1      40.903  27.978  28.778  1.00  0.00     0.074 A 
ATOM     42  C   UNL A   1      40.075  26.889  28.306  1.00  0.00     0.031 C 
ATOM     43  C   UNL A   1      46.844  25.596  28.293  1.00  0.00     0.029 A 
ATOM     44  C   UNL A   1      46.449  26.928  28.740  1.00  0.00     0.049 A 
ATOM     45  H   UNL A   1      44.518  27.680  28.934  1.00  0.00     0.167 HD
ATOM     46  C   UNL A   1      40.422  29.176  29.190  1.00  0.00     0.031 A 
ATOM     47  C   UNL A   1      47.294  27.907  29.108  1.00  0.00     0.031 A 
ATOM     48  C   UNL A   1      41.242  30.256  29.668  1.00  0.00     0.049 A 
ATOM     49  C   UNL A   1      46.740  29.234  29.545  1.00  0.00     0.074 A 
ATOM     50  C   UNL A   1      40.847  31.487  30.161  1.00  0.00     0.029 A 
ATOM     51  N   UNL A   1      42.627  30.232  29.712  1.00  0.00    -0.354 N 
ATOM     52  N   UNL A   1      45.490  29.617  29.635  1.00  0.00    -0.248 NA
ATOM     53  C   UNL A   1      47.718  30.260  29.937  1.00  0.00     0.031 C 
ATOM     54  C   UNL A   1      41.996  32.226  30.461  1.00  0.00     0.029 A 
ATOM     55  C   UNL A   1      43.105  31.437  30.202  1.00  0.00     0.049 A 
ATOM     56  H   UNL A   1      43.189  29.473  29.436  1.00  0.00     0.167 HD
ATOM     57  C   UNL A   1      45.527  30.918  30.119  1.00  0.00     0.074 A 
ATOM     58  C   UNL A   1      46.924  31.254  30.313  1.00  0.00     0.031 C 
ATOM     59  C   UNL A   1      44.496  31.757  30.385  1.00  0.00     0.031 A 
BRANCH  46  60
ATOM     60  C   UNL A   1      38.934  29.374  29.123  1.00  0.00    -0.014 A 
ATOM     61  C   UNL A   1      38.306  29.782  27.934  1.00  0.00     0.009 A 
ATOM     62  C   UNL A   1      38.146  29.144  30.261  1.00  0.00     0.009 A 
ATOM     63  C   UNL A   1      36.928  30.002  27.900  1.00  0.00     0.001 A 
ATOM     64  C   UNL A   1      36.764  29.335  30.216  1.00  0.00     0.001 A 
ATOM     65  C   UNL A   1      36.158  29.776  29.040  1.00  0.00     0.000 A 
ENDBRANCH  46  60
BRANCH  47  66
ATOM     66  C   UNL A   1      48.758  27.658  29.111  1.00  0.00    -0.014 A 
ATOM     67  C   UNL A   1      49.532  27.989  27.988  1.00  0.00     0.009 A 
ATOM     68  C   UNL A   1      49.390  27.106  30.235  1.00  0.00     0.009 A 
ATOM     69  C   UNL A   1      50.909  27.753  27.983  1.00  0.00     0.001 A 
ATOM     70  C   UNL A   1      50.772  26.893  30.235  1.00  0.00     0.001 A 
ATOM     71  C   UNL A   1      51.528  27.210  29.108  1.00  0.00     0.000 A 
ENDBRANCH  47  66
BRANCH  59  72
ATOM     72  C   UNL A   1      44.839  33.107  30.944  1.00  0.00    -0.014 A 
ATOM     73  C   UNL A   1      44.845  33.345  32.327  1.00  0.00     0.009 A 
ATOM     74  C   UNL A   1      45.203  34.146  30.073  1.00  0.00     0.009 A 
ATOM     75  C   UNL A   1      45.180  34.605  32.824  1.00  0.00     0.001 A 
ATOM     76  C   UNL A   1      45.563  35.398  30.574  1.00  0.00     0.001 A 
ATOM     77  C   UNL A   1      45.544  35.629  31.948  1.00  0.00     0.000 A 
ENDBRANCH  59  72
ENDBRANCH  33  34
ENDBRANCH  25  28
ENDBRANCH  23  24
ENDBRANCH  22  23
ENDBRANCH   1  22
TORSDOF 16
ENDMDL
