MODEL 1
REMARK VINA RESULT:     -11.1      0.000      0.000
REMARK SMILES CC(C)CCOc1ccccc1-c1cc(C(=O)NCCCCNC(=O)c2ccc(-c3c4nc(c(-c5ccccc5)c5ccc([nH]5)c(-c5ccccc5)c5nc(c(-c6ccccc6)c6ccc3[nH]6)C=C5)C=C4)cc2)no1
REMARK SMILES IDX 19 1 18 2 16 3 17 4 15 6 13 7 14 8 75 9 74 10 12 11 7 12
REMARK SMILES IDX 8 13 9 14 11 15 10 16 6 17 5 18 4 19 2 20 1 21 3 22 20 23
REMARK SMILES IDX 21 24 22 25 23 26 24 27 25 29 26 30 27 31 73 32 28 33 72 34
REMARK SMILES IDX 29 35 30 36 31 37 66 38 32 39 71 40 65 41 67 42 33 43 70 44
REMARK SMILES IDX 64 45 63 46 34 48 56 49 41 50 55 51 42 52 45 53 54 54 68 55
REMARK SMILES IDX 43 56 44 57 53 59 69 60 46 61 35 62 36 63 40 64 37 65 39 66
REMARK SMILES IDX 38 67 57 68 58 69 62 70 59 71 61 72 60 73 47 74 48 75 52 76
REMARK SMILES IDX 49 77 51 78 50 79
REMARK H PARENT 18 5 23 28 67 47 45 58
REMARK Flexibility Score: inf
ROOT
ATOM      1  C   UNL A   1      34.031  21.661  24.778  1.00  0.00     0.116 C 
ENDROOT
BRANCH   1   2
ATOM      2  N   UNL A   1      33.827  22.392  23.540  1.00  0.00    -0.351 N 
ATOM      3  C   UNL A   1      33.544  23.719  23.274  1.00  0.00     0.273 C 
ATOM      4  O   UNL A   1      33.635  24.077  22.100  1.00  0.00    -0.267 OA
ATOM      5  H   UNL A   1      33.906  21.834  22.733  1.00  0.00     0.163 HD
BRANCH   3   6
ATOM      6  C   UNL A   1      33.110  24.638  24.342  1.00  0.00     0.171 A 
ATOM      7  C   UNL A   1      33.330  26.858  26.176  1.00  0.00     0.171 A 
ATOM      8  C   UNL A   1      34.000  26.165  24.880  1.00  0.00     0.088 A 
ATOM      9  O   UNL A   1      31.909  25.753  26.738  1.00  0.00    -0.355 OA
ATOM     10  N   UNL A   1      31.829  24.266  25.381  1.00  0.00    -0.074 NA
BRANCH   7  11
ATOM     11  C   UNL A   1      33.247  28.277  26.490  1.00  0.00     0.062 A 
ATOM     12  C   UNL A   1      32.081  28.975  26.081  1.00  0.00     0.130 A 
ATOM     13  C   UNL A   1      31.907  30.308  26.431  1.00  0.00     0.047 A 
ATOM     14  C   UNL A   1      32.898  30.949  27.176  1.00  0.00     0.004 A 
ATOM     15  C   UNL A   1      34.234  28.923  27.226  1.00  0.00     0.016 A 
ATOM     16  C   UNL A   1      34.061  30.267  27.554  1.00  0.00     0.001 A 
BRANCH  12  17
ATOM     17  O   UNL A   1      31.151  28.414  25.226  1.00  0.00    -0.493 OA
BRANCH  17  18
ATOM     18  C   UNL A   1      31.096  28.998  23.909  1.00  0.00     0.230 C 
BRANCH  18  19
ATOM     19  C   UNL A   1      29.874  28.493  23.100  1.00  0.00     0.044 C 
BRANCH  19  20
ATOM     20  C   UNL A   1      28.699  29.687  22.981  1.00  0.00    -0.014 C 
ATOM     21  C   UNL A   1      27.252  28.678  23.116  1.00  0.00     0.007 C 
ATOM     22  C   UNL A   1      28.624  31.892  23.502  1.00  0.00     0.007 C 
ENDBRANCH  19  20
ENDBRANCH  18  19
ENDBRANCH  17  18
ENDBRANCH  12  17
ENDBRANCH   7  11
ENDBRANCH   3   6
ENDBRANCH   1   2
BRANCH   1  23
ATOM     23  C   UNL A   1      35.505  21.529  25.162  1.00  0.00     0.023 C 
BRANCH  23  24
ATOM     24  C   UNL A   1      36.096  22.797  25.773  1.00  0.00     0.023 C 
BRANCH  24  25
ATOM     25  C   UNL A   1      37.372  23.290  25.101  1.00  0.00     0.116 C 
BRANCH  25  26
ATOM     26  N   UNL A   1      38.547  22.498  25.438  1.00  0.00    -0.352 N 
ATOM     27  C   UNL A   1      39.663  22.895  26.137  1.00  0.00     0.251 C 
ATOM     28  H   UNL A   1      38.541  21.563  25.126  1.00  0.00     0.163 HD
ATOM     29  O   UNL A   1      40.642  22.164  26.226  1.00  0.00    -0.269 OA
BRANCH  27  30
ATOM     30  C   UNL A   1      39.677  24.242  26.739  1.00  0.00     0.039 A 
ATOM     31  C   UNL A   1      39.099  24.423  27.996  1.00  0.00     0.014 A 
ATOM     32  C   UNL A   1      40.343  25.293  26.102  1.00  0.00     0.014 A 
ATOM     33  C   UNL A   1      39.264  25.642  28.653  1.00  0.00     0.010 A 
ATOM     34  C   UNL A   1      40.583  26.472  26.795  1.00  0.00     0.010 A 
ATOM     35  C   UNL A   1      40.056  26.655  28.083  1.00  0.00    -0.014 A 
BRANCH  35  36
ATOM     36  C   UNL A   1      40.383  27.887  28.843  1.00  0.00     0.031 A 
ATOM     37  C   UNL A   1      41.677  28.000  29.596  1.00  0.00     0.074 A 
ATOM     38  C   UNL A   1      39.477  28.884  28.905  1.00  0.00     0.049 A 
ATOM     39  N   UNL A   1      42.109  28.981  30.346  1.00  0.00    -0.248 NA
ATOM     40  C   UNL A   1      42.598  26.854  29.512  1.00  0.00     0.031 C 
ATOM     41  C   UNL A   1      38.168  28.880  28.247  1.00  0.00     0.029 A 
ATOM     42  N   UNL A   1      39.517  30.093  29.554  1.00  0.00    -0.354 N 
ATOM     43  C   UNL A   1      43.345  28.568  30.829  1.00  0.00     0.074 A 
ATOM     44  C   UNL A   1      43.568  27.229  30.332  1.00  0.00     0.031 C 
ATOM     45  C   UNL A   1      37.548  30.045  28.494  1.00  0.00     0.029 A 
ATOM     46  C   UNL A   1      38.383  30.850  29.379  1.00  0.00     0.049 A 
ATOM     47  H   UNL A   1      40.285  30.389  30.093  1.00  0.00     0.167 HD
ATOM     48  C   UNL A   1      44.220  29.251  31.605  1.00  0.00     0.031 A 
ATOM     49  C   UNL A   1      38.042  32.049  29.887  1.00  0.00     0.031 A 
ATOM     50  C   UNL A   1      43.986  30.579  32.111  1.00  0.00     0.049 A 
ATOM     51  C   UNL A   1      39.007  32.758  30.796  1.00  0.00     0.074 A 
ATOM     52  C   UNL A   1      44.833  31.372  32.864  1.00  0.00     0.029 A 
ATOM     53  N   UNL A   1      42.815  31.299  31.932  1.00  0.00    -0.354 N 
ATOM     54  N   UNL A   1      40.208  32.392  31.173  1.00  0.00    -0.248 NA
ATOM     55  C   UNL A   1      38.571  34.050  31.346  1.00  0.00     0.031 C 
ATOM     56  C   UNL A   1      44.142  32.535  33.216  1.00  0.00     0.029 A 
ATOM     57  C   UNL A   1      42.898  32.507  32.606  1.00  0.00     0.049 A 
ATOM     58  H   UNL A   1      42.041  30.998  31.405  1.00  0.00     0.167 HD
ATOM     59  C   UNL A   1      40.679  33.416  31.985  1.00  0.00     0.074 A 
ATOM     60  C   UNL A   1      39.646  34.431  32.022  1.00  0.00     0.031 C 
ATOM     61  C   UNL A   1      41.860  33.505  32.644  1.00  0.00     0.031 A 
BRANCH  48  62
ATOM     62  C   UNL A   1      45.503  28.559  31.983  1.00  0.00    -0.014 A 
ATOM     63  C   UNL A   1      45.597  27.768  33.139  1.00  0.00     0.009 A 
ATOM     64  C   UNL A   1      46.623  28.665  31.143  1.00  0.00     0.009 A 
ATOM     65  C   UNL A   1      46.798  27.135  33.469  1.00  0.00     0.001 A 
ATOM     66  C   UNL A   1      47.810  28.000  31.454  1.00  0.00     0.001 A 
ATOM     67  C   UNL A   1      47.901  27.246  32.622  1.00  0.00     0.000 A 
ENDBRANCH  48  62
BRANCH  49  68
ATOM     68  C   UNL A   1      36.717  32.645  29.567  1.00  0.00    -0.014 A 
ATOM     69  C   UNL A   1      36.530  33.398  28.397  1.00  0.00     0.009 A 
ATOM     70  C   UNL A   1      35.630  32.475  30.440  1.00  0.00     0.009 A 
ATOM     71  C   UNL A   1      35.295  33.992  28.127  1.00  0.00     0.001 A 
ATOM     72  C   UNL A   1      34.386  33.036  30.147  1.00  0.00     0.001 A 
ATOM     73  C   UNL A   1      34.223  33.806  28.997  1.00  0.00     0.000 A 
ENDBRANCH  49  68
BRANCH  61  74
ATOM     74  C   UNL A   1      42.114  34.753  33.446  1.00  0.00    -0.014 A 
ATOM     75  C   UNL A   1      41.795  34.822  34.811  1.00  0.00     0.009 A 
ATOM     76  C   UNL A   1      42.735  35.857  32.838  1.00  0.00     0.009 A 
ATOM     77  C   UNL A   1      42.063  35.982  35.542  1.00  0.00     0.001 A 
ATOM     78  C   UNL A   1      43.037  36.999  33.580  1.00  0.00     0.001 A 
ATOM     79  C   UNL A   1      42.692  37.065  34.928  1.00  0.00     0.000 A 
ENDBRANCH  61  74
ENDBRANCH  35  36
ENDBRANCH  27  30
ENDBRANCH  25  26
ENDBRANCH  24  25
ENDBRANCH  23  24
ENDBRANCH   1  23
TORSDOF 16
ENDMDL
MODEL 2
REMARK VINA RESULT:     -10.8      1.921      7.788
REMARK SMILES CC(C)CCOc1ccccc1-c1cc(C(=O)NCCCCNC(=O)c2ccc(-c3c4nc(c(-c5ccccc5)c5ccc([nH]5)c(-c5ccccc5)c5nc(c(-c6ccccc6)c6ccc3[nH]6)C=C5)C=C4)cc2)no1
REMARK SMILES IDX 19 1 18 2 16 3 17 4 15 6 13 7 14 8 75 9 74 10 12 11 7 12
REMARK SMILES IDX 8 13 9 14 11 15 10 16 6 17 5 18 4 19 2 20 1 21 3 22 20 23
REMARK SMILES IDX 21 24 22 25 23 26 24 27 25 29 26 30 27 31 73 32 28 33 72 34
REMARK SMILES IDX 29 35 30 36 31 37 66 38 32 39 71 40 65 41 67 42 33 43 70 44
REMARK SMILES IDX 64 45 63 46 34 48 56 49 41 50 55 51 42 52 45 53 54 54 68 55
REMARK SMILES IDX 43 56 44 57 53 59 69 60 46 61 35 62 36 63 40 64 37 65 39 66
REMARK SMILES IDX 38 67 57 68 58 69 62 70 59 71 61 72 60 73 47 74 48 75 52 76
REMARK SMILES IDX 49 77 51 78 50 79
REMARK H PARENT 18 5 23 28 67 47 45 58
REMARK Flexibility Score: inf
ROOT
ATOM      1  C   UNL A   1      32.667  29.386  24.720  1.00  0.00     0.116 C 
ENDROOT
BRANCH   1   2
ATOM      2  N   UNL A   1      31.742  29.327  23.602  1.00  0.00    -0.351 N 
ATOM      3  C   UNL A   1      31.361  28.300  22.757  1.00  0.00     0.273 C 
ATOM      4  O   UNL A   1      30.391  28.516  22.030  1.00  0.00    -0.267 OA
ATOM      5  H   UNL A   1      31.299  30.185  23.408  1.00  0.00     0.163 HD
BRANCH   3   6
ATOM      6  C   UNL A   1      32.114  27.034  22.704  1.00  0.00     0.171 A 
ATOM      7  C   UNL A   1      33.039  24.462  23.638  1.00  0.00     0.171 A 
ATOM      8  C   UNL A   1      31.962  25.636  23.903  1.00  0.00     0.088 A 
ATOM      9  O   UNL A   1      34.157  25.027  22.228  1.00  0.00    -0.355 OA
ATOM     10  N   UNL A   1      33.407  26.802  21.639  1.00  0.00    -0.074 NA
BRANCH   7  11
ATOM     11  C   UNL A   1      32.869  23.031  23.834  1.00  0.00     0.062 A 
ATOM     12  C   UNL A   1      33.084  22.514  25.139  1.00  0.00     0.130 A 
ATOM     13  C   UNL A   1      32.850  21.172  25.405  1.00  0.00     0.047 A 
ATOM     14  C   UNL A   1      32.415  20.340  24.372  1.00  0.00     0.004 A 
ATOM     15  C   UNL A   1      32.442  22.197  22.807  1.00  0.00     0.016 A 
ATOM     16  C   UNL A   1      32.230  20.845  23.079  1.00  0.00     0.001 A 
BRANCH  12  17
ATOM     17  O   UNL A   1      33.649  23.275  26.146  1.00  0.00    -0.493 OA
BRANCH  17  18
ATOM     18  C   UNL A   1      34.920  22.802  26.634  1.00  0.00     0.230 C 
BRANCH  18  19
ATOM     19  C   UNL A   1      36.092  23.235  25.717  1.00  0.00     0.044 C 
BRANCH  19  20
ATOM     20  C   UNL A   1      36.534  21.991  24.681  1.00  0.00    -0.014 C 
ATOM     21  C   UNL A   1      36.621  22.899  23.164  1.00  0.00     0.007 C 
ATOM     22  C   UNL A   1      37.680  20.050  24.934  1.00  0.00     0.007 C 
ENDBRANCH  19  20
ENDBRANCH  18  19
ENDBRANCH  17  18
ENDBRANCH  12  17
ENDBRANCH   7  11
ENDBRANCH   3   6
ENDBRANCH   1   2
BRANCH   1  23
ATOM     23  C   UNL A   1      32.058  28.887  26.031  1.00  0.00     0.023 C 
BRANCH  23  24
ATOM     24  C   UNL A   1      31.864  29.985  27.074  1.00  0.00     0.023 C 
BRANCH  24  25
ATOM     25  C   UNL A   1      32.944  31.060  27.070  1.00  0.00     0.116 C 
BRANCH  25  26
ATOM     26  N   UNL A   1      32.420  32.407  27.253  1.00  0.00    -0.352 N 
ATOM     27  C   UNL A   1      32.969  33.437  27.980  1.00  0.00     0.251 C 
ATOM     28  H   UNL A   1      31.568  32.604  26.799  1.00  0.00     0.163 HD
ATOM     29  O   UNL A   1      32.348  34.478  28.164  1.00  0.00    -0.269 OA
BRANCH  27  30
ATOM     30  C   UNL A   1      34.305  33.247  28.576  1.00  0.00     0.039 A 
ATOM     31  C   UNL A   1      34.404  32.634  29.825  1.00  0.00     0.014 A 
ATOM     32  C   UNL A   1      35.455  33.590  27.856  1.00  0.00     0.014 A 
ATOM     33  C   UNL A   1      35.662  32.286  30.316  1.00  0.00     0.010 A 
ATOM     34  C   UNL A   1      36.697  33.162  28.305  1.00  0.00     0.010 A 
ATOM     35  C   UNL A   1      36.813  32.494  29.534  1.00  0.00    -0.014 A 
BRANCH  35  36
ATOM     36  C   UNL A   1      38.134  31.975  29.967  1.00  0.00     0.031 A 
ATOM     37  C   UNL A   1      38.635  30.651  29.467  1.00  0.00     0.074 A 
ATOM     38  C   UNL A   1      38.856  32.674  30.866  1.00  0.00     0.049 A 
ATOM     39  N   UNL A   1      39.742  30.022  29.771  1.00  0.00    -0.248 NA
ATOM     40  C   UNL A   1      37.773  29.928  28.518  1.00  0.00     0.031 C 
ATOM     41  C   UNL A   1      38.462  33.957  31.455  1.00  0.00     0.029 A 
ATOM     42  N   UNL A   1      40.071  32.405  31.444  1.00  0.00    -0.354 N 
ATOM     43  C   UNL A   1      39.705  28.830  29.059  1.00  0.00     0.074 A 
ATOM     44  C   UNL A   1      38.444  28.798  28.353  1.00  0.00     0.031 C 
ATOM     45  C   UNL A   1      39.433  34.379  32.279  1.00  0.00     0.029 A 
ATOM     46  C   UNL A   1      40.487  33.371  32.329  1.00  0.00     0.049 A 
ATOM     47  H   UNL A   1      40.595  31.596  31.244  1.00  0.00     0.167 HD
ATOM     48  C   UNL A   1      40.645  27.857  28.990  1.00  0.00     0.031 A 
ATOM     49  C   UNL A   1      41.582  33.434  33.109  1.00  0.00     0.031 A 
ATOM     50  C   UNL A   1      41.892  27.886  29.709  1.00  0.00     0.049 A 
ATOM     51  C   UNL A   1      42.580  32.310  33.058  1.00  0.00     0.074 A 
ATOM     52  C   UNL A   1      42.929  26.971  29.666  1.00  0.00     0.029 A 
ATOM     53  N   UNL A   1      42.262  28.870  30.613  1.00  0.00    -0.354 N 
ATOM     54  N   UNL A   1      42.571  31.230  32.315  1.00  0.00    -0.248 NA
ATOM     55  C   UNL A   1      43.742  32.416  33.953  1.00  0.00     0.031 C 
ATOM     56  C   UNL A   1      43.887  27.354  30.609  1.00  0.00     0.029 A 
ATOM     57  C   UNL A   1      43.490  28.556  31.173  1.00  0.00     0.049 A 
ATOM     58  H   UNL A   1      41.732  29.672  30.824  1.00  0.00     0.167 HD
ATOM     59  C   UNL A   1      43.734  30.541  32.635  1.00  0.00     0.074 A 
ATOM     60  C   UNL A   1      44.438  31.338  33.618  1.00  0.00     0.031 C 
ATOM     61  C   UNL A   1      44.176  29.352  32.159  1.00  0.00     0.031 A 
BRANCH  48  62
ATOM     62  C   UNL A   1      40.344  26.659  28.130  1.00  0.00    -0.014 A 
ATOM     63  C   UNL A   1      39.549  25.600  28.597  1.00  0.00     0.009 A 
ATOM     64  C   UNL A   1      40.829  26.610  26.813  1.00  0.00     0.009 A 
ATOM     65  C   UNL A   1      39.283  24.499  27.779  1.00  0.00     0.001 A 
ATOM     66  C   UNL A   1      40.530  25.527  25.985  1.00  0.00     0.001 A 
ATOM     67  C   UNL A   1      39.769  24.467  26.472  1.00  0.00     0.000 A 
ENDBRANCH  48  62
BRANCH  49  68
ATOM     68  C   UNL A   1      41.783  34.592  34.022  1.00  0.00    -0.014 A 
ATOM     69  C   UNL A   1      42.439  35.751  33.580  1.00  0.00     0.009 A 
ATOM     70  C   UNL A   1      41.330  34.538  35.350  1.00  0.00     0.009 A 
ATOM     71  C   UNL A   1      42.664  36.816  34.456  1.00  0.00     0.001 A 
ATOM     72  C   UNL A   1      41.519  35.619  36.212  1.00  0.00     0.001 A 
ATOM     73  C   UNL A   1      42.198  36.753  35.768  1.00  0.00     0.000 A 
ENDBRANCH  49  68
BRANCH  61  74
ATOM     74  C   UNL A   1      45.496  28.845  32.676  1.00  0.00    -0.014 A 
ATOM     75  C   UNL A   1      46.701  29.148  32.026  1.00  0.00     0.009 A 
ATOM     76  C   UNL A   1      45.536  28.101  33.867  1.00  0.00     0.009 A 
ATOM     77  C   UNL A   1      47.917  28.688  32.539  1.00  0.00     0.001 A 
ATOM     78  C   UNL A   1      46.755  27.676  34.398  1.00  0.00     0.001 A 
ATOM     79  C   UNL A   1      47.943  27.961  33.729  1.00  0.00     0.000 A 
ENDBRANCH  61  74
ENDBRANCH  35  36
ENDBRANCH  27  30
ENDBRANCH  25  26
ENDBRANCH  24  25
ENDBRANCH  23  24
ENDBRANCH   1  23
TORSDOF 16
ENDMDL
MODEL 3
REMARK VINA RESULT:     -10.8      2.545      8.499
REMARK SMILES CC(C)CCOc1ccccc1-c1cc(C(=O)NCCCCNC(=O)c2ccc(-c3c4nc(c(-c5ccccc5)c5ccc([nH]5)c(-c5ccccc5)c5nc(c(-c6ccccc6)c6ccc3[nH]6)C=C5)C=C4)cc2)no1
REMARK SMILES IDX 19 1 18 2 16 3 17 4 15 6 13 7 14 8 75 9 74 10 12 11 7 12
REMARK SMILES IDX 8 13 9 14 11 15 10 16 6 17 5 18 4 19 2 20 1 21 3 22 20 23
REMARK SMILES IDX 21 24 22 25 23 26 24 27 25 29 26 30 27 31 73 32 28 33 72 34
REMARK SMILES IDX 29 35 30 36 31 37 66 38 32 39 71 40 65 41 67 42 33 43 70 44
REMARK SMILES IDX 64 45 63 46 34 48 56 49 41 50 55 51 42 52 45 53 54 54 68 55
REMARK SMILES IDX 43 56 44 57 53 59 69 60 46 61 35 62 36 63 40 64 37 65 39 66
REMARK SMILES IDX 38 67 57 68 58 69 62 70 59 71 61 72 60 73 47 74 48 75 52 76
REMARK SMILES IDX 49 77 51 78 50 79
REMARK H PARENT 18 5 23 28 67 47 45 58
REMARK Flexibility Score: inf
ROOT
ATOM      1  C   UNL A   1      31.225  26.692  25.402  1.00  0.00     0.116 C 
ENDROOT
BRANCH   1   2
ATOM      2  N   UNL A   1      30.406  25.819  26.224  1.00  0.00    -0.351 N 
ATOM      3  C   UNL A   1      30.304  24.443  26.314  1.00  0.00     0.273 C 
ATOM      4  O   UNL A   1      29.662  23.998  27.265  1.00  0.00    -0.267 OA
ATOM      5  H   UNL A   1      29.806  26.301  26.839  1.00  0.00     0.163 HD
BRANCH   3   6
ATOM      6  C   UNL A   1      30.900  23.564  25.291  1.00  0.00     0.171 A 
ATOM      7  C   UNL A   1      32.699  21.563  24.241  1.00  0.00     0.171 A 
ATOM      8  C   UNL A   1      32.146  22.235  25.601  1.00  0.00     0.088 A 
ATOM      9  O   UNL A   1      31.922  22.491  22.795  1.00  0.00    -0.355 OA
ATOM     10  N   UNL A   1      30.673  23.829  23.636  1.00  0.00    -0.074 NA
BRANCH   7  11
ATOM     11  C   UNL A   1      33.094  20.180  24.022  1.00  0.00     0.062 A 
ATOM     12  C   UNL A   1      34.265  19.718  24.679  1.00  0.00     0.130 A 
ATOM     13  C   UNL A   1      34.640  18.385  24.580  1.00  0.00     0.047 A 
ATOM     14  C   UNL A   1      33.860  17.515  23.817  1.00  0.00     0.004 A 
ATOM     15  C   UNL A   1      32.324  19.310  23.259  1.00  0.00     0.016 A 
ATOM     16  C   UNL A   1      32.722  17.978  23.147  1.00  0.00     0.001 A 
BRANCH  12  17
ATOM     17  O   UNL A   1      35.135  20.579  25.323  1.00  0.00    -0.493 OA
BRANCH  17  18
ATOM     18  C   UNL A   1      36.519  20.451  24.942  1.00  0.00     0.230 C 
BRANCH  18  19
ATOM     19  C   UNL A   1      37.056  21.737  24.263  1.00  0.00     0.044 C 
BRANCH  19  20
ATOM     20  C   UNL A   1      36.260  23.097  24.840  1.00  0.00    -0.014 C 
ATOM     21  C   UNL A   1      37.508  23.720  25.929  1.00  0.00     0.007 C 
ATOM     22  C   UNL A   1      34.666  24.474  24.001  1.00  0.00     0.007 C 
ENDBRANCH  19  20
ENDBRANCH  18  19
ENDBRANCH  17  18
ENDBRANCH  12  17
ENDBRANCH   7  11
ENDBRANCH   3   6
ENDBRANCH   1   2
BRANCH   1  23
ATOM     23  C   UNL A   1      32.639  26.883  25.952  1.00  0.00     0.023 C 
BRANCH  23  24
ATOM     24  C   UNL A   1      33.034  28.347  26.131  1.00  0.00     0.023 C 
BRANCH  24  25
ATOM     25  C   UNL A   1      33.271  28.767  27.576  1.00  0.00     0.116 C 
BRANCH  25  26
ATOM     26  N   UNL A   1      33.417  30.207  27.744  1.00  0.00    -0.352 N 
ATOM     27  C   UNL A   1      34.528  30.901  28.163  1.00  0.00     0.251 C 
ATOM     28  H   UNL A   1      32.623  30.749  27.532  1.00  0.00     0.163 HD
ATOM     29  O   UNL A   1      34.468  32.103  28.396  1.00  0.00    -0.269 OA
BRANCH  27  30
ATOM     30  C   UNL A   1      35.787  30.161  28.374  1.00  0.00     0.039 A 
ATOM     31  C   UNL A   1      36.706  30.085  27.329  1.00  0.00     0.014 A 
ATOM     32  C   UNL A   1      36.090  29.628  29.632  1.00  0.00     0.014 A 
ATOM     33  C   UNL A   1      37.971  29.547  27.570  1.00  0.00     0.010 A 
ATOM     34  C   UNL A   1      37.378  29.178  29.892  1.00  0.00     0.010 A 
ATOM     35  C   UNL A   1      38.335  29.143  28.867  1.00  0.00    -0.014 A 
BRANCH  35  36
ATOM     36  C   UNL A   1      39.727  28.731  29.174  1.00  0.00     0.031 A 
ATOM     37  C   UNL A   1      40.671  29.680  29.856  1.00  0.00     0.074 A 
ATOM     38  C   UNL A   1      40.159  27.517  28.779  1.00  0.00     0.049 A 
ATOM     39  N   UNL A   1      41.931  29.507  30.164  1.00  0.00    -0.248 NA
ATOM     40  C   UNL A   1      40.138  31.002  30.222  1.00  0.00     0.031 C 
ATOM     41  C   UNL A   1      39.350  26.518  28.077  1.00  0.00     0.029 A 
ATOM     42  N   UNL A   1      41.386  26.915  28.909  1.00  0.00    -0.354 N 
ATOM     43  C   UNL A   1      42.342  30.697  30.750  1.00  0.00     0.074 A 
ATOM     44  C   UNL A   1      41.215  31.602  30.705  1.00  0.00     0.031 C 
ATOM     45  C   UNL A   1      40.090  25.417  27.873  1.00  0.00     0.029 A 
ATOM     46  C   UNL A   1      41.441  25.653  28.370  1.00  0.00     0.049 A 
ATOM     47  H   UNL A   1      42.154  27.348  29.347  1.00  0.00     0.167 HD
ATOM     48  C   UNL A   1      43.546  31.003  31.290  1.00  0.00     0.031 A 
ATOM     49  C   UNL A   1      42.467  24.787  28.266  1.00  0.00     0.031 A 
ATOM     50  C   UNL A   1      44.670  30.104  31.316  1.00  0.00     0.049 A 
ATOM     51  C   UNL A   1      43.810  25.176  28.819  1.00  0.00     0.074 A 
ATOM     52  C   UNL A   1      45.916  30.304  31.884  1.00  0.00     0.029 A 
ATOM     53  N   UNL A   1      44.692  28.845  30.737  1.00  0.00    -0.354 N 
ATOM     54  N   UNL A   1      44.158  26.272  29.447  1.00  0.00    -0.248 NA
ATOM     55  C   UNL A   1      44.900  24.204  28.652  1.00  0.00     0.031 C 
ATOM     56  C   UNL A   1      46.720  29.204  31.572  1.00  0.00     0.029 A 
ATOM     57  C   UNL A   1      45.948  28.278  30.888  1.00  0.00     0.049 A 
ATOM     58  H   UNL A   1      43.929  28.417  30.286  1.00  0.00     0.167 HD
ATOM     59  C   UNL A   1      45.500  26.113  29.770  1.00  0.00     0.074 A 
ATOM     60  C   UNL A   1      45.894  24.804  29.293  1.00  0.00     0.031 C 
ATOM     61  C   UNL A   1      46.331  26.978  30.400  1.00  0.00     0.031 A 
BRANCH  48  62
ATOM     62  C   UNL A   1      43.721  32.382  31.867  1.00  0.00    -0.014 A 
ATOM     63  C   UNL A   1      44.151  33.460  31.077  1.00  0.00     0.009 A 
ATOM     64  C   UNL A   1      43.406  32.615  33.215  1.00  0.00     0.009 A 
ATOM     65  C   UNL A   1      44.305  34.731  31.636  1.00  0.00     0.001 A 
ATOM     66  C   UNL A   1      43.523  33.894  33.761  1.00  0.00     0.001 A 
ATOM     67  C   UNL A   1      43.984  34.948  32.976  1.00  0.00     0.000 A 
ENDBRANCH  48  62
BRANCH  49  68
ATOM     68  C   UNL A   1      42.270  23.475  27.592  1.00  0.00    -0.014 A 
ATOM     69  C   UNL A   1      41.773  22.370  28.300  1.00  0.00     0.009 A 
ATOM     70  C   UNL A   1      42.592  23.317  26.234  1.00  0.00     0.009 A 
ATOM     71  C   UNL A   1      41.635  21.130  27.671  1.00  0.00     0.001 A 
ATOM     72  C   UNL A   1      42.414  22.087  25.597  1.00  0.00     0.001 A 
ATOM     73  C   UNL A   1      41.948  20.991  26.320  1.00  0.00     0.000 A 
ENDBRANCH  49  68
BRANCH  61  74
ATOM     74  C   UNL A   1      47.749  26.530  30.635  1.00  0.00    -0.014 A 
ATOM     75  C   UNL A   1      48.118  25.856  31.809  1.00  0.00     0.009 A 
ATOM     76  C   UNL A   1      48.718  26.736  29.638  1.00  0.00     0.009 A 
ATOM     77  C   UNL A   1      49.435  25.427  31.993  1.00  0.00     0.001 A 
ATOM     78  C   UNL A   1      50.022  26.272  29.809  1.00  0.00     0.001 A 
ATOM     79  C   UNL A   1      50.382  25.627  30.990  1.00  0.00     0.000 A 
ENDBRANCH  61  74
ENDBRANCH  35  36
ENDBRANCH  27  30
ENDBRANCH  25  26
ENDBRANCH  24  25
ENDBRANCH  23  24
ENDBRANCH   1  23
TORSDOF 16
ENDMDL
