MODEL 1
REMARK VINA RESULT:     -10.1      0.000      0.000
REMARK SMILES O=C(NCCCCNC(=O)[C@@H]1CCCN(c2ccc3cc(S(=O)(=O)N4CCCCC4)ccc3n2)C1)c1ccc(-c2c3nc(c(-c4ccccc4)c4ccc([nH]4)c(-c4ccccc4)c4nc(c(-c5ccccc5)c5ccc2[nH]5)C=C4)C=C3)cc1
REMARK SMILES IDX 6 1 5 2 4 3 3 4 1 5 2 6 36 8 37 9 83 10 38 11 82 12 39 13
REMARK SMILES IDX 40 14 41 15 76 16 42 17 81 18 75 19 77 20 43 21 80 22 74 23
REMARK SMILES IDX 73 24 44 26 66 27 51 28 65 29 52 30 55 31 64 32 78 33 53 34
REMARK SMILES IDX 54 35 63 37 79 38 56 39 45 40 46 41 50 42 47 43 49 44 48 45
REMARK SMILES IDX 67 46 68 47 72 48 69 49 71 50 70 51 57 52 58 53 62 54 59 55
REMARK SMILES IDX 61 56 60 57 7 58 8 59 9 60 10 62 11 63 12 64 35 65 13 66
REMARK SMILES IDX 15 67 14 68 16 69 17 70 34 71 18 72 33 73 19 74 32 75 20 76
REMARK SMILES IDX 31 77 21 78 22 79 23 80 24 81 25 82 26 83 30 84 27 85 29 86
REMARK SMILES IDX 28 87
REMARK H PARENT 3 7 77 25 55 36 8 61
REMARK Flexibility Score: inf
ROOT
ATOM      1  C   UNL A   1      47.032  26.038  31.855  1.00  0.00     0.023 C 
ENDROOT
BRANCH   1   2
ATOM      2  C   UNL A   1      47.823  25.420  33.010  1.00  0.00     0.023 C 
BRANCH   2   3
ATOM      3  C   UNL A   1      47.022  24.487  33.907  1.00  0.00     0.116 C 
BRANCH   3   4
ATOM      4  N   UNL A   1      47.204  24.784  35.318  1.00  0.00    -0.352 N 
ATOM      5  O   UNL A   1      46.993  25.998  37.209  1.00  0.00    -0.269 OA
ATOM      6  C   UNL A   1      46.613  25.770  36.066  1.00  0.00     0.251 C 
ATOM      7  H   UNL A   1      47.834  24.201  35.799  1.00  0.00     0.163 HD
BRANCH   6   8
ATOM      8  C   UNL A   1      45.520  26.566  35.473  1.00  0.00     0.039 A 
ATOM      9  C   UNL A   1      45.791  27.799  34.873  1.00  0.00     0.014 A 
ATOM     10  C   UNL A   1      44.217  26.065  35.508  1.00  0.00     0.014 A 
ATOM     11  C   UNL A   1      44.745  28.575  34.391  1.00  0.00     0.010 A 
ATOM     12  C   UNL A   1      43.176  26.812  34.953  1.00  0.00     0.010 A 
ATOM     13  C   UNL A   1      43.433  28.074  34.396  1.00  0.00    -0.014 A 
BRANCH  13  14
ATOM     14  C   UNL A   1      42.372  28.822  33.684  1.00  0.00     0.031 A 
ATOM     15  C   UNL A   1      41.566  29.887  34.366  1.00  0.00     0.074 A 
ATOM     16  C   UNL A   1      42.136  28.505  32.395  1.00  0.00     0.049 A 
ATOM     17  N   UNL A   1      40.590  30.611  33.880  1.00  0.00    -0.248 NA
ATOM     18  C   UNL A   1      41.886  30.178  35.773  1.00  0.00     0.031 C 
ATOM     19  C   UNL A   1      42.850  27.470  31.638  1.00  0.00     0.029 A 
ATOM     20  N   UNL A   1      41.240  29.015  31.493  1.00  0.00    -0.354 N 
ATOM     21  C   UNL A   1      40.166  31.427  34.920  1.00  0.00     0.074 A 
ATOM     22  C   UNL A   1      40.982  31.103  36.071  1.00  0.00     0.031 C 
ATOM     23  C   UNL A   1      42.384  27.443  30.382  1.00  0.00     0.029 A 
ATOM     24  C   UNL A   1      41.296  28.405  30.263  1.00  0.00     0.049 A 
ATOM     25  H   UNL A   1      40.617  29.746  31.706  1.00  0.00     0.167 HD
ATOM     26  C   UNL A   1      39.182  32.358  34.908  1.00  0.00     0.031 A 
ATOM     27  C   UNL A   1      40.535  28.574  29.168  1.00  0.00     0.031 A 
ATOM     28  C   UNL A   1      38.380  32.676  33.755  1.00  0.00     0.049 A 
ATOM     29  C   UNL A   1      39.426  29.583  29.206  1.00  0.00     0.074 A 
ATOM     30  C   UNL A   1      37.407  33.653  33.628  1.00  0.00     0.029 A 
ATOM     31  N   UNL A   1      38.446  32.015  32.538  1.00  0.00    -0.354 N 
ATOM     32  N   UNL A   1      39.087  30.397  30.176  1.00  0.00    -0.248 NA
ATOM     33  C   UNL A   1      38.590  29.690  28.004  1.00  0.00     0.031 C 
ATOM     34  C   UNL A   1      36.840  33.542  32.355  1.00  0.00     0.029 A 
ATOM     35  C   UNL A   1      37.497  32.532  31.671  1.00  0.00     0.049 A 
ATOM     36  H   UNL A   1      39.074  31.289  32.322  1.00  0.00     0.167 HD
ATOM     37  C   UNL A   1      38.003  31.118  29.699  1.00  0.00     0.074 A 
ATOM     38  C   UNL A   1      37.762  30.668  28.343  1.00  0.00     0.031 C 
ATOM     39  C   UNL A   1      37.265  32.061  30.331  1.00  0.00     0.031 A 
BRANCH  26  40
ATOM     40  C   UNL A   1      38.883  33.091  36.185  1.00  0.00    -0.014 A 
ATOM     41  C   UNL A   1      37.999  32.567  37.140  1.00  0.00     0.009 A 
ATOM     42  C   UNL A   1      39.581  34.273  36.482  1.00  0.00     0.009 A 
ATOM     43  C   UNL A   1      37.810  33.220  38.361  1.00  0.00     0.001 A 
ATOM     44  C   UNL A   1      39.407  34.911  37.711  1.00  0.00     0.001 A 
ATOM     45  C   UNL A   1      38.520  34.386  38.648  1.00  0.00     0.000 A 
ENDBRANCH  26  40
BRANCH  27  46
ATOM     46  C   UNL A   1      40.758  27.727  27.969  1.00  0.00    -0.014 A 
ATOM     47  C   UNL A   1      40.094  26.501  27.819  1.00  0.00     0.009 A 
ATOM     48  C   UNL A   1      41.651  28.143  26.967  1.00  0.00     0.009 A 
ATOM     49  C   UNL A   1      40.343  25.696  26.706  1.00  0.00     0.001 A 
ATOM     50  C   UNL A   1      41.871  27.351  25.839  1.00  0.00     0.001 A 
ATOM     51  C   UNL A   1      41.227  26.123  25.716  1.00  0.00     0.000 A 
ENDBRANCH  27  46
BRANCH  39  52
ATOM     52  C   UNL A   1      36.131  32.666  29.556  1.00  0.00    -0.014 A 
ATOM     53  C   UNL A   1      36.304  33.863  28.843  1.00  0.00     0.009 A 
ATOM     54  C   UNL A   1      34.887  32.019  29.516  1.00  0.00     0.009 A 
ATOM     55  C   UNL A   1      35.241  34.416  28.128  1.00  0.00     0.001 A 
ATOM     56  C   UNL A   1      33.835  32.561  28.777  1.00  0.00     0.001 A 
ATOM     57  C   UNL A   1      34.009  33.762  28.092  1.00  0.00     0.000 A 
ENDBRANCH  39  52
ENDBRANCH  13  14
ENDBRANCH   6   8
ENDBRANCH   3   4
ENDBRANCH   2   3
ENDBRANCH   1   2
BRANCH   1  58
ATOM     58  C   UNL A   1      47.368  27.499  31.571  1.00  0.00     0.116 C 
BRANCH  58  59
ATOM     59  N   UNL A   1      46.230  28.175  30.985  1.00  0.00    -0.356 N 
ATOM     60  C   UNL A   1      46.102  28.787  29.779  1.00  0.00     0.224 C 
ATOM     61  H   UNL A   1      45.424  28.195  31.550  1.00  0.00     0.163 HD
ATOM     62  O   UNL A   1      45.139  29.541  29.649  1.00  0.00    -0.275 OA
BRANCH  60  63
ATOM     63  C   UNL A   1      47.116  28.505  28.679  1.00  0.00     0.098 C 
ATOM     64  C   UNL A   1      46.999  29.514  27.529  1.00  0.00     0.017 C 
ATOM     65  C   UNL A   1      46.994  27.050  28.227  1.00  0.00     0.131 C 
ATOM     66  C   UNL A   1      45.888  29.178  26.529  1.00  0.00     0.022 C 
ATOM     67  N   UNL A   1      45.923  26.892  27.264  1.00  0.00    -0.356 N 
ATOM     68  C   UNL A   1      45.950  27.717  26.073  1.00  0.00     0.118 C 
BRANCH  67  69
ATOM     69  C   UNL A   1      45.080  25.808  27.334  1.00  0.00     0.129 A 
ATOM     70  C   UNL A   1      44.544  25.417  28.558  1.00  0.00     0.047 A 
ATOM     71  N   UNL A   1      44.769  25.155  26.197  1.00  0.00    -0.231 NA
ATOM     72  C   UNL A   1      43.655  24.355  28.627  1.00  0.00     0.014 A 
ATOM     73  C   UNL A   1      43.946  24.098  26.264  1.00  0.00     0.073 A 
ATOM     74  C   UNL A   1      43.344  23.666  27.463  1.00  0.00     0.002 A 
ATOM     75  C   UNL A   1      43.678  23.383  25.110  1.00  0.00     0.030 A 
ATOM     76  C   UNL A   1      42.470  22.571  27.478  1.00  0.00     0.032 A 
ATOM     77  C   UNL A   1      42.827  22.272  25.115  1.00  0.00     0.024 A 
ATOM     78  C   UNL A   1      42.208  21.874  26.297  1.00  0.00     0.083 A 
BRANCH  78  79
ATOM     79  S   UNL A   1      41.095  20.487  26.430  1.00  0.00     0.243 S 
ATOM     80  O   UNL A   1      41.615  19.476  25.534  1.00  0.00    -0.207 OA
ATOM     81  O   UNL A   1      40.942  20.230  27.846  1.00  0.00    -0.207 OA
BRANCH  79  82
ATOM     82  N   UNL A   1      39.581  20.981  25.818  1.00  0.00    -0.198 NA
ATOM     83  C   UNL A   1      38.658  19.898  25.397  1.00  0.00     0.102 C 
ATOM     84  C   UNL A   1      39.000  22.198  26.431  1.00  0.00     0.102 C 
ATOM     85  C   UNL A   1      37.429  20.440  24.680  1.00  0.00     0.017 C 
ATOM     86  C   UNL A   1      37.775  22.686  25.670  1.00  0.00     0.017 C 
ATOM     87  C   UNL A   1      36.772  21.561  25.470  1.00  0.00     0.003 C 
ENDBRANCH  79  82
ENDBRANCH  78  79
ENDBRANCH  67  69
ENDBRANCH  60  63
ENDBRANCH  58  59
ENDBRANCH   1  58
TORSDOF 14
ENDMDL
MODEL 2
REMARK VINA RESULT:     -10.1      4.888      9.466
REMARK SMILES O=C(NCCCCNC(=O)[C@@H]1CCCN(c2ccc3cc(S(=O)(=O)N4CCCCC4)ccc3n2)C1)c1ccc(-c2c3nc(c(-c4ccccc4)c4ccc([nH]4)c(-c4ccccc4)c4nc(c(-c5ccccc5)c5ccc2[nH]5)C=C4)C=C3)cc1
REMARK SMILES IDX 6 1 5 2 4 3 3 4 1 5 2 6 36 8 37 9 83 10 38 11 82 12 39 13
REMARK SMILES IDX 40 14 41 15 76 16 42 17 81 18 75 19 77 20 43 21 80 22 74 23
REMARK SMILES IDX 73 24 44 26 66 27 51 28 65 29 52 30 55 31 64 32 78 33 53 34
REMARK SMILES IDX 54 35 63 37 79 38 56 39 45 40 46 41 50 42 47 43 49 44 48 45
REMARK SMILES IDX 67 46 68 47 72 48 69 49 71 50 70 51 57 52 58 53 62 54 59 55
REMARK SMILES IDX 61 56 60 57 7 58 8 59 9 60 10 62 11 63 12 64 35 65 13 66
REMARK SMILES IDX 15 67 14 68 16 69 17 70 34 71 18 72 33 73 19 74 32 75 20 76
REMARK SMILES IDX 31 77 21 78 22 79 23 80 24 81 25 82 26 83 30 84 27 85 29 86
REMARK SMILES IDX 28 87
REMARK H PARENT 3 7 77 25 55 36 8 61
REMARK Flexibility Score: inf
ROOT
ATOM      1  C   UNL A   1      44.340  18.453  26.094  1.00  0.00     0.023 C 
ENDROOT
BRANCH   1   2
ATOM      2  C   UNL A   1      45.531  19.010  25.311  1.00  0.00     0.023 C 
BRANCH   2   3
ATOM      3  C   UNL A   1      45.622  20.529  25.281  1.00  0.00     0.116 C 
BRANCH   3   4
ATOM      4  N   UNL A   1      45.228  21.082  23.996  1.00  0.00    -0.352 N 
ATOM      5  O   UNL A   1      44.332  22.615  22.603  1.00  0.00    -0.269 OA
ATOM      6  C   UNL A   1      44.783  22.348  23.711  1.00  0.00     0.251 C 
ATOM      7  H   UNL A   1      45.289  20.467  23.229  1.00  0.00     0.163 HD
BRANCH   6   8
ATOM      8  C   UNL A   1      44.839  23.384  24.762  1.00  0.00     0.039 A 
ATOM      9  C   UNL A   1      43.715  24.165  25.043  1.00  0.00     0.014 A 
ATOM     10  C   UNL A   1      46.025  23.563  25.477  1.00  0.00     0.014 A 
ATOM     11  C   UNL A   1      43.804  25.189  25.977  1.00  0.00     0.010 A 
ATOM     12  C   UNL A   1      46.090  24.542  26.470  1.00  0.00     0.010 A 
ATOM     13  C   UNL A   1      44.981  25.365  26.722  1.00  0.00    -0.014 A 
BRANCH  13  14
ATOM     14  C   UNL A   1      44.982  26.316  27.857  1.00  0.00     0.031 A 
ATOM     15  C   UNL A   1      45.096  27.796  27.644  1.00  0.00     0.074 A 
ATOM     16  C   UNL A   1      44.891  25.808  29.103  1.00  0.00     0.049 A 
ATOM     17  N   UNL A   1      45.132  28.750  28.539  1.00  0.00    -0.248 NA
ATOM     18  C   UNL A   1      45.186  28.273  26.254  1.00  0.00     0.031 C 
ATOM     19  C   UNL A   1      44.794  24.380  29.425  1.00  0.00     0.029 A 
ATOM     20  N   UNL A   1      44.863  26.425  30.325  1.00  0.00    -0.354 N 
ATOM     21  C   UNL A   1      45.269  29.935  27.828  1.00  0.00     0.074 A 
ATOM     22  C   UNL A   1      45.322  29.582  26.425  1.00  0.00     0.031 C 
ATOM     23  C   UNL A   1      44.688  24.234  30.753  1.00  0.00     0.029 A 
ATOM     24  C   UNL A   1      44.780  25.547  31.378  1.00  0.00     0.049 A 
ATOM     25  H   UNL A   1      44.899  27.403  30.437  1.00  0.00     0.167 HD
ATOM     26  C   UNL A   1      45.348  31.199  28.310  1.00  0.00     0.031 A 
ATOM     27  C   UNL A   1      44.808  25.767  32.705  1.00  0.00     0.031 A 
ATOM     28  C   UNL A   1      45.288  31.538  29.708  1.00  0.00     0.049 A 
ATOM     29  C   UNL A   1      44.939  27.176  33.201  1.00  0.00     0.074 A 
ATOM     30  C   UNL A   1      45.288  32.796  30.288  1.00  0.00     0.029 A 
ATOM     31  N   UNL A   1      45.235  30.619  30.745  1.00  0.00    -0.354 N 
ATOM     32  N   UNL A   1      44.994  28.290  32.513  1.00  0.00    -0.248 NA
ATOM     33  C   UNL A   1      45.021  27.357  34.656  1.00  0.00     0.031 C 
ATOM     34  C   UNL A   1      45.299  32.636  31.677  1.00  0.00     0.029 A 
ATOM     35  C   UNL A   1      45.251  31.281  31.962  1.00  0.00     0.049 A 
ATOM     36  H   UNL A   1      45.191  29.642  30.633  1.00  0.00     0.167 HD
ATOM     37  C   UNL A   1      45.111  29.305  33.450  1.00  0.00     0.074 A 
ATOM     38  C   UNL A   1      45.085  28.677  34.756  1.00  0.00     0.031 C 
ATOM     39  C   UNL A   1      45.238  30.638  33.248  1.00  0.00     0.031 A 
BRANCH  26  40
ATOM     40  C   UNL A   1      45.535  32.322  27.330  1.00  0.00    -0.014 A 
ATOM     41  C   UNL A   1      44.438  32.964  26.736  1.00  0.00     0.009 A 
ATOM     42  C   UNL A   1      46.827  32.813  27.082  1.00  0.00     0.009 A 
ATOM     43  C   UNL A   1      44.634  34.068  25.901  1.00  0.00     0.001 A 
ATOM     44  C   UNL A   1      47.017  33.929  26.265  1.00  0.00     0.001 A 
ATOM     45  C   UNL A   1      45.922  34.554  25.674  1.00  0.00     0.000 A 
ENDBRANCH  26  40
BRANCH  27  46
ATOM     46  C   UNL A   1      44.772  24.622  33.650  1.00  0.00    -0.014 A 
ATOM     47  C   UNL A   1      45.949  23.952  34.013  1.00  0.00     0.009 A 
ATOM     48  C   UNL A   1      43.549  24.188  34.186  1.00  0.00     0.009 A 
ATOM     49  C   UNL A   1      45.896  22.852  34.872  1.00  0.00     0.001 A 
ATOM     50  C   UNL A   1      43.504  23.109  35.071  1.00  0.00     0.001 A 
ATOM     51  C   UNL A   1      44.676  22.435  35.403  1.00  0.00     0.000 A 
ENDBRANCH  27  46
BRANCH  39  52
ATOM     52  C   UNL A   1      45.357  31.500  34.471  1.00  0.00    -0.014 A 
ATOM     53  C   UNL A   1      46.611  31.783  35.034  1.00  0.00     0.009 A 
ATOM     54  C   UNL A   1      44.206  32.055  35.050  1.00  0.00     0.009 A 
ATOM     55  C   UNL A   1      46.708  32.583  36.173  1.00  0.00     0.001 A 
ATOM     56  C   UNL A   1      44.308  32.878  36.173  1.00  0.00     0.001 A 
ATOM     57  C   UNL A   1      45.557  33.134  36.737  1.00  0.00     0.000 A 
ENDBRANCH  39  52
ENDBRANCH  13  14
ENDBRANCH   6   8
ENDBRANCH   3   4
ENDBRANCH   2   3
ENDBRANCH   1   2
BRANCH   1  58
ATOM     58  C   UNL A   1      42.991  18.634  25.403  1.00  0.00     0.116 C 
BRANCH  58  59
ATOM     59  N   UNL A   1      41.950  18.869  26.380  1.00  0.00    -0.356 N 
ATOM     60  C   UNL A   1      41.647  19.992  27.083  1.00  0.00     0.224 C 
ATOM     61  H   UNL A   1      41.372  18.094  26.565  1.00  0.00     0.163 HD
ATOM     62  O   UNL A   1      40.918  19.844  28.061  1.00  0.00    -0.275 OA
BRANCH  60  63
ATOM     63  C   UNL A   1      42.197  21.337  26.627  1.00  0.00     0.098 C 
ATOM     64  C   UNL A   1      42.689  22.178  27.813  1.00  0.00     0.017 C 
ATOM     65  C   UNL A   1      41.159  22.052  25.763  1.00  0.00     0.131 C 
ATOM     66  C   UNL A   1      41.569  22.932  28.537  1.00  0.00     0.022 C 
ATOM     67  N   UNL A   1      40.184  22.742  26.584  1.00  0.00    -0.356 N 
ATOM     68  C   UNL A   1      40.668  23.695  27.561  1.00  0.00     0.118 C 
BRANCH  67  69
ATOM     69  C   UNL A   1      38.850  22.709  26.253  1.00  0.00     0.129 A 
ATOM     70  C   UNL A   1      38.077  23.864  26.345  1.00  0.00     0.047 A 
ATOM     71  N   UNL A   1      38.319  21.548  25.818  1.00  0.00    -0.231 NA
ATOM     72  C   UNL A   1      36.743  23.847  25.965  1.00  0.00     0.014 A 
ATOM     73  C   UNL A   1      37.018  21.516  25.493  1.00  0.00     0.073 A 
ATOM     74  C   UNL A   1      36.185  22.652  25.534  1.00  0.00     0.002 A 
ATOM     75  C   UNL A   1      36.453  20.311  25.111  1.00  0.00     0.030 A 
ATOM     76  C   UNL A   1      34.837  22.573  25.160  1.00  0.00     0.032 A 
ATOM     77  C   UNL A   1      35.103  20.212  24.760  1.00  0.00     0.024 A 
ATOM     78  C   UNL A   1      34.295  21.347  24.767  1.00  0.00     0.083 A 
BRANCH  78  79
ATOM     79  S   UNL A   1      32.567  21.353  24.328  1.00  0.00     0.243 S 
ATOM     80  O   UNL A   1      32.515  21.007  22.924  1.00  0.00    -0.207 OA
ATOM     81  O   UNL A   1      31.898  20.545  25.327  1.00  0.00    -0.207 OA
BRANCH  79  82
ATOM     82  N   UNL A   1      32.002  22.955  24.481  1.00  0.00    -0.198 NA
ATOM     83  C   UNL A   1      31.686  23.662  23.216  1.00  0.00     0.102 C 
ATOM     84  C   UNL A   1      31.163  23.235  25.669  1.00  0.00     0.102 C 
ATOM     85  C   UNL A   1      31.391  25.138  23.444  1.00  0.00     0.017 C 
ATOM     86  C   UNL A   1      30.902  24.726  25.839  1.00  0.00     0.017 C 
ATOM     87  C   UNL A   1      30.369  25.337  24.553  1.00  0.00     0.003 C 
ENDBRANCH  79  82
ENDBRANCH  78  79
ENDBRANCH  67  69
ENDBRANCH  60  63
ENDBRANCH  58  59
ENDBRANCH   1  58
TORSDOF 14
ENDMDL
MODEL 3
REMARK VINA RESULT:     -10.0      3.443     10.523
REMARK SMILES O=C(NCCCCNC(=O)[C@@H]1CCCN(c2ccc3cc(S(=O)(=O)N4CCCCC4)ccc3n2)C1)c1ccc(-c2c3nc(c(-c4ccccc4)c4ccc([nH]4)c(-c4ccccc4)c4nc(c(-c5ccccc5)c5ccc2[nH]5)C=C4)C=C3)cc1
REMARK SMILES IDX 6 1 5 2 4 3 3 4 1 5 2 6 36 8 37 9 83 10 38 11 82 12 39 13
REMARK SMILES IDX 40 14 41 15 76 16 42 17 81 18 75 19 77 20 43 21 80 22 74 23
REMARK SMILES IDX 73 24 44 26 66 27 51 28 65 29 52 30 55 31 64 32 78 33 53 34
REMARK SMILES IDX 54 35 63 37 79 38 56 39 45 40 46 41 50 42 47 43 49 44 48 45
REMARK SMILES IDX 67 46 68 47 72 48 69 49 71 50 70 51 57 52 58 53 62 54 59 55
REMARK SMILES IDX 61 56 60 57 7 58 8 59 9 60 10 62 11 63 12 64 35 65 13 66
REMARK SMILES IDX 15 67 14 68 16 69 17 70 34 71 18 72 33 73 19 74 32 75 20 76
REMARK SMILES IDX 31 77 21 78 22 79 23 80 24 81 25 82 26 83 30 84 27 85 29 86
REMARK SMILES IDX 28 87
REMARK H PARENT 3 7 77 25 55 36 8 61
REMARK Flexibility Score: inf
ROOT
ATOM      1  C   UNL A   1      34.365  33.238  30.572  1.00  0.00     0.023 C 
ENDROOT
BRANCH   1   2
ATOM      2  C   UNL A   1      35.072  34.030  29.470  1.00  0.00     0.023 C 
BRANCH   2   3
ATOM      3  C   UNL A   1      35.416  33.225  28.225  1.00  0.00     0.116 C 
BRANCH   3   4
ATOM      4  N   UNL A   1      34.441  32.183  27.952  1.00  0.00    -0.352 N 
ATOM      5  O   UNL A   1      33.748  30.098  27.438  1.00  0.00    -0.269 OA
ATOM      6  C   UNL A   1      34.646  30.832  27.834  1.00  0.00     0.251 C 
ATOM      7  H   UNL A   1      33.512  32.487  27.836  1.00  0.00     0.163 HD
BRANCH   6   8
ATOM      8  C   UNL A   1      35.969  30.272  28.177  1.00  0.00     0.039 A 
ATOM      9  C   UNL A   1      36.999  30.268  27.233  1.00  0.00     0.014 A 
ATOM     10  C   UNL A   1      36.178  29.759  29.459  1.00  0.00     0.014 A 
ATOM     11  C   UNL A   1      38.213  29.666  27.541  1.00  0.00     0.010 A 
ATOM     12  C   UNL A   1      37.424  29.224  29.792  1.00  0.00     0.010 A 
ATOM     13  C   UNL A   1      38.447  29.169  28.833  1.00  0.00    -0.014 A 
BRANCH  13  14
ATOM     14  C   UNL A   1      39.813  28.732  29.201  1.00  0.00     0.031 A 
ATOM     15  C   UNL A   1      40.754  29.632  29.945  1.00  0.00     0.074 A 
ATOM     16  C   UNL A   1      40.198  27.493  28.831  1.00  0.00     0.049 A 
ATOM     17  N   UNL A   1      41.987  29.396  30.318  1.00  0.00    -0.248 NA
ATOM     18  C   UNL A   1      40.259  30.966  30.317  1.00  0.00     0.031 C 
ATOM     19  C   UNL A   1      39.367  26.541  28.087  1.00  0.00     0.029 A 
ATOM     20  N   UNL A   1      41.374  26.821  29.029  1.00  0.00    -0.354 N 
ATOM     21  C   UNL A   1      42.422  30.554  30.948  1.00  0.00     0.074 A 
ATOM     22  C   UNL A   1      41.326  31.499  30.899  1.00  0.00     0.031 C 
ATOM     23  C   UNL A   1      40.049  25.400  27.917  1.00  0.00     0.029 A 
ATOM     24  C   UNL A   1      41.384  25.564  28.476  1.00  0.00     0.049 A 
ATOM     25  H   UNL A   1      42.138  27.202  29.519  1.00  0.00     0.167 HD
ATOM     26  C   UNL A   1      43.630  30.800  31.510  1.00  0.00     0.031 A 
ATOM     27  C   UNL A   1      42.369  24.651  28.396  1.00  0.00     0.031 A 
ATOM     28  C   UNL A   1      44.710  29.850  31.558  1.00  0.00     0.049 A 
ATOM     29  C   UNL A   1      43.706  24.976  28.992  1.00  0.00     0.074 A 
ATOM     30  C   UNL A   1      45.946  29.983  32.169  1.00  0.00     0.029 A 
ATOM     31  N   UNL A   1      44.692  28.599  30.961  1.00  0.00    -0.354 N 
ATOM     32  N   UNL A   1      44.076  26.048  29.648  1.00  0.00    -0.248 NA
ATOM     33  C   UNL A   1      44.762  23.969  28.829  1.00  0.00     0.031 C 
ATOM     34  C   UNL A   1      46.699  28.840  31.887  1.00  0.00     0.029 A 
ATOM     35  C   UNL A   1      45.913  27.971  31.147  1.00  0.00     0.049 A 
ATOM     36  H   UNL A   1      43.926  28.214  30.477  1.00  0.00     0.167 HD
ATOM     37  C   UNL A   1      45.406  25.843  29.982  1.00  0.00     0.074 A 
ATOM     38  C   UNL A   1      45.768  24.531  29.485  1.00  0.00     0.031 C 
ATOM     39  C   UNL A   1      46.256  26.672  30.634  1.00  0.00     0.031 A 
BRANCH  26  40
ATOM     40  C   UNL A   1      43.874  32.160  32.102  1.00  0.00    -0.014 A 
ATOM     41  C   UNL A   1      43.690  32.406  33.470  1.00  0.00     0.009 A 
ATOM     42  C   UNL A   1      44.398  33.181  31.292  1.00  0.00     0.009 A 
ATOM     43  C   UNL A   1      44.015  33.651  34.014  1.00  0.00     0.001 A 
ATOM     44  C   UNL A   1      44.741  34.417  31.842  1.00  0.00     0.001 A 
ATOM     45  C   UNL A   1      44.548  34.652  33.201  1.00  0.00     0.000 A 
ENDBRANCH  26  40
BRANCH  27  46
ATOM     46  C   UNL A   1      42.143  23.374  27.672  1.00  0.00    -0.014 A 
ATOM     47  C   UNL A   1      41.556  22.276  28.317  1.00  0.00     0.009 A 
ATOM     48  C   UNL A   1      42.525  23.247  26.327  1.00  0.00     0.009 A 
ATOM     49  C   UNL A   1      41.384  21.068  27.637  1.00  0.00     0.001 A 
ATOM     50  C   UNL A   1      42.322  22.049  25.640  1.00  0.00     0.001 A 
ATOM     51  C   UNL A   1      41.763  20.958  26.300  1.00  0.00     0.000 A 
ENDBRANCH  27  46
BRANCH  39  52
ATOM     52  C   UNL A   1      47.657  26.176  30.844  1.00  0.00    -0.014 A 
ATOM     53  C   UNL A   1      48.056  25.645  32.080  1.00  0.00     0.009 A 
ATOM     54  C   UNL A   1      48.580  26.216  29.787  1.00  0.00     0.009 A 
ATOM     55  C   UNL A   1      49.362  25.190  32.263  1.00  0.00     0.001 A 
ATOM     56  C   UNL A   1      49.877  25.734  29.965  1.00  0.00     0.001 A 
ATOM     57  C   UNL A   1      50.269  25.230  31.204  1.00  0.00     0.000 A 
ENDBRANCH  39  52
ENDBRANCH  13  14
ENDBRANCH   6   8
ENDBRANCH   3   4
ENDBRANCH   2   3
ENDBRANCH   1   2
BRANCH   1  58
ATOM     58  C   UNL A   1      34.593  33.778  31.982  1.00  0.00     0.116 C 
BRANCH  58  59
ATOM     59  N   UNL A   1      35.167  32.755  32.829  1.00  0.00    -0.356 N 
ATOM     60  C   UNL A   1      36.298  32.776  33.583  1.00  0.00     0.224 C 
ATOM     61  H   UNL A   1      34.658  31.913  32.865  1.00  0.00     0.163 HD
ATOM     62  O   UNL A   1      36.719  31.686  33.964  1.00  0.00    -0.275 OA
BRANCH  60  63
ATOM     63  C   UNL A   1      36.956  34.107  33.917  1.00  0.00     0.098 C 
ATOM     64  C   UNL A   1      37.385  34.860  32.651  1.00  0.00     0.017 C 
ATOM     65  C   UNL A   1      38.098  33.882  34.908  1.00  0.00     0.131 C 
ATOM     66  C   UNL A   1      38.728  34.390  32.083  1.00  0.00     0.022 C 
ATOM     67  N   UNL A   1      39.308  33.469  34.224  1.00  0.00    -0.356 N 
ATOM     68  C   UNL A   1      39.813  34.315  33.162  1.00  0.00     0.118 C 
BRANCH  67  69
ATOM     69  C   UNL A   1      40.098  32.475  34.750  1.00  0.00     0.129 A 
ATOM     70  C   UNL A   1      40.821  32.700  35.918  1.00  0.00     0.047 A 
ATOM     71  N   UNL A   1      40.136  31.280  34.127  1.00  0.00    -0.231 NA
ATOM     72  C   UNL A   1      41.581  31.685  36.480  1.00  0.00     0.014 A 
ATOM     73  C   UNL A   1      40.906  30.309  34.640  1.00  0.00     0.073 A 
ATOM     74  C   UNL A   1      41.640  30.458  35.834  1.00  0.00     0.002 A 
ATOM     75  C   UNL A   1      41.002  29.104  33.967  1.00  0.00     0.030 A 
ATOM     76  C   UNL A   1      42.410  29.404  36.345  1.00  0.00     0.032 A 
ATOM     77  C   UNL A   1      41.787  28.052  34.451  1.00  0.00     0.024 A 
ATOM     78  C   UNL A   1      42.480  28.194  35.651  1.00  0.00     0.083 A 
BRANCH  78  79
ATOM     79  S   UNL A   1      43.501  26.926  36.378  1.00  0.00     0.243 S 
ATOM     80  O   UNL A   1      44.826  27.498  36.484  1.00  0.00    -0.207 OA
ATOM     81  O   UNL A   1      42.787  26.459  37.547  1.00  0.00    -0.207 OA
BRANCH  79  82
ATOM     82  N   UNL A   1      43.590  25.637  35.265  1.00  0.00    -0.198 NA
ATOM     83  C   UNL A   1      44.751  25.646  34.341  1.00  0.00     0.102 C 
ATOM     84  C   UNL A   1      43.089  24.328  35.747  1.00  0.00     0.102 C 
ATOM     85  C   UNL A   1      44.632  24.579  33.261  1.00  0.00     0.017 C 
ATOM     86  C   UNL A   1      42.996  23.307  34.621  1.00  0.00     0.017 C 
ATOM     87  C   UNL A   1      44.307  23.217  33.856  1.00  0.00     0.003 C 
ENDBRANCH  79  82
ENDBRANCH  78  79
ENDBRANCH  67  69
ENDBRANCH  60  63
ENDBRANCH  58  59
ENDBRANCH   1  58
TORSDOF 14
ENDMDL
