MODEL 1
REMARK VINA RESULT:     -10.9      0.000      0.000
REMARK SMILES CCOC(=O)CS[C@H]1CC(=O)N(c2ccc(C(=O)NCCCCNC(=O)c3ccc(-c4c5nc(c(-c6ccccc6)c6ccc([nH]6)c(-c6ccccc6)c6nc(c(-c7ccccc7)c7ccc4[nH]7)C=C6)C=C5)cc3)c(O)c2)C1=O
REMARK SMILES IDX 17 1 18 2 19 3 16 5 13 6 14 7 77 8 15 9 75 10 12 11 8 12
REMARK SMILES IDX 9 13 78 14 10 15 79 16 11 17 7 18 6 19 4 20 5 21 3 22 2 23
REMARK SMILES IDX 1 24 76 25 20 27 21 28 22 29 23 30 24 31 25 32 26 34 27 35
REMARK SMILES IDX 28 36 74 37 29 38 73 39 30 40 31 41 32 42 67 43 33 44 72 45
REMARK SMILES IDX 66 46 68 47 34 48 71 49 65 50 64 51 35 53 57 54 42 55 56 56
REMARK SMILES IDX 43 57 46 58 55 59 69 60 44 61 45 62 54 64 70 65 47 66 36 67
REMARK SMILES IDX 37 68 41 69 38 70 40 71 39 72 58 73 59 74 63 75 60 76 62 77
REMARK SMILES IDX 61 78 48 79 49 80 53 81 50 82 52 83 51 84
REMARK H PARENT 19 4 76 26 24 33 68 52 46 63
REMARK Flexibility Score: inf
ROOT
ATOM      1  C   UNL A   1      30.448  29.132  22.632  1.00  0.00     0.255 C 
ATOM      2  O   UNL A   1      30.024  29.383  21.507  1.00  0.00    -0.269 OA
ATOM      3  N   UNL A   1      30.365  30.092  23.614  1.00  0.00    -0.352 N 
ATOM      4  H   UNL A   1      29.931  30.933  23.344  1.00  0.00     0.163 HD
ENDROOT
BRANCH   1   5
ATOM      5  C   UNL A   1      31.077  27.815  22.893  1.00  0.00     0.081 A 
ATOM      6  C   UNL A   1      32.474  25.423  23.487  1.00  0.00     0.055 A 
ATOM      7  C   UNL A   1      33.104  26.470  22.802  1.00  0.00     0.028 A 
ATOM      8  C   UNL A   1      31.119  25.579  23.818  1.00  0.00     0.073 A 
ATOM      9  C   UNL A   1      32.411  27.652  22.501  1.00  0.00     0.020 A 
ATOM     10  C   UNL A   1      30.423  26.741  23.492  1.00  0.00     0.130 A 
BRANCH   6  11
ATOM     11  N   UNL A   1      33.172  24.240  23.857  1.00  0.00    -0.249 N 
ATOM     12  C   UNL A   1      34.377  22.693  25.150  1.00  0.00     0.146 C 
ATOM     13  C   UNL A   1      34.416  22.256  23.702  1.00  0.00     0.125 C 
ATOM     14  C   UNL A   1      33.489  23.913  25.157  1.00  0.00     0.247 C 
ATOM     15  C   UNL A   1      33.652  23.314  22.963  1.00  0.00     0.235 C 
ATOM     16  O   UNL A   1      33.147  24.488  26.184  1.00  0.00    -0.273 OA
ATOM     17  O   UNL A   1      33.564  23.307  21.743  1.00  0.00    -0.274 OA
BRANCH  12  18
ATOM     18  S   UNL A   1      33.730  21.407  26.276  1.00  0.00    -0.136 SA
BRANCH  18  19
ATOM     19  C   UNL A   1      32.517  20.574  25.197  1.00  0.00     0.192 C 
BRANCH  19  20
ATOM     20  C   UNL A   1      32.774  19.093  25.025  1.00  0.00     0.315 C 
ATOM     21  O   UNL A   1      32.111  18.218  25.566  1.00  0.00    -0.251 OA
BRANCH  20  22
ATOM     22  O   UNL A   1      33.777  18.866  24.134  1.00  0.00    -0.465 OA
BRANCH  22  23
ATOM     23  C   UNL A   1      34.544  17.667  24.318  1.00  0.00     0.229 C 
ATOM     24  C   UNL A   1      34.200  16.636  23.258  1.00  0.00     0.049 C 
ENDBRANCH  22  23
ENDBRANCH  20  22
ENDBRANCH  19  20
ENDBRANCH  18  19
ENDBRANCH  12  18
ENDBRANCH   6  11
BRANCH  10  25
ATOM     25  O   UNL A   1      29.086  26.725  23.782  1.00  0.00    -0.507 OA
ATOM     26  H   UNL A   1      28.689  27.464  24.200  1.00  0.00     0.293 HD
ENDBRANCH  10  25
ENDBRANCH   1   5
BRANCH   3  27
ATOM     27  C   UNL A   1      30.822  30.045  24.995  1.00  0.00     0.116 C 
BRANCH  27  28
ATOM     28  C   UNL A   1      32.256  29.555  25.170  1.00  0.00     0.023 C 
BRANCH  28  29
ATOM     29  C   UNL A   1      32.465  28.428  26.180  1.00  0.00     0.023 C 
BRANCH  29  30
ATOM     30  C   UNL A   1      33.181  28.808  27.471  1.00  0.00     0.116 C 
BRANCH  30  31
ATOM     31  N   UNL A   1      33.374  30.242  27.634  1.00  0.00    -0.352 N 
ATOM     32  C   UNL A   1      34.491  30.949  28.019  1.00  0.00     0.251 C 
ATOM     33  H   UNL A   1      32.582  30.793  27.438  1.00  0.00     0.163 HD
ATOM     34  O   UNL A   1      34.422  32.160  28.201  1.00  0.00    -0.269 OA
BRANCH  32  35
ATOM     35  C   UNL A   1      35.769  30.244  28.259  1.00  0.00     0.039 A 
ATOM     36  C   UNL A   1      36.737  30.235  27.251  1.00  0.00     0.014 A 
ATOM     37  C   UNL A   1      36.025  29.622  29.481  1.00  0.00     0.014 A 
ATOM     38  C   UNL A   1      38.000  29.694  27.510  1.00  0.00     0.010 A 
ATOM     39  C   UNL A   1      37.310  29.174  29.769  1.00  0.00     0.010 A 
ATOM     40  C   UNL A   1      38.314  29.211  28.789  1.00  0.00    -0.014 A 
BRANCH  40  41
ATOM     41  C   UNL A   1      39.683  28.746  29.133  1.00  0.00     0.031 A 
ATOM     42  C   UNL A   1      40.631  29.660  29.861  1.00  0.00     0.074 A 
ATOM     43  C   UNL A   1      40.106  27.534  28.721  1.00  0.00     0.049 A 
ATOM     44  N   UNL A   1      41.889  29.473  30.168  1.00  0.00    -0.248 NA
ATOM     45  C   UNL A   1      40.100  30.970  30.272  1.00  0.00     0.031 C 
ATOM     46  C   UNL A   1      39.302  26.559  27.979  1.00  0.00     0.029 A 
ATOM     47  N   UNL A   1      41.325  26.916  28.864  1.00  0.00    -0.354 N 
ATOM     48  C   UNL A   1      42.302  30.645  30.791  1.00  0.00     0.074 A 
ATOM     49  C   UNL A   1      41.180  31.558  30.761  1.00  0.00     0.031 C 
ATOM     50  C   UNL A   1      40.036  25.454  27.766  1.00  0.00     0.029 A 
ATOM     51  C   UNL A   1      41.376  25.660  28.307  1.00  0.00     0.049 A 
ATOM     52  H   UNL A   1      42.090  27.334  29.321  1.00  0.00     0.167 HD
ATOM     53  C   UNL A   1      43.498  30.930  31.358  1.00  0.00     0.031 A 
ATOM     54  C   UNL A   1      42.387  24.776  28.234  1.00  0.00     0.031 A 
ATOM     55  C   UNL A   1      44.615  30.024  31.391  1.00  0.00     0.049 A 
ATOM     56  C   UNL A   1      43.721  25.133  28.831  1.00  0.00     0.074 A 
ATOM     57  C   UNL A   1      45.855  30.204  31.979  1.00  0.00     0.029 A 
ATOM     58  N   UNL A   1      44.628  28.768  30.805  1.00  0.00    -0.354 N 
ATOM     59  N   UNL A   1      44.078  26.223  29.467  1.00  0.00    -0.248 NA
ATOM     60  C   UNL A   1      44.791  24.133  28.703  1.00  0.00     0.031 C 
ATOM     61  C   UNL A   1      46.637  29.079  31.700  1.00  0.00     0.029 A 
ATOM     62  C   UNL A   1      45.862  28.171  30.996  1.00  0.00     0.049 A 
ATOM     63  H   UNL A   1      43.871  28.361  30.325  1.00  0.00     0.167 HD
ATOM     64  C   UNL A   1      45.400  26.024  29.847  1.00  0.00     0.074 A 
ATOM     65  C   UNL A   1      45.778  24.707  29.378  1.00  0.00     0.031 C 
ATOM     66  C   UNL A   1      46.223  26.858  30.527  1.00  0.00     0.031 A 
BRANCH  53  67
ATOM     67  C   UNL A   1      43.654  32.291  31.983  1.00  0.00    -0.014 A 
ATOM     68  C   UNL A   1      43.044  32.605  33.208  1.00  0.00     0.009 A 
ATOM     69  C   UNL A   1      44.430  33.271  31.342  1.00  0.00     0.009 A 
ATOM     70  C   UNL A   1      43.164  33.885  33.753  1.00  0.00     0.001 A 
ATOM     71  C   UNL A   1      44.577  34.539  31.908  1.00  0.00     0.001 A 
ATOM     72  C   UNL A   1      43.933  34.849  33.104  1.00  0.00     0.000 A 
ENDBRANCH  53  67
BRANCH  54  73
ATOM     73  C   UNL A   1      42.177  23.451  27.592  1.00  0.00    -0.014 A 
ATOM     74  C   UNL A   1      41.668  22.376  28.339  1.00  0.00     0.009 A 
ATOM     75  C   UNL A   1      42.491  23.246  26.240  1.00  0.00     0.009 A 
ATOM     76  C   UNL A   1      41.500  21.120  27.751  1.00  0.00     0.001 A 
ATOM     77  C   UNL A   1      42.293  21.998  25.646  1.00  0.00     0.001 A 
ATOM     78  C   UNL A   1      41.807  20.934  26.404  1.00  0.00     0.000 A 
ENDBRANCH  54  73
BRANCH  66  79
ATOM     79  C   UNL A   1      47.604  26.354  30.849  1.00  0.00    -0.014 A 
ATOM     80  C   UNL A   1      48.661  26.474  29.935  1.00  0.00     0.009 A 
ATOM     81  C   UNL A   1      47.857  25.793  32.111  1.00  0.00     0.009 A 
ATOM     82  C   UNL A   1      49.937  26.015  30.268  1.00  0.00     0.001 A 
ATOM     83  C   UNL A   1      49.139  25.364  32.454  1.00  0.00     0.001 A 
ATOM     84  C   UNL A   1      50.177  25.467  31.528  1.00  0.00     0.000 A 
ENDBRANCH  66  79
ENDBRANCH  40  41
ENDBRANCH  32  35
ENDBRANCH  30  31
ENDBRANCH  29  30
ENDBRANCH  28  29
ENDBRANCH  27  28
ENDBRANCH   3  27
TORSDOF 18
ENDMDL
MODEL 2
REMARK VINA RESULT:     -10.8      2.920      8.247
REMARK SMILES CCOC(=O)CS[C@H]1CC(=O)N(c2ccc(C(=O)NCCCCNC(=O)c3ccc(-c4c5nc(c(-c6ccccc6)c6ccc([nH]6)c(-c6ccccc6)c6nc(c(-c7ccccc7)c7ccc4[nH]7)C=C6)C=C5)cc3)c(O)c2)C1=O
REMARK SMILES IDX 17 1 18 2 19 3 16 5 13 6 14 7 77 8 15 9 75 10 12 11 8 12
REMARK SMILES IDX 9 13 78 14 10 15 79 16 11 17 7 18 6 19 4 20 5 21 3 22 2 23
REMARK SMILES IDX 1 24 76 25 20 27 21 28 22 29 23 30 24 31 25 32 26 34 27 35
REMARK SMILES IDX 28 36 74 37 29 38 73 39 30 40 31 41 32 42 67 43 33 44 72 45
REMARK SMILES IDX 66 46 68 47 34 48 71 49 65 50 64 51 35 53 57 54 42 55 56 56
REMARK SMILES IDX 43 57 46 58 55 59 69 60 44 61 45 62 54 64 70 65 47 66 36 67
REMARK SMILES IDX 37 68 41 69 38 70 40 71 39 72 58 73 59 74 63 75 60 76 62 77
REMARK SMILES IDX 61 78 48 79 49 80 53 81 50 82 52 83 51 84
REMARK H PARENT 19 4 76 26 24 33 68 52 46 63
REMARK Flexibility Score: inf
ROOT
ATOM      1  C   UNL A   1      34.362  21.895  26.755  1.00  0.00     0.255 C 
ATOM      2  O   UNL A   1      33.865  21.195  27.633  1.00  0.00    -0.269 OA
ATOM      3  N   UNL A   1      35.669  21.680  26.379  1.00  0.00    -0.352 N 
ATOM      4  H   UNL A   1      36.122  20.936  26.840  1.00  0.00     0.163 HD
ENDROOT
BRANCH   1   5
ATOM      5  C   UNL A   1      33.556  22.981  26.149  1.00  0.00     0.081 A 
ATOM      6  C   UNL A   1      32.217  25.119  24.858  1.00  0.00     0.055 A 
ATOM      7  C   UNL A   1      33.469  25.313  25.457  1.00  0.00     0.028 A 
ATOM      8  C   UNL A   1      31.629  23.849  24.968  1.00  0.00     0.073 A 
ATOM      9  C   UNL A   1      34.130  24.257  26.102  1.00  0.00     0.020 A 
ATOM     10  C   UNL A   1      32.272  22.808  25.635  1.00  0.00     0.130 A 
BRANCH   6  11
ATOM     11  N   UNL A   1      31.556  26.157  24.146  1.00  0.00    -0.249 N 
ATOM     12  C   UNL A   1      30.109  27.946  23.678  1.00  0.00     0.146 C 
ATOM     13  C   UNL A   1      30.686  27.431  22.378  1.00  0.00     0.125 C 
ATOM     14  C   UNL A   1      30.791  27.132  24.749  1.00  0.00     0.247 C 
ATOM     15  C   UNL A   1      31.564  26.284  22.778  1.00  0.00     0.235 C 
ATOM     16  O   UNL A   1      30.642  27.339  25.948  1.00  0.00    -0.273 OA
ATOM     17  O   UNL A   1      32.123  25.583  21.946  1.00  0.00    -0.274 OA
BRANCH  12  18
ATOM     18  S   UNL A   1      30.392  29.734  23.936  1.00  0.00    -0.136 SA
BRANCH  18  19
ATOM     19  C   UNL A   1      29.344  30.449  22.626  1.00  0.00     0.192 C 
BRANCH  19  20
ATOM     20  C   UNL A   1      28.144  31.205  23.153  1.00  0.00     0.315 C 
ATOM     21  O   UNL A   1      28.052  32.425  23.149  1.00  0.00    -0.251 OA
BRANCH  20  22
ATOM     22  O   UNL A   1      27.160  30.354  23.550  1.00  0.00    -0.465 OA
BRANCH  22  23
ATOM     23  C   UNL A   1      27.030  29.129  22.813  1.00  0.00     0.229 C 
ATOM     24  C   UNL A   1      26.545  28.005  23.712  1.00  0.00     0.049 C 
ENDBRANCH  22  23
ENDBRANCH  20  22
ENDBRANCH  19  20
ENDBRANCH  18  19
ENDBRANCH  12  18
ENDBRANCH   6  11
BRANCH  10  25
ATOM     25  O   UNL A   1      31.549  21.653  25.755  1.00  0.00    -0.507 OA
ATOM     26  H   UNL A   1      31.752  21.043  26.438  1.00  0.00     0.293 HD
ENDBRANCH  10  25
ENDBRANCH   1   5
BRANCH   3  27
ATOM     27  C   UNL A   1      36.480  22.390  25.401  1.00  0.00     0.116 C 
BRANCH  27  28
ATOM     28  C   UNL A   1      37.247  21.486  24.442  1.00  0.00     0.023 C 
BRANCH  28  29
ATOM     29  C   UNL A   1      37.896  20.247  25.056  1.00  0.00     0.023 C 
BRANCH  29  30
ATOM     30  C   UNL A   1      39.139  20.490  25.906  1.00  0.00     0.116 C 
BRANCH  30  31
ATOM     31  N   UNL A   1      40.082  19.381  25.895  1.00  0.00    -0.352 N 
ATOM     32  C   UNL A   1      41.440  19.369  26.120  1.00  0.00     0.251 C 
ATOM     33  H   UNL A   1      39.687  18.502  25.697  1.00  0.00     0.163 HD
ATOM     34  O   UNL A   1      42.082  18.336  25.960  1.00  0.00    -0.269 OA
BRANCH  32  35
ATOM     35  C   UNL A   1      42.138  20.612  26.512  1.00  0.00     0.039 A 
ATOM     36  C   UNL A   1      42.677  21.430  25.514  1.00  0.00     0.014 A 
ATOM     37  C   UNL A   1      42.234  20.989  27.852  1.00  0.00     0.014 A 
ATOM     38  C   UNL A   1      43.217  22.673  25.855  1.00  0.00     0.010 A 
ATOM     39  C   UNL A   1      42.680  22.265  28.178  1.00  0.00     0.010 A 
ATOM     40  C   UNL A   1      43.170  23.125  27.183  1.00  0.00    -0.014 A 
BRANCH  40  41
ATOM     41  C   UNL A   1      43.620  24.491  27.559  1.00  0.00     0.031 A 
ATOM     42  C   UNL A   1      42.611  25.539  27.940  1.00  0.00     0.074 A 
ATOM     43  C   UNL A   1      44.925  24.816  27.478  1.00  0.00     0.049 A 
ATOM     44  N   UNL A   1      42.796  26.807  28.209  1.00  0.00    -0.248 NA
ATOM     45  C   UNL A   1      41.203  25.112  27.999  1.00  0.00     0.031 C 
ATOM     46  C   UNL A   1      46.007  23.906  27.091  1.00  0.00     0.029 A 
ATOM     47  N   UNL A   1      45.565  26.008  27.713  1.00  0.00    -0.354 N 
ATOM     48  C   UNL A   1      41.530  27.328  28.451  1.00  0.00     0.074 A 
ATOM     49  C   UNL A   1      40.583  26.257  28.235  1.00  0.00     0.031 C 
ATOM     50  C   UNL A   1      47.177  24.562  27.152  1.00  0.00     0.029 A 
ATOM     51  C   UNL A   1      46.927  25.950  27.530  1.00  0.00     0.049 A 
ATOM     52  H   UNL A   1      45.094  26.828  27.986  1.00  0.00     0.167 HD
ATOM     53  C   UNL A   1      41.186  28.579  28.841  1.00  0.00     0.031 A 
ATOM     54  C   UNL A   1      47.867  26.905  27.646  1.00  0.00     0.031 A 
ATOM     55  C   UNL A   1      42.126  29.646  29.057  1.00  0.00     0.049 A 
ATOM     56  C   UNL A   1      47.456  28.299  28.035  1.00  0.00     0.074 A 
ATOM     57  C   UNL A   1      41.880  30.937  29.494  1.00  0.00     0.029 A 
ATOM     58  N   UNL A   1      43.493  29.547  28.848  1.00  0.00    -0.354 N 
ATOM     59  N   UNL A   1      46.262  28.761  28.316  1.00  0.00    -0.248 NA
ATOM     60  C   UNL A   1      48.527  29.301  28.127  1.00  0.00     0.031 C 
ATOM     61  C   UNL A   1      43.092  31.635  29.494  1.00  0.00     0.029 A 
ATOM     62  C   UNL A   1      44.101  30.760  29.122  1.00  0.00     0.049 A 
ATOM     63  H   UNL A   1      43.961  28.734  28.550  1.00  0.00     0.167 HD
ATOM     64  C   UNL A   1      46.443  30.097  28.654  1.00  0.00     0.074 A 
ATOM     65  C   UNL A   1      47.862  30.367  28.551  1.00  0.00     0.031 C 
ATOM     66  C   UNL A   1      45.515  31.014  29.020  1.00  0.00     0.031 A 
BRANCH  53  67
ATOM     67  C   UNL A   1      39.720  28.855  29.047  1.00  0.00    -0.014 A 
ATOM     68  C   UNL A   1      39.094  28.584  30.274  1.00  0.00     0.009 A 
ATOM     69  C   UNL A   1      38.957  29.401  28.003  1.00  0.00     0.009 A 
ATOM     70  C   UNL A   1      37.724  28.806  30.436  1.00  0.00     0.001 A 
ATOM     71  C   UNL A   1      37.596  29.655  28.180  1.00  0.00     0.001 A 
ATOM     72  C   UNL A   1      36.978  29.345  29.389  1.00  0.00     0.000 A 
ENDBRANCH  53  67
BRANCH  54  73
ATOM     73  C   UNL A   1      49.300  26.576  27.416  1.00  0.00    -0.014 A 
ATOM     74  C   UNL A   1      49.850  26.676  26.129  1.00  0.00     0.009 A 
ATOM     75  C   UNL A   1      50.121  26.154  28.473  1.00  0.00     0.009 A 
ATOM     76  C   UNL A   1      51.186  26.336  25.900  1.00  0.00     0.001 A 
ATOM     77  C   UNL A   1      51.464  25.844  28.247  1.00  0.00     0.001 A 
ATOM     78  C   UNL A   1      51.993  25.926  26.960  1.00  0.00     0.000 A 
ENDBRANCH  54  73
BRANCH  66  79
ATOM     79  C   UNL A   1      46.008  32.387  29.385  1.00  0.00    -0.014 A 
ATOM     80  C   UNL A   1      46.418  32.698  30.691  1.00  0.00     0.009 A 
ATOM     81  C   UNL A   1      46.108  33.373  28.390  1.00  0.00     0.009 A 
ATOM     82  C   UNL A   1      46.889  33.975  30.997  1.00  0.00     0.001 A 
ATOM     83  C   UNL A   1      46.609  34.639  28.691  1.00  0.00     0.001 A 
ATOM     84  C   UNL A   1      46.991  34.942  29.997  1.00  0.00     0.000 A 
ENDBRANCH  66  79
ENDBRANCH  40  41
ENDBRANCH  32  35
ENDBRANCH  30  31
ENDBRANCH  29  30
ENDBRANCH  28  29
ENDBRANCH  27  28
ENDBRANCH   3  27
TORSDOF 18
ENDMDL
MODEL 3
REMARK VINA RESULT:     -10.8      2.756      8.673
REMARK SMILES CCOC(=O)CS[C@H]1CC(=O)N(c2ccc(C(=O)NCCCCNC(=O)c3ccc(-c4c5nc(c(-c6ccccc6)c6ccc([nH]6)c(-c6ccccc6)c6nc(c(-c7ccccc7)c7ccc4[nH]7)C=C6)C=C5)cc3)c(O)c2)C1=O
REMARK SMILES IDX 17 1 18 2 19 3 16 5 13 6 14 7 77 8 15 9 75 10 12 11 8 12
REMARK SMILES IDX 9 13 78 14 10 15 79 16 11 17 7 18 6 19 4 20 5 21 3 22 2 23
REMARK SMILES IDX 1 24 76 25 20 27 21 28 22 29 23 30 24 31 25 32 26 34 27 35
REMARK SMILES IDX 28 36 74 37 29 38 73 39 30 40 31 41 32 42 67 43 33 44 72 45
REMARK SMILES IDX 66 46 68 47 34 48 71 49 65 50 64 51 35 53 57 54 42 55 56 56
REMARK SMILES IDX 43 57 46 58 55 59 69 60 44 61 45 62 54 64 70 65 47 66 36 67
REMARK SMILES IDX 37 68 41 69 38 70 40 71 39 72 58 73 59 74 63 75 60 76 62 77
REMARK SMILES IDX 61 78 48 79 49 80 53 81 50 82 52 83 51 84
REMARK H PARENT 19 4 76 26 24 33 68 52 46 63
REMARK Flexibility Score: inf
ROOT
ATOM      1  C   UNL A   1      33.492  20.722  25.096  1.00  0.00     0.255 C 
ATOM      2  O   UNL A   1      32.591  19.888  25.100  1.00  0.00    -0.269 OA
ATOM      3  N   UNL A   1      34.744  20.364  25.542  1.00  0.00    -0.352 N 
ATOM      4  H   UNL A   1      34.839  19.424  25.818  1.00  0.00     0.163 HD
ENDROOT
BRANCH   1   5
ATOM      5  C   UNL A   1      33.199  22.105  24.649  1.00  0.00     0.081 A 
ATOM      6  C   UNL A   1      32.452  24.652  23.659  1.00  0.00     0.055 A 
ATOM      7  C   UNL A   1      32.634  23.568  22.789  1.00  0.00     0.028 A 
ATOM      8  C   UNL A   1      32.705  24.444  25.024  1.00  0.00     0.073 A 
ATOM      9  C   UNL A   1      33.010  22.309  23.277  1.00  0.00     0.020 A 
ATOM     10  C   UNL A   1      33.109  23.200  25.505  1.00  0.00     0.130 A 
BRANCH   6  11
ATOM     11  N   UNL A   1      32.012  25.922  23.195  1.00  0.00    -0.249 N 
ATOM     12  C   UNL A   1      30.585  27.644  22.477  1.00  0.00     0.146 C 
ATOM     13  C   UNL A   1      32.016  28.039  22.181  1.00  0.00     0.125 C 
ATOM     14  C   UNL A   1      30.695  26.325  23.202  1.00  0.00     0.247 C 
ATOM     15  C   UNL A   1      32.837  26.873  22.645  1.00  0.00     0.235 C 
ATOM     16  O   UNL A   1      29.731  25.744  23.687  1.00  0.00    -0.273 OA
ATOM     17  O   UNL A   1      34.047  26.832  22.471  1.00  0.00    -0.274 OA
BRANCH  12  18
ATOM     18  S   UNL A   1      29.692  28.875  23.492  1.00  0.00    -0.136 SA
BRANCH  18  19
ATOM     19  C   UNL A   1      28.343  29.351  22.359  1.00  0.00     0.192 C 
BRANCH  19  20
ATOM     20  C   UNL A   1      27.580  30.578  22.806  1.00  0.00     0.315 C 
ATOM     21  O   UNL A   1      26.942  30.643  23.849  1.00  0.00    -0.251 OA
BRANCH  20  22
ATOM     22  O   UNL A   1      27.765  31.615  21.945  1.00  0.00    -0.465 OA
BRANCH  22  23
ATOM     23  C   UNL A   1      28.998  32.340  22.064  1.00  0.00     0.229 C 
ATOM     24  C   UNL A   1      28.871  33.461  23.081  1.00  0.00     0.049 C 
ENDBRANCH  22  23
ENDBRANCH  20  22
ENDBRANCH  19  20
ENDBRANCH  18  19
ENDBRANCH  12  18
ENDBRANCH   6  11
BRANCH  10  25
ATOM     25  O   UNL A   1      33.418  23.158  26.836  1.00  0.00    -0.507 OA
ATOM     26  H   UNL A   1      34.270  22.882  27.110  1.00  0.00     0.293 HD
ENDBRANCH  10  25
ENDBRANCH   1   5
BRANCH   3  27
ATOM     27  C   UNL A   1      35.949  21.172  25.663  1.00  0.00     0.116 C 
BRANCH  27  28
ATOM     28  C   UNL A   1      37.044  20.827  24.659  1.00  0.00     0.023 C 
BRANCH  28  29
ATOM     29  C   UNL A   1      37.982  19.687  25.050  1.00  0.00     0.023 C 
BRANCH  29  30
ATOM     30  C   UNL A   1      39.219  20.078  25.850  1.00  0.00     0.116 C 
BRANCH  30  31
ATOM     31  N   UNL A   1      40.256  19.055  25.864  1.00  0.00    -0.352 N 
ATOM     32  C   UNL A   1      41.607  19.164  26.104  1.00  0.00     0.251 C 
ATOM     33  H   UNL A   1      39.941  18.142  25.673  1.00  0.00     0.163 HD
ATOM     34  O   UNL A   1      42.339  18.189  25.965  1.00  0.00    -0.269 OA
BRANCH  32  35
ATOM     35  C   UNL A   1      42.189  20.468  26.487  1.00  0.00     0.039 A 
ATOM     36  C   UNL A   1      42.792  21.256  25.503  1.00  0.00     0.014 A 
ATOM     37  C   UNL A   1      42.114  20.928  27.803  1.00  0.00     0.014 A 
ATOM     38  C   UNL A   1      43.223  22.548  25.819  1.00  0.00     0.010 A 
ATOM     39  C   UNL A   1      42.452  22.246  28.091  1.00  0.00     0.010 A 
ATOM     40  C   UNL A   1      43.005  23.073  27.102  1.00  0.00    -0.014 A 
BRANCH  40  41
ATOM     41  C   UNL A   1      43.335  24.484  27.434  1.00  0.00     0.031 A 
ATOM     42  C   UNL A   1      44.768  24.942  27.440  1.00  0.00     0.074 A 
ATOM     43  C   UNL A   1      42.359  25.332  27.812  1.00  0.00     0.049 A 
ATOM     44  N   UNL A   1      45.264  26.101  27.791  1.00  0.00    -0.248 NA
ATOM     45  C   UNL A   1      45.779  23.957  27.024  1.00  0.00     0.031 C 
ATOM     46  C   UNL A   1      40.931  25.011  27.881  1.00  0.00     0.029 A 
ATOM     47  N   UNL A   1      42.422  26.644  28.215  1.00  0.00    -0.354 N 
ATOM     48  C   UNL A   1      46.642  25.978  27.654  1.00  0.00     0.074 A 
ATOM     49  C   UNL A   1      46.906  24.614  27.250  1.00  0.00     0.031 C 
ATOM     50  C   UNL A   1      40.251  26.104  28.265  1.00  0.00     0.029 A 
ATOM     51  C   UNL A   1      41.196  27.188  28.519  1.00  0.00     0.049 A 
ATOM     52  H   UNL A   1      43.265  27.148  28.281  1.00  0.00     0.167 HD
ATOM     53  C   UNL A   1      47.601  26.918  27.825  1.00  0.00     0.031 A 
ATOM     54  C   UNL A   1      40.868  28.417  28.958  1.00  0.00     0.031 A 
ATOM     55  C   UNL A   1      47.342  28.275  28.226  1.00  0.00     0.049 A 
ATOM     56  C   UNL A   1      41.955  29.431  29.186  1.00  0.00     0.074 A 
ATOM     57  C   UNL A   1      48.243  29.314  28.386  1.00  0.00     0.029 A 
ATOM     58  N   UNL A   1      46.088  28.779  28.535  1.00  0.00    -0.354 N 
ATOM     59  N   UNL A   1      43.247  29.315  28.997  1.00  0.00    -0.248 NA
ATOM     60  C   UNL A   1      41.535  30.749  29.684  1.00  0.00     0.031 C 
ATOM     61  C   UNL A   1      47.540  30.432  28.846  1.00  0.00     0.029 A 
ATOM     62  C   UNL A   1      46.194  30.108  28.909  1.00  0.00     0.049 A 
ATOM     63  H   UNL A   1      45.248  28.268  28.494  1.00  0.00     0.167 HD
ATOM     64  C   UNL A   1      43.790  30.554  29.316  1.00  0.00     0.074 A 
ATOM     65  C   UNL A   1      42.686  31.408  29.702  1.00  0.00     0.031 C 
ATOM     66  C   UNL A   1      45.086  30.947  29.287  1.00  0.00     0.031 A 
BRANCH  53  67
ATOM     67  C   UNL A   1      49.027  26.495  27.586  1.00  0.00    -0.014 A 
ATOM     68  C   UNL A   1      49.838  26.040  28.637  1.00  0.00     0.009 A 
ATOM     69  C   UNL A   1      49.563  26.544  26.289  1.00  0.00     0.009 A 
ATOM     70  C   UNL A   1      51.171  25.692  28.406  1.00  0.00     0.001 A 
ATOM     71  C   UNL A   1      50.885  26.161  26.055  1.00  0.00     0.001 A 
ATOM     72  C   UNL A   1      51.691  25.749  27.114  1.00  0.00     0.000 A 
ENDBRANCH  53  67
BRANCH  54  73
ATOM     73  C   UNL A   1      39.443  28.772  29.191  1.00  0.00    -0.014 A 
ATOM     74  C   UNL A   1      38.676  29.334  28.158  1.00  0.00     0.009 A 
ATOM     75  C   UNL A   1      38.842  28.563  30.442  1.00  0.00     0.009 A 
ATOM     76  C   UNL A   1      37.347  29.701  28.380  1.00  0.00     0.001 A 
ATOM     77  C   UNL A   1      37.504  28.903  30.653  1.00  0.00     0.001 A 
ATOM     78  C   UNL A   1      36.760  29.481  29.624  1.00  0.00     0.000 A 
ENDBRANCH  54  73
BRANCH  66  79
ATOM     79  C   UNL A   1      45.381  32.380  29.638  1.00  0.00    -0.014 A 
ATOM     80  C   UNL A   1      45.924  32.734  30.882  1.00  0.00     0.009 A 
ATOM     81  C   UNL A   1      45.155  33.385  28.684  1.00  0.00     0.009 A 
ATOM     82  C   UNL A   1      46.206  34.070  31.174  1.00  0.00     0.001 A 
ATOM     83  C   UNL A   1      45.467  34.716  28.966  1.00  0.00     0.001 A 
ATOM     84  C   UNL A   1      45.984  35.058  30.215  1.00  0.00     0.000 A 
ENDBRANCH  66  79
ENDBRANCH  40  41
ENDBRANCH  32  35
ENDBRANCH  30  31
ENDBRANCH  29  30
ENDBRANCH  28  29
ENDBRANCH  27  28
ENDBRANCH   3  27
TORSDOF 18
ENDMDL
