MODEL 1
REMARK VINA RESULT:     -10.6      0.000      0.000
REMARK SMILES C[C@H](Cc1cccs1)N(C)C(=O)N1CCC[C@]1(C)C(=O)NCCCCNC(=O)c1ccc(-c2c3nc(c(-c4ccccc4)c4ccc([nH]4)c(-c4ccccc4)c4nc(c(-c5ccccc5)c5ccc2[nH]5)C=C4)C=C3)cc1
REMARK SMILES IDX 22 1 21 2 19 3 20 4 17 6 13 7 14 8 15 9 16 10 18 11 11 12
REMARK SMILES IDX 12 13 9 14 10 15 2 16 1 17 3 18 4 19 5 20 8 21 6 22 7 23
REMARK SMILES IDX 23 24 24 25 25 26 26 27 27 28 28 30 29 31 30 32 76 33 31 34
REMARK SMILES IDX 75 35 32 36 33 37 34 38 69 39 35 40 74 41 68 42 70 43 36 44
REMARK SMILES IDX 73 45 67 46 66 47 37 49 59 50 44 51 58 52 45 53 48 54 57 55
REMARK SMILES IDX 71 56 46 57 47 58 56 60 72 61 49 62 38 63 39 64 43 65 40 66
REMARK SMILES IDX 42 67 41 68 60 69 61 70 65 71 62 72 64 73 63 74 50 75 51 76
REMARK SMILES IDX 55 77 52 78 54 79 53 80
REMARK H PARENT 21 5 26 29 70 48 48 59
REMARK Flexibility Score: inf
ROOT
ATOM      1  C   UNL A   1      32.814  28.142  27.075  1.00  0.00     0.116 C 
ENDROOT
BRANCH   1   2
ATOM      2  N   UNL A   1      31.753  27.165  27.188  1.00  0.00    -0.354 N 
ATOM      3  C   UNL A   1      31.485  26.037  26.469  1.00  0.00     0.245 C 
ATOM      4  O   UNL A   1      30.303  25.674  26.506  1.00  0.00    -0.272 OA
ATOM      5  H   UNL A   1      31.111  27.347  27.913  1.00  0.00     0.163 HD
BRANCH   3   6
ATOM      6  C   UNL A   1      32.574  25.250  25.642  1.00  0.00     0.120 C 
ATOM      7  N   UNL A   1      32.153  24.611  24.351  1.00  0.00    -0.310 N 
ATOM      8  C   UNL A   1      32.213  23.162  24.466  1.00  0.00     0.122 C 
ATOM      9  C   UNL A   1      32.063  22.880  25.944  1.00  0.00     0.025 C 
ATOM     10  C   UNL A   1      32.903  23.995  26.542  1.00  0.00     0.040 C 
ATOM     11  C   UNL A   1      33.907  25.998  25.501  1.00  0.00     0.046 C 
BRANCH   7  12
ATOM     12  C   UNL A   1      31.116  25.085  23.563  1.00  0.00     0.320 C 
ATOM     13  O   UNL A   1      30.190  24.341  23.253  1.00  0.00    -0.248 OA
BRANCH  12  14
ATOM     14  N   UNL A   1      31.279  26.367  23.043  1.00  0.00    -0.325 N 
ATOM     15  C   UNL A   1      32.267  26.650  22.011  1.00  0.00     0.149 C 
BRANCH  14  16
ATOM     16  C   UNL A   1      30.328  27.477  23.371  1.00  0.00     0.088 C 
ATOM     17  C   UNL A   1      28.868  27.077  23.634  1.00  0.00     0.031 C 
BRANCH  16  18
ATOM     18  C   UNL A   1      30.501  28.673  22.389  1.00  0.00     0.071 C 
BRANCH  18  19
ATOM     19  C   UNL A   1      29.594  29.840  22.655  1.00  0.00     0.007 A 
ATOM     20  C   UNL A   1      29.584  30.690  23.745  1.00  0.00     0.015 A 
ATOM     21  S   UNL A   1      28.331  30.210  21.557  1.00  0.00    -0.149 S 
ATOM     22  C   UNL A   1      28.452  31.557  23.739  1.00  0.00     0.012 A 
ATOM     23  C   UNL A   1      27.677  31.382  22.615  1.00  0.00     0.065 A 
ENDBRANCH  18  19
ENDBRANCH  16  18
ENDBRANCH  14  16
ENDBRANCH  12  14
ENDBRANCH   7  12
ENDBRANCH   3   6
ENDBRANCH   1   2
BRANCH   1  24
ATOM     24  C   UNL A   1      32.368  29.264  26.157  1.00  0.00     0.023 C 
BRANCH  24  25
ATOM     25  C   UNL A   1      31.858  30.507  26.864  1.00  0.00     0.023 C 
BRANCH  25  26
ATOM     26  C   UNL A   1      32.958  31.488  27.221  1.00  0.00     0.116 C 
BRANCH  26  27
ATOM     27  N   UNL A   1      32.497  32.855  27.463  1.00  0.00    -0.352 N 
ATOM     28  C   UNL A   1      33.099  33.869  28.178  1.00  0.00     0.251 C 
ATOM     29  H   UNL A   1      31.631  33.085  27.056  1.00  0.00     0.163 HD
ATOM     30  O   UNL A   1      32.538  34.951  28.317  1.00  0.00    -0.269 OA
BRANCH  28  31
ATOM     31  C   UNL A   1      34.399  33.610  28.834  1.00  0.00     0.039 A 
ATOM     32  C   UNL A   1      34.425  32.953  30.066  1.00  0.00     0.014 A 
ATOM     33  C   UNL A   1      35.588  33.896  28.166  1.00  0.00     0.014 A 
ATOM     34  C   UNL A   1      35.638  32.462  30.556  1.00  0.00     0.010 A 
ATOM     35  C   UNL A   1      36.760  33.279  28.578  1.00  0.00     0.010 A 
ATOM     36  C   UNL A   1      36.803  32.551  29.776  1.00  0.00    -0.014 A 
BRANCH  36  37
ATOM     37  C   UNL A   1      38.077  31.892  30.167  1.00  0.00     0.031 A 
ATOM     38  C   UNL A   1      39.028  32.603  31.096  1.00  0.00     0.074 A 
ATOM     39  C   UNL A   1      38.440  30.723  29.602  1.00  0.00     0.049 A 
ATOM     40  N   UNL A   1      40.256  32.291  31.420  1.00  0.00    -0.248 NA
ATOM     41  C   UNL A   1      38.554  33.864  31.694  1.00  0.00     0.031 C 
ATOM     42  C   UNL A   1      37.655  29.958  28.629  1.00  0.00     0.029 A 
ATOM     43  N   UNL A   1      39.582  29.974  29.760  1.00  0.00    -0.354 N 
ATOM     44  C   UNL A   1      40.715  33.341  32.206  1.00  0.00     0.074 A 
ATOM     45  C   UNL A   1      39.657  34.324  32.263  1.00  0.00     0.031 C 
ATOM     46  C   UNL A   1      38.315  28.832  28.313  1.00  0.00     0.029 A 
ATOM     47  C   UNL A   1      39.591  28.816  29.019  1.00  0.00     0.049 A 
ATOM     48  H   UNL A   1      40.325  30.242  30.348  1.00  0.00     0.167 HD
ATOM     49  C   UNL A   1      41.899  33.469  32.849  1.00  0.00     0.031 A 
ATOM     50  C   UNL A   1      40.524  27.850  28.918  1.00  0.00     0.031 A 
ATOM     51  C   UNL A   1      42.922  32.461  32.856  1.00  0.00     0.049 A 
ATOM     52  C   UNL A   1      41.801  27.980  29.699  1.00  0.00     0.074 A 
ATOM     53  C   UNL A   1      44.117  32.452  33.553  1.00  0.00     0.029 A 
ATOM     54  N   UNL A   1      42.857  31.272  32.148  1.00  0.00    -0.354 N 
ATOM     55  N   UNL A   1      42.192  28.951  30.487  1.00  0.00    -0.248 NA
ATOM     56  C   UNL A   1      42.762  26.873  29.582  1.00  0.00     0.031 C 
ATOM     57  C   UNL A   1      44.790  31.265  33.246  1.00  0.00     0.029 A 
ATOM     58  C   UNL A   1      43.994  30.522  32.388  1.00  0.00     0.049 A 
ATOM     59  H   UNL A   1      42.115  31.003  31.561  1.00  0.00     0.167 HD
ATOM     60  C   UNL A   1      43.428  28.561  30.983  1.00  0.00     0.074 A 
ATOM     61  C   UNL A   1      43.716  27.258  30.418  1.00  0.00     0.031 C 
ATOM     62  C   UNL A   1      44.253  29.222  31.830  1.00  0.00     0.031 A 
BRANCH  49  63
ATOM     63  C   UNL A   1      42.136  34.739  33.615  1.00  0.00    -0.014 A 
ATOM     64  C   UNL A   1      42.773  35.840  33.020  1.00  0.00     0.009 A 
ATOM     65  C   UNL A   1      41.700  34.845  34.945  1.00  0.00     0.009 A 
ATOM     66  C   UNL A   1      43.007  37.004  33.755  1.00  0.00     0.001 A 
ATOM     67  C   UNL A   1      41.907  36.021  35.667  1.00  0.00     0.001 A 
ATOM     68  C   UNL A   1      42.570  37.095  35.075  1.00  0.00     0.000 A 
ENDBRANCH  49  63
BRANCH  50  69
ATOM     69  C   UNL A   1      40.276  26.654  28.070  1.00  0.00    -0.014 A 
ATOM     70  C   UNL A   1      39.539  25.571  28.576  1.00  0.00     0.009 A 
ATOM     71  C   UNL A   1      40.785  26.576  26.765  1.00  0.00     0.009 A 
ATOM     72  C   UNL A   1      39.342  24.425  27.804  1.00  0.00     0.001 A 
ATOM     73  C   UNL A   1      40.564  25.438  25.985  1.00  0.00     0.001 A 
ATOM     74  C   UNL A   1      39.852  24.360  26.508  1.00  0.00     0.000 A 
ENDBRANCH  50  69
BRANCH  62  75
ATOM     75  C   UNL A   1      45.522  28.530  32.234  1.00  0.00    -0.014 A 
ATOM     76  C   UNL A   1      46.714  28.721  31.520  1.00  0.00     0.009 A 
ATOM     77  C   UNL A   1      45.532  27.717  33.377  1.00  0.00     0.009 A 
ATOM     78  C   UNL A   1      47.888  28.087  31.929  1.00  0.00     0.001 A 
ATOM     79  C   UNL A   1      46.712  27.105  33.799  1.00  0.00     0.001 A 
ATOM     80  C   UNL A   1      47.888  27.285  33.070  1.00  0.00     0.000 A 
ENDBRANCH  62  75
ENDBRANCH  36  37
ENDBRANCH  28  31
ENDBRANCH  26  27
ENDBRANCH  25  26
ENDBRANCH  24  25
ENDBRANCH   1  24
TORSDOF 16
ENDMDL
MODEL 2
REMARK VINA RESULT:     -10.6      3.651      8.787
REMARK SMILES C[C@H](Cc1cccs1)N(C)C(=O)N1CCC[C@]1(C)C(=O)NCCCCNC(=O)c1ccc(-c2c3nc(c(-c4ccccc4)c4ccc([nH]4)c(-c4ccccc4)c4nc(c(-c5ccccc5)c5ccc2[nH]5)C=C4)C=C3)cc1
REMARK SMILES IDX 22 1 21 2 19 3 20 4 17 6 13 7 14 8 15 9 16 10 18 11 11 12
REMARK SMILES IDX 12 13 9 14 10 15 2 16 1 17 3 18 4 19 5 20 8 21 6 22 7 23
REMARK SMILES IDX 23 24 24 25 25 26 26 27 27 28 28 30 29 31 30 32 76 33 31 34
REMARK SMILES IDX 75 35 32 36 33 37 34 38 69 39 35 40 74 41 68 42 70 43 36 44
REMARK SMILES IDX 73 45 67 46 66 47 37 49 59 50 44 51 58 52 45 53 48 54 57 55
REMARK SMILES IDX 71 56 46 57 47 58 56 60 72 61 49 62 38 63 39 64 43 65 40 66
REMARK SMILES IDX 42 67 41 68 60 69 61 70 65 71 62 72 64 73 63 74 50 75 51 76
REMARK SMILES IDX 55 77 52 78 54 79 53 80
REMARK H PARENT 21 5 26 29 70 48 48 59
REMARK Flexibility Score: inf
ROOT
ATOM      1  C   UNL A   1      35.885  23.461  24.482  1.00  0.00     0.116 C 
ENDROOT
BRANCH   1   2
ATOM      2  N   UNL A   1      35.182  23.883  23.291  1.00  0.00    -0.354 N 
ATOM      3  C   UNL A   1      33.951  24.447  23.122  1.00  0.00     0.245 C 
ATOM      4  O   UNL A   1      33.461  24.280  21.999  1.00  0.00    -0.272 OA
ATOM      5  H   UNL A   1      35.681  23.739  22.454  1.00  0.00     0.163 HD
BRANCH   3   6
ATOM      6  C   UNL A   1      33.191  25.239  24.255  1.00  0.00     0.120 C 
ATOM      7  N   UNL A   1      31.779  24.838  24.570  1.00  0.00    -0.310 N 
ATOM      8  C   UNL A   1      30.860  25.901  24.190  1.00  0.00     0.122 C 
ATOM      9  C   UNL A   1      31.579  26.672  23.107  1.00  0.00     0.025 C 
ATOM     10  C   UNL A   1      32.998  26.683  23.647  1.00  0.00     0.040 C 
ATOM     11  C   UNL A   1      34.021  25.451  25.529  1.00  0.00     0.046 C 
BRANCH   7  12
ATOM     12  C   UNL A   1      31.285  23.557  24.385  1.00  0.00     0.320 C 
ATOM     13  O   UNL A   1      30.719  23.261  23.337  1.00  0.00    -0.248 OA
BRANCH  12  14
ATOM     14  N   UNL A   1      31.341  22.714  25.494  1.00  0.00    -0.325 N 
ATOM     15  C   UNL A   1      30.282  22.700  26.493  1.00  0.00     0.149 C 
BRANCH  14  16
ATOM     16  C   UNL A   1      32.385  21.648  25.622  1.00  0.00     0.088 C 
ATOM     17  C   UNL A   1      33.497  21.895  26.655  1.00  0.00     0.031 C 
BRANCH  16  18
ATOM     18  C   UNL A   1      32.895  21.190  24.225  1.00  0.00     0.071 C 
BRANCH  18  19
ATOM     19  C   UNL A   1      33.256  19.735  24.133  1.00  0.00     0.007 A 
ATOM     20  C   UNL A   1      34.338  19.081  24.692  1.00  0.00     0.015 A 
ATOM     21  S   UNL A   1      32.303  18.674  23.183  1.00  0.00    -0.149 S 
ATOM     22  C   UNL A   1      34.454  17.740  24.224  1.00  0.00     0.012 A 
ATOM     23  C   UNL A   1      33.423  17.399  23.379  1.00  0.00     0.065 A 
ENDBRANCH  18  19
ENDBRANCH  16  18
ENDBRANCH  14  16
ENDBRANCH  12  14
ENDBRANCH   7  12
ENDBRANCH   3   6
ENDBRANCH   1   2
BRANCH   1  24
ATOM     24  C   UNL A   1      36.709  22.226  24.168  1.00  0.00     0.023 C 
BRANCH  24  25
ATOM     25  C   UNL A   1      37.091  21.386  25.374  1.00  0.00     0.023 C 
BRANCH  25  26
ATOM     26  C   UNL A   1      38.555  21.510  25.752  1.00  0.00     0.116 C 
BRANCH  26  27
ATOM     27  N   UNL A   1      39.315  20.265  25.649  1.00  0.00    -0.352 N 
ATOM     28  C   UNL A   1      40.617  20.001  26.018  1.00  0.00     0.251 C 
ATOM     29  H   UNL A   1      38.827  19.505  25.259  1.00  0.00     0.163 HD
ATOM     30  O   UNL A   1      41.111  18.897  25.812  1.00  0.00    -0.269 OA
BRANCH  28  31
ATOM     31  C   UNL A   1      41.432  21.087  26.604  1.00  0.00     0.039 A 
ATOM     32  C   UNL A   1      42.046  22.014  25.757  1.00  0.00     0.014 A 
ATOM     33  C   UNL A   1      41.472  21.265  27.985  1.00  0.00     0.014 A 
ATOM     34  C   UNL A   1      42.577  23.188  26.297  1.00  0.00     0.010 A 
ATOM     35  C   UNL A   1      41.863  22.492  28.498  1.00  0.00     0.010 A 
ATOM     36  C   UNL A   1      42.418  23.473  27.663  1.00  0.00    -0.014 A 
BRANCH  36  37
ATOM     37  C   UNL A   1      42.806  24.780  28.255  1.00  0.00     0.031 A 
ATOM     38  C   UNL A   1      41.750  25.829  28.501  1.00  0.00     0.074 A 
ATOM     39  C   UNL A   1      44.105  25.078  28.457  1.00  0.00     0.049 A 
ATOM     40  N   UNL A   1      41.894  27.084  28.840  1.00  0.00    -0.248 NA
ATOM     41  C   UNL A   1      40.350  25.425  28.281  1.00  0.00     0.031 C 
ATOM     42  C   UNL A   1      45.241  24.190  28.193  1.00  0.00     0.029 A 
ATOM     43  N   UNL A   1      44.694  26.228  28.926  1.00  0.00    -0.354 N 
ATOM     44  C   UNL A   1      40.615  27.628  28.813  1.00  0.00     0.074 A 
ATOM     45  C   UNL A   1      39.717  26.584  28.373  1.00  0.00     0.031 C 
ATOM     46  C   UNL A   1      46.379  24.810  28.544  1.00  0.00     0.029 A 
ATOM     47  C   UNL A   1      46.063  26.154  29.011  1.00  0.00     0.049 A 
ATOM     48  H   UNL A   1      44.182  27.031  29.177  1.00  0.00     0.167 HD
ATOM     49  C   UNL A   1      40.214  28.875  29.153  1.00  0.00     0.031 A 
ATOM     50  C   UNL A   1      46.966  27.068  29.417  1.00  0.00     0.031 A 
ATOM     51  C   UNL A   1      41.092  29.890  29.663  1.00  0.00     0.049 A 
ATOM     52  C   UNL A   1      46.488  28.423  29.858  1.00  0.00     0.074 A 
ATOM     53  C   UNL A   1      40.770  31.154  30.126  1.00  0.00     0.029 A 
ATOM     54  N   UNL A   1      42.463  29.746  29.799  1.00  0.00    -0.354 N 
ATOM     55  N   UNL A   1      45.267  28.899  29.887  1.00  0.00    -0.248 NA
ATOM     56  C   UNL A   1      47.513  29.364  30.332  1.00  0.00     0.031 C 
ATOM     57  C   UNL A   1      41.954  31.787  30.519  1.00  0.00     0.029 A 
ATOM     58  C   UNL A   1      43.004  30.901  30.335  1.00  0.00     0.049 A 
ATOM     59  H   UNL A   1      42.975  28.944  29.550  1.00  0.00     0.167 HD
ATOM     60  C   UNL A   1      45.374  30.181  30.408  1.00  0.00     0.074 A 
ATOM     61  C   UNL A   1      46.776  30.404  30.695  1.00  0.00     0.031 C 
ATOM     62  C   UNL A   1      44.398  31.095  30.629  1.00  0.00     0.031 A 
BRANCH  49  63
ATOM     63  C   UNL A   1      38.754  29.196  29.001  1.00  0.00    -0.014 A 
ATOM     64  C   UNL A   1      37.859  29.038  30.072  1.00  0.00     0.009 A 
ATOM     65  C   UNL A   1      38.269  29.683  27.778  1.00  0.00     0.009 A 
ATOM     66  C   UNL A   1      36.502  29.318  29.906  1.00  0.00     0.001 A 
ATOM     67  C   UNL A   1      36.917  29.993  27.624  1.00  0.00     0.001 A 
ATOM     68  C   UNL A   1      36.032  29.800  28.685  1.00  0.00     0.000 A 
ENDBRANCH  49  63
BRANCH  50  69
ATOM     69  C   UNL A   1      48.411  26.728  29.461  1.00  0.00    -0.014 A 
ATOM     70  C   UNL A   1      49.231  26.987  28.351  1.00  0.00     0.009 A 
ATOM     71  C   UNL A   1      48.978  26.128  30.596  1.00  0.00     0.009 A 
ATOM     72  C   UNL A   1      50.580  26.627  28.365  1.00  0.00     0.001 A 
ATOM     73  C   UNL A   1      50.335  25.793  30.616  1.00  0.00     0.001 A 
ATOM     74  C   UNL A   1      51.131  26.033  29.498  1.00  0.00     0.000 A 
ENDBRANCH  50  69
BRANCH  62  75
ATOM     75  C   UNL A   1      44.805  32.398  31.251  1.00  0.00    -0.014 A 
ATOM     76  C   UNL A   1      44.855  32.555  32.643  1.00  0.00     0.009 A 
ATOM     77  C   UNL A   1      45.196  33.465  30.427  1.00  0.00     0.009 A 
ATOM     78  C   UNL A   1      45.262  33.768  33.201  1.00  0.00     0.001 A 
ATOM     79  C   UNL A   1      45.627  34.668  30.987  1.00  0.00     0.001 A 
ATOM     80  C   UNL A   1      45.653  34.821  32.373  1.00  0.00     0.000 A 
ENDBRANCH  62  75
ENDBRANCH  36  37
ENDBRANCH  28  31
ENDBRANCH  26  27
ENDBRANCH  25  26
ENDBRANCH  24  25
ENDBRANCH   1  24
TORSDOF 16
ENDMDL
MODEL 3
REMARK VINA RESULT:     -10.6      3.728      8.975
REMARK SMILES C[C@H](Cc1cccs1)N(C)C(=O)N1CCC[C@]1(C)C(=O)NCCCCNC(=O)c1ccc(-c2c3nc(c(-c4ccccc4)c4ccc([nH]4)c(-c4ccccc4)c4nc(c(-c5ccccc5)c5ccc2[nH]5)C=C4)C=C3)cc1
REMARK SMILES IDX 22 1 21 2 19 3 20 4 17 6 13 7 14 8 15 9 16 10 18 11 11 12
REMARK SMILES IDX 12 13 9 14 10 15 2 16 1 17 3 18 4 19 5 20 8 21 6 22 7 23
REMARK SMILES IDX 23 24 24 25 25 26 26 27 27 28 28 30 29 31 30 32 76 33 31 34
REMARK SMILES IDX 75 35 32 36 33 37 34 38 69 39 35 40 74 41 68 42 70 43 36 44
REMARK SMILES IDX 73 45 67 46 66 47 37 49 59 50 44 51 58 52 45 53 48 54 57 55
REMARK SMILES IDX 71 56 46 57 47 58 56 60 72 61 49 62 38 63 39 64 43 65 40 66
REMARK SMILES IDX 42 67 41 68 60 69 61 70 65 71 62 72 64 73 63 74 50 75 51 76
REMARK SMILES IDX 55 77 52 78 54 79 53 80
REMARK H PARENT 21 5 26 29 70 48 48 59
REMARK Flexibility Score: inf
ROOT
ATOM      1  C   UNL A   1      35.730  22.355  24.714  1.00  0.00     0.116 C 
ENDROOT
BRANCH   1   2
ATOM      2  N   UNL A   1      35.367  23.048  23.497  1.00  0.00    -0.354 N 
ATOM      3  C   UNL A   1      34.359  23.927  23.227  1.00  0.00     0.245 C 
ATOM      4  O   UNL A   1      34.043  23.992  22.032  1.00  0.00    -0.272 OA
ATOM      5  H   UNL A   1      35.951  22.851  22.729  1.00  0.00     0.163 HD
BRANCH   3   6
ATOM      6  C   UNL A   1      33.633  24.790  24.330  1.00  0.00     0.120 C 
ATOM      7  N   UNL A   1      32.138  24.702  24.423  1.00  0.00    -0.310 N 
ATOM      8  C   UNL A   1      31.536  25.971  24.042  1.00  0.00     0.122 C 
ATOM      9  C   UNL A   1      32.555  26.632  23.141  1.00  0.00     0.025 C 
ATOM     10  C   UNL A   1      33.849  26.279  23.852  1.00  0.00     0.040 C 
ATOM     11  C   UNL A   1      34.297  24.716  25.712  1.00  0.00     0.046 C 
BRANCH   7  12
ATOM     12  C   UNL A   1      31.410  23.584  24.050  1.00  0.00     0.320 C 
ATOM     13  O   UNL A   1      30.574  23.666  23.155  1.00  0.00    -0.248 OA
BRANCH  12  14
ATOM     14  N   UNL A   1      31.582  22.449  24.840  1.00  0.00    -0.325 N 
ATOM     15  C   UNL A   1      30.823  22.254  26.067  1.00  0.00     0.149 C 
BRANCH  14  16
ATOM     16  C   UNL A   1      32.407  21.286  24.381  1.00  0.00     0.088 C 
ATOM     17  C   UNL A   1      32.103  20.739  22.977  1.00  0.00     0.031 C 
BRANCH  16  18
ATOM     18  C   UNL A   1      32.509  20.198  25.488  1.00  0.00     0.071 C 
BRANCH  18  19
ATOM     19  C   UNL A   1      33.218  18.941  25.071  1.00  0.00     0.007 A 
ATOM     20  C   UNL A   1      34.512  18.800  24.604  1.00  0.00     0.015 A 
ATOM     21  S   UNL A   1      32.384  17.444  25.075  1.00  0.00    -0.149 S 
ATOM     22  C   UNL A   1      34.767  17.482  24.122  1.00  0.00     0.012 A 
ATOM     23  C   UNL A   1      33.684  16.652  24.299  1.00  0.00     0.065 A 
ENDBRANCH  18  19
ENDBRANCH  16  18
ENDBRANCH  14  16
ENDBRANCH  12  14
ENDBRANCH   7  12
ENDBRANCH   3   6
ENDBRANCH   1   2
BRANCH   1  24
ATOM     24  C   UNL A   1      37.238  22.386  24.878  1.00  0.00     0.023 C 
BRANCH  24  25
ATOM     25  C   UNL A   1      37.905  21.023  24.930  1.00  0.00     0.023 C 
BRANCH  25  26
ATOM     26  C   UNL A   1      38.987  20.924  25.988  1.00  0.00     0.116 C 
BRANCH  26  27
ATOM     27  N   UNL A   1      39.924  19.818  25.796  1.00  0.00    -0.352 N 
ATOM     28  C   UNL A   1      41.283  19.771  26.025  1.00  0.00     0.251 C 
ATOM     29  H   UNL A   1      39.527  18.984  25.453  1.00  0.00     0.163 HD
ATOM     30  O   UNL A   1      41.926  18.760  25.760  1.00  0.00    -0.269 OA
BRANCH  28  31
ATOM     31  C   UNL A   1      41.967  20.981  26.531  1.00  0.00     0.039 A 
ATOM     32  C   UNL A   1      42.428  21.936  25.622  1.00  0.00     0.014 A 
ATOM     33  C   UNL A   1      42.029  21.228  27.901  1.00  0.00     0.014 A 
ATOM     34  C   UNL A   1      42.819  23.194  26.089  1.00  0.00     0.010 A 
ATOM     35  C   UNL A   1      42.273  22.519  28.344  1.00  0.00     0.010 A 
ATOM     36  C   UNL A   1      42.668  23.522  27.446  1.00  0.00    -0.014 A 
BRANCH  36  37
ATOM     37  C   UNL A   1      42.900  24.895  27.965  1.00  0.00     0.031 A 
ATOM     38  C   UNL A   1      44.286  25.302  28.401  1.00  0.00     0.074 A 
ATOM     39  C   UNL A   1      41.863  25.733  28.163  1.00  0.00     0.049 A 
ATOM     40  N   UNL A   1      44.670  26.377  29.040  1.00  0.00    -0.248 NA
ATOM     41  C   UNL A   1      45.374  24.346  28.132  1.00  0.00     0.031 C 
ATOM     42  C   UNL A   1      40.458  25.447  27.860  1.00  0.00     0.029 A 
ATOM     43  N   UNL A   1      41.831  27.005  28.684  1.00  0.00    -0.354 N 
ATOM     44  C   UNL A   1      46.023  26.195  29.298  1.00  0.00     0.074 A 
ATOM     45  C   UNL A   1      46.381  24.887  28.799  1.00  0.00     0.031 C 
ATOM     46  C   UNL A   1      39.712  26.524  28.157  1.00  0.00     0.029 A 
ATOM     47  C   UNL A   1      40.574  27.558  28.717  1.00  0.00     0.049 A 
ATOM     48  H   UNL A   1      42.634  27.476  29.004  1.00  0.00     0.167 HD
ATOM     49  C   UNL A   1      46.901  27.049  29.873  1.00  0.00     0.031 A 
ATOM     50  C   UNL A   1      40.159  28.764  29.152  1.00  0.00     0.031 A 
ATOM     51  C   UNL A   1      46.566  28.378  30.301  1.00  0.00     0.049 A 
ATOM     52  C   UNL A   1      41.166  29.723  29.720  1.00  0.00     0.074 A 
ATOM     53  C   UNL A   1      47.404  29.357  30.808  1.00  0.00     0.029 A 
ATOM     54  N   UNL A   1      45.293  28.923  30.250  1.00  0.00    -0.354 N 
ATOM     55  N   UNL A   1      42.454  29.559  29.899  1.00  0.00    -0.248 NA
ATOM     56  C   UNL A   1      40.663  31.040  30.138  1.00  0.00     0.031 C 
ATOM     57  C   UNL A   1      46.630  30.488  31.088  1.00  0.00     0.029 A 
ATOM     58  C   UNL A   1      45.321  30.223  30.720  1.00  0.00     0.049 A 
ATOM     59  H   UNL A   1      44.490  28.453  29.929  1.00  0.00     0.167 HD
ATOM     60  C   UNL A   1      42.919  30.758  30.421  1.00  0.00     0.074 A 
ATOM     61  C   UNL A   1      41.779  31.646  30.518  1.00  0.00     0.031 C 
ATOM     62  C   UNL A   1      44.179  31.095  30.791  1.00  0.00     0.031 A 
BRANCH  49  63
ATOM     63  C   UNL A   1      48.315  26.572  30.049  1.00  0.00    -0.014 A 
ATOM     64  C   UNL A   1      48.694  25.819  31.172  1.00  0.00     0.009 A 
ATOM     65  C   UNL A   1      49.277  26.863  29.070  1.00  0.00     0.009 A 
ATOM     66  C   UNL A   1      50.018  25.405  31.332  1.00  0.00     0.001 A 
ATOM     67  C   UNL A   1      50.593  26.421  29.217  1.00  0.00     0.001 A 
ATOM     68  C   UNL A   1      50.965  25.701  30.353  1.00  0.00     0.000 A 
ENDBRANCH  49  63
BRANCH  50  69
ATOM     69  C   UNL A   1      38.729  29.151  29.039  1.00  0.00    -0.014 A 
ATOM     70  C   UNL A   1      38.238  29.696  27.841  1.00  0.00     0.009 A 
ATOM     71  C   UNL A   1      37.851  28.998  30.123  1.00  0.00     0.009 A 
ATOM     72  C   UNL A   1      36.907  30.107  27.741  1.00  0.00     0.001 A 
ATOM     73  C   UNL A   1      36.513  29.387  30.011  1.00  0.00     0.001 A 
ATOM     74  C   UNL A   1      36.045  29.949  28.825  1.00  0.00     0.000 A 
ENDBRANCH  50  69
BRANCH  62  75
ATOM     75  C   UNL A   1      44.398  32.493  31.287  1.00  0.00    -0.014 A 
ATOM     76  C   UNL A   1      44.357  32.794  32.657  1.00  0.00     0.009 A 
ATOM     77  C   UNL A   1      44.703  33.512  30.372  1.00  0.00     0.009 A 
ATOM     78  C   UNL A   1      44.590  34.097  33.098  1.00  0.00     0.001 A 
ATOM     79  C   UNL A   1      44.961  34.808  30.818  1.00  0.00     0.001 A 
ATOM     80  C   UNL A   1      44.897  35.101  32.180  1.00  0.00     0.000 A 
ENDBRANCH  62  75
ENDBRANCH  36  37
ENDBRANCH  28  31
ENDBRANCH  26  27
ENDBRANCH  25  26
ENDBRANCH  24  25
ENDBRANCH   1  24
TORSDOF 16
ENDMDL
