MODEL 1
REMARK VINA RESULT:     -10.7      0.000      0.000
REMARK SMILES CCOc1ccc([C@H](C)[C@](O)(C(=O)NCCCCNC(=O)c2ccc(-c3c4nc(c(-c5ccccc5)c5ccc([nH]5)c(-c5ccccc5)c5nc(c(-c6ccccc6)c6ccc3[nH]6)C=C5)C=C4)cc2)C(C)C)cc1
REMARK SMILES IDX 15 1 14 2 12 3 13 4 10 6 8 7 9 8 7 9 4 10 5 11 74 12 6 13
REMARK SMILES IDX 73 14 3 15 2 16 1 17 70 18 71 19 72 20 11 21 16 23 17 24
REMARK SMILES IDX 18 25 19 26 20 27 21 29 22 30 23 31 69 32 24 33 68 34 25 35
REMARK SMILES IDX 26 36 27 37 62 38 28 39 67 40 61 41 63 42 29 43 66 44 60 45
REMARK SMILES IDX 59 46 30 48 52 49 37 50 51 51 38 52 41 53 50 54 64 55 39 56
REMARK SMILES IDX 40 57 49 59 65 60 42 61 31 62 32 63 36 64 33 65 35 66 34 67
REMARK SMILES IDX 53 68 54 69 58 70 55 71 57 72 56 73 43 74 44 75 48 76 45 77
REMARK SMILES IDX 47 78 46 79
REMARK H PARENT 14 5 11 22 19 28 63 47 41 58
REMARK Flexibility Score: inf
ROOT
ATOM      1  C   UNL A   1      32.926  30.051  26.185  1.00  0.00     0.116 C 
ENDROOT
BRANCH   1   2
ATOM      2  N   UNL A   1      33.292  29.807  24.805  1.00  0.00    -0.354 N 
ATOM      3  C   UNL A   1      32.998  28.777  23.954  1.00  0.00     0.252 C 
ATOM      4  O   UNL A   1      33.382  28.939  22.789  1.00  0.00    -0.272 OA
ATOM      5  H   UNL A   1      33.854  30.510  24.407  1.00  0.00     0.163 HD
BRANCH   3   6
ATOM      6  C   UNL A   1      32.193  27.500  24.396  1.00  0.00     0.151 C 
BRANCH   6   7
ATOM      7  C   UNL A   1      32.633  26.997  25.838  1.00  0.00     0.058 C 
ATOM      8  C   UNL A   1      31.558  27.065  26.933  1.00  0.00     0.016 C 
BRANCH   7   9
ATOM      9  C   UNL A   1      33.288  25.624  25.940  1.00  0.00    -0.041 A 
ATOM     10  C   UNL A   1      34.408  23.059  26.117  1.00  0.00     0.119 A 
ATOM     11  C   UNL A   1      33.096  23.264  26.527  1.00  0.00     0.047 A 
ATOM     12  C   UNL A   1      35.141  24.102  25.562  1.00  0.00     0.047 A 
ATOM     13  C   UNL A   1      32.541  24.541  26.443  1.00  0.00     0.008 A 
ATOM     14  C   UNL A   1      34.585  25.377  25.476  1.00  0.00     0.008 A 
BRANCH  10  15
ATOM     15  O   UNL A   1      34.935  21.800  26.168  1.00  0.00    -0.494 OA
BRANCH  15  16
ATOM     16  C   UNL A   1      34.984  21.190  24.870  1.00  0.00     0.226 C 
ATOM     17  C   UNL A   1      33.949  20.085  24.728  1.00  0.00     0.049 C 
ENDBRANCH  15  16
ENDBRANCH  10  15
ENDBRANCH   7   9
ENDBRANCH   6   7
BRANCH   6  18
ATOM     18  C   UNL A   1      30.643  27.802  24.337  1.00  0.00     0.025 C 
ATOM     19  C   UNL A   1      30.273  28.903  23.322  1.00  0.00     0.011 C 
ATOM     20  C   UNL A   1      29.814  26.559  23.965  1.00  0.00     0.011 C 
ENDBRANCH   6  18
BRANCH   6  21
ATOM     21  O   UNL A   1      32.383  26.436  23.439  1.00  0.00    -0.379 OA
ATOM     22  H   UNL A   1      32.692  25.639  23.899  1.00  0.00     0.212 HD
ENDBRANCH   6  21
ENDBRANCH   3   6
ENDBRANCH   1   2
BRANCH   1  23
ATOM     23  C   UNL A   1      31.525  30.623  26.352  1.00  0.00     0.023 C 
BRANCH  23  24
ATOM     24  C   UNL A   1      31.452  32.142  26.492  1.00  0.00     0.023 C 
BRANCH  24  25
ATOM     25  C   UNL A   1      32.564  32.785  27.314  1.00  0.00     0.116 C 
BRANCH  25  26
ATOM     26  N   UNL A   1      32.313  34.183  27.639  1.00  0.00    -0.352 N 
ATOM     27  C   UNL A   1      32.973  35.007  28.520  1.00  0.00     0.251 C 
ATOM     28  H   UNL A   1      31.561  34.598  27.158  1.00  0.00     0.163 HD
ATOM     29  O   UNL A   1      32.554  36.138  28.745  1.00  0.00    -0.269 OA
BRANCH  27  30
ATOM     30  C   UNL A   1      34.169  34.507  29.227  1.00  0.00     0.039 A 
ATOM     31  C   UNL A   1      34.012  33.911  30.480  1.00  0.00     0.014 A 
ATOM     32  C   UNL A   1      35.430  34.585  28.633  1.00  0.00     0.014 A 
ATOM     33  C   UNL A   1      35.110  33.313  31.101  1.00  0.00     0.010 A 
ATOM     34  C   UNL A   1      36.504  33.917  29.212  1.00  0.00     0.010 A 
ATOM     35  C   UNL A   1      36.355  33.271  30.450  1.00  0.00    -0.014 A 
BRANCH  35  36
ATOM     36  C   UNL A   1      37.508  32.542  31.036  1.00  0.00     0.031 A 
ATOM     37  C   UNL A   1      38.131  33.020  32.317  1.00  0.00     0.074 A 
ATOM     38  C   UNL A   1      38.042  31.497  30.376  1.00  0.00     0.049 A 
ATOM     39  N   UNL A   1      39.174  32.548  32.953  1.00  0.00    -0.248 NA
ATOM     40  C   UNL A   1      37.520  34.199  32.951  1.00  0.00     0.031 C 
ATOM     41  C   UNL A   1      37.560  30.960  29.102  1.00  0.00     0.029 A 
ATOM     42  N   UNL A   1      39.115  30.700  30.687  1.00  0.00    -0.354 N 
ATOM     43  C   UNL A   1      39.357  33.387  34.046  1.00  0.00     0.074 A 
ATOM     44  C   UNL A   1      38.351  34.423  33.957  1.00  0.00     0.031 C 
ATOM     45  C   UNL A   1      38.310  29.899  28.761  1.00  0.00     0.029 A 
ATOM     46  C   UNL A   1      39.350  29.708  29.766  1.00  0.00     0.049 A 
ATOM     47  H   UNL A   1      39.664  30.827  31.494  1.00  0.00     0.167 HD
ATOM     48  C   UNL A   1      40.267  33.294  35.044  1.00  0.00     0.031 A 
ATOM     49  C   UNL A   1      40.296  28.750  29.734  1.00  0.00     0.031 A 
ATOM     50  C   UNL A   1      41.261  32.258  35.138  1.00  0.00     0.049 A 
ATOM     51  C   UNL A   1      41.305  28.675  30.845  1.00  0.00     0.074 A 
ATOM     52  C   UNL A   1      42.182  32.035  36.147  1.00  0.00     0.029 A 
ATOM     53  N   UNL A   1      41.469  31.275  34.183  1.00  0.00    -0.354 N 
ATOM     54  N   UNL A   1      41.417  29.428  31.912  1.00  0.00    -0.248 NA
ATOM     55  C   UNL A   1      42.313  27.610  30.748  1.00  0.00     0.031 C 
ATOM     56  C   UNL A   1      42.983  30.950  35.776  1.00  0.00     0.029 A 
ATOM     57  C   UNL A   1      42.523  30.462  34.563  1.00  0.00     0.049 A 
ATOM     58  H   UNL A   1      40.944  31.170  33.357  1.00  0.00     0.167 HD
ATOM     59  C   UNL A   1      42.489  28.912  32.628  1.00  0.00     0.074 A 
ATOM     60  C   UNL A   1      42.985  27.775  31.880  1.00  0.00     0.031 C 
ATOM     61  C   UNL A   1      43.011  29.339  33.804  1.00  0.00     0.031 A 
BRANCH  48  62
ATOM     62  C   UNL A   1      40.233  34.360  36.105  1.00  0.00    -0.014 A 
ATOM     63  C   UNL A   1      39.454  34.213  37.264  1.00  0.00     0.009 A 
ATOM     64  C   UNL A   1      40.993  35.528  35.943  1.00  0.00     0.009 A 
ATOM     65  C   UNL A   1      39.398  35.236  38.213  1.00  0.00     0.001 A 
ATOM     66  C   UNL A   1      40.961  36.535  36.909  1.00  0.00     0.001 A 
ATOM     67  C   UNL A   1      40.152  36.394  38.036  1.00  0.00     0.000 A 
ENDBRANCH  48  62
BRANCH  49  68
ATOM     68  C   UNL A   1      40.309  27.762  28.626  1.00  0.00    -0.014 A 
ATOM     69  C   UNL A   1      39.622  26.545  28.758  1.00  0.00     0.009 A 
ATOM     70  C   UNL A   1      40.995  28.028  27.431  1.00  0.00     0.009 A 
ATOM     71  C   UNL A   1      39.634  25.608  27.722  1.00  0.00     0.001 A 
ATOM     72  C   UNL A   1      40.983  27.101  26.386  1.00  0.00     0.001 A 
ATOM     73  C   UNL A   1      40.309  25.890  26.536  1.00  0.00     0.000 A 
ENDBRANCH  49  68
BRANCH  61  74
ATOM     74  C   UNL A   1      44.162  28.554  34.369  1.00  0.00    -0.014 A 
ATOM     75  C   UNL A   1      45.492  28.907  34.093  1.00  0.00     0.009 A 
ATOM     76  C   UNL A   1      43.908  27.470  35.223  1.00  0.00     0.009 A 
ATOM     77  C   UNL A   1      46.544  28.168  34.637  1.00  0.00     0.001 A 
ATOM     78  C   UNL A   1      44.962  26.751  35.788  1.00  0.00     0.001 A 
ATOM     79  C   UNL A   1      46.279  27.095  35.488  1.00  0.00     0.000 A 
ENDBRANCH  61  74
ENDBRANCH  35  36
ENDBRANCH  27  30
ENDBRANCH  25  26
ENDBRANCH  24  25
ENDBRANCH  23  24
ENDBRANCH   1  23
TORSDOF 17
ENDMDL
MODEL 2
REMARK VINA RESULT:     -10.6      2.019      6.996
REMARK SMILES CCOc1ccc([C@H](C)[C@](O)(C(=O)NCCCCNC(=O)c2ccc(-c3c4nc(c(-c5ccccc5)c5ccc([nH]5)c(-c5ccccc5)c5nc(c(-c6ccccc6)c6ccc3[nH]6)C=C5)C=C4)cc2)C(C)C)cc1
REMARK SMILES IDX 15 1 14 2 12 3 13 4 10 6 8 7 9 8 7 9 4 10 5 11 74 12 6 13
REMARK SMILES IDX 73 14 3 15 2 16 1 17 70 18 71 19 72 20 11 21 16 23 17 24
REMARK SMILES IDX 18 25 19 26 20 27 21 29 22 30 23 31 69 32 24 33 68 34 25 35
REMARK SMILES IDX 26 36 27 37 62 38 28 39 67 40 61 41 63 42 29 43 66 44 60 45
REMARK SMILES IDX 59 46 30 48 52 49 37 50 51 51 38 52 41 53 50 54 64 55 39 56
REMARK SMILES IDX 40 57 49 59 65 60 42 61 31 62 32 63 36 64 33 65 35 66 34 67
REMARK SMILES IDX 53 68 54 69 58 70 55 71 57 72 56 73 43 74 44 75 48 76 45 77
REMARK SMILES IDX 47 78 46 79
REMARK H PARENT 14 5 11 22 19 28 63 47 41 58
REMARK Flexibility Score: inf
ROOT
ATOM      1  C   UNL A   1      31.919  28.000  26.275  1.00  0.00     0.116 C 
ENDROOT
BRANCH   1   2
ATOM      2  N   UNL A   1      31.135  26.842  26.648  1.00  0.00    -0.354 N 
ATOM      3  C   UNL A   1      31.134  25.555  26.185  1.00  0.00     0.252 C 
ATOM      4  O   UNL A   1      30.404  24.776  26.810  1.00  0.00    -0.272 OA
ATOM      5  H   UNL A   1      30.483  27.011  27.367  1.00  0.00     0.163 HD
BRANCH   3   6
ATOM      6  C   UNL A   1      32.024  25.075  24.979  1.00  0.00     0.151 C 
BRANCH   6   7
ATOM      7  C   UNL A   1      31.237  25.154  23.600  1.00  0.00     0.058 C 
ATOM      8  C   UNL A   1      30.595  23.847  23.114  1.00  0.00     0.016 C 
BRANCH   7   9
ATOM      9  C   UNL A   1      30.190  26.251  23.443  1.00  0.00    -0.041 A 
ATOM     10  C   UNL A   1      28.220  28.235  23.231  1.00  0.00     0.119 A 
ATOM     11  C   UNL A   1      27.904  27.016  23.817  1.00  0.00     0.047 A 
ATOM     12  C   UNL A   1      29.520  28.497  22.812  1.00  0.00     0.047 A 
ATOM     13  C   UNL A   1      28.884  26.027  23.918  1.00  0.00     0.008 A 
ATOM     14  C   UNL A   1      30.499  27.510  22.915  1.00  0.00     0.008 A 
BRANCH  10  15
ATOM     15  O   UNL A   1      27.268  29.213  23.168  1.00  0.00    -0.494 OA
BRANCH  15  16
ATOM     16  C   UNL A   1      27.780  30.420  22.584  1.00  0.00     0.226 C 
ATOM     17  C   UNL A   1      27.678  31.594  23.544  1.00  0.00     0.049 C 
ENDBRANCH  15  16
ENDBRANCH  10  15
ENDBRANCH   7   9
ENDBRANCH   6   7
BRANCH   6  18
ATOM     18  C   UNL A   1      33.358  25.921  24.934  1.00  0.00     0.025 C 
ATOM     19  C   UNL A   1      34.552  25.216  25.607  1.00  0.00     0.011 C 
ATOM     20  C   UNL A   1      33.794  26.258  23.495  1.00  0.00     0.011 C 
ENDBRANCH   6  18
BRANCH   6  21
ATOM     21  O   UNL A   1      32.471  23.721  25.198  1.00  0.00    -0.379 OA
ATOM     22  H   UNL A   1      33.045  23.693  25.981  1.00  0.00     0.212 HD
ENDBRANCH   6  21
ENDBRANCH   3   6
ENDBRANCH   1   2
BRANCH   1  23
ATOM     23  C   UNL A   1      31.811  29.154  27.263  1.00  0.00     0.023 C 
BRANCH  23  24
ATOM     24  C   UNL A   1      31.739  30.545  26.637  1.00  0.00     0.023 C 
BRANCH  24  25
ATOM     25  C   UNL A   1      32.889  31.486  26.979  1.00  0.00     0.116 C 
BRANCH  25  26
ATOM     26  N   UNL A   1      32.452  32.825  27.352  1.00  0.00    -0.352 N 
ATOM     27  C   UNL A   1      33.069  33.750  28.162  1.00  0.00     0.251 C 
ATOM     28  H   UNL A   1      31.591  33.109  26.969  1.00  0.00     0.163 HD
ATOM     29  O   UNL A   1      32.500  34.798  28.452  1.00  0.00    -0.269 OA
BRANCH  27  30
ATOM     30  C   UNL A   1      34.405  33.456  28.717  1.00  0.00     0.039 A 
ATOM     31  C   UNL A   1      34.496  32.766  29.927  1.00  0.00     0.014 A 
ATOM     32  C   UNL A   1      35.559  33.818  28.020  1.00  0.00     0.014 A 
ATOM     33  C   UNL A   1      35.747  32.361  30.397  1.00  0.00     0.010 A 
ATOM     34  C   UNL A   1      36.796  33.344  28.445  1.00  0.00     0.010 A 
ATOM     35  C   UNL A   1      36.902  32.607  29.635  1.00  0.00    -0.014 A 
BRANCH  35  36
ATOM     36  C   UNL A   1      38.228  32.088  30.056  1.00  0.00     0.031 A 
ATOM     37  C   UNL A   1      38.727  30.772  29.528  1.00  0.00     0.074 A 
ATOM     38  C   UNL A   1      38.949  32.763  30.971  1.00  0.00     0.049 A 
ATOM     39  N   UNL A   1      39.831  30.132  29.819  1.00  0.00    -0.248 NA
ATOM     40  C   UNL A   1      37.859  30.071  28.569  1.00  0.00     0.031 C 
ATOM     41  C   UNL A   1      38.559  34.029  31.595  1.00  0.00     0.029 A 
ATOM     42  N   UNL A   1      40.165  32.474  31.540  1.00  0.00    -0.354 N 
ATOM     43  C   UNL A   1      39.777  28.945  29.100  1.00  0.00     0.074 A 
ATOM     44  C   UNL A   1      38.511  28.932  28.401  1.00  0.00     0.031 C 
ATOM     45  C   UNL A   1      39.534  34.425  32.430  1.00  0.00     0.029 A 
ATOM     46  C   UNL A   1      40.594  33.424  32.434  1.00  0.00     0.049 A 
ATOM     47  H   UNL A   1      40.679  31.662  31.327  1.00  0.00     0.167 HD
ATOM     48  C   UNL A   1      40.704  27.962  29.012  1.00  0.00     0.031 A 
ATOM     49  C   UNL A   1      41.718  33.484  33.173  1.00  0.00     0.031 A 
ATOM     50  C   UNL A   1      41.968  27.978  29.699  1.00  0.00     0.049 A 
ATOM     51  C   UNL A   1      42.726  32.375  33.072  1.00  0.00     0.074 A 
ATOM     52  C   UNL A   1      43.005  27.066  29.621  1.00  0.00     0.029 A 
ATOM     53  N   UNL A   1      42.364  28.957  30.598  1.00  0.00    -0.354 N 
ATOM     54  N   UNL A   1      42.696  31.296  32.328  1.00  0.00    -0.248 NA
ATOM     55  C   UNL A   1      43.928  32.499  33.908  1.00  0.00     0.031 C 
ATOM     56  C   UNL A   1      44.006  27.463  30.514  1.00  0.00     0.029 A 
ATOM     57  C   UNL A   1      43.616  28.654  31.105  1.00  0.00     0.049 A 
ATOM     58  H   UNL A   1      41.833  29.750  30.841  1.00  0.00     0.167 HD
ATOM     59  C   UNL A   1      43.885  30.626  32.584  1.00  0.00     0.074 A 
ATOM     60  C   UNL A   1      44.618  31.426  33.543  1.00  0.00     0.031 C 
ATOM     61  C   UNL A   1      44.331  29.456  32.066  1.00  0.00     0.031 A 
BRANCH  48  62
ATOM     62  C   UNL A   1      40.367  26.776  28.151  1.00  0.00    -0.014 A 
ATOM     63  C   UNL A   1      39.615  25.699  28.649  1.00  0.00     0.009 A 
ATOM     64  C   UNL A   1      40.805  26.737  26.818  1.00  0.00     0.009 A 
ATOM     65  C   UNL A   1      39.354  24.586  27.847  1.00  0.00     0.001 A 
ATOM     66  C   UNL A   1      40.514  25.638  26.008  1.00  0.00     0.001 A 
ATOM     67  C   UNL A   1      39.801  24.557  26.528  1.00  0.00     0.000 A 
ENDBRANCH  48  62
BRANCH  49  68
ATOM     68  C   UNL A   1      41.964  34.658  34.050  1.00  0.00    -0.014 A 
ATOM     69  C   UNL A   1      41.550  34.634  35.391  1.00  0.00     0.009 A 
ATOM     70  C   UNL A   1      42.620  35.797  33.561  1.00  0.00     0.009 A 
ATOM     71  C   UNL A   1      41.774  35.736  36.220  1.00  0.00     0.001 A 
ATOM     72  C   UNL A   1      42.866  36.887  34.400  1.00  0.00     0.001 A 
ATOM     73  C   UNL A   1      42.436  36.857  35.726  1.00  0.00     0.000 A 
ENDBRANCH  49  68
BRANCH  61  74
ATOM     74  C   UNL A   1      45.689  28.984  32.504  1.00  0.00    -0.014 A 
ATOM     75  C   UNL A   1      45.837  28.004  33.497  1.00  0.00     0.009 A 
ATOM     76  C   UNL A   1      46.836  29.503  31.883  1.00  0.00     0.009 A 
ATOM     77  C   UNL A   1      47.109  27.576  33.881  1.00  0.00     0.001 A 
ATOM     78  C   UNL A   1      48.105  29.052  32.249  1.00  0.00     0.001 A 
ATOM     79  C   UNL A   1      48.241  28.096  33.253  1.00  0.00     0.000 A 
ENDBRANCH  61  74
ENDBRANCH  35  36
ENDBRANCH  27  30
ENDBRANCH  25  26
ENDBRANCH  24  25
ENDBRANCH  23  24
ENDBRANCH   1  23
TORSDOF 17
ENDMDL
MODEL 3
REMARK VINA RESULT:     -10.6      4.425      9.840
REMARK SMILES CCOc1ccc([C@H](C)[C@](O)(C(=O)NCCCCNC(=O)c2ccc(-c3c4nc(c(-c5ccccc5)c5ccc([nH]5)c(-c5ccccc5)c5nc(c(-c6ccccc6)c6ccc3[nH]6)C=C5)C=C4)cc2)C(C)C)cc1
REMARK SMILES IDX 15 1 14 2 12 3 13 4 10 6 8 7 9 8 7 9 4 10 5 11 74 12 6 13
REMARK SMILES IDX 73 14 3 15 2 16 1 17 70 18 71 19 72 20 11 21 16 23 17 24
REMARK SMILES IDX 18 25 19 26 20 27 21 29 22 30 23 31 69 32 24 33 68 34 25 35
REMARK SMILES IDX 26 36 27 37 62 38 28 39 67 40 61 41 63 42 29 43 66 44 60 45
REMARK SMILES IDX 59 46 30 48 52 49 37 50 51 51 38 52 41 53 50 54 64 55 39 56
REMARK SMILES IDX 40 57 49 59 65 60 42 61 31 62 32 63 36 64 33 65 35 66 34 67
REMARK SMILES IDX 53 68 54 69 58 70 55 71 57 72 56 73 43 74 44 75 48 76 45 77
REMARK SMILES IDX 47 78 46 79
REMARK H PARENT 14 5 11 22 19 28 63 47 41 58
REMARK Flexibility Score: inf
ROOT
ATOM      1  C   UNL A   1      37.117  22.381  25.408  1.00  0.00     0.116 C 
ENDROOT
BRANCH   1   2
ATOM      2  N   UNL A   1      36.162  22.069  26.451  1.00  0.00    -0.354 N 
ATOM      3  C   UNL A   1      34.795  22.063  26.461  1.00  0.00     0.252 C 
ATOM      4  O   UNL A   1      34.283  21.631  27.501  1.00  0.00    -0.272 OA
ATOM      5  H   UNL A   1      36.572  21.815  27.309  1.00  0.00     0.163 HD
BRANCH   3   6
ATOM      6  C   UNL A   1      33.924  22.522  25.234  1.00  0.00     0.151 C 
BRANCH   6   7
ATOM      7  C   UNL A   1      34.587  23.747  24.467  1.00  0.00     0.058 C 
ATOM      8  C   UNL A   1      34.788  23.568  22.955  1.00  0.00     0.016 C 
BRANCH   7   9
ATOM      9  C   UNL A   1      33.974  25.127  24.675  1.00  0.00    -0.041 A 
ATOM     10  C   UNL A   1      32.781  27.645  24.995  1.00  0.00     0.119 A 
ATOM     11  C   UNL A   1      32.661  26.979  23.782  1.00  0.00     0.047 A 
ATOM     12  C   UNL A   1      33.432  27.042  26.065  1.00  0.00     0.047 A 
ATOM     13  C   UNL A   1      33.258  25.728  23.622  1.00  0.00     0.008 A 
ATOM     14  C   UNL A   1      34.027  25.792  25.906  1.00  0.00     0.008 A 
BRANCH  10  15
ATOM     15  O   UNL A   1      32.164  28.852  25.158  1.00  0.00    -0.494 OA
BRANCH  15  16
ATOM     16  C   UNL A   1      33.053  29.837  25.705  1.00  0.00     0.226 C 
ATOM     17  C   UNL A   1      32.453  30.520  26.924  1.00  0.00     0.049 C 
ENDBRANCH  15  16
ENDBRANCH  10  15
ENDBRANCH   7   9
ENDBRANCH   6   7
BRANCH   6  18
ATOM     18  C   UNL A   1      33.683  21.296  24.266  1.00  0.00     0.025 C 
ATOM     19  C   UNL A   1      33.888  19.929  24.948  1.00  0.00     0.011 C 
ATOM     20  C   UNL A   1      32.263  21.287  23.668  1.00  0.00     0.011 C 
ENDBRANCH   6  18
BRANCH   6  21
ATOM     21  O   UNL A   1      32.600  22.892  25.672  1.00  0.00    -0.379 OA
ATOM     22  H   UNL A   1      32.543  22.803  26.637  1.00  0.00     0.212 HD
ENDBRANCH   6  21
ENDBRANCH   3   6
ENDBRANCH   1   2
BRANCH   1  23
ATOM     23  C   UNL A   1      37.346  21.238  24.429  1.00  0.00     0.023 C 
BRANCH  23  24
ATOM     24  C   UNL A   1      38.068  20.022  25.004  1.00  0.00     0.023 C 
BRANCH  24  25
ATOM     25  C   UNL A   1      39.234  20.324  25.940  1.00  0.00     0.116 C 
BRANCH  25  26
ATOM     26  N   UNL A   1      40.297  19.329  25.884  1.00  0.00    -0.352 N 
ATOM     27  C   UNL A   1      41.644  19.476  26.119  1.00  0.00     0.251 C 
ATOM     28  H   UNL A   1      40.009  18.419  25.644  1.00  0.00     0.163 HD
ATOM     29  O   UNL A   1      42.414  18.542  25.923  1.00  0.00    -0.269 OA
BRANCH  27  30
ATOM     30  C   UNL A   1      42.165  20.782  26.571  1.00  0.00     0.039 A 
ATOM     31  C   UNL A   1      42.653  21.679  25.619  1.00  0.00     0.014 A 
ATOM     32  C   UNL A   1      42.127  21.134  27.921  1.00  0.00     0.014 A 
ATOM     33  C   UNL A   1      43.022  22.967  26.012  1.00  0.00     0.010 A 
ATOM     34  C   UNL A   1      42.416  22.441  28.299  1.00  0.00     0.010 A 
ATOM     35  C   UNL A   1      42.862  23.372  27.348  1.00  0.00    -0.014 A 
BRANCH  35  36
ATOM     36  C   UNL A   1      43.140  24.769  27.769  1.00  0.00     0.031 A 
ATOM     37  C   UNL A   1      44.555  25.225  27.988  1.00  0.00     0.074 A 
ATOM     38  C   UNL A   1      42.115  25.603  28.028  1.00  0.00     0.049 A 
ATOM     39  N   UNL A   1      44.991  26.387  28.406  1.00  0.00    -0.248 NA
ATOM     40  C   UNL A   1      45.616  24.239  27.731  1.00  0.00     0.031 C 
ATOM     41  C   UNL A   1      40.695  25.272  27.899  1.00  0.00     0.029 A 
ATOM     42  N   UNL A   1      42.113  26.906  28.462  1.00  0.00    -0.354 N 
ATOM     43  C   UNL A   1      46.373  26.261  28.485  1.00  0.00     0.074 A 
ATOM     44  C   UNL A   1      46.695  24.899  28.121  1.00  0.00     0.031 C 
ATOM     45  C   UNL A   1      39.962  26.354  28.207  1.00  0.00     0.029 A 
ATOM     46  C   UNL A   1      40.855  27.439  28.597  1.00  0.00     0.049 A 
ATOM     47  H   UNL A   1      42.936  27.410  28.656  1.00  0.00     0.167 HD
ATOM     48  C   UNL A   1      47.293  27.199  28.811  1.00  0.00     0.031 A 
ATOM     49  C   UNL A   1      40.463  28.666  28.990  1.00  0.00     0.031 A 
ATOM     50  C   UNL A   1      46.974  28.557  29.163  1.00  0.00     0.049 A 
ATOM     51  C   UNL A   1      41.501  29.686  29.363  1.00  0.00     0.074 A 
ATOM     52  C   UNL A   1      47.838  29.602  29.441  1.00  0.00     0.029 A 
ATOM     53  N   UNL A   1      45.687  29.057  29.293  1.00  0.00    -0.354 N 
ATOM     54  N   UNL A   1      42.807  29.577  29.357  1.00  0.00    -0.248 NA
ATOM     55  C   UNL A   1      41.006  31.004  29.787  1.00  0.00     0.031 C 
ATOM     56  C   UNL A   1      47.073  30.720  29.792  1.00  0.00     0.029 A 
ATOM     57  C   UNL A   1      45.733  30.386  29.677  1.00  0.00     0.049 A 
ATOM     58  H   UNL A   1      44.863  28.542  29.135  1.00  0.00     0.167 HD
ATOM     59  C   UNL A   1      43.292  30.817  29.749  1.00  0.00     0.074 A 
ATOM     60  C   UNL A   1      42.140  31.666  29.974  1.00  0.00     0.031 C 
ATOM     61  C   UNL A   1      44.578  31.217  29.904  1.00  0.00     0.031 A 
BRANCH  48  62
ATOM     62  C   UNL A   1      48.735  26.771  28.818  1.00  0.00    -0.014 A 
ATOM     63  C   UNL A   1      49.354  26.304  29.989  1.00  0.00     0.009 A 
ATOM     64  C   UNL A   1      49.485  26.834  27.633  1.00  0.00     0.009 A 
ATOM     65  C   UNL A   1      50.707  25.957  29.984  1.00  0.00     0.001 A 
ATOM     66  C   UNL A   1      50.829  26.456  27.624  1.00  0.00     0.001 A 
ATOM     67  C   UNL A   1      51.442  26.031  28.802  1.00  0.00     0.000 A 
ENDBRANCH  48  62
BRANCH  49  68
ATOM     68  C   UNL A   1      39.017  29.006  29.017  1.00  0.00    -0.014 A 
ATOM     69  C   UNL A   1      38.390  29.510  27.867  1.00  0.00     0.009 A 
ATOM     70  C   UNL A   1      38.255  28.821  30.180  1.00  0.00     0.009 A 
ATOM     71  C   UNL A   1      37.033  29.837  27.886  1.00  0.00     0.001 A 
ATOM     72  C   UNL A   1      36.891  29.124  30.189  1.00  0.00     0.001 A 
ATOM     73  C   UNL A   1      36.284  29.639  29.044  1.00  0.00     0.000 A 
ENDBRANCH  49  68
BRANCH  61  74
ATOM     74  C   UNL A   1      44.808  32.646  30.308  1.00  0.00    -0.014 A 
ATOM     75  C   UNL A   1      44.913  33.016  31.658  1.00  0.00     0.009 A 
ATOM     76  C   UNL A   1      44.962  33.630  29.319  1.00  0.00     0.009 A 
ATOM     77  C   UNL A   1      45.136  34.349  32.008  1.00  0.00     0.001 A 
ATOM     78  C   UNL A   1      45.213  34.956  29.672  1.00  0.00     0.001 A 
ATOM     79  C   UNL A   1      45.291  35.317  31.016  1.00  0.00     0.000 A 
ENDBRANCH  61  74
ENDBRANCH  35  36
ENDBRANCH  27  30
ENDBRANCH  25  26
ENDBRANCH  24  25
ENDBRANCH  23  24
ENDBRANCH   1  23
TORSDOF 17
ENDMDL
