MODEL 1
REMARK VINA RESULT:     -11.6      0.000      0.000
REMARK SMILES COC(=O)c1ccccc1N1C(=O)/C(=C\c2ccc(-c3ccc(Cl)c(C(=O)NCCCCNC(=O)c4ccc(-c5c6nc(c(-c7ccccc7)c7ccc([nH]7)c(-c7ccccc7)c7nc(c(-c8ccccc8)c8ccc5[nH]8)C=C7)C=C6)cc4)c3)o2)SC1=S
REMARK SMILES IDX 29 1 28 2 26 3 27 4 25 6 20 7 21 8 84 9 22 10 23 11 24 12
REMARK SMILES IDX 19 13 16 14 17 15 85 16 18 17 15 18 11 19 12 20 87 21 13 22
REMARK SMILES IDX 14 23 86 24 88 25 10 26 5 27 6 28 7 29 9 30 8 31 3 32 4 33
REMARK SMILES IDX 2 34 1 35 30 36 31 37 32 38 33 39 34 40 35 42 36 43 37 44
REMARK SMILES IDX 83 45 38 46 82 47 39 48 40 49 41 50 76 51 42 52 81 53 75 54
REMARK SMILES IDX 77 55 43 56 80 57 74 58 73 59 44 61 66 62 51 63 65 64 52 65
REMARK SMILES IDX 55 66 64 67 78 68 53 69 54 70 63 72 79 73 56 74 45 75 46 76
REMARK SMILES IDX 50 77 47 78 49 79 48 80 67 81 68 82 72 83 69 84 71 85 70 86
REMARK SMILES IDX 57 87 58 88 62 89 59 90 61 91 60 92
REMARK H PARENT 28 5 33 41 77 60 55 71
REMARK Flexibility Score: inf
ROOT
ATOM      1  C   UNL A   1      38.858  28.608  28.045  1.00  0.00     0.116 C 
ENDROOT
BRANCH   1   2
ATOM      2  N   UNL A   1      38.411  28.558  29.433  1.00  0.00    -0.352 N 
ATOM      3  C   UNL A   1      37.327  29.135  30.079  1.00  0.00     0.252 C 
ATOM      4  O   UNL A   1      37.127  28.818  31.249  1.00  0.00    -0.269 OA
ATOM      5  H   UNL A   1      38.984  28.015  30.020  1.00  0.00     0.163 HD
BRANCH   3   6
ATOM      6  C   UNL A   1      36.439  30.120  29.396  1.00  0.00     0.059 A 
ATOM      7  C   UNL A   1      34.626  30.400  27.797  1.00  0.00     0.018 A 
ATOM      8  C   UNL A   1      34.964  31.744  27.643  1.00  0.00     0.013 A 
ATOM      9  C   UNL A   1      35.273  29.654  28.785  1.00  0.00     0.027 A 
ATOM     10  C   UNL A   1      35.987  32.295  28.422  1.00  0.00     0.022 A 
ATOM     11  C   UNL A   1      36.758  31.478  29.264  1.00  0.00     0.053 A 
ATOM     12  Cl  UNL A   1      38.102  32.230  30.046  1.00  0.00    -0.083 Cl
BRANCH   7  13
ATOM     13  C   UNL A   1      33.767  29.685  26.865  1.00  0.00     0.134 A 
ATOM     14  C   UNL A   1      32.202  28.176  26.412  1.00  0.00     0.128 A 
ATOM     15  C   UNL A   1      32.311  29.018  25.312  1.00  0.00     0.051 A 
ATOM     16  O   UNL A   1      33.079  28.623  27.374  1.00  0.00    -0.457 OA
ATOM     17  C   UNL A   1      33.337  29.948  25.584  1.00  0.00     0.051 A 
BRANCH  14  18
ATOM     18  C   UNL A   1      31.393  27.021  26.571  1.00  0.00     0.068 C 
ATOM     19  N   UNL A   1      33.340  24.112  25.536  1.00  0.00    -0.260 N 
ATOM     20  C   UNL A   1      33.209  25.480  25.731  1.00  0.00     0.270 C 
ATOM     21  C   UNL A   1      32.260  23.324  25.887  1.00  0.00     0.152 C 
ATOM     22  O   UNL A   1      34.076  26.313  25.502  1.00  0.00    -0.268 OA
ATOM     23  C   UNL A   1      31.849  25.803  26.247  1.00  0.00     0.084 C 
ATOM     24  S   UNL A   1      30.923  24.359  26.403  1.00  0.00    -0.054 SA
ATOM     25  S   UNL A   1      32.153  21.658  25.957  1.00  0.00    -0.051 S 
BRANCH  19  26
ATOM     26  C   UNL A   1      34.575  23.639  25.006  1.00  0.00     0.065 A 
ATOM     27  C   UNL A   1      34.820  23.446  23.633  1.00  0.00     0.084 A 
ATOM     28  C   UNL A   1      36.109  23.060  23.215  1.00  0.00     0.018 A 
ATOM     29  C   UNL A   1      37.144  22.888  24.136  1.00  0.00     0.001 A 
ATOM     30  C   UNL A   1      35.636  23.461  25.919  1.00  0.00     0.028 A 
ATOM     31  C   UNL A   1      36.908  23.089  25.489  1.00  0.00     0.002 A 
BRANCH  27  32
ATOM     32  C   UNL A   1      33.840  23.685  22.538  1.00  0.00     0.339 C 
ATOM     33  O   UNL A   1      33.170  22.800  22.042  1.00  0.00    -0.246 OA
BRANCH  32  34
ATOM     34  O   UNL A   1      33.844  24.987  22.149  1.00  0.00    -0.465 OA
ATOM     35  C   UNL A   1      32.612  25.413  21.561  1.00  0.00     0.282 C 
ENDBRANCH  32  34
ENDBRANCH  27  32
ENDBRANCH  19  26
ENDBRANCH  14  18
ENDBRANCH   7  13
ENDBRANCH   3   6
ENDBRANCH   1   2
BRANCH   1  36
ATOM     36  C   UNL A   1      40.105  27.793  27.729  1.00  0.00     0.023 C 
BRANCH  36  37
ATOM     37  C   UNL A   1      39.971  26.279  27.805  1.00  0.00     0.023 C 
BRANCH  37  38
ATOM     38  C   UNL A   1      40.007  25.533  26.477  1.00  0.00     0.116 C 
BRANCH  38  39
ATOM     39  N   UNL A   1      40.482  24.160  26.579  1.00  0.00    -0.352 N 
ATOM     40  C   UNL A   1      41.770  23.674  26.597  1.00  0.00     0.251 C 
ATOM     41  H   UNL A   1      39.776  23.476  26.644  1.00  0.00     0.163 HD
ATOM     42  O   UNL A   1      41.970  22.463  26.607  1.00  0.00    -0.269 OA
BRANCH  40  43
ATOM     43  C   UNL A   1      42.916  24.609  26.560  1.00  0.00     0.039 A 
ATOM     44  C   UNL A   1      43.377  25.062  25.322  1.00  0.00     0.014 A 
ATOM     45  C   UNL A   1      43.509  25.066  27.739  1.00  0.00     0.014 A 
ATOM     46  C   UNL A   1      44.370  26.043  25.270  1.00  0.00     0.010 A 
ATOM     47  C   UNL A   1      44.432  26.108  27.688  1.00  0.00     0.010 A 
ATOM     48  C   UNL A   1      44.868  26.613  26.454  1.00  0.00    -0.014 A 
BRANCH  48  49
ATOM     49  C   UNL A   1      45.828  27.746  26.417  1.00  0.00     0.031 A 
ATOM     50  C   UNL A   1      47.305  27.490  26.295  1.00  0.00     0.074 A 
ATOM     51  C   UNL A   1      45.374  29.008  26.556  1.00  0.00     0.049 A 
ATOM     52  N   UNL A   1      48.293  28.349  26.280  1.00  0.00    -0.248 NA
ATOM     53  C   UNL A   1      47.732  26.084  26.201  1.00  0.00     0.031 C 
ATOM     54  C   UNL A   1      43.972  29.392  26.732  1.00  0.00     0.029 A 
ATOM     55  N   UNL A   1      46.047  30.205  26.573  1.00  0.00    -0.354 N 
ATOM     56  C   UNL A   1      49.453  27.590  26.188  1.00  0.00     0.074 A 
ATOM     57  C   UNL A   1      49.051  26.201  26.210  1.00  0.00     0.031 C 
ATOM     58  C   UNL A   1      43.886  30.730  26.802  1.00  0.00     0.029 A 
ATOM     59  C   UNL A   1      45.227  31.298  26.720  1.00  0.00     0.049 A 
ATOM     60  H   UNL A   1      47.026  30.273  26.486  1.00  0.00     0.167 HD
ATOM     61  C   UNL A   1      50.735  28.008  26.074  1.00  0.00     0.031 A 
ATOM     62  C   UNL A   1      45.521  32.611  26.786  1.00  0.00     0.031 A 
ATOM     63  C   UNL A   1      51.138  29.389  26.048  1.00  0.00     0.049 A 
ATOM     64  C   UNL A   1      46.956  33.048  26.678  1.00  0.00     0.074 A 
ATOM     65  C   UNL A   1      52.406  29.915  25.881  1.00  0.00     0.029 A 
ATOM     66  N   UNL A   1      50.276  30.465  26.202  1.00  0.00    -0.354 N 
ATOM     67  N   UNL A   1      48.032  32.318  26.513  1.00  0.00    -0.248 NA
ATOM     68  C   UNL A   1      47.214  34.493  26.754  1.00  0.00     0.031 C 
ATOM     69  C   UNL A   1      52.322  31.307  25.992  1.00  0.00     0.029 A 
ATOM     70  C   UNL A   1      50.991  31.650  26.161  1.00  0.00     0.049 A 
ATOM     71  H   UNL A   1      49.301  30.396  26.322  1.00  0.00     0.167 HD
ATOM     72  C   UNL A   1      49.090  33.216  26.435  1.00  0.00     0.074 A 
ATOM     73  C   UNL A   1      48.522  34.543  26.550  1.00  0.00     0.031 C 
ATOM     74  C   UNL A   1      50.413  32.964  26.281  1.00  0.00     0.031 A 
BRANCH  61  75
ATOM     75  C   UNL A   1      51.803  26.952  25.973  1.00  0.00    -0.014 A 
ATOM     76  C   UNL A   1      52.445  26.452  27.118  1.00  0.00     0.009 A 
ATOM     77  C   UNL A   1      52.144  26.421  24.720  1.00  0.00     0.009 A 
ATOM     78  C   UNL A   1      53.433  25.472  27.006  1.00  0.00     0.001 A 
ATOM     79  C   UNL A   1      53.110  25.417  24.613  1.00  0.00     0.001 A 
ATOM     80  C   UNL A   1      53.760  24.951  25.754  1.00  0.00     0.000 A 
ENDBRANCH  61  75
BRANCH  62  81
ATOM     81  C   UNL A   1      44.435  33.615  26.952  1.00  0.00    -0.014 A 
ATOM     82  C   UNL A   1      43.892  34.268  25.835  1.00  0.00     0.009 A 
ATOM     83  C   UNL A   1      43.950  33.940  28.228  1.00  0.00     0.009 A 
ATOM     84  C   UNL A   1      42.908  35.247  25.996  1.00  0.00     0.001 A 
ATOM     85  C   UNL A   1      42.943  34.895  28.382  1.00  0.00     0.001 A 
ATOM     86  C   UNL A   1      42.432  35.556  27.268  1.00  0.00     0.000 A 
ENDBRANCH  62  81
BRANCH  74  87
ATOM     87  C   UNL A   1      51.333  34.151  26.193  1.00  0.00    -0.014 A 
ATOM     88  C   UNL A   1      51.604  34.778  24.968  1.00  0.00     0.009 A 
ATOM     89  C   UNL A   1      51.912  34.667  27.363  1.00  0.00     0.009 A 
ATOM     90  C   UNL A   1      52.468  35.873  24.911  1.00  0.00     0.001 A 
ATOM     91  C   UNL A   1      52.748  35.782  27.309  1.00  0.00     0.001 A 
ATOM     92  C   UNL A   1      53.035  36.378  26.081  1.00  0.00     0.000 A 
ENDBRANCH  74  87
ENDBRANCH  48  49
ENDBRANCH  40  43
ENDBRANCH  38  39
ENDBRANCH  37  38
ENDBRANCH  36  37
ENDBRANCH   1  36
TORSDOF 16
ENDMDL
MODEL 2
REMARK VINA RESULT:     -11.6      0.405      5.529
REMARK SMILES COC(=O)c1ccccc1N1C(=O)/C(=C\c2ccc(-c3ccc(Cl)c(C(=O)NCCCCNC(=O)c4ccc(-c5c6nc(c(-c7ccccc7)c7ccc([nH]7)c(-c7ccccc7)c7nc(c(-c8ccccc8)c8ccc5[nH]8)C=C7)C=C6)cc4)c3)o2)SC1=S
REMARK SMILES IDX 29 1 28 2 26 3 27 4 25 6 20 7 21 8 84 9 22 10 23 11 24 12
REMARK SMILES IDX 19 13 16 14 17 15 85 16 18 17 15 18 11 19 12 20 87 21 13 22
REMARK SMILES IDX 14 23 86 24 88 25 10 26 5 27 6 28 7 29 9 30 8 31 3 32 4 33
REMARK SMILES IDX 2 34 1 35 30 36 31 37 32 38 33 39 34 40 35 42 36 43 37 44
REMARK SMILES IDX 83 45 38 46 82 47 39 48 40 49 41 50 76 51 42 52 81 53 75 54
REMARK SMILES IDX 77 55 43 56 80 57 74 58 73 59 44 61 66 62 51 63 65 64 52 65
REMARK SMILES IDX 55 66 64 67 78 68 53 69 54 70 63 72 79 73 56 74 45 75 46 76
REMARK SMILES IDX 50 77 47 78 49 79 48 80 67 81 68 82 72 83 69 84 71 85 70 86
REMARK SMILES IDX 57 87 58 88 62 89 59 90 61 91 60 92
REMARK H PARENT 28 5 33 41 77 60 55 71
REMARK Flexibility Score: inf
ROOT
ATOM      1  C   UNL A   1      39.054  28.471  27.958  1.00  0.00     0.116 C 
ENDROOT
BRANCH   1   2
ATOM      2  N   UNL A   1      38.585  28.347  29.335  1.00  0.00    -0.352 N 
ATOM      3  C   UNL A   1      37.506  28.909  30.001  1.00  0.00     0.252 C 
ATOM      4  O   UNL A   1      37.281  28.525  31.146  1.00  0.00    -0.269 OA
ATOM      5  H   UNL A   1      39.137  27.754  29.894  1.00  0.00     0.163 HD
BRANCH   3   6
ATOM      6  C   UNL A   1      36.653  29.957  29.369  1.00  0.00     0.059 A 
ATOM      7  C   UNL A   1      34.813  30.373  27.831  1.00  0.00     0.018 A 
ATOM      8  C   UNL A   1      35.217  31.701  27.701  1.00  0.00     0.013 A 
ATOM      9  C   UNL A   1      35.448  29.568  28.781  1.00  0.00     0.027 A 
ATOM     10  C   UNL A   1      36.289  32.178  28.463  1.00  0.00     0.022 A 
ATOM     11  C   UNL A   1      37.039  31.299  29.262  1.00  0.00     0.053 A 
ATOM     12  Cl  UNL A   1      38.442  31.959  30.023  1.00  0.00    -0.083 Cl
BRANCH   7  13
ATOM     13  C   UNL A   1      33.891  29.728  26.907  1.00  0.00     0.134 A 
ATOM     14  C   UNL A   1      32.257  28.295  26.458  1.00  0.00     0.128 A 
ATOM     15  C   UNL A   1      32.351  29.180  25.391  1.00  0.00     0.051 A 
ATOM     16  O   UNL A   1      33.188  28.669  27.400  1.00  0.00    -0.457 OA
ATOM     17  C   UNL A   1      33.419  30.061  25.658  1.00  0.00     0.051 A 
BRANCH  14  18
ATOM     18  C   UNL A   1      31.415  27.162  26.603  1.00  0.00     0.068 C 
ATOM     19  N   UNL A   1      33.270  24.213  25.513  1.00  0.00    -0.260 N 
ATOM     20  C   UNL A   1      33.180  25.581  25.729  1.00  0.00     0.270 C 
ATOM     21  C   UNL A   1      32.168  23.452  25.856  1.00  0.00     0.152 C 
ATOM     22  O   UNL A   1      34.071  26.391  25.510  1.00  0.00    -0.268 OA
ATOM     23  C   UNL A   1      31.833  25.936  26.257  1.00  0.00     0.084 C 
ATOM     24  S   UNL A   1      30.864  24.518  26.394  1.00  0.00    -0.054 SA
ATOM     25  S   UNL A   1      32.012  21.789  25.900  1.00  0.00    -0.051 S 
BRANCH  19  26
ATOM     26  C   UNL A   1      34.488  23.712  24.969  1.00  0.00     0.065 A 
ATOM     27  C   UNL A   1      34.691  23.451  23.601  1.00  0.00     0.084 A 
ATOM     28  C   UNL A   1      35.967  23.042  23.164  1.00  0.00     0.018 A 
ATOM     29  C   UNL A   1      37.029  22.913  24.061  1.00  0.00     0.001 A 
ATOM     30  C   UNL A   1      35.575  23.577  25.858  1.00  0.00     0.028 A 
ATOM     31  C   UNL A   1      36.834  23.181  25.409  1.00  0.00     0.002 A 
BRANCH  27  32
ATOM     32  C   UNL A   1      33.679  23.637  22.525  1.00  0.00     0.339 C 
ATOM     33  O   UNL A   1      32.902  22.766  22.187  1.00  0.00    -0.246 OA
BRANCH  32  34
ATOM     34  O   UNL A   1      33.784  24.868  21.960  1.00  0.00    -0.465 OA
ATOM     35  C   UNL A   1      32.599  25.659  22.088  1.00  0.00     0.282 C 
ENDBRANCH  32  34
ENDBRANCH  27  32
ENDBRANCH  19  26
ENDBRANCH  14  18
ENDBRANCH   7  13
ENDBRANCH   3   6
ENDBRANCH   1   2
BRANCH   1  36
ATOM     36  C   UNL A   1      40.089  27.443  27.523  1.00  0.00     0.023 C 
BRANCH  36  37
ATOM     37  C   UNL A   1      39.749  25.981  27.775  1.00  0.00     0.023 C 
BRANCH  37  38
ATOM     38  C   UNL A   1      39.615  25.100  26.539  1.00  0.00     0.116 C 
BRANCH  38  39
ATOM     39  N   UNL A   1      40.416  23.884  26.585  1.00  0.00    -0.352 N 
ATOM     40  C   UNL A   1      41.784  23.733  26.592  1.00  0.00     0.251 C 
ATOM     41  H   UNL A   1      39.902  23.045  26.614  1.00  0.00     0.163 HD
ATOM     42  O   UNL A   1      42.279  22.610  26.550  1.00  0.00    -0.269 OA
BRANCH  40  43
ATOM     43  C   UNL A   1      42.662  24.924  26.604  1.00  0.00     0.039 A 
ATOM     44  C   UNL A   1      43.267  25.304  27.805  1.00  0.00     0.014 A 
ATOM     45  C   UNL A   1      42.919  25.640  25.433  1.00  0.00     0.014 A 
ATOM     46  C   UNL A   1      44.200  26.343  27.811  1.00  0.00     0.010 A 
ATOM     47  C   UNL A   1      43.915  26.613  25.423  1.00  0.00     0.010 A 
ATOM     48  C   UNL A   1      44.571  26.971  26.610  1.00  0.00    -0.014 A 
BRANCH  48  49
ATOM     49  C   UNL A   1      45.654  27.989  26.577  1.00  0.00     0.031 A 
ATOM     50  C   UNL A   1      45.329  29.451  26.715  1.00  0.00     0.074 A 
ATOM     51  C   UNL A   1      46.926  27.600  26.363  1.00  0.00     0.049 A 
ATOM     52  N   UNL A   1      46.136  30.482  26.677  1.00  0.00    -0.248 NA
ATOM     53  C   UNL A   1      43.912  29.806  26.894  1.00  0.00     0.031 C 
ATOM     54  C   UNL A   1      47.371  26.219  26.164  1.00  0.00     0.029 A 
ATOM     55  N   UNL A   1      48.083  28.334  26.273  1.00  0.00    -0.354 N 
ATOM     56  C   UNL A   1      45.325  31.602  26.814  1.00  0.00     0.074 A 
ATOM     57  C   UNL A   1      43.960  31.129  26.877  1.00  0.00     0.031 C 
ATOM     58  C   UNL A   1      48.705  26.201  26.013  1.00  0.00     0.029 A 
ATOM     59  C   UNL A   1      49.206  27.570  26.060  1.00  0.00     0.049 A 
ATOM     60  H   UNL A   1      48.107  29.315  26.354  1.00  0.00     0.167 HD
ATOM     61  C   UNL A   1      45.683  32.905  26.902  1.00  0.00     0.031 A 
ATOM     62  C   UNL A   1      50.496  27.931  25.913  1.00  0.00     0.031 A 
ATOM     63  C   UNL A   1      47.040  33.377  26.843  1.00  0.00     0.049 A 
ATOM     64  C   UNL A   1      50.865  29.387  25.994  1.00  0.00     0.074 A 
ATOM     65  C   UNL A   1      47.509  34.672  26.978  1.00  0.00     0.029 A 
ATOM     66  N   UNL A   1      48.147  32.572  26.625  1.00  0.00    -0.354 N 
ATOM     67  N   UNL A   1      50.092  30.425  26.203  1.00  0.00    -0.248 NA
ATOM     68  C   UNL A   1      52.287  29.718  25.830  1.00  0.00     0.031 C 
ATOM     69  C   UNL A   1      48.894  34.659  26.782  1.00  0.00     0.029 A 
ATOM     70  C   UNL A   1      49.295  33.346  26.593  1.00  0.00     0.049 A 
ATOM     71  H   UNL A   1      48.122  31.594  26.509  1.00  0.00     0.167 HD
ATOM     72  C   UNL A   1      50.937  31.528  26.225  1.00  0.00     0.074 A 
ATOM     73  C   UNL A   1      52.282  31.028  26.030  1.00  0.00     0.031 C 
ATOM     74  C   UNL A   1      50.627  32.837  26.393  1.00  0.00     0.031 A 
BRANCH  61  75
ATOM     75  C   UNL A   1      44.581  33.916  27.067  1.00  0.00    -0.014 A 
ATOM     76  C   UNL A   1      43.968  34.515  25.953  1.00  0.00     0.009 A 
ATOM     77  C   UNL A   1      44.123  34.248  28.351  1.00  0.00     0.009 A 
ATOM     78  C   UNL A   1      42.947  35.452  26.124  1.00  0.00     0.001 A 
ATOM     79  C   UNL A   1      43.079  35.162  28.518  1.00  0.00     0.001 A 
ATOM     80  C   UNL A   1      42.500  35.769  27.406  1.00  0.00     0.000 A 
ENDBRANCH  61  75
BRANCH  62  81
ATOM     81  C   UNL A   1      51.543  26.898  25.688  1.00  0.00    -0.014 A 
ATOM     82  C   UNL A   1      52.105  26.203  26.770  1.00  0.00     0.009 A 
ATOM     83  C   UNL A   1      51.999  26.614  24.392  1.00  0.00     0.009 A 
ATOM     84  C   UNL A   1      53.123  25.270  26.562  1.00  0.00     0.001 A 
ATOM     85  C   UNL A   1      52.994  25.656  24.183  1.00  0.00     0.001 A 
ATOM     86  C   UNL A   1      53.564  24.995  25.269  1.00  0.00     0.000 A 
ENDBRANCH  62  81
BRANCH  74  87
ATOM     87  C   UNL A   1      51.768  33.816  26.409  1.00  0.00    -0.014 A 
ATOM     88  C   UNL A   1      52.445  34.134  27.596  1.00  0.00     0.009 A 
ATOM     89  C   UNL A   1      52.190  34.407  25.207  1.00  0.00     0.009 A 
ATOM     90  C   UNL A   1      53.496  35.053  27.586  1.00  0.00     0.001 A 
ATOM     91  C   UNL A   1      53.263  35.299  25.193  1.00  0.00     0.001 A 
ATOM     92  C   UNL A   1      53.907  35.631  26.384  1.00  0.00     0.000 A 
ENDBRANCH  74  87
ENDBRANCH  48  49
ENDBRANCH  40  43
ENDBRANCH  38  39
ENDBRANCH  37  38
ENDBRANCH  36  37
ENDBRANCH   1  36
TORSDOF 16
ENDMDL
MODEL 3
REMARK VINA RESULT:     -11.4      2.387      7.578
REMARK SMILES COC(=O)c1ccccc1N1C(=O)/C(=C\c2ccc(-c3ccc(Cl)c(C(=O)NCCCCNC(=O)c4ccc(-c5c6nc(c(-c7ccccc7)c7ccc([nH]7)c(-c7ccccc7)c7nc(c(-c8ccccc8)c8ccc5[nH]8)C=C7)C=C6)cc4)c3)o2)SC1=S
REMARK SMILES IDX 29 1 28 2 26 3 27 4 25 6 20 7 21 8 84 9 22 10 23 11 24 12
REMARK SMILES IDX 19 13 16 14 17 15 85 16 18 17 15 18 11 19 12 20 87 21 13 22
REMARK SMILES IDX 14 23 86 24 88 25 10 26 5 27 6 28 7 29 9 30 8 31 3 32 4 33
REMARK SMILES IDX 2 34 1 35 30 36 31 37 32 38 33 39 34 40 35 42 36 43 37 44
REMARK SMILES IDX 83 45 38 46 82 47 39 48 40 49 41 50 76 51 42 52 81 53 75 54
REMARK SMILES IDX 77 55 43 56 80 57 74 58 73 59 44 61 66 62 51 63 65 64 52 65
REMARK SMILES IDX 55 66 64 67 78 68 53 69 54 70 63 72 79 73 56 74 45 75 46 76
REMARK SMILES IDX 50 77 47 78 49 79 48 80 67 81 68 82 72 83 69 84 71 85 70 86
REMARK SMILES IDX 57 87 58 88 62 89 59 90 61 91 60 92
REMARK H PARENT 28 5 33 41 77 60 55 71
REMARK Flexibility Score: inf
ROOT
ATOM      1  C   UNL A   1      36.889  23.457  25.018  1.00  0.00     0.116 C 
ENDROOT
BRANCH   1   2
ATOM      2  N   UNL A   1      35.630  22.771  25.290  1.00  0.00    -0.352 N 
ATOM      3  C   UNL A   1      34.314  23.096  24.996  1.00  0.00     0.252 C 
ATOM      4  O   UNL A   1      33.452  22.257  25.244  1.00  0.00    -0.269 OA
ATOM      5  H   UNL A   1      35.735  21.919  25.772  1.00  0.00     0.163 HD
BRANCH   3   6
ATOM      6  C   UNL A   1      33.944  24.419  24.416  1.00  0.00     0.059 A 
ATOM      7  C   UNL A   1      33.227  26.689  24.919  1.00  0.00     0.018 A 
ATOM      8  C   UNL A   1      32.775  26.842  23.610  1.00  0.00     0.013 A 
ATOM      9  C   UNL A   1      33.941  25.536  25.254  1.00  0.00     0.027 A 
ATOM     10  C   UNL A   1      32.978  25.814  22.682  1.00  0.00     0.022 A 
ATOM     11  C   UNL A   1      33.518  24.585  23.091  1.00  0.00     0.053 A 
ATOM     12  Cl  UNL A   1      33.565  23.331  21.904  1.00  0.00    -0.083 Cl
BRANCH   7  13
ATOM     13  C   UNL A   1      32.839  27.581  26.003  1.00  0.00     0.134 A 
ATOM     14  C   UNL A   1      32.766  29.585  26.955  1.00  0.00     0.128 A 
ATOM     15  C   UNL A   1      31.813  28.786  27.575  1.00  0.00     0.051 A 
ATOM     16  O   UNL A   1      33.362  28.840  25.964  1.00  0.00    -0.457 OA
ATOM     17  C   UNL A   1      31.893  27.500  26.999  1.00  0.00     0.051 A 
BRANCH  14  18
ATOM     18  C   UNL A   1      33.143  30.918  27.260  1.00  0.00     0.068 C 
ATOM     19  N   UNL A   1      36.590  30.882  28.462  1.00  0.00    -0.260 N 
ATOM     20  C   UNL A   1      35.460  30.228  27.991  1.00  0.00     0.270 C 
ATOM     21  C   UNL A   1      36.518  32.259  28.565  1.00  0.00     0.152 C 
ATOM     22  O   UNL A   1      35.365  29.021  27.813  1.00  0.00    -0.268 OA
ATOM     23  C   UNL A   1      34.360  31.203  27.744  1.00  0.00     0.084 C 
ATOM     24  S   UNL A   1      34.885  32.793  28.147  1.00  0.00    -0.054 SA
ATOM     25  S   UNL A   1      37.734  33.352  28.911  1.00  0.00    -0.051 S 
BRANCH  19  26
ATOM     26  C   UNL A   1      37.724  30.084  28.787  1.00  0.00     0.065 A 
ATOM     27  C   UNL A   1      38.042  29.659  30.091  1.00  0.00     0.084 A 
ATOM     28  C   UNL A   1      39.139  28.797  30.283  1.00  0.00     0.018 A 
ATOM     29  C   UNL A   1      39.898  28.345  29.202  1.00  0.00     0.001 A 
ATOM     30  C   UNL A   1      38.503  29.614  27.709  1.00  0.00     0.028 A 
ATOM     31  C   UNL A   1      39.580  28.753  27.913  1.00  0.00     0.002 A 
BRANCH  27  32
ATOM     32  C   UNL A   1      37.266  29.985  31.319  1.00  0.00     0.339 C 
ATOM     33  O   UNL A   1      36.206  29.457  31.594  1.00  0.00    -0.246 OA
BRANCH  32  34
ATOM     34  O   UNL A   1      37.872  30.966  32.038  1.00  0.00    -0.465 OA
ATOM     35  C   UNL A   1      36.955  31.867  32.664  1.00  0.00     0.282 C 
ENDBRANCH  32  34
ENDBRANCH  27  32
ENDBRANCH  19  26
ENDBRANCH  14  18
ENDBRANCH   7  13
ENDBRANCH   3   6
ENDBRANCH   1   2
BRANCH   1  36
ATOM     36  C   UNL A   1      37.994  23.230  26.041  1.00  0.00     0.023 C 
BRANCH  36  37
ATOM     37  C   UNL A   1      38.480  24.452  26.806  1.00  0.00     0.023 C 
BRANCH  37  38
ATOM     38  C   UNL A   1      39.972  24.750  26.719  1.00  0.00     0.116 C 
BRANCH  38  39
ATOM     39  N   UNL A   1      40.802  23.574  26.494  1.00  0.00    -0.352 N 
ATOM     40  C   UNL A   1      42.159  23.482  26.289  1.00  0.00     0.251 C 
ATOM     41  H   UNL A   1      40.319  22.716  26.488  1.00  0.00     0.163 HD
ATOM     42  O   UNL A   1      42.670  22.396  26.034  1.00  0.00    -0.269 OA
BRANCH  40  43
ATOM     43  C   UNL A   1      43.000  24.699  26.330  1.00  0.00     0.039 A 
ATOM     44  C   UNL A   1      43.485  25.142  27.563  1.00  0.00     0.014 A 
ATOM     45  C   UNL A   1      43.340  25.378  25.158  1.00  0.00     0.014 A 
ATOM     46  C   UNL A   1      44.385  26.209  27.609  1.00  0.00     0.010 A 
ATOM     47  C   UNL A   1      44.306  26.380  25.197  1.00  0.00     0.010 A 
ATOM     48  C   UNL A   1      44.844  26.803  26.421  1.00  0.00    -0.014 A 
BRANCH  48  49
ATOM     49  C   UNL A   1      45.897  27.851  26.442  1.00  0.00     0.031 A 
ATOM     50  C   UNL A   1      45.527  29.300  26.606  1.00  0.00     0.074 A 
ATOM     51  C   UNL A   1      47.186  27.504  26.253  1.00  0.00     0.049 A 
ATOM     52  N   UNL A   1      46.304  30.354  26.615  1.00  0.00    -0.248 NA
ATOM     53  C   UNL A   1      44.095  29.609  26.755  1.00  0.00     0.031 C 
ATOM     54  C   UNL A   1      47.676  26.142  26.033  1.00  0.00     0.029 A 
ATOM     55  N   UNL A   1      48.323  28.273  26.213  1.00  0.00    -0.354 N 
ATOM     56  C   UNL A   1      45.457  31.446  26.756  1.00  0.00     0.074 A 
ATOM     57  C   UNL A   1      44.106  30.933  26.771  1.00  0.00     0.031 C 
ATOM     58  C   UNL A   1      49.013  26.166  25.918  1.00  0.00     0.029 A 
ATOM     59  C   UNL A   1      49.473  27.547  26.012  1.00  0.00     0.049 A 
ATOM     60  H   UNL A   1      48.316  29.252  26.319  1.00  0.00     0.167 HD
ATOM     61  C   UNL A   1      45.775  32.756  26.886  1.00  0.00     0.031 A 
ATOM     62  C   UNL A   1      50.755  27.947  25.910  1.00  0.00     0.031 A 
ATOM     63  C   UNL A   1      47.119  33.269  26.876  1.00  0.00     0.049 A 
ATOM     64  C   UNL A   1      51.079  29.411  26.035  1.00  0.00     0.074 A 
ATOM     65  C   UNL A   1      47.547  34.572  27.055  1.00  0.00     0.029 A 
ATOM     66  N   UNL A   1      48.254  32.500  26.668  1.00  0.00    -0.354 N 
ATOM     67  N   UNL A   1      50.271  30.421  26.248  1.00  0.00    -0.248 NA
ATOM     68  C   UNL A   1      52.495  29.786  25.919  1.00  0.00     0.031 C 
ATOM     69  C   UNL A   1      48.936  34.604  26.896  1.00  0.00     0.029 A 
ATOM     70  C   UNL A   1      49.380  33.308  26.687  1.00  0.00     0.049 A 
ATOM     71  H   UNL A   1      48.260  31.526  26.529  1.00  0.00     0.167 HD
ATOM     72  C   UNL A   1      51.083  31.547  26.320  1.00  0.00     0.074 A 
ATOM     73  C   UNL A   1      52.447  31.090  26.150  1.00  0.00     0.031 C 
ATOM     74  C   UNL A   1      50.731  32.842  26.511  1.00  0.00     0.031 A 
BRANCH  61  75
ATOM     75  C   UNL A   1      44.640  33.732  27.045  1.00  0.00    -0.014 A 
ATOM     76  C   UNL A   1      44.032  34.332  25.929  1.00  0.00     0.009 A 
ATOM     77  C   UNL A   1      44.146  34.027  28.324  1.00  0.00     0.009 A 
ATOM     78  C   UNL A   1      42.981  35.235  26.095  1.00  0.00     0.001 A 
ATOM     79  C   UNL A   1      43.072  34.906  28.485  1.00  0.00     0.001 A 
ATOM     80  C   UNL A   1      42.498  35.516  27.372  1.00  0.00     0.000 A 
ENDBRANCH  61  75
BRANCH  62  81
ATOM     81  C   UNL A   1      51.837  26.950  25.688  1.00  0.00    -0.014 A 
ATOM     82  C   UNL A   1      52.490  26.353  26.777  1.00  0.00     0.009 A 
ATOM     83  C   UNL A   1      52.236  26.606  24.388  1.00  0.00     0.009 A 
ATOM     84  C   UNL A   1      53.540  25.455  26.568  1.00  0.00     0.001 A 
ATOM     85  C   UNL A   1      53.264  25.682  24.181  1.00  0.00     0.001 A 
ATOM     86  C   UNL A   1      53.923  25.118  25.271  1.00  0.00     0.000 A 
ENDBRANCH  62  81
BRANCH  74  87
ATOM     87  C   UNL A   1      51.842  33.853  26.582  1.00  0.00    -0.014 A 
ATOM     88  C   UNL A   1      52.195  34.631  25.469  1.00  0.00     0.009 A 
ATOM     89  C   UNL A   1      52.524  34.050  27.792  1.00  0.00     0.009 A 
ATOM     90  C   UNL A   1      53.236  35.558  25.557  1.00  0.00     0.001 A 
ATOM     91  C   UNL A   1      53.540  35.000  27.888  1.00  0.00     0.001 A 
ATOM     92  C   UNL A   1      53.904  35.745  26.767  1.00  0.00     0.000 A 
ENDBRANCH  74  87
ENDBRANCH  48  49
ENDBRANCH  40  43
ENDBRANCH  38  39
ENDBRANCH  37  38
ENDBRANCH  36  37
ENDBRANCH   1  36
TORSDOF 16
ENDMDL
