MODEL 1
REMARK VINA RESULT:     -11.9      0.000      0.000
REMARK SMILES CCC[NH+]1CCN(c2cc(C(=O)NCCCCNC(=O)c3ccc(-c4c5nc(c(-c6ccccc6)c6ccc([nH]6)c(-c6ccccc6)c6nc(c(-c7ccccc7)c7ccc4[nH]7)C=C6)C=C5)cc3)c3cc(NC(=O)c4ccc(F)cc4)ccc3n2)CC1
REMARK SMILES IDX 15 1 14 2 13 3 11 4 12 5 10 7 8 8 9 9 85 10 84 11 69 12
REMARK SMILES IDX 83 13 70 14 82 15 71 16 7 17 4 18 5 19 87 20 6 22 86 23 3 24
REMARK SMILES IDX 2 25 1 26 72 27 73 28 74 30 75 31 76 32 81 33 77 34 80 35
REMARK SMILES IDX 78 36 79 37 16 38 17 39 18 40 19 41 20 43 21 44 22 45 68 46
REMARK SMILES IDX 23 47 67 48 24 49 25 50 26 51 61 52 27 53 66 54 60 55 62 56
REMARK SMILES IDX 28 57 65 58 59 59 58 60 29 62 51 63 36 64 50 65 37 66 40 67
REMARK SMILES IDX 49 68 63 69 38 70 39 71 48 73 64 74 41 75 30 76 31 77 35 78
REMARK SMILES IDX 32 79 34 80 33 81 52 82 53 83 57 84 54 85 56 86 55 87 42 88
REMARK SMILES IDX 43 89 47 90 44 91 46 92 45 93
REMARK H PARENT 13 6 4 21 72 29 18 42 62 61 40 72
REMARK Flexibility Score: inf
ROOT
ATOM      1  C   UNL A   1      38.582  23.027  26.310  1.00  0.00     0.023 C 
ENDROOT
BRANCH   1   2
ATOM      2  C   UNL A   1      37.354  23.767  25.780  1.00  0.00     0.116 C 
BRANCH   2   3
ATOM      3  N   UNL A   1      37.075  23.653  24.353  1.00  0.00    -0.352 N 
ATOM      4  C   UNL A   1      35.978  23.225  23.620  1.00  0.00     0.252 C 
ATOM      5  O   UNL A   1      36.069  23.356  22.395  1.00  0.00    -0.269 OA
ATOM      6  H   UNL A   1      37.828  23.943  23.788  1.00  0.00     0.163 HD
BRANCH   4   7
ATOM      7  C   UNL A   1      34.722  22.574  24.147  1.00  0.00     0.052 A 
ATOM      8  C   UNL A   1      33.726  20.477  24.877  1.00  0.00     0.130 A 
ATOM      9  C   UNL A   1      34.829  21.209  24.438  1.00  0.00     0.061 A 
ATOM     10  N   UNL A   1      32.540  21.071  25.097  1.00  0.00    -0.231 NA
ATOM     11  C   UNL A   1      32.395  22.369  24.795  1.00  0.00     0.074 A 
ATOM     12  C   UNL A   1      33.438  23.134  24.242  1.00  0.00     0.015 A 
ATOM     13  C   UNL A   1      31.154  22.974  24.984  1.00  0.00     0.031 A 
ATOM     14  C   UNL A   1      33.106  24.379  23.710  1.00  0.00     0.037 A 
ATOM     15  C   UNL A   1      30.873  24.262  24.504  1.00  0.00     0.028 A 
ATOM     16  C   UNL A   1      31.835  24.928  23.764  1.00  0.00     0.042 A 
BRANCH   8  17
ATOM     17  N   UNL A   1      33.851  19.122  25.098  1.00  0.00    -0.345 N 
ATOM     18  N   UNL A   1      32.915  16.422  24.367  1.00  0.00    -0.332 N 
ATOM     19  C   UNL A   1      32.047  17.444  25.000  1.00  0.00     0.284 C 
ATOM     20  C   UNL A   1      33.895  17.156  23.522  1.00  0.00     0.284 C 
ATOM     21  H   UNL A   1      32.345  15.787  23.809  1.00  0.00     0.348 HD
ATOM     22  C   UNL A   1      32.802  18.466  25.876  1.00  0.00     0.179 C 
ATOM     23  C   UNL A   1      34.691  18.286  24.228  1.00  0.00     0.179 C 
BRANCH  18  24
ATOM     24  C   UNL A   1      33.598  15.559  25.349  1.00  0.00     0.262 C 
BRANCH  24  25
ATOM     25  C   UNL A   1      35.032  15.171  24.955  1.00  0.00     0.058 C 
ATOM     26  C   UNL A   1      36.087  15.858  25.808  1.00  0.00     0.010 C 
ENDBRANCH  24  25
ENDBRANCH  18  24
ENDBRANCH   8  17
BRANCH  16  27
ATOM     27  N   UNL A   1      31.508  26.111  23.079  1.00  0.00    -0.322 N 
ATOM     28  C   UNL A   1      31.507  27.430  23.508  1.00  0.00     0.255 C 
ATOM     29  H   UNL A   1      31.235  25.983  22.142  1.00  0.00     0.170 HD
ATOM     30  O   UNL A   1      30.966  28.294  22.823  1.00  0.00    -0.269 OA
BRANCH  28  31
ATOM     31  C   UNL A   1      32.162  27.849  24.780  1.00  0.00     0.040 A 
ATOM     32  C   UNL A   1      33.504  28.243  24.723  1.00  0.00     0.017 A 
ATOM     33  C   UNL A   1      31.462  27.960  25.991  1.00  0.00     0.017 A 
ATOM     34  C   UNL A   1      34.111  28.843  25.829  1.00  0.00     0.040 A 
ATOM     35  C   UNL A   1      32.066  28.583  27.089  1.00  0.00     0.040 A 
ATOM     36  C   UNL A   1      33.378  29.031  26.994  1.00  0.00     0.123 A 
ATOM     37  F   UNL A   1      33.945  29.663  28.029  1.00  0.00    -0.207 F 
ENDBRANCH  28  31
ENDBRANCH  16  27
ENDBRANCH   4   7
ENDBRANCH   2   3
ENDBRANCH   1   2
BRANCH   1  38
ATOM     38  C   UNL A   1      39.008  21.707  25.649  1.00  0.00     0.023 C 
BRANCH  38  39
ATOM     39  C   UNL A   1      39.321  20.454  26.482  1.00  0.00     0.116 C 
BRANCH  39  40
ATOM     40  N   UNL A   1      40.305  19.522  25.970  1.00  0.00    -0.352 N 
ATOM     41  C   UNL A   1      41.687  19.643  25.975  1.00  0.00     0.251 C 
ATOM     42  H   UNL A   1      39.947  18.698  25.568  1.00  0.00     0.163 HD
ATOM     43  O   UNL A   1      42.376  18.778  25.459  1.00  0.00    -0.269 OA
BRANCH  41  44
ATOM     44  C   UNL A   1      42.340  20.859  26.538  1.00  0.00     0.039 A 
ATOM     45  C   UNL A   1      42.884  21.784  25.641  1.00  0.00     0.014 A 
ATOM     46  C   UNL A   1      42.415  21.112  27.910  1.00  0.00     0.014 A 
ATOM     47  C   UNL A   1      43.391  23.000  26.109  1.00  0.00     0.010 A 
ATOM     48  C   UNL A   1      42.881  22.346  28.378  1.00  0.00     0.010 A 
ATOM     49  C   UNL A   1      43.338  23.318  27.478  1.00  0.00    -0.014 A 
BRANCH  49  50
ATOM     50  C   UNL A   1      43.641  24.703  27.932  1.00  0.00     0.031 A 
ATOM     51  C   UNL A   1      45.049  25.208  28.063  1.00  0.00     0.074 A 
ATOM     52  C   UNL A   1      42.611  25.507  28.267  1.00  0.00     0.049 A 
ATOM     53  N   UNL A   1      45.463  26.420  28.348  1.00  0.00    -0.248 NA
ATOM     54  C   UNL A   1      46.129  24.232  27.874  1.00  0.00     0.031 C 
ATOM     55  C   UNL A   1      41.200  25.113  28.264  1.00  0.00     0.029 A 
ATOM     56  N   UNL A   1      42.587  26.821  28.663  1.00  0.00    -0.354 N 
ATOM     57  C   UNL A   1      46.850  26.353  28.369  1.00  0.00     0.074 A 
ATOM     58  C   UNL A   1      47.204  24.969  28.120  1.00  0.00     0.031 C 
ATOM     59  C   UNL A   1      40.447  26.173  28.591  1.00  0.00     0.029 A 
ATOM     60  C   UNL A   1      41.317  27.314  28.851  1.00  0.00     0.049 A 
ATOM     61  H   UNL A   1      43.400  27.359  28.797  1.00  0.00     0.167 HD
ATOM     62  C   UNL A   1      47.747  27.351  28.564  1.00  0.00     0.031 A 
ATOM     63  C   UNL A   1      40.895  28.550  29.178  1.00  0.00     0.031 A 
ATOM     64  C   UNL A   1      47.392  28.723  28.829  1.00  0.00     0.049 A 
ATOM     65  C   UNL A   1      41.905  29.646  29.356  1.00  0.00     0.074 A 
ATOM     66  C   UNL A   1      48.228  29.818  28.980  1.00  0.00     0.029 A 
ATOM     67  N   UNL A   1      46.096  29.186  28.997  1.00  0.00    -0.354 N 
ATOM     68  N   UNL A   1      43.211  29.591  29.261  1.00  0.00    -0.248 NA
ATOM     69  C   UNL A   1      41.379  30.984  29.661  1.00  0.00     0.031 C 
ATOM     70  C   UNL A   1      47.439  30.932  29.292  1.00  0.00     0.029 A 
ATOM     71  C   UNL A   1      46.109  30.544  29.276  1.00  0.00     0.049 A 
ATOM     72  H   UNL A   1      45.285  28.632  28.930  1.00  0.00     0.167 HD
ATOM     73  C   UNL A   1      43.662  30.886  29.470  1.00  0.00     0.074 A 
ATOM     74  C   UNL A   1      42.487  31.710  29.673  1.00  0.00     0.031 C 
ATOM     75  C   UNL A   1      44.935  31.352  29.492  1.00  0.00     0.031 A 
BRANCH  62  76
ATOM     76  C   UNL A   1      49.206  26.987  28.508  1.00  0.00    -0.014 A 
ATOM     77  C   UNL A   1      49.911  26.985  27.291  1.00  0.00     0.009 A 
ATOM     78  C   UNL A   1      49.896  26.667  29.688  1.00  0.00     0.009 A 
ATOM     79  C   UNL A   1      51.260  26.623  27.254  1.00  0.00     0.001 A 
ATOM     80  C   UNL A   1      51.252  26.334  29.651  1.00  0.00     0.001 A 
ATOM     81  C   UNL A   1      51.930  26.300  28.433  1.00  0.00     0.000 A 
ENDBRANCH  62  76
BRANCH  63  82
ATOM     82  C   UNL A   1      39.439  28.822  29.312  1.00  0.00    -0.014 A 
ATOM     83  C   UNL A   1      38.681  29.224  28.202  1.00  0.00     0.009 A 
ATOM     84  C   UNL A   1      38.799  28.671  30.552  1.00  0.00     0.009 A 
ATOM     85  C   UNL A   1      37.317  29.492  28.336  1.00  0.00     0.001 A 
ATOM     86  C   UNL A   1      37.429  28.910  30.677  1.00  0.00     0.001 A 
ATOM     87  C   UNL A   1      36.690  29.329  29.570  1.00  0.00     0.000 A 
ENDBRANCH  63  82
BRANCH  75  88
ATOM     88  C   UNL A   1      45.118  32.827  29.722  1.00  0.00    -0.014 A 
ATOM     89  C   UNL A   1      45.246  33.724  28.648  1.00  0.00     0.009 A 
ATOM     90  C   UNL A   1      45.150  33.328  31.033  1.00  0.00     0.009 A 
ATOM     91  C   UNL A   1      45.448  35.085  28.886  1.00  0.00     0.001 A 
ATOM     92  C   UNL A   1      45.320  34.694  31.266  1.00  0.00     0.001 A 
ATOM     93  C   UNL A   1      45.481  35.570  30.193  1.00  0.00     0.000 A 
ENDBRANCH  75  88
ENDBRANCH  49  50
ENDBRANCH  41  44
ENDBRANCH  39  40
ENDBRANCH  38  39
ENDBRANCH   1  38
TORSDOF 16
ENDMDL
MODEL 2
REMARK VINA RESULT:     -11.8      0.613      5.555
REMARK SMILES CCC[NH+]1CCN(c2cc(C(=O)NCCCCNC(=O)c3ccc(-c4c5nc(c(-c6ccccc6)c6ccc([nH]6)c(-c6ccccc6)c6nc(c(-c7ccccc7)c7ccc4[nH]7)C=C6)C=C5)cc3)c3cc(NC(=O)c4ccc(F)cc4)ccc3n2)CC1
REMARK SMILES IDX 15 1 14 2 13 3 11 4 12 5 10 7 8 8 9 9 85 10 84 11 69 12
REMARK SMILES IDX 83 13 70 14 82 15 71 16 7 17 4 18 5 19 87 20 6 22 86 23 3 24
REMARK SMILES IDX 2 25 1 26 72 27 73 28 74 30 75 31 76 32 81 33 77 34 80 35
REMARK SMILES IDX 78 36 79 37 16 38 17 39 18 40 19 41 20 43 21 44 22 45 68 46
REMARK SMILES IDX 23 47 67 48 24 49 25 50 26 51 61 52 27 53 66 54 60 55 62 56
REMARK SMILES IDX 28 57 65 58 59 59 58 60 29 62 51 63 36 64 50 65 37 66 40 67
REMARK SMILES IDX 49 68 63 69 38 70 39 71 48 73 64 74 41 75 30 76 31 77 35 78
REMARK SMILES IDX 32 79 34 80 33 81 52 82 53 83 57 84 54 85 56 86 55 87 42 88
REMARK SMILES IDX 43 89 47 90 44 91 46 92 45 93
REMARK H PARENT 13 6 4 21 72 29 18 42 62 61 40 72
REMARK Flexibility Score: inf
ROOT
ATOM      1  C   UNL A   1      38.636  22.905  26.414  1.00  0.00     0.023 C 
ENDROOT
BRANCH   1   2
ATOM      2  C   UNL A   1      37.481  23.703  25.810  1.00  0.00     0.116 C 
BRANCH   2   3
ATOM      3  N   UNL A   1      37.264  23.576  24.374  1.00  0.00    -0.352 N 
ATOM      4  C   UNL A   1      36.186  23.177  23.597  1.00  0.00     0.252 C 
ATOM      5  O   UNL A   1      36.339  23.283  22.375  1.00  0.00    -0.269 OA
ATOM      6  H   UNL A   1      38.053  23.826  23.841  1.00  0.00     0.163 HD
BRANCH   4   7
ATOM      7  C   UNL A   1      34.882  22.585  24.073  1.00  0.00     0.052 A 
ATOM      8  C   UNL A   1      33.776  20.544  24.805  1.00  0.00     0.130 A 
ATOM      9  C   UNL A   1      34.926  21.225  24.405  1.00  0.00     0.061 A 
ATOM     10  N   UNL A   1      32.603  21.184  24.947  1.00  0.00    -0.231 NA
ATOM     11  C   UNL A   1      32.520  22.477  24.604  1.00  0.00     0.074 A 
ATOM     12  C   UNL A   1      33.616  23.191  24.087  1.00  0.00     0.015 A 
ATOM     13  C   UNL A   1      31.293  23.129  24.713  1.00  0.00     0.031 A 
ATOM     14  C   UNL A   1      33.357  24.431  23.506  1.00  0.00     0.037 A 
ATOM     15  C   UNL A   1      31.083  24.412  24.186  1.00  0.00     0.028 A 
ATOM     16  C   UNL A   1      32.105  25.025  23.480  1.00  0.00     0.042 A 
BRANCH   8  17
ATOM     17  N   UNL A   1      33.841  19.191  25.066  1.00  0.00    -0.345 N 
ATOM     18  N   UNL A   1      33.457  16.467  24.004  1.00  0.00    -0.332 N 
ATOM     19  C   UNL A   1      32.354  17.445  24.160  1.00  0.00     0.284 C 
ATOM     20  C   UNL A   1      34.685  17.250  23.700  1.00  0.00     0.284 C 
ATOM     21  H   UNL A   1      33.234  15.818  23.250  1.00  0.00     0.348 HD
ATOM     22  C   UNL A   1      32.580  18.485  25.279  1.00  0.00     0.179 C 
ATOM     23  C   UNL A   1      35.020  18.401  24.685  1.00  0.00     0.179 C 
BRANCH  18  24
ATOM     24  C   UNL A   1      33.647  15.619  25.195  1.00  0.00     0.262 C 
BRANCH  24  25
ATOM     25  C   UNL A   1      32.568  14.539  25.377  1.00  0.00     0.058 C 
ATOM     26  C   UNL A   1      31.772  14.708  26.662  1.00  0.00     0.010 C 
ENDBRANCH  24  25
ENDBRANCH  18  24
ENDBRANCH   8  17
BRANCH  16  27
ATOM     27  N   UNL A   1      31.856  26.199  22.749  1.00  0.00    -0.322 N 
ATOM     28  C   UNL A   1      31.778  27.520  23.164  1.00  0.00     0.255 C 
ATOM     29  H   UNL A   1      31.713  26.061  21.784  1.00  0.00     0.170 HD
ATOM     30  O   UNL A   1      31.322  28.372  22.406  1.00  0.00    -0.269 OA
BRANCH  28  31
ATOM     31  C   UNL A   1      32.250  27.955  24.509  1.00  0.00     0.040 A 
ATOM     32  C   UNL A   1      33.601  28.296  24.647  1.00  0.00     0.017 A 
ATOM     33  C   UNL A   1      31.381  28.133  25.595  1.00  0.00     0.017 A 
ATOM     34  C   UNL A   1      34.058  28.909  25.817  1.00  0.00     0.040 A 
ATOM     35  C   UNL A   1      31.837  28.769  26.756  1.00  0.00     0.040 A 
ATOM     36  C   UNL A   1      33.166  29.163  26.850  1.00  0.00     0.123 A 
ATOM     37  F   UNL A   1      33.596  29.807  27.943  1.00  0.00    -0.207 F 
ENDBRANCH  28  31
ENDBRANCH  16  27
ENDBRANCH   4   7
ENDBRANCH   2   3
ENDBRANCH   1   2
BRANCH   1  38
ATOM     38  C   UNL A   1      39.083  21.600  25.737  1.00  0.00     0.023 C 
BRANCH  38  39
ATOM     39  C   UNL A   1      39.565  20.392  26.556  1.00  0.00     0.116 C 
BRANCH  39  40
ATOM     40  N   UNL A   1      40.557  19.518  25.965  1.00  0.00    -0.352 N 
ATOM     41  C   UNL A   1      41.925  19.720  25.859  1.00  0.00     0.251 C 
ATOM     42  H   UNL A   1      40.217  18.674  25.591  1.00  0.00     0.163 HD
ATOM     43  O   UNL A   1      42.620  18.895  25.287  1.00  0.00    -0.269 OA
BRANCH  41  44
ATOM     44  C   UNL A   1      42.549  20.973  26.371  1.00  0.00     0.039 A 
ATOM     45  C   UNL A   1      43.083  21.867  25.437  1.00  0.00     0.014 A 
ATOM     46  C   UNL A   1      42.608  21.289  27.731  1.00  0.00     0.014 A 
ATOM     47  C   UNL A   1      43.560  23.114  25.854  1.00  0.00     0.010 A 
ATOM     48  C   UNL A   1      43.045  22.552  28.146  1.00  0.00     0.010 A 
ATOM     49  C   UNL A   1      43.490  23.491  27.206  1.00  0.00    -0.014 A 
BRANCH  49  50
ATOM     50  C   UNL A   1      43.762  24.901  27.599  1.00  0.00     0.031 A 
ATOM     51  C   UNL A   1      42.656  25.875  27.887  1.00  0.00     0.074 A 
ATOM     52  C   UNL A   1      45.044  25.314  27.661  1.00  0.00     0.049 A 
ATOM     53  N   UNL A   1      42.741  27.104  28.338  1.00  0.00    -0.248 NA
ATOM     54  C   UNL A   1      41.284  25.427  27.616  1.00  0.00     0.031 C 
ATOM     55  C   UNL A   1      46.209  24.492  27.325  1.00  0.00     0.029 A 
ATOM     56  N   UNL A   1      45.586  26.518  28.035  1.00  0.00    -0.354 N 
ATOM     57  C   UNL A   1      41.435  27.574  28.408  1.00  0.00     0.074 A 
ATOM     58  C   UNL A   1      40.584  26.516  27.903  1.00  0.00     0.031 C 
ATOM     59  C   UNL A   1      47.327  25.198  27.555  1.00  0.00     0.029 A 
ATOM     60  C   UNL A   1      46.961  26.527  28.030  1.00  0.00     0.049 A 
ATOM     61  H   UNL A   1      45.042  27.300  28.285  1.00  0.00     0.167 HD
ATOM     62  C   UNL A   1      40.986  28.770  28.863  1.00  0.00     0.031 A 
ATOM     63  C   UNL A   1      47.833  27.489  28.384  1.00  0.00     0.031 A 
ATOM     64  C   UNL A   1      41.836  29.828  29.349  1.00  0.00     0.049 A 
ATOM     65  C   UNL A   1      47.312  28.792  28.917  1.00  0.00     0.074 A 
ATOM     66  C   UNL A   1      41.472  31.052  29.887  1.00  0.00     0.029 A 
ATOM     67  N   UNL A   1      43.223  29.794  29.342  1.00  0.00    -0.354 N 
ATOM     68  N   UNL A   1      46.071  29.180  29.082  1.00  0.00    -0.248 NA
ATOM     69  C   UNL A   1      48.314  29.782  29.335  1.00  0.00     0.031 C 
ATOM     70  C   UNL A   1      42.639  31.777  30.156  1.00  0.00     0.029 A 
ATOM     71  C   UNL A   1      43.730  30.983  29.842  1.00  0.00     0.049 A 
ATOM     72  H   UNL A   1      43.767  29.036  29.027  1.00  0.00     0.167 HD
ATOM     73  C   UNL A   1      46.142  30.447  29.645  1.00  0.00     0.074 A 
ATOM     74  C   UNL A   1      47.548  30.751  29.814  1.00  0.00     0.031 C 
ATOM     75  C   UNL A   1      45.132  31.283  29.991  1.00  0.00     0.031 A 
BRANCH  62  76
ATOM     76  C   UNL A   1      39.499  29.000  28.844  1.00  0.00    -0.014 A 
ATOM     77  C   UNL A   1      38.709  28.761  29.982  1.00  0.00     0.009 A 
ATOM     78  C   UNL A   1      38.878  29.487  27.682  1.00  0.00     0.009 A 
ATOM     79  C   UNL A   1      37.327  28.958  29.941  1.00  0.00     0.001 A 
ATOM     80  C   UNL A   1      37.500  29.711  27.653  1.00  0.00     0.001 A 
ATOM     81  C   UNL A   1      36.723  29.435  28.778  1.00  0.00     0.000 A 
ENDBRANCH  62  76
BRANCH  63  82
ATOM     82  C   UNL A   1      49.295  27.232  28.289  1.00  0.00    -0.014 A 
ATOM     83  C   UNL A   1      49.968  26.540  29.307  1.00  0.00     0.009 A 
ATOM     84  C   UNL A   1      50.023  27.670  27.172  1.00  0.00     0.009 A 
ATOM     85  C   UNL A   1      51.344  26.314  29.220  1.00  0.00     0.001 A 
ATOM     86  C   UNL A   1      51.392  27.416  27.072  1.00  0.00     0.001 A 
ATOM     87  C   UNL A   1      52.053  26.745  28.101  1.00  0.00     0.000 A 
ENDBRANCH  63  82
BRANCH  75  88
ATOM     88  C   UNL A   1      45.518  32.598  30.610  1.00  0.00    -0.014 A 
ATOM     89  C   UNL A   1      45.723  33.744  29.824  1.00  0.00     0.009 A 
ATOM     90  C   UNL A   1      45.666  32.695  32.002  1.00  0.00     0.009 A 
ATOM     91  C   UNL A   1      46.112  34.947  30.417  1.00  0.00     0.001 A 
ATOM     92  C   UNL A   1      46.024  33.906  32.595  1.00  0.00     0.001 A 
ATOM     93  C   UNL A   1      46.260  35.029  31.801  1.00  0.00     0.000 A 
ENDBRANCH  75  88
ENDBRANCH  49  50
ENDBRANCH  41  44
ENDBRANCH  39  40
ENDBRANCH  38  39
ENDBRANCH   1  38
TORSDOF 16
ENDMDL
MODEL 3
REMARK VINA RESULT:     -11.6      6.649     10.045
REMARK SMILES CCC[NH+]1CCN(c2cc(C(=O)NCCCCNC(=O)c3ccc(-c4c5nc(c(-c6ccccc6)c6ccc([nH]6)c(-c6ccccc6)c6nc(c(-c7ccccc7)c7ccc4[nH]7)C=C6)C=C5)cc3)c3cc(NC(=O)c4ccc(F)cc4)ccc3n2)CC1
REMARK SMILES IDX 15 1 14 2 13 3 11 4 12 5 10 7 8 8 9 9 85 10 84 11 69 12
REMARK SMILES IDX 83 13 70 14 82 15 71 16 7 17 4 18 5 19 87 20 6 22 86 23 3 24
REMARK SMILES IDX 2 25 1 26 72 27 73 28 74 30 75 31 76 32 81 33 77 34 80 35
REMARK SMILES IDX 78 36 79 37 16 38 17 39 18 40 19 41 20 43 21 44 22 45 68 46
REMARK SMILES IDX 23 47 67 48 24 49 25 50 26 51 61 52 27 53 66 54 60 55 62 56
REMARK SMILES IDX 28 57 65 58 59 59 58 60 29 62 51 63 36 64 50 65 37 66 40 67
REMARK SMILES IDX 49 68 63 69 38 70 39 71 48 73 64 74 41 75 30 76 31 77 35 78
REMARK SMILES IDX 32 79 34 80 33 81 52 82 53 83 57 84 54 85 56 86 55 87 42 88
REMARK SMILES IDX 43 89 47 90 44 91 46 92 45 93
REMARK H PARENT 13 6 4 21 72 29 18 42 62 61 40 72
REMARK Flexibility Score: inf
ROOT
ATOM      1  C   UNL A   1      37.743  34.568  33.412  1.00  0.00     0.023 C 
ENDROOT
BRANCH   1   2
ATOM      2  C   UNL A   1      38.391  33.595  32.428  1.00  0.00     0.116 C 
BRANCH   2   3
ATOM      3  N   UNL A   1      38.799  34.131  31.135  1.00  0.00    -0.352 N 
ATOM      4  C   UNL A   1      38.524  33.783  29.820  1.00  0.00     0.252 C 
ATOM      5  O   UNL A   1      38.986  34.538  28.959  1.00  0.00    -0.269 OA
ATOM      6  H   UNL A   1      39.400  34.907  31.211  1.00  0.00     0.163 HD
BRANCH   4   7
ATOM      7  C   UNL A   1      37.776  32.566  29.333  1.00  0.00     0.052 A 
ATOM      8  C   UNL A   1      37.999  30.251  28.614  1.00  0.00     0.130 A 
ATOM      9  C   UNL A   1      38.559  31.425  29.118  1.00  0.00     0.061 A 
ATOM     10  N   UNL A   1      36.679  30.156  28.378  1.00  0.00    -0.231 NA
ATOM     11  C   UNL A   1      35.908  31.240  28.539  1.00  0.00     0.074 A 
ATOM     12  C   UNL A   1      36.431  32.484  28.936  1.00  0.00     0.015 A 
ATOM     13  C   UNL A   1      34.547  31.152  28.254  1.00  0.00     0.031 A 
ATOM     14  C   UNL A   1      35.606  33.598  28.803  1.00  0.00     0.037 A 
ATOM     15  C   UNL A   1      33.722  32.285  28.203  1.00  0.00     0.028 A 
ATOM     16  C   UNL A   1      34.288  33.537  28.378  1.00  0.00     0.042 A 
BRANCH   8  17
ATOM     17  N   UNL A   1      38.808  29.164  28.358  1.00  0.00    -0.345 N 
ATOM     18  N   UNL A   1      41.462  27.937  28.748  1.00  0.00    -0.332 N 
ATOM     19  C   UNL A   1      41.248  29.199  27.999  1.00  0.00     0.284 C 
ATOM     20  C   UNL A   1      40.423  27.888  29.812  1.00  0.00     0.284 C 
ATOM     21  H   UNL A   1      42.401  27.930  29.144  1.00  0.00     0.348 HD
ATOM     22  C   UNL A   1      39.853  29.324  27.349  1.00  0.00     0.179 C 
ATOM     23  C   UNL A   1      38.957  28.082  29.342  1.00  0.00     0.179 C 
BRANCH  18  24
ATOM     24  C   UNL A   1      41.401  26.741  27.887  1.00  0.00     0.262 C 
BRANCH  24  25
ATOM     25  C   UNL A   1      42.738  25.995  27.751  1.00  0.00     0.058 C 
ATOM     26  C   UNL A   1      43.491  26.356  26.480  1.00  0.00     0.010 C 
ENDBRANCH  24  25
ENDBRANCH  18  24
ENDBRANCH   8  17
BRANCH  16  27
ATOM     27  N   UNL A   1      33.540  34.695  28.108  1.00  0.00    -0.322 N 
ATOM     28  C   UNL A   1      33.067  35.682  28.960  1.00  0.00     0.255 C 
ATOM     29  H   UNL A   1      33.316  34.829  27.158  1.00  0.00     0.170 HD
ATOM     30  O   UNL A   1      32.237  36.492  28.555  1.00  0.00    -0.269 OA
BRANCH  28  31
ATOM     31  C   UNL A   1      33.547  35.811  30.365  1.00  0.00     0.040 A 
ATOM     32  C   UNL A   1      33.492  37.078  30.959  1.00  0.00     0.017 A 
ATOM     33  C   UNL A   1      33.946  34.708  31.133  1.00  0.00     0.017 A 
ATOM     34  C   UNL A   1      33.726  37.226  32.329  1.00  0.00     0.040 A 
ATOM     35  C   UNL A   1      34.155  34.856  32.509  1.00  0.00     0.040 A 
ATOM     36  C   UNL A   1      34.029  36.109  33.096  1.00  0.00     0.123 A 
ATOM     37  F   UNL A   1      34.191  36.247  34.418  1.00  0.00    -0.207 F 
ENDBRANCH  28  31
ENDBRANCH  16  27
ENDBRANCH   4   7
ENDBRANCH   2   3
ENDBRANCH   1   2
BRANCH   1  38
ATOM     38  C   UNL A   1      37.042  34.018  34.663  1.00  0.00     0.023 C 
BRANCH  38  39
ATOM     39  C   UNL A   1      37.815  33.739  35.962  1.00  0.00     0.116 C 
BRANCH  39  40
ATOM     40  N   UNL A   1      37.593  32.473  36.631  1.00  0.00    -0.352 N 
ATOM     41  C   UNL A   1      38.147  31.236  36.334  1.00  0.00     0.251 C 
ATOM     42  H   UNL A   1      36.971  32.494  37.393  1.00  0.00     0.163 HD
ATOM     43  O   UNL A   1      37.817  30.252  36.975  1.00  0.00    -0.269 OA
BRANCH  41  44
ATOM     44  C   UNL A   1      39.085  31.082  35.186  1.00  0.00     0.039 A 
ATOM     45  C   UNL A   1      40.385  31.578  35.333  1.00  0.00     0.014 A 
ATOM     46  C   UNL A   1      38.724  30.456  33.991  1.00  0.00     0.014 A 
ATOM     47  C   UNL A   1      41.341  31.344  34.339  1.00  0.00     0.010 A 
ATOM     48  C   UNL A   1      39.688  30.183  33.014  1.00  0.00     0.010 A 
ATOM     49  C   UNL A   1      41.016  30.591  33.197  1.00  0.00    -0.014 A 
BRANCH  49  50
ATOM     50  C   UNL A   1      42.093  30.134  32.277  1.00  0.00     0.031 A 
ATOM     51  C   UNL A   1      42.794  28.819  32.462  1.00  0.00     0.074 A 
ATOM     52  C   UNL A   1      42.466  30.951  31.271  1.00  0.00     0.049 A 
ATOM     53  N   UNL A   1      43.679  28.244  31.683  1.00  0.00    -0.248 NA
ATOM     54  C   UNL A   1      42.484  28.062  33.682  1.00  0.00     0.031 C 
ATOM     55  C   UNL A   1      41.924  32.290  31.030  1.00  0.00     0.029 A 
ATOM     56  N   UNL A   1      43.377  30.776  30.259  1.00  0.00    -0.354 N 
ATOM     57  C   UNL A   1      44.028  27.057  32.316  1.00  0.00     0.074 A 
ATOM     58  C   UNL A   1      43.298  27.022  33.568  1.00  0.00     0.031 C 
ATOM     59  C   UNL A   1      42.475  32.794  29.915  1.00  0.00     0.029 A 
ATOM     60  C   UNL A   1      43.426  31.828  29.376  1.00  0.00     0.049 A 
ATOM     61  H   UNL A   1      43.941  29.973  30.174  1.00  0.00     0.167 HD
ATOM     62  C   UNL A   1      44.868  26.081  31.889  1.00  0.00     0.031 A 
ATOM     63  C   UNL A   1      44.140  31.994  28.247  1.00  0.00     0.031 A 
ATOM     64  C   UNL A   1      45.606  26.126  30.652  1.00  0.00     0.049 A 
ATOM     65  C   UNL A   1      45.037  30.886  27.777  1.00  0.00     0.074 A 
ATOM     66  C   UNL A   1      46.434  25.160  30.104  1.00  0.00     0.029 A 
ATOM     67  N   UNL A   1      45.617  27.202  29.777  1.00  0.00    -0.354 N 
ATOM     68  N   UNL A   1      45.270  29.721  28.330  1.00  0.00    -0.248 NA
ATOM     69  C   UNL A   1      45.749  31.106  26.511  1.00  0.00     0.031 C 
ATOM     70  C   UNL A   1      46.986  25.674  28.924  1.00  0.00     0.029 A 
ATOM     71  C   UNL A   1      46.456  26.935  28.706  1.00  0.00     0.049 A 
ATOM     72  H   UNL A   1      45.104  28.034  29.898  1.00  0.00     0.167 HD
ATOM     73  C   UNL A   1      46.137  29.060  27.471  1.00  0.00     0.074 A 
ATOM     74  C   UNL A   1      46.368  29.945  26.347  1.00  0.00     0.031 C 
ATOM     75  C   UNL A   1      46.691  27.829  27.601  1.00  0.00     0.031 A 
BRANCH  62  76
ATOM     76  C   UNL A   1      45.039  24.881  32.781  1.00  0.00    -0.014 A 
ATOM     77  C   UNL A   1      44.148  23.796  32.723  1.00  0.00     0.009 A 
ATOM     78  C   UNL A   1      46.120  24.820  33.676  1.00  0.00     0.009 A 
ATOM     79  C   UNL A   1      44.309  22.700  33.574  1.00  0.00     0.001 A 
ATOM     80  C   UNL A   1      46.295  23.710  34.505  1.00  0.00     0.001 A 
ATOM     81  C   UNL A   1      45.383  22.656  34.462  1.00  0.00     0.000 A 
ENDBRANCH  62  76
BRANCH  63  82
ATOM     82  C   UNL A   1      43.996  33.247  27.459  1.00  0.00    -0.014 A 
ATOM     83  C   UNL A   1      44.179  34.499  28.065  1.00  0.00     0.009 A 
ATOM     84  C   UNL A   1      43.684  33.196  26.092  1.00  0.00     0.009 A 
ATOM     85  C   UNL A   1      44.029  35.674  27.325  1.00  0.00     0.001 A 
ATOM     86  C   UNL A   1      43.565  34.371  25.346  1.00  0.00     0.001 A 
ATOM     87  C   UNL A   1      43.729  35.609  25.965  1.00  0.00     0.000 A 
ENDBRANCH  63  82
BRANCH  75  88
ATOM     88  C   UNL A   1      47.584  27.363  26.484  1.00  0.00    -0.014 A 
ATOM     89  C   UNL A   1      48.957  27.658  26.473  1.00  0.00     0.009 A 
ATOM     90  C   UNL A   1      47.045  26.605  25.433  1.00  0.00     0.009 A 
ATOM     91  C   UNL A   1      49.761  27.243  25.409  1.00  0.00     0.001 A 
ATOM     92  C   UNL A   1      47.857  26.164  24.387  1.00  0.00     0.001 A 
ATOM     93  C   UNL A   1      49.212  26.494  24.369  1.00  0.00     0.000 A 
ENDBRANCH  75  88
ENDBRANCH  49  50
ENDBRANCH  41  44
ENDBRANCH  39  40
ENDBRANCH  38  39
ENDBRANCH   1  38
TORSDOF 16
ENDMDL
