MODEL 1
REMARK VINA RESULT:     -11.2      0.000      0.000
REMARK SMILES Cc1cc(C[N@@H+]2CC[C@@H](C(=O)NCCCCNC(=O)c3ccc(-c4c5nc(c(-c6ccccc6)c6ccc([nH]6)c(-c6ccccc6)c6nc(c(-c7ccccc7)c7ccc4[nH]7)C=C6)C=C5)cc3)C2)ccc1Br
REMARK SMILES IDX 14 1 13 2 12 3 10 4 11 5 9 7 6 8 7 9 68 10 8 12 5 13 4 14
REMARK SMILES IDX 1 15 2 16 3 17 71 18 70 19 72 20 69 21 15 22 16 23 17 24
REMARK SMILES IDX 18 25 19 27 20 28 21 29 67 30 22 31 66 32 23 33 24 34 25 35
REMARK SMILES IDX 60 36 26 37 65 38 59 39 61 40 27 41 64 42 58 43 57 44 28 46
REMARK SMILES IDX 50 47 35 48 49 49 36 50 39 51 48 52 62 53 37 54 38 55 47 57
REMARK SMILES IDX 63 58 40 59 29 60 30 61 34 62 31 63 33 64 32 65 51 66 52 67
REMARK SMILES IDX 56 68 53 69 55 70 54 71 41 72 42 73 46 74 43 75 45 76 44 77
REMARK H PARENT 12 6 6 11 17 26 61 45 39 56
REMARK Flexibility Score: inf
ROOT
ATOM      1  C   UNL A   1      31.451  29.473  25.767  1.00  0.00     0.023 C 
ENDROOT
BRANCH   1   2
ATOM      2  C   UNL A   1      32.165  29.312  24.435  1.00  0.00     0.116 C 
BRANCH   2   3
ATOM      3  N   UNL A   1      31.368  29.629  23.276  1.00  0.00    -0.356 N 
ATOM      4  C   UNL A   1      30.585  28.806  22.521  1.00  0.00     0.229 C 
ATOM      5  O   UNL A   1      29.922  29.336  21.623  1.00  0.00    -0.275 OA
ATOM      6  H   UNL A   1      31.392  30.571  22.990  1.00  0.00     0.163 HD
BRANCH   4   7
ATOM      7  C   UNL A   1      30.551  27.284  22.697  1.00  0.00     0.139 C 
ATOM      8  N   UNL A   1      31.936  25.643  23.795  1.00  0.00    -0.330 N 
ATOM      9  C   UNL A   1      30.833  25.934  24.704  1.00  0.00     0.263 C 
ATOM     10  C   UNL A   1      31.948  26.676  22.755  1.00  0.00     0.276 C 
ATOM     11  H   UNL A   1      32.814  25.695  24.312  1.00  0.00     0.348 HD
ATOM     12  C   UNL A   1      29.798  26.718  23.898  1.00  0.00     0.081 C 
BRANCH   8  13
ATOM     13  C   UNL A   1      32.020  24.255  23.325  1.00  0.00     0.299 C 
BRANCH  13  14
ATOM     14  C   UNL A   1      33.288  23.489  23.642  1.00  0.00     0.007 A 
ATOM     15  C   UNL A   1      34.291  20.032  24.889  1.00  0.00     0.045 C 
ATOM     16  C   UNL A   1      34.403  21.461  24.444  1.00  0.00    -0.036 A 
ATOM     17  C   UNL A   1      33.231  22.177  24.131  1.00  0.00     0.014 A 
ATOM     18  C   UNL A   1      35.639  22.114  24.334  1.00  0.00     0.020 A 
ATOM     19  C   UNL A   1      35.713  23.405  23.816  1.00  0.00     0.016 A 
ATOM     20  Br  UNL A   1      37.268  21.300  24.873  1.00  0.00    -0.051 Br
ATOM     21  C   UNL A   1      34.548  24.064  23.430  1.00  0.00     0.011 A 
ENDBRANCH  13  14
ENDBRANCH   8  13
ENDBRANCH   4   7
ENDBRANCH   2   3
ENDBRANCH   1   2
BRANCH   1  22
ATOM     22  C   UNL A   1      32.129  28.792  26.947  1.00  0.00     0.023 C 
BRANCH  22  23
ATOM     23  C   UNL A   1      33.550  29.254  27.252  1.00  0.00     0.116 C 
BRANCH  23  24
ATOM     24  N   UNL A   1      33.642  30.540  27.936  1.00  0.00    -0.352 N 
ATOM     25  C   UNL A   1      34.733  31.063  28.598  1.00  0.00     0.251 C 
ATOM     26  H   UNL A   1      32.832  31.099  27.923  1.00  0.00     0.163 HD
ATOM     27  O   UNL A   1      34.672  32.144  29.172  1.00  0.00    -0.269 OA
BRANCH  25  28
ATOM     28  C   UNL A   1      35.969  30.259  28.644  1.00  0.00     0.039 A 
ATOM     29  C   UNL A   1      36.821  30.264  27.537  1.00  0.00     0.014 A 
ATOM     30  C   UNL A   1      36.341  29.627  29.832  1.00  0.00     0.014 A 
ATOM     31  C   UNL A   1      38.097  29.713  27.656  1.00  0.00     0.010 A 
ATOM     32  C   UNL A   1      37.639  29.152  29.970  1.00  0.00     0.010 A 
ATOM     33  C   UNL A   1      38.534  29.200  28.889  1.00  0.00    -0.014 A 
BRANCH  33  34
ATOM     34  C   UNL A   1      39.923  28.715  29.079  1.00  0.00     0.031 A 
ATOM     35  C   UNL A   1      40.972  29.649  29.614  1.00  0.00     0.074 A 
ATOM     36  C   UNL A   1      40.263  27.470  28.689  1.00  0.00     0.049 A 
ATOM     37  N   UNL A   1      42.257  29.451  29.761  1.00  0.00    -0.248 NA
ATOM     38  C   UNL A   1      40.521  30.996  30.003  1.00  0.00     0.031 C 
ATOM     39  C   UNL A   1      39.353  26.481  28.107  1.00  0.00     0.029 A 
ATOM     40  N   UNL A   1      41.477  26.828  28.715  1.00  0.00    -0.354 N 
ATOM     41  C   UNL A   1      42.770  30.653  30.230  1.00  0.00     0.074 A 
ATOM     42  C   UNL A   1      41.668  31.589  30.296  1.00  0.00     0.031 C 
ATOM     43  C   UNL A   1      40.034  25.350  27.857  1.00  0.00     0.029 A 
ATOM     44  C   UNL A   1      41.433  25.545  28.225  1.00  0.00     0.049 A 
ATOM     45  H   UNL A   1      42.300  27.248  29.053  1.00  0.00     0.167 HD
ATOM     46  C   UNL A   1      44.039  30.949  30.595  1.00  0.00     0.031 A 
ATOM     47  C   UNL A   1      42.411  24.630  28.083  1.00  0.00     0.031 A 
ATOM     48  C   UNL A   1      45.129  30.014  30.557  1.00  0.00     0.049 A 
ATOM     49  C   UNL A   1      43.810  24.977  28.509  1.00  0.00     0.074 A 
ATOM     50  C   UNL A   1      46.437  30.198  30.969  1.00  0.00     0.029 A 
ATOM     51  N   UNL A   1      45.035  28.715  30.083  1.00  0.00    -0.354 N 
ATOM     52  N   UNL A   1      44.265  26.098  29.015  1.00  0.00    -0.248 NA
ATOM     53  C   UNL A   1      44.828  23.929  28.354  1.00  0.00     0.031 C 
ATOM     54  C   UNL A   1      47.146  29.021  30.707  1.00  0.00     0.029 A 
ATOM     55  C   UNL A   1      46.266  28.090  30.177  1.00  0.00     0.049 A 
ATOM     56  H   UNL A   1      44.215  28.299  29.731  1.00  0.00     0.167 HD
ATOM     57  C   UNL A   1      45.613  25.880  29.266  1.00  0.00     0.074 A 
ATOM     58  C   UNL A   1      45.899  24.517  28.867  1.00  0.00     0.031 C 
ATOM     59  C   UNL A   1      46.532  26.732  29.782  1.00  0.00     0.031 A 
BRANCH  46  60
ATOM     60  C   UNL A   1      44.308  32.348  31.069  1.00  0.00    -0.014 A 
ATOM     61  C   UNL A   1      44.674  33.362  30.169  1.00  0.00     0.009 A 
ATOM     62  C   UNL A   1      44.177  32.662  32.431  1.00  0.00     0.009 A 
ATOM     63  C   UNL A   1      44.944  34.653  30.629  1.00  0.00     0.001 A 
ATOM     64  C   UNL A   1      44.417  33.960  32.884  1.00  0.00     0.001 A 
ATOM     65  C   UNL A   1      44.811  34.951  31.985  1.00  0.00     0.000 A 
ENDBRANCH  46  60
BRANCH  47  66
ATOM     66  C   UNL A   1      42.101  23.284  27.536  1.00  0.00    -0.014 A 
ATOM     67  C   UNL A   1      42.377  22.985  26.193  1.00  0.00     0.009 A 
ATOM     68  C   UNL A   1      41.519  22.296  28.345  1.00  0.00     0.009 A 
ATOM     69  C   UNL A   1      42.054  21.733  25.665  1.00  0.00     0.001 A 
ATOM     70  C   UNL A   1      41.221  21.036  27.821  1.00  0.00     0.001 A 
ATOM     71  C   UNL A   1      41.479  20.759  26.479  1.00  0.00     0.000 A 
ENDBRANCH  47  66
BRANCH  59  72
ATOM     72  C   UNL A   1      47.923  26.204  29.984  1.00  0.00    -0.014 A 
ATOM     73  C   UNL A   1      48.854  26.187  28.935  1.00  0.00     0.009 A 
ATOM     74  C   UNL A   1      48.319  25.765  31.256  1.00  0.00     0.009 A 
ATOM     75  C   UNL A   1      50.150  25.715  29.153  1.00  0.00     0.001 A 
ATOM     76  C   UNL A   1      49.621  25.317  31.477  1.00  0.00     0.001 A 
ATOM     77  C   UNL A   1      50.533  25.286  30.423  1.00  0.00     0.000 A 
ENDBRANCH  59  72
ENDBRANCH  33  34
ENDBRANCH  25  28
ENDBRANCH  23  24
ENDBRANCH  22  23
ENDBRANCH   1  22
TORSDOF 13
ENDMDL
MODEL 2
REMARK VINA RESULT:     -11.1      3.303      8.267
REMARK SMILES Cc1cc(C[N@@H+]2CC[C@@H](C(=O)NCCCCNC(=O)c3ccc(-c4c5nc(c(-c6ccccc6)c6ccc([nH]6)c(-c6ccccc6)c6nc(c(-c7ccccc7)c7ccc4[nH]7)C=C6)C=C5)cc3)C2)ccc1Br
REMARK SMILES IDX 14 1 13 2 12 3 10 4 11 5 9 7 6 8 7 9 68 10 8 12 5 13 4 14
REMARK SMILES IDX 1 15 2 16 3 17 71 18 70 19 72 20 69 21 15 22 16 23 17 24
REMARK SMILES IDX 18 25 19 27 20 28 21 29 67 30 22 31 66 32 23 33 24 34 25 35
REMARK SMILES IDX 60 36 26 37 65 38 59 39 61 40 27 41 64 42 58 43 57 44 28 46
REMARK SMILES IDX 50 47 35 48 49 49 36 50 39 51 48 52 62 53 37 54 38 55 47 57
REMARK SMILES IDX 63 58 40 59 29 60 30 61 34 62 31 63 33 64 32 65 51 66 52 67
REMARK SMILES IDX 56 68 53 69 55 70 54 71 41 72 42 73 46 74 43 75 45 76 44 77
REMARK H PARENT 12 6 6 11 17 26 61 45 39 56
REMARK Flexibility Score: inf
ROOT
ATOM      1  C   UNL A   1      35.665  21.799  26.130  1.00  0.00     0.023 C 
ENDROOT
BRANCH   1   2
ATOM      2  C   UNL A   1      35.192  20.964  24.951  1.00  0.00     0.116 C 
BRANCH   2   3
ATOM      3  N   UNL A   1      34.248  19.926  25.282  1.00  0.00    -0.356 N 
ATOM      4  C   UNL A   1      32.899  19.897  25.083  1.00  0.00     0.229 C 
ATOM      5  O   UNL A   1      32.315  18.847  25.373  1.00  0.00    -0.275 OA
ATOM      6  H   UNL A   1      34.631  19.125  25.710  1.00  0.00     0.163 HD
BRANCH   4   7
ATOM      7  C   UNL A   1      32.095  21.106  24.595  1.00  0.00     0.139 C 
ATOM      8  N   UNL A   1      32.277  23.502  24.815  1.00  0.00    -0.330 N 
ATOM      9  C   UNL A   1      32.851  23.157  23.520  1.00  0.00     0.263 C 
ATOM     10  C   UNL A   1      32.129  22.263  25.587  1.00  0.00     0.276 C 
ATOM     11  H   UNL A   1      32.923  24.116  25.311  1.00  0.00     0.348 HD
ATOM     12  C   UNL A   1      32.458  21.707  23.239  1.00  0.00     0.081 C 
BRANCH   8  13
ATOM     13  C   UNL A   1      31.101  24.379  24.773  1.00  0.00     0.299 C 
BRANCH  13  14
ATOM     14  C   UNL A   1      31.285  25.812  25.229  1.00  0.00     0.007 A 
ATOM     15  C   UNL A   1      30.636  29.326  23.911  1.00  0.00     0.045 C 
ATOM     16  C   UNL A   1      31.109  28.217  24.805  1.00  0.00    -0.036 A 
ATOM     17  C   UNL A   1      30.927  26.881  24.397  1.00  0.00     0.014 A 
ATOM     18  C   UNL A   1      31.734  28.466  26.036  1.00  0.00     0.020 A 
ATOM     19  C   UNL A   1      32.062  27.413  26.887  1.00  0.00     0.016 A 
ATOM     20  Br  UNL A   1      32.168  30.221  26.617  1.00  0.00    -0.051 Br
ATOM     21  C   UNL A   1      31.793  26.102  26.503  1.00  0.00     0.011 A 
ENDBRANCH  13  14
ENDBRANCH   8  13
ENDBRANCH   4   7
ENDBRANCH   2   3
ENDBRANCH   1   2
BRANCH   1  22
ATOM     22  C   UNL A   1      36.070  23.226  25.788  1.00  0.00     0.023 C 
BRANCH  22  23
ATOM     23  C   UNL A   1      37.355  23.374  24.981  1.00  0.00     0.116 C 
BRANCH  23  24
ATOM     24  N   UNL A   1      38.462  22.539  25.433  1.00  0.00    -0.352 N 
ATOM     25  C   UNL A   1      39.474  22.885  26.304  1.00  0.00     0.251 C 
ATOM     26  H   UNL A   1      38.491  21.623  25.074  1.00  0.00     0.163 HD
ATOM     27  O   UNL A   1      40.377  22.103  26.575  1.00  0.00    -0.269 OA
BRANCH  25  28
ATOM     28  C   UNL A   1      39.472  24.249  26.866  1.00  0.00     0.039 A 
ATOM     29  C   UNL A   1      38.913  24.460  28.128  1.00  0.00     0.014 A 
ATOM     30  C   UNL A   1      40.149  25.274  26.201  1.00  0.00     0.014 A 
ATOM     31  C   UNL A   1      39.119  25.681  28.770  1.00  0.00     0.010 A 
ATOM     32  C   UNL A   1      40.420  26.457  26.876  1.00  0.00     0.010 A 
ATOM     33  C   UNL A   1      39.918  26.670  28.171  1.00  0.00    -0.014 A 
BRANCH  33  34
ATOM     34  C   UNL A   1      40.253  27.930  28.877  1.00  0.00     0.031 A 
ATOM     35  C   UNL A   1      41.568  28.056  29.595  1.00  0.00     0.074 A 
ATOM     36  C   UNL A   1      39.346  28.925  28.952  1.00  0.00     0.049 A 
ATOM     37  N   UNL A   1      42.008  29.031  30.348  1.00  0.00    -0.248 NA
ATOM     38  C   UNL A   1      42.497  26.920  29.476  1.00  0.00     0.031 C 
ATOM     39  C   UNL A   1      38.013  28.909  28.344  1.00  0.00     0.029 A 
ATOM     40  N   UNL A   1      39.407  30.141  29.585  1.00  0.00    -0.354 N 
ATOM     41  C   UNL A   1      43.248  28.613  30.816  1.00  0.00     0.074 A 
ATOM     42  C   UNL A   1      43.468  27.279  30.301  1.00  0.00     0.031 C 
ATOM     43  C   UNL A   1      37.395  30.072  28.611  1.00  0.00     0.029 A 
ATOM     44  C   UNL A   1      38.269  30.898  29.437  1.00  0.00     0.049 A 
ATOM     45  H   UNL A   1      40.192  30.443  30.096  1.00  0.00     0.167 HD
ATOM     46  C   UNL A   1      44.135  29.286  31.584  1.00  0.00     0.031 A 
ATOM     47  C   UNL A   1      37.963  32.118  29.917  1.00  0.00     0.031 A 
ATOM     48  C   UNL A   1      43.930  30.621  32.074  1.00  0.00     0.049 A 
ATOM     49  C   UNL A   1      38.971  32.852  30.758  1.00  0.00     0.074 A 
ATOM     50  C   UNL A   1      44.798  31.413  32.804  1.00  0.00     0.029 A 
ATOM     51  N   UNL A   1      42.777  31.363  31.875  1.00  0.00    -0.354 N 
ATOM     52  N   UNL A   1      40.167  32.469  31.134  1.00  0.00    -0.248 NA
ATOM     53  C   UNL A   1      38.589  34.190  31.231  1.00  0.00     0.031 C 
ATOM     54  C   UNL A   1      44.153  32.623  33.083  1.00  0.00     0.029 A 
ATOM     55  C   UNL A   1      42.903  32.600  32.484  1.00  0.00     0.049 A 
ATOM     56  H   UNL A   1      41.985  31.057  31.376  1.00  0.00     0.167 HD
ATOM     57  C   UNL A   1      40.692  33.530  31.862  1.00  0.00     0.074 A 
ATOM     58  C   UNL A   1      39.688  34.574  31.864  1.00  0.00     0.031 C 
ATOM     59  C   UNL A   1      41.898  33.629  32.471  1.00  0.00     0.031 A 
BRANCH  46  60
ATOM     60  C   UNL A   1      45.410  28.577  31.941  1.00  0.00    -0.014 A 
ATOM     61  C   UNL A   1      46.548  28.677  31.125  1.00  0.00     0.009 A 
ATOM     62  C   UNL A   1      45.480  27.814  33.117  1.00  0.00     0.009 A 
ATOM     63  C   UNL A   1      47.719  27.993  31.459  1.00  0.00     0.001 A 
ATOM     64  C   UNL A   1      46.661  27.156  33.464  1.00  0.00     0.001 A 
ATOM     65  C   UNL A   1      47.775  27.237  32.630  1.00  0.00     0.000 A 
ENDBRANCH  46  60
BRANCH  47  66
ATOM     66  C   UNL A   1      36.653  32.740  29.596  1.00  0.00    -0.014 A 
ATOM     67  C   UNL A   1      36.464  33.405  28.374  1.00  0.00     0.009 A 
ATOM     68  C   UNL A   1      35.589  32.683  30.509  1.00  0.00     0.009 A 
ATOM     69  C   UNL A   1      35.246  34.022  28.085  1.00  0.00     0.001 A 
ATOM     70  C   UNL A   1      34.362  33.280  30.204  1.00  0.00     0.001 A 
ATOM     71  C   UNL A   1      34.195  33.957  28.997  1.00  0.00     0.000 A 
ENDBRANCH  47  66
BRANCH  59  72
ATOM     72  C   UNL A   1      42.216  34.926  33.157  1.00  0.00    -0.014 A 
ATOM     73  C   UNL A   1      41.752  35.197  34.453  1.00  0.00     0.009 A 
ATOM     74  C   UNL A   1      43.036  35.867  32.515  1.00  0.00     0.009 A 
ATOM     75  C   UNL A   1      42.082  36.400  35.081  1.00  0.00     0.001 A 
ATOM     76  C   UNL A   1      43.385  37.056  33.154  1.00  0.00     0.001 A 
ATOM     77  C   UNL A   1      42.901  37.325  34.435  1.00  0.00     0.000 A 
ENDBRANCH  59  72
ENDBRANCH  33  34
ENDBRANCH  25  28
ENDBRANCH  23  24
ENDBRANCH  22  23
ENDBRANCH   1  22
TORSDOF 13
ENDMDL
MODEL 3
REMARK VINA RESULT:     -11.1      3.675      5.156
REMARK SMILES Cc1cc(C[N@@H+]2CC[C@@H](C(=O)NCCCCNC(=O)c3ccc(-c4c5nc(c(-c6ccccc6)c6ccc([nH]6)c(-c6ccccc6)c6nc(c(-c7ccccc7)c7ccc4[nH]7)C=C6)C=C5)cc3)C2)ccc1Br
REMARK SMILES IDX 14 1 13 2 12 3 10 4 11 5 9 7 6 8 7 9 68 10 8 12 5 13 4 14
REMARK SMILES IDX 1 15 2 16 3 17 71 18 70 19 72 20 69 21 15 22 16 23 17 24
REMARK SMILES IDX 18 25 19 27 20 28 21 29 67 30 22 31 66 32 23 33 24 34 25 35
REMARK SMILES IDX 60 36 26 37 65 38 59 39 61 40 27 41 64 42 58 43 57 44 28 46
REMARK SMILES IDX 50 47 35 48 49 49 36 50 39 51 48 52 62 53 37 54 38 55 47 57
REMARK SMILES IDX 63 58 40 59 29 60 30 61 34 62 31 63 33 64 32 65 51 66 52 67
REMARK SMILES IDX 56 68 53 69 55 70 54 71 41 72 42 73 46 74 43 75 45 76 44 77
REMARK H PARENT 12 6 6 11 17 26 61 45 39 56
REMARK Flexibility Score: inf
ROOT
ATOM      1  C   UNL A   1      32.448  30.486  25.913  1.00  0.00     0.023 C 
ENDROOT
BRANCH   1   2
ATOM      2  C   UNL A   1      31.381  29.503  25.463  1.00  0.00     0.116 C 
BRANCH   2   3
ATOM      3  N   UNL A   1      30.993  29.618  24.080  1.00  0.00    -0.356 N 
ATOM      4  C   UNL A   1      31.047  28.680  23.091  1.00  0.00     0.229 C 
ATOM      5  O   UNL A   1      30.568  28.995  21.996  1.00  0.00    -0.275 OA
ATOM      6  H   UNL A   1      30.639  30.497  23.811  1.00  0.00     0.163 HD
BRANCH   4   7
ATOM      7  C   UNL A   1      31.722  27.315  23.264  1.00  0.00     0.139 C 
ATOM      8  N   UNL A   1      31.367  25.092  22.396  1.00  0.00    -0.330 N 
ATOM      9  C   UNL A   1      32.421  25.693  21.587  1.00  0.00     0.263 C 
ATOM     10  C   UNL A   1      30.729  26.162  23.172  1.00  0.00     0.276 C 
ATOM     11  H   UNL A   1      30.667  24.681  21.778  1.00  0.00     0.348 HD
ATOM     12  C   UNL A   1      32.866  26.958  22.319  1.00  0.00     0.081 C 
BRANCH   8  13
ATOM     13  C   UNL A   1      31.751  23.893  23.148  1.00  0.00     0.299 C 
BRANCH  13  14
ATOM     14  C   UNL A   1      33.108  23.898  23.823  1.00  0.00     0.007 A 
ATOM     15  C   UNL A   1      36.653  22.709  23.097  1.00  0.00     0.045 C 
ATOM     16  C   UNL A   1      35.479  23.287  23.832  1.00  0.00    -0.036 A 
ATOM     17  C   UNL A   1      34.217  23.303  23.207  1.00  0.00     0.014 A 
ATOM     18  C   UNL A   1      35.595  23.811  25.128  1.00  0.00     0.020 A 
ATOM     19  C   UNL A   1      34.509  24.436  25.736  1.00  0.00     0.016 A 
ATOM     20  Br  UNL A   1      37.207  23.706  26.125  1.00  0.00    -0.051 Br
ATOM     21  C   UNL A   1      33.291  24.519  25.065  1.00  0.00     0.011 A 
ENDBRANCH  13  14
ENDBRANCH   8  13
ENDBRANCH   4   7
ENDBRANCH   2   3
ENDBRANCH   1   2
BRANCH   1  22
ATOM     22  C   UNL A   1      31.958  31.591  26.839  1.00  0.00     0.023 C 
BRANCH  22  23
ATOM     23  C   UNL A   1      33.023  32.559  27.339  1.00  0.00     0.116 C 
BRANCH  23  24
ATOM     24  N   UNL A   1      32.541  33.905  27.629  1.00  0.00    -0.352 N 
ATOM     25  C   UNL A   1      33.043  34.797  28.553  1.00  0.00     0.251 C 
ATOM     26  H   UNL A   1      31.766  34.212  27.105  1.00  0.00     0.163 HD
ATOM     27  O   UNL A   1      32.520  35.890  28.734  1.00  0.00    -0.269 OA
BRANCH  25  28
ATOM     28  C   UNL A   1      34.204  34.380  29.363  1.00  0.00     0.039 A 
ATOM     29  C   UNL A   1      33.982  33.728  30.578  1.00  0.00     0.014 A 
ATOM     30  C   UNL A   1      35.494  34.510  28.844  1.00  0.00     0.014 A 
ATOM     31  C   UNL A   1      35.053  33.117  31.230  1.00  0.00     0.010 A 
ATOM     32  C   UNL A   1      36.542  33.832  29.454  1.00  0.00     0.010 A 
ATOM     33  C   UNL A   1      36.331  33.121  30.646  1.00  0.00    -0.014 A 
BRANCH  33  34
ATOM     34  C   UNL A   1      37.463  32.381  31.255  1.00  0.00     0.031 A 
ATOM     35  C   UNL A   1      38.009  32.816  32.587  1.00  0.00     0.074 A 
ATOM     36  C   UNL A   1      38.059  31.379  30.577  1.00  0.00     0.049 A 
ATOM     37  N   UNL A   1      39.049  32.366  33.240  1.00  0.00    -0.248 NA
ATOM     38  C   UNL A   1      37.311  33.926  33.256  1.00  0.00     0.031 C 
ATOM     39  C   UNL A   1      37.661  30.892  29.254  1.00  0.00     0.029 A 
ATOM     40  N   UNL A   1      39.138  30.597  30.907  1.00  0.00    -0.354 N 
ATOM     41  C   UNL A   1      39.147  33.157  34.379  1.00  0.00     0.074 A 
ATOM     42  C   UNL A   1      38.092  34.144  34.302  1.00  0.00     0.031 C 
ATOM     43  C   UNL A   1      38.467  29.877  28.899  1.00  0.00     0.029 A 
ATOM     44  C   UNL A   1      39.459  29.667  29.948  1.00  0.00     0.049 A 
ATOM     45  H   UNL A   1      39.634  30.694  31.752  1.00  0.00     0.167 HD
ATOM     46  C   UNL A   1      40.021  33.058  35.406  1.00  0.00     0.031 A 
ATOM     47  C   UNL A   1      40.445  28.750  29.916  1.00  0.00     0.031 A 
ATOM     48  C   UNL A   1      41.052  32.062  35.498  1.00  0.00     0.049 A 
ATOM     49  C   UNL A   1      41.395  28.651  31.077  1.00  0.00     0.074 A 
ATOM     50  C   UNL A   1      41.945  31.838  36.531  1.00  0.00     0.029 A 
ATOM     51  N   UNL A   1      41.324  31.119  34.519  1.00  0.00    -0.354 N 
ATOM     52  N   UNL A   1      41.431  29.362  32.177  1.00  0.00    -0.248 NA
ATOM     53  C   UNL A   1      42.434  27.614  30.994  1.00  0.00     0.031 C 
ATOM     54  C   UNL A   1      42.784  30.782  36.160  1.00  0.00     0.029 A 
ATOM     55  C   UNL A   1      42.382  30.320  34.916  1.00  0.00     0.049 A 
ATOM     56  H   UNL A   1      40.837  31.030  33.667  1.00  0.00     0.167 HD
ATOM     57  C   UNL A   1      42.475  28.841  32.930  1.00  0.00     0.074 A 
ATOM     58  C   UNL A   1      43.039  27.746  32.166  1.00  0.00     0.031 C 
ATOM     59  C   UNL A   1      42.925  29.232  34.147  1.00  0.00     0.031 A 
BRANCH  46  60
ATOM     60  C   UNL A   1      39.891  34.062  36.516  1.00  0.00    -0.014 A 
ATOM     61  C   UNL A   1      40.590  35.279  36.479  1.00  0.00     0.009 A 
ATOM     62  C   UNL A   1      39.044  33.795  37.604  1.00  0.00     0.009 A 
ATOM     63  C   UNL A   1      40.476  36.192  37.530  1.00  0.00     0.001 A 
ATOM     64  C   UNL A   1      38.910  34.723  38.638  1.00  0.00     0.001 A 
ATOM     65  C   UNL A   1      39.633  35.914  38.606  1.00  0.00     0.000 A 
ENDBRANCH  46  60
BRANCH  47  66
ATOM     66  C   UNL A   1      40.573  27.832  28.755  1.00  0.00    -0.014 A 
ATOM     67  C   UNL A   1      41.308  28.219  27.623  1.00  0.00     0.009 A 
ATOM     68  C   UNL A   1      39.957  26.571  28.765  1.00  0.00     0.009 A 
ATOM     69  C   UNL A   1      41.400  27.373  26.516  1.00  0.00     0.001 A 
ATOM     70  C   UNL A   1      40.073  25.717  27.666  1.00  0.00     0.001 A 
ATOM     71  C   UNL A   1      40.786  26.123  26.539  1.00  0.00     0.000 A 
ENDBRANCH  47  66
BRANCH  59  72
ATOM     72  C   UNL A   1      44.056  28.448  34.747  1.00  0.00    -0.014 A 
ATOM     73  C   UNL A   1      45.390  28.845  34.570  1.00  0.00     0.009 A 
ATOM     74  C   UNL A   1      43.776  27.326  35.541  1.00  0.00     0.009 A 
ATOM     75  C   UNL A   1      46.425  28.114  35.159  1.00  0.00     0.001 A 
ATOM     76  C   UNL A   1      44.810  26.613  36.149  1.00  0.00     0.001 A 
ATOM     77  C   UNL A   1      46.134  27.004  35.950  1.00  0.00     0.000 A 
ENDBRANCH  59  72
ENDBRANCH  33  34
ENDBRANCH  25  28
ENDBRANCH  23  24
ENDBRANCH  22  23
ENDBRANCH   1  22
TORSDOF 13
ENDMDL
