MODEL 1
REMARK VINA RESULT:     -12.6      0.000      0.000
REMARK SMILES C[C@@H]1C(C(=O)NCCCCNC(=O)c2ccc(-c3c4nc(c(-c5ccccc5)c5ccc([nH]5)c(-c5ccccc5)c5nc(c(-c6ccccc6)c6ccc3[nH]6)C=C5)C=C4)cc2)=NC2=C1C(=O)C[C@H](c1ccccc1)C2
REMARK SMILES IDX 9 1 8 2 7 3 6 4 4 5 5 6 3 8 1 9 2 10 64 11 62 12 63 13 65 14
REMARK SMILES IDX 75 15 66 16 67 17 68 18 69 19 70 20 74 21 71 22 73 23 72 24
REMARK SMILES IDX 10 25 11 26 12 27 13 29 14 30 15 31 61 32 16 33 60 34 17 35
REMARK SMILES IDX 18 36 19 37 54 38 20 39 59 40 53 41 55 42 21 43 58 44 52 45
REMARK SMILES IDX 51 46 22 48 44 49 29 50 43 51 30 52 33 53 42 54 56 55 31 56
REMARK SMILES IDX 32 57 41 59 57 60 34 61 23 62 24 63 28 64 25 65 27 66 26 67
REMARK SMILES IDX 45 68 46 69 50 70 47 71 49 72 48 73 35 74 36 75 40 76 37 77
REMARK SMILES IDX 39 78 38 79
REMARK H PARENT 6 7 11 28 55 47 33 58
REMARK Flexibility Score: inf
ROOT
ATOM      1  C   UNL A   1      37.761  19.890  24.855  1.00  0.00     0.023 C 
ENDROOT
BRANCH   1   2
ATOM      2  C   UNL A   1      36.736  21.011  24.703  1.00  0.00     0.023 C 
BRANCH   2   3
ATOM      3  C   UNL A   1      35.638  21.204  25.753  1.00  0.00     0.116 C 
BRANCH   3   4
ATOM      4  N   UNL A   1      35.273  22.551  26.157  1.00  0.00    -0.351 N 
ATOM      5  C   UNL A   1      34.017  23.160  26.159  1.00  0.00     0.266 C 
ATOM      6  O   UNL A   1      33.805  24.079  26.946  1.00  0.00    -0.268 OA
ATOM      7  H   UNL A   1      36.016  23.113  26.473  1.00  0.00     0.163 HD
BRANCH   5   8
ATOM      8  C   UNL A   1      32.954  22.841  25.102  1.00  0.00     0.113 C 
ATOM      9  C   UNL A   1      32.590  20.610  24.039  1.00  0.00     0.020 C 
ATOM     10  C   UNL A   1      33.199  22.005  23.875  1.00  0.00     0.076 C 
ATOM     11  C   UNL A   1      32.328  22.905  23.057  1.00  0.00     0.026 C 
ATOM     12  N   UNL A   1      31.753  23.368  25.153  1.00  0.00    -0.251 NA
ATOM     13  C   UNL A   1      31.365  23.421  23.828  1.00  0.00     0.049 C 
ATOM     14  C   UNL A   1      32.874  23.844  22.047  1.00  0.00     0.161 C 
ATOM     15  C   UNL A   1      30.503  24.541  23.321  1.00  0.00     0.065 C 
ATOM     16  O   UNL A   1      33.696  23.425  21.232  1.00  0.00    -0.294 OA
ATOM     17  C   UNL A   1      32.524  25.348  22.129  1.00  0.00     0.089 C 
ATOM     18  C   UNL A   1      31.408  25.774  23.143  1.00  0.00     0.033 C 
BRANCH  18  19
ATOM     19  C   UNL A   1      31.868  26.370  24.490  1.00  0.00    -0.044 A 
ATOM     20  C   UNL A   1      33.234  26.641  24.729  1.00  0.00     0.004 A 
ATOM     21  C   UNL A   1      30.977  26.677  25.527  1.00  0.00     0.004 A 
ATOM     22  C   UNL A   1      33.665  27.355  25.847  1.00  0.00     0.000 A 
ATOM     23  C   UNL A   1      31.413  27.364  26.670  1.00  0.00     0.000 A 
ATOM     24  C   UNL A   1      32.747  27.738  26.811  1.00  0.00     0.000 A 
ENDBRANCH  18  19
ENDBRANCH   5   8
ENDBRANCH   3   4
ENDBRANCH   2   3
ENDBRANCH   1   2
BRANCH   1  25
ATOM     25  C   UNL A   1      38.998  20.231  25.664  1.00  0.00     0.116 C 
BRANCH  25  26
ATOM     26  N   UNL A   1      40.010  19.176  25.726  1.00  0.00    -0.352 N 
ATOM     27  C   UNL A   1      41.372  19.336  25.952  1.00  0.00     0.251 C 
ATOM     28  H   UNL A   1      39.692  18.254  25.591  1.00  0.00     0.163 HD
ATOM     29  O   UNL A   1      42.173  18.458  25.686  1.00  0.00    -0.269 OA
BRANCH  27  30
ATOM     30  C   UNL A   1      41.832  20.612  26.541  1.00  0.00     0.039 A 
ATOM     31  C   UNL A   1      42.354  21.648  25.760  1.00  0.00     0.014 A 
ATOM     32  C   UNL A   1      41.677  20.768  27.914  1.00  0.00     0.014 A 
ATOM     33  C   UNL A   1      42.631  22.872  26.369  1.00  0.00     0.010 A 
ATOM     34  C   UNL A   1      41.779  22.011  28.474  1.00  0.00     0.010 A 
ATOM     35  C   UNL A   1      42.319  23.050  27.725  1.00  0.00    -0.014 A 
BRANCH  35  36
ATOM     36  C   UNL A   1      42.427  24.350  28.375  1.00  0.00     0.031 A 
ATOM     37  C   UNL A   1      41.304  25.278  28.075  1.00  0.00     0.074 A 
ATOM     38  C   UNL A   1      43.315  24.587  29.366  1.00  0.00     0.049 A 
ATOM     39  N   UNL A   1      41.357  26.391  27.422  1.00  0.00    -0.248 NA
ATOM     40  C   UNL A   1      39.934  24.856  28.419  1.00  0.00     0.031 C 
ATOM     41  C   UNL A   1      44.252  23.641  29.989  1.00  0.00     0.029 A 
ATOM     42  N   UNL A   1      43.475  25.700  30.130  1.00  0.00    -0.354 N 
ATOM     43  C   UNL A   1      40.069  26.919  27.457  1.00  0.00     0.074 A 
ATOM     44  C   UNL A   1      39.211  25.853  27.904  1.00  0.00     0.031 C 
ATOM     45  C   UNL A   1      44.686  24.139  31.168  1.00  0.00     0.029 A 
ATOM     46  C   UNL A   1      44.201  25.499  31.301  1.00  0.00     0.049 A 
ATOM     47  H   UNL A   1      43.108  26.577  29.876  1.00  0.00     0.167 HD
ATOM     48  C   UNL A   1      39.859  28.263  27.376  1.00  0.00     0.031 A 
ATOM     49  C   UNL A   1      44.370  26.380  32.318  1.00  0.00     0.031 A 
ATOM     50  C   UNL A   1      41.045  28.952  26.933  1.00  0.00     0.049 A 
ATOM     51  C   UNL A   1      44.046  27.725  31.792  1.00  0.00     0.074 A 
ATOM     52  C   UNL A   1      41.836  28.910  25.803  1.00  0.00     0.029 A 
ATOM     53  N   UNL A   1      41.807  29.550  27.909  1.00  0.00    -0.354 N 
ATOM     54  N   UNL A   1      44.764  28.328  30.889  1.00  0.00    -0.248 NA
ATOM     55  C   UNL A   1      42.677  28.194  31.920  1.00  0.00     0.031 C 
ATOM     56  C   UNL A   1      43.171  29.038  26.289  1.00  0.00     0.029 A 
ATOM     57  C   UNL A   1      43.119  29.239  27.669  1.00  0.00     0.049 A 
ATOM     58  H   UNL A   1      41.470  30.104  28.650  1.00  0.00     0.167 HD
ATOM     59  C   UNL A   1      43.835  28.905  30.035  1.00  0.00     0.074 A 
ATOM     60  C   UNL A   1      42.575  28.882  30.779  1.00  0.00     0.031 C 
ATOM     61  C   UNL A   1      44.112  29.074  28.708  1.00  0.00     0.031 A 
BRANCH  48  62
ATOM     62  C   UNL A   1      38.760  28.989  28.120  1.00  0.00    -0.014 A 
ATOM     63  C   UNL A   1      38.685  28.834  29.517  1.00  0.00     0.009 A 
ATOM     64  C   UNL A   1      37.640  29.565  27.492  1.00  0.00     0.009 A 
ATOM     65  C   UNL A   1      37.518  29.145  30.226  1.00  0.00     0.001 A 
ATOM     66  C   UNL A   1      36.489  29.915  28.203  1.00  0.00     0.001 A 
ATOM     67  C   UNL A   1      36.416  29.675  29.566  1.00  0.00     0.000 A 
ENDBRANCH  48  62
BRANCH  49  68
ATOM     68  C   UNL A   1      44.536  26.128  33.767  1.00  0.00    -0.014 A 
ATOM     69  C   UNL A   1      43.457  25.692  34.553  1.00  0.00     0.009 A 
ATOM     70  C   UNL A   1      45.825  26.040  34.323  1.00  0.00     0.009 A 
ATOM     71  C   UNL A   1      43.664  25.152  35.830  1.00  0.00     0.001 A 
ATOM     72  C   UNL A   1      46.033  25.500  35.598  1.00  0.00     0.001 A 
ATOM     73  C   UNL A   1      44.954  25.041  36.346  1.00  0.00     0.000 A 
ENDBRANCH  49  68
BRANCH  61  74
ATOM     74  C   UNL A   1      45.531  28.839  28.247  1.00  0.00    -0.014 A 
ATOM     75  C   UNL A   1      46.031  27.575  27.881  1.00  0.00     0.009 A 
ATOM     76  C   UNL A   1      46.344  29.961  28.029  1.00  0.00     0.009 A 
ATOM     77  C   UNL A   1      47.315  27.440  27.342  1.00  0.00     0.001 A 
ATOM     78  C   UNL A   1      47.616  29.829  27.471  1.00  0.00     0.001 A 
ATOM     79  C   UNL A   1      48.105  28.569  27.133  1.00  0.00     0.000 A 
ENDBRANCH  61  74
ENDBRANCH  35  36
ENDBRANCH  27  30
ENDBRANCH  25  26
ENDBRANCH   1  25
TORSDOF 12
ENDMDL
MODEL 2
REMARK VINA RESULT:     -12.5      3.271      7.209
REMARK SMILES C[C@@H]1C(C(=O)NCCCCNC(=O)c2ccc(-c3c4nc(c(-c5ccccc5)c5ccc([nH]5)c(-c5ccccc5)c5nc(c(-c6ccccc6)c6ccc3[nH]6)C=C5)C=C4)cc2)=NC2=C1C(=O)C[C@H](c1ccccc1)C2
REMARK SMILES IDX 9 1 8 2 7 3 6 4 4 5 5 6 3 8 1 9 2 10 64 11 62 12 63 13 65 14
REMARK SMILES IDX 75 15 66 16 67 17 68 18 69 19 70 20 74 21 71 22 73 23 72 24
REMARK SMILES IDX 10 25 11 26 12 27 13 29 14 30 15 31 61 32 16 33 60 34 17 35
REMARK SMILES IDX 18 36 19 37 54 38 20 39 59 40 53 41 55 42 21 43 58 44 52 45
REMARK SMILES IDX 51 46 22 48 44 49 29 50 43 51 30 52 33 53 42 54 56 55 31 56
REMARK SMILES IDX 32 57 41 59 57 60 34 61 23 62 24 63 28 64 25 65 27 66 26 67
REMARK SMILES IDX 45 68 46 69 50 70 47 71 49 72 48 73 35 74 36 75 40 76 37 77
REMARK SMILES IDX 39 78 38 79
REMARK H PARENT 6 7 11 28 55 47 33 58
REMARK Flexibility Score: inf
ROOT
ATOM      1  C   UNL A   1      37.061  23.576  25.285  1.00  0.00     0.023 C 
ENDROOT
BRANCH   1   2
ATOM      2  C   UNL A   1      35.560  23.452  25.534  1.00  0.00     0.023 C 
BRANCH   2   3
ATOM      3  C   UNL A   1      34.621  24.616  25.204  1.00  0.00     0.116 C 
BRANCH   3   4
ATOM      4  N   UNL A   1      33.621  25.019  26.179  1.00  0.00    -0.351 N 
ATOM      5  C   UNL A   1      32.235  25.103  26.036  1.00  0.00     0.266 C 
ATOM      6  O   UNL A   1      31.529  24.989  27.034  1.00  0.00    -0.268 OA
ATOM      7  H   UNL A   1      33.971  25.267  27.064  1.00  0.00     0.163 HD
BRANCH   5   8
ATOM      8  C   UNL A   1      31.575  25.505  24.712  1.00  0.00     0.113 C 
ATOM      9  C   UNL A   1      30.436  23.945  23.128  1.00  0.00     0.020 C 
ATOM     10  C   UNL A   1      31.712  24.736  23.426  1.00  0.00     0.076 C 
ATOM     11  C   UNL A   1      31.779  26.009  22.643  1.00  0.00     0.026 C 
ATOM     12  N   UNL A   1      30.905  26.627  24.591  1.00  0.00    -0.251 NA
ATOM     13  C   UNL A   1      31.056  26.953  23.256  1.00  0.00     0.049 C 
ATOM     14  C   UNL A   1      33.033  26.502  22.025  1.00  0.00     0.161 C 
ATOM     15  C   UNL A   1      31.148  28.386  22.819  1.00  0.00     0.065 C 
ATOM     16  O   UNL A   1      33.711  25.722  21.358  1.00  0.00    -0.294 OA
ATOM     17  C   UNL A   1      33.541  27.927  22.351  1.00  0.00     0.089 C 
ATOM     18  C   UNL A   1      32.573  28.874  23.138  1.00  0.00     0.033 C 
BRANCH  18  19
ATOM     19  C   UNL A   1      32.818  29.034  24.653  1.00  0.00    -0.044 A 
ATOM     20  C   UNL A   1      31.919  29.773  25.453  1.00  0.00     0.004 A 
ATOM     21  C   UNL A   1      33.917  28.464  25.308  1.00  0.00     0.004 A 
ATOM     22  C   UNL A   1      31.997  29.778  26.846  1.00  0.00     0.000 A 
ATOM     23  C   UNL A   1      34.018  28.497  26.707  1.00  0.00     0.000 A 
ATOM     24  C   UNL A   1      33.038  29.118  27.477  1.00  0.00     0.000 A 
ENDBRANCH  18  19
ENDBRANCH   5   8
ENDBRANCH   3   4
ENDBRANCH   2   3
ENDBRANCH   1   2
BRANCH   1  25
ATOM     25  C   UNL A   1      37.904  23.925  26.497  1.00  0.00     0.116 C 
BRANCH  25  26
ATOM     26  N   UNL A   1      39.087  23.087  26.692  1.00  0.00    -0.352 N 
ATOM     27  C   UNL A   1      40.404  23.515  26.820  1.00  0.00     0.251 C 
ATOM     28  H   UNL A   1      38.936  22.115  26.735  1.00  0.00     0.163 HD
ATOM     29  O   UNL A   1      41.343  22.753  26.672  1.00  0.00    -0.269 OA
BRANCH  27  30
ATOM     30  C   UNL A   1      40.641  24.936  27.155  1.00  0.00     0.039 A 
ATOM     31  C   UNL A   1      40.664  25.938  26.180  1.00  0.00     0.014 A 
ATOM     32  C   UNL A   1      40.793  25.252  28.501  1.00  0.00     0.014 A 
ATOM     33  C   UNL A   1      40.749  27.268  26.588  1.00  0.00     0.010 A 
ATOM     34  C   UNL A   1      40.700  26.554  28.909  1.00  0.00     0.010 A 
ATOM     35  C   UNL A   1      40.744  27.567  27.959  1.00  0.00    -0.014 A 
BRANCH  35  36
ATOM     36  C   UNL A   1      40.663  28.938  28.447  1.00  0.00     0.031 A 
ATOM     37  C   UNL A   1      41.893  29.742  28.221  1.00  0.00     0.074 A 
ATOM     38  C   UNL A   1      39.491  29.501  28.818  1.00  0.00     0.049 A 
ATOM     39  N   UNL A   1      42.693  30.223  29.113  1.00  0.00    -0.248 NA
ATOM     40  C   UNL A   1      42.373  29.917  26.837  1.00  0.00     0.031 C 
ATOM     41  C   UNL A   1      38.145  28.912  28.762  1.00  0.00     0.029 A 
ATOM     42  N   UNL A   1      39.233  30.780  29.199  1.00  0.00    -0.354 N 
ATOM     43  C   UNL A   1      43.659  30.943  28.416  1.00  0.00     0.074 A 
ATOM     44  C   UNL A   1      43.526  30.560  27.034  1.00  0.00     0.031 C 
ATOM     45  C   UNL A   1      37.216  29.889  28.852  1.00  0.00     0.029 A 
ATOM     46  C   UNL A   1      37.889  31.140  29.146  1.00  0.00     0.049 A 
ATOM     47  H   UNL A   1      39.938  31.401  29.489  1.00  0.00     0.167 HD
ATOM     48  C   UNL A   1      44.303  31.996  28.993  1.00  0.00     0.031 A 
ATOM     49  C   UNL A   1      37.369  32.382  29.306  1.00  0.00     0.031 A 
ATOM     50  C   UNL A   1      44.099  32.014  30.421  1.00  0.00     0.049 A 
ATOM     51  C   UNL A   1      38.397  33.202  29.986  1.00  0.00     0.074 A 
ATOM     52  C   UNL A   1      44.377  31.148  31.459  1.00  0.00     0.029 A 
ATOM     53  N   UNL A   1      43.140  32.879  30.892  1.00  0.00    -0.354 N 
ATOM     54  N   UNL A   1      38.781  32.990  31.212  1.00  0.00    -0.248 NA
ATOM     55  C   UNL A   1      39.328  33.950  29.159  1.00  0.00     0.031 C 
ATOM     56  C   UNL A   1      43.240  31.232  32.317  1.00  0.00     0.029 A 
ATOM     57  C   UNL A   1      42.376  32.202  31.806  1.00  0.00     0.049 A 
ATOM     58  H   UNL A   1      43.022  33.817  30.622  1.00  0.00     0.167 HD
ATOM     59  C   UNL A   1      40.158  33.154  31.178  1.00  0.00     0.074 A 
ATOM     60  C   UNL A   1      40.423  33.849  29.917  1.00  0.00     0.031 C 
ATOM     61  C   UNL A   1      40.969  32.455  32.026  1.00  0.00     0.031 A 
BRANCH  48  62
ATOM     62  C   UNL A   1      44.721  33.242  28.244  1.00  0.00    -0.014 A 
ATOM     63  C   UNL A   1      43.714  34.065  27.704  1.00  0.00     0.009 A 
ATOM     64  C   UNL A   1      46.033  33.482  27.797  1.00  0.00     0.009 A 
ATOM     65  C   UNL A   1      43.993  35.001  26.702  1.00  0.00     0.001 A 
ATOM     66  C   UNL A   1      46.322  34.444  26.826  1.00  0.00     0.001 A 
ATOM     67  C   UNL A   1      45.297  35.183  26.255  1.00  0.00     0.000 A 
ENDBRANCH  48  62
BRANCH  49  68
ATOM     68  C   UNL A   1      36.166  32.989  28.694  1.00  0.00    -0.014 A 
ATOM     69  C   UNL A   1      35.217  32.196  28.026  1.00  0.00     0.009 A 
ATOM     70  C   UNL A   1      35.804  34.310  29.012  1.00  0.00     0.009 A 
ATOM     71  C   UNL A   1      33.942  32.695  27.726  1.00  0.00     0.001 A 
ATOM     72  C   UNL A   1      34.530  34.808  28.714  1.00  0.00     0.001 A 
ATOM     73  C   UNL A   1      33.593  33.996  28.085  1.00  0.00     0.000 A 
ENDBRANCH  49  68
BRANCH  61  74
ATOM     74  C   UNL A   1      40.319  31.685  33.152  1.00  0.00    -0.014 A 
ATOM     75  C   UNL A   1      40.250  32.155  34.477  1.00  0.00     0.009 A 
ATOM     76  C   UNL A   1      39.618  30.515  32.826  1.00  0.00     0.009 A 
ATOM     77  C   UNL A   1      39.525  31.455  35.448  1.00  0.00     0.001 A 
ATOM     78  C   UNL A   1      38.877  29.829  33.790  1.00  0.00     0.001 A 
ATOM     79  C   UNL A   1      38.835  30.295  35.102  1.00  0.00     0.000 A 
ENDBRANCH  61  74
ENDBRANCH  35  36
ENDBRANCH  27  30
ENDBRANCH  25  26
ENDBRANCH   1  25
TORSDOF 12
ENDMDL
MODEL 3
REMARK VINA RESULT:     -12.4      3.859      8.708
REMARK SMILES C[C@@H]1C(C(=O)NCCCCNC(=O)c2ccc(-c3c4nc(c(-c5ccccc5)c5ccc([nH]5)c(-c5ccccc5)c5nc(c(-c6ccccc6)c6ccc3[nH]6)C=C5)C=C4)cc2)=NC2=C1C(=O)C[C@H](c1ccccc1)C2
REMARK SMILES IDX 9 1 8 2 7 3 6 4 4 5 5 6 3 8 1 9 2 10 64 11 62 12 63 13 65 14
REMARK SMILES IDX 75 15 66 16 67 17 68 18 69 19 70 20 74 21 71 22 73 23 72 24
REMARK SMILES IDX 10 25 11 26 12 27 13 29 14 30 15 31 61 32 16 33 60 34 17 35
REMARK SMILES IDX 18 36 19 37 54 38 20 39 59 40 53 41 55 42 21 43 58 44 52 45
REMARK SMILES IDX 51 46 22 48 44 49 29 50 43 51 30 52 33 53 42 54 56 55 31 56
REMARK SMILES IDX 32 57 41 59 57 60 34 61 23 62 24 63 28 64 25 65 27 66 26 67
REMARK SMILES IDX 45 68 46 69 50 70 47 71 49 72 48 73 35 74 36 75 40 76 37 77
REMARK SMILES IDX 39 78 38 79
REMARK H PARENT 6 7 11 28 55 47 33 58
REMARK Flexibility Score: inf
ROOT
ATOM      1  C   UNL A   1      31.435  31.371  26.518  1.00  0.00     0.023 C 
ENDROOT
BRANCH   1   2
ATOM      2  C   UNL A   1      31.842  30.131  25.726  1.00  0.00     0.023 C 
BRANCH   2   3
ATOM      3  C   UNL A   1      31.816  28.748  26.385  1.00  0.00     0.116 C 
BRANCH   3   4
ATOM      4  N   UNL A   1      32.986  27.892  26.282  1.00  0.00    -0.351 N 
ATOM      5  C   UNL A   1      33.246  26.863  25.376  1.00  0.00     0.266 C 
ATOM      6  O   UNL A   1      34.414  26.582  25.119  1.00  0.00    -0.268 OA
ATOM      7  H   UNL A   1      33.693  28.062  26.944  1.00  0.00     0.163 HD
BRANCH   5   8
ATOM      8  C   UNL A   1      32.137  25.961  24.824  1.00  0.00     0.113 C 
ATOM      9  C   UNL A   1      29.750  26.626  24.510  1.00  0.00     0.020 C 
ATOM     10  C   UNL A   1      30.747  25.875  25.396  1.00  0.00     0.076 C 
ATOM     11  C   UNL A   1      30.712  24.400  25.156  1.00  0.00     0.026 C 
ATOM     12  N   UNL A   1      32.362  25.112  23.849  1.00  0.00    -0.251 NA
ATOM     13  C   UNL A   1      31.449  24.101  24.081  1.00  0.00     0.049 C 
ATOM     14  C   UNL A   1      30.802  23.409  26.256  1.00  0.00     0.161 C 
ATOM     15  C   UNL A   1      31.784  22.672  23.760  1.00  0.00     0.065 C 
ATOM     16  O   UNL A   1      30.083  23.554  27.244  1.00  0.00    -0.294 OA
ATOM     17  C   UNL A   1      31.891  22.311  26.213  1.00  0.00     0.089 C 
ATOM     18  C   UNL A   1      32.701  22.152  24.882  1.00  0.00     0.033 C 
BRANCH  18  19
ATOM     19  C   UNL A   1      34.110  22.781  24.833  1.00  0.00    -0.044 A 
ATOM     20  C   UNL A   1      34.691  23.337  25.995  1.00  0.00     0.004 A 
ATOM     21  C   UNL A   1      34.880  22.827  23.664  1.00  0.00     0.004 A 
ATOM     22  C   UNL A   1      36.027  23.735  26.039  1.00  0.00     0.000 A 
ATOM     23  C   UNL A   1      36.213  23.260  23.697  1.00  0.00     0.000 A 
ATOM     24  C   UNL A   1      36.799  23.675  24.891  1.00  0.00     0.000 A 
ENDBRANCH  18  19
ENDBRANCH   5   8
ENDBRANCH   3   4
ENDBRANCH   2   3
ENDBRANCH   1   2
BRANCH   1  25
ATOM     25  C   UNL A   1      32.569  32.145  27.163  1.00  0.00     0.116 C 
BRANCH  25  26
ATOM     26  N   UNL A   1      32.279  33.550  27.447  1.00  0.00    -0.352 N 
ATOM     27  C   UNL A   1      32.929  34.370  28.364  1.00  0.00     0.251 C 
ATOM     28  H   UNL A   1      31.544  33.960  26.936  1.00  0.00     0.163 HD
ATOM     29  O   UNL A   1      32.435  35.413  28.752  1.00  0.00    -0.269 OA
BRANCH  27  30
ATOM     30  C   UNL A   1      34.256  33.943  28.856  1.00  0.00     0.039 A 
ATOM     31  C   UNL A   1      34.424  33.299  30.086  1.00  0.00     0.014 A 
ATOM     32  C   UNL A   1      35.343  34.162  28.016  1.00  0.00     0.014 A 
ATOM     33  C   UNL A   1      35.684  32.800  30.415  1.00  0.00     0.010 A 
ATOM     34  C   UNL A   1      36.528  33.523  28.255  1.00  0.00     0.010 A 
ATOM     35  C   UNL A   1      36.727  32.898  29.480  1.00  0.00    -0.014 A 
BRANCH  35  36
ATOM     36  C   UNL A   1      38.014  32.250  29.694  1.00  0.00     0.031 A 
ATOM     37  C   UNL A   1      38.048  30.815  29.306  1.00  0.00     0.074 A 
ATOM     38  C   UNL A   1      39.138  32.954  29.959  1.00  0.00     0.049 A 
ATOM     39  N   UNL A   1      38.205  29.795  30.081  1.00  0.00    -0.248 NA
ATOM     40  C   UNL A   1      37.733  30.457  27.911  1.00  0.00     0.031 C 
ATOM     41  C   UNL A   1      39.298  34.413  30.030  1.00  0.00     0.029 A 
ATOM     42  N   UNL A   1      40.418  32.514  30.087  1.00  0.00    -0.354 N 
ATOM     43  C   UNL A   1      38.224  28.679  29.249  1.00  0.00     0.074 A 
ATOM     44  C   UNL A   1      37.738  29.124  27.969  1.00  0.00     0.031 C 
ATOM     45  C   UNL A   1      40.608  34.733  29.937  1.00  0.00     0.029 A 
ATOM     46  C   UNL A   1      41.385  33.510  29.977  1.00  0.00     0.049 A 
ATOM     47  H   UNL A   1      40.643  31.570  30.246  1.00  0.00     0.167 HD
ATOM     48  C   UNL A   1      38.894  27.547  29.607  1.00  0.00     0.031 A 
ATOM     49  C   UNL A   1      42.728  33.338  29.899  1.00  0.00     0.031 A 
ATOM     50  C   UNL A   1      39.244  27.567  31.005  1.00  0.00     0.049 A 
ATOM     51  C   UNL A   1      43.026  31.977  30.399  1.00  0.00     0.074 A 
ATOM     52  C   UNL A   1      38.538  27.640  32.189  1.00  0.00     0.029 A 
ATOM     53  N   UNL A   1      40.535  27.928  31.309  1.00  0.00    -0.354 N 
ATOM     54  N   UNL A   1      42.854  31.620  31.639  1.00  0.00    -0.248 NA
ATOM     55  C   UNL A   1      43.063  30.891  29.434  1.00  0.00     0.031 C 
ATOM     56  C   UNL A   1      39.316  28.496  33.024  1.00  0.00     0.029 A 
ATOM     57  C   UNL A   1      40.489  28.826  32.343  1.00  0.00     0.049 A 
ATOM     58  H   UNL A   1      41.349  27.601  30.863  1.00  0.00     0.167 HD
ATOM     59  C   UNL A   1      42.302  30.349  31.562  1.00  0.00     0.074 A 
ATOM     60  C   UNL A   1      42.555  29.912  30.189  1.00  0.00     0.031 C 
ATOM     61  C   UNL A   1      41.441  29.900  32.522  1.00  0.00     0.031 A 
BRANCH  48  62
ATOM     62  C   UNL A   1      39.624  26.655  28.627  1.00  0.00    -0.014 A 
ATOM     63  C   UNL A   1      40.624  27.230  27.819  1.00  0.00     0.009 A 
ATOM     64  C   UNL A   1      39.180  25.372  28.258  1.00  0.00     0.009 A 
ATOM     65  C   UNL A   1      41.076  26.598  26.655  1.00  0.00     0.001 A 
ATOM     66  C   UNL A   1      39.660  24.720  27.119  1.00  0.00     0.001 A 
ATOM     67  C   UNL A   1      40.585  25.347  26.299  1.00  0.00     0.000 A 
ENDBRANCH  48  62
BRANCH  49  68
ATOM     68  C   UNL A   1      43.744  34.149  29.191  1.00  0.00    -0.014 A 
ATOM     69  C   UNL A   1      43.681  34.333  27.800  1.00  0.00     0.009 A 
ATOM     70  C   UNL A   1      44.615  34.979  29.920  1.00  0.00     0.009 A 
ATOM     71  C   UNL A   1      44.429  35.337  27.169  1.00  0.00     0.001 A 
ATOM     72  C   UNL A   1      45.362  35.982  29.290  1.00  0.00     0.001 A 
ATOM     73  C   UNL A   1      45.257  36.171  27.917  1.00  0.00     0.000 A 
ENDBRANCH  49  68
BRANCH  61  74
ATOM     74  C   UNL A   1      41.294  30.722  33.781  1.00  0.00    -0.014 A 
ATOM     75  C   UNL A   1      40.344  31.749  33.933  1.00  0.00     0.009 A 
ATOM     76  C   UNL A   1      42.042  30.339  34.904  1.00  0.00     0.009 A 
ATOM     77  C   UNL A   1      40.172  32.389  35.166  1.00  0.00     0.001 A 
ATOM     78  C   UNL A   1      41.854  30.962  36.139  1.00  0.00     0.001 A 
ATOM     79  C   UNL A   1      40.924  31.991  36.269  1.00  0.00     0.000 A 
ENDBRANCH  61  74
ENDBRANCH  35  36
ENDBRANCH  27  30
ENDBRANCH  25  26
ENDBRANCH   1  25
TORSDOF 12
ENDMDL
