MODEL 1
REMARK VINA RESULT:     -13.1      0.000      0.000
REMARK SMILES O=C(NCCCCNC(=O)c1ccc(-c2c3nc(c(-c4ccccc4)c4ccc([nH]4)c(-c4ccccc4)c4nc(c(-c5ccccc5)c5ccc2[nH]5)C=C4)C=C3)cc1)C1=Cc2cc(Cl)cc(-c3ccc(CO)cc3)c2O[C@@H]1C(F)(F)F
REMARK SMILES IDX 5 1 4 2 3 3 1 4 2 5 59 7 60 8 77 9 61 10 76 11 62 12 75 13
REMARK SMILES IDX 63 14 66 15 64 16 65 17 78 18 79 19 80 20 81 21 67 22 68 23
REMARK SMILES IDX 74 24 69 25 73 26 70 27 71 28 72 29 6 31 7 32 8 33 9 34
REMARK SMILES IDX 10 36 11 37 12 38 58 39 13 40 57 41 14 42 15 43 16 44 51 45
REMARK SMILES IDX 17 46 56 47 50 48 52 49 18 50 55 51 49 52 48 53 19 55 41 56
REMARK SMILES IDX 26 57 40 58 27 59 30 60 39 61 53 62 28 63 29 64 38 66 54 67
REMARK SMILES IDX 31 68 20 69 21 70 25 71 22 72 24 73 23 74 42 75 43 76 47 77
REMARK SMILES IDX 44 78 46 79 45 80 32 81 33 82 37 83 34 84 36 85 35 86
REMARK H PARENT 3 6 72 30 8 35 52 54 30 65
REMARK Flexibility Score: inf
ROOT
ATOM      1  C   UNL A   1      31.691  27.835  27.475  1.00  0.00     0.023 C 
ENDROOT
BRANCH   1   2
ATOM      2  C   UNL A   1      31.495  26.785  26.372  1.00  0.00     0.116 C 
BRANCH   2   3
ATOM      3  N   UNL A   1      31.353  25.417  26.876  1.00  0.00    -0.352 N 
ATOM      4  O   UNL A   1      31.974  23.317  27.370  1.00  0.00    -0.270 OA
ATOM      5  C   UNL A   1      31.992  24.245  26.565  1.00  0.00     0.251 C 
ATOM      6  H   UNL A   1      30.665  25.321  27.573  1.00  0.00     0.163 HD
BRANCH   5   7
ATOM      7  C   UNL A   1      32.790  24.108  25.325  1.00  0.00     0.067 C 
ATOM      8  C   UNL A   1      34.104  24.357  25.344  1.00  0.00     0.025 C 
ATOM      9  C   UNL A   1      32.249  23.153  24.303  1.00  0.00     0.314 C 
ATOM     10  C   UNL A   1      34.947  23.217  24.997  1.00  0.00     0.019 A 
ATOM     11  O   UNL A   1      33.000  21.915  24.293  1.00  0.00    -0.475 OA
ATOM     12  C   UNL A   1      36.281  23.256  25.408  1.00  0.00     0.032 A 
ATOM     13  C   UNL A   1      34.333  21.997  24.636  1.00  0.00     0.135 A 
ATOM     14  C   UNL A   1      36.984  22.065  25.531  1.00  0.00     0.042 A 
ATOM     15  C   UNL A   1      35.029  20.791  24.812  1.00  0.00     0.026 A 
ATOM     16  Cl  UNL A   1      38.571  22.084  26.194  1.00  0.00    -0.084 Cl
ATOM     17  C   UNL A   1      36.366  20.847  25.251  1.00  0.00     0.033 A 
BRANCH   9  18
ATOM     18  C   UNL A   1      32.205  23.825  22.911  1.00  0.00     0.429 C 
ATOM     19  F   UNL A   1      32.641  22.986  21.940  1.00  0.00    -0.167 F 
ATOM     20  F   UNL A   1      30.943  24.191  22.573  1.00  0.00    -0.167 F 
ATOM     21  F   UNL A   1      32.969  24.942  22.843  1.00  0.00    -0.167 F 
ENDBRANCH   9  18
BRANCH  15  22
ATOM     22  C   UNL A   1      34.366  19.480  24.796  1.00  0.00    -0.015 A 
ATOM     23  C   UNL A   1      33.123  19.332  25.435  1.00  0.00     0.009 A 
ATOM     24  C   UNL A   1      34.995  18.340  24.291  1.00  0.00     0.009 A 
ATOM     25  C   UNL A   1      32.568  18.071  25.651  1.00  0.00     0.007 A 
ATOM     26  C   UNL A   1      34.436  17.074  24.498  1.00  0.00     0.007 A 
ATOM     27  C   UNL A   1      33.239  16.927  25.211  1.00  0.00    -0.023 A 
BRANCH  27  28
ATOM     28  C   UNL A   1      32.716  15.568  25.589  1.00  0.00     0.191 C 
BRANCH  28  29
ATOM     29  O   UNL A   1      33.744  14.600  25.408  1.00  0.00    -0.392 OA
ATOM     30  H   UNL A   1      33.957  14.190  26.262  1.00  0.00     0.211 HD
ENDBRANCH  28  29
ENDBRANCH  27  28
ENDBRANCH  15  22
ENDBRANCH   5   7
ENDBRANCH   2   3
ENDBRANCH   1   2
BRANCH   1  31
ATOM     31  C   UNL A   1      32.139  29.213  26.965  1.00  0.00     0.023 C 
BRANCH  31  32
ATOM     32  C   UNL A   1      33.592  29.617  27.211  1.00  0.00     0.116 C 
BRANCH  32  33
ATOM     33  N   UNL A   1      33.780  30.835  27.981  1.00  0.00    -0.352 N 
ATOM     34  C   UNL A   1      34.904  31.218  28.688  1.00  0.00     0.251 C 
ATOM     35  H   UNL A   1      33.020  31.460  28.002  1.00  0.00     0.163 HD
ATOM     36  O   UNL A   1      34.918  32.270  29.327  1.00  0.00    -0.269 OA
BRANCH  34  37
ATOM     37  C   UNL A   1      36.079  30.317  28.738  1.00  0.00     0.039 A 
ATOM     38  C   UNL A   1      36.897  30.215  27.610  1.00  0.00     0.014 A 
ATOM     39  C   UNL A   1      36.432  29.660  29.921  1.00  0.00     0.014 A 
ATOM     40  C   UNL A   1      38.136  29.575  27.709  1.00  0.00     0.010 A 
ATOM     41  C   UNL A   1      37.691  29.069  30.034  1.00  0.00     0.010 A 
ATOM     42  C   UNL A   1      38.574  29.066  28.944  1.00  0.00    -0.014 A 
BRANCH  42  43
ATOM     43  C   UNL A   1      39.999  28.685  29.138  1.00  0.00     0.031 A 
ATOM     44  C   UNL A   1      41.014  29.651  29.672  1.00  0.00     0.074 A 
ATOM     45  C   UNL A   1      40.396  27.458  28.743  1.00  0.00     0.049 A 
ATOM     46  N   UNL A   1      42.286  29.452  29.916  1.00  0.00    -0.248 NA
ATOM     47  C   UNL A   1      40.550  31.017  29.949  1.00  0.00     0.031 C 
ATOM     48  C   UNL A   1      39.529  26.445  28.134  1.00  0.00     0.029 A 
ATOM     49  N   UNL A   1      41.630  26.856  28.782  1.00  0.00    -0.354 N 
ATOM     50  C   UNL A   1      42.776  30.664  30.382  1.00  0.00     0.074 A 
ATOM     51  C   UNL A   1      41.674  31.605  30.338  1.00  0.00     0.031 C 
ATOM     52  C   UNL A   1      40.252  25.344  27.878  1.00  0.00     0.029 A 
ATOM     53  C   UNL A   1      41.636  25.580  28.275  1.00  0.00     0.049 A 
ATOM     54  H   UNL A   1      42.434  27.298  29.140  1.00  0.00     0.167 HD
ATOM     55  C   UNL A   1      44.023  30.964  30.822  1.00  0.00     0.031 A 
ATOM     56  C   UNL A   1      42.638  24.690  28.139  1.00  0.00     0.031 A 
ATOM     57  C   UNL A   1      45.127  30.040  30.840  1.00  0.00     0.049 A 
ATOM     58  C   UNL A   1      44.015  25.049  28.612  1.00  0.00     0.074 A 
ATOM     59  C   UNL A   1      46.406  30.232  31.338  1.00  0.00     0.029 A 
ATOM     60  N   UNL A   1      45.095  28.757  30.314  1.00  0.00    -0.354 N 
ATOM     61  N   UNL A   1      44.431  26.163  29.162  1.00  0.00    -0.248 NA
ATOM     62  C   UNL A   1      45.057  24.024  28.455  1.00  0.00     0.031 C 
ATOM     63  C   UNL A   1      47.163  29.088  31.060  1.00  0.00     0.029 A 
ATOM     64  C   UNL A   1      46.342  28.162  30.436  1.00  0.00     0.049 A 
ATOM     65  H   UNL A   1      44.304  28.332  29.913  1.00  0.00     0.167 HD
ATOM     66  C   UNL A   1      45.782  25.972  29.427  1.00  0.00     0.074 A 
ATOM     67  C   UNL A   1      46.108  24.627  28.996  1.00  0.00     0.031 C 
ATOM     68  C   UNL A   1      46.667  26.837  29.977  1.00  0.00     0.031 A 
BRANCH  55  69
ATOM     69  C   UNL A   1      44.256  32.366  31.313  1.00  0.00    -0.014 A 
ATOM     70  C   UNL A   1      44.553  33.406  30.417  1.00  0.00     0.009 A 
ATOM     71  C   UNL A   1      44.154  32.658  32.682  1.00  0.00     0.009 A 
ATOM     72  C   UNL A   1      44.787  34.701  30.887  1.00  0.00     0.001 A 
ATOM     73  C   UNL A   1      44.362  33.958  33.145  1.00  0.00     0.001 A 
ATOM     74  C   UNL A   1      44.689  34.975  32.250  1.00  0.00     0.000 A 
ENDBRANCH  55  69
BRANCH  56  75
ATOM     75  C   UNL A   1      42.359  23.364  27.532  1.00  0.00    -0.014 A 
ATOM     76  C   UNL A   1      42.615  23.134  26.172  1.00  0.00     0.009 A 
ATOM     77  C   UNL A   1      41.871  22.311  28.321  1.00  0.00     0.009 A 
ATOM     78  C   UNL A   1      42.377  21.878  25.612  1.00  0.00     0.001 A 
ATOM     79  C   UNL A   1      41.657  21.049  27.763  1.00  0.00     0.001 A 
ATOM     80  C   UNL A   1      41.905  20.835  26.409  1.00  0.00     0.000 A 
ENDBRANCH  56  75
BRANCH  68  81
ATOM     81  C   UNL A   1      48.082  26.356  30.135  1.00  0.00    -0.014 A 
ATOM     82  C   UNL A   1      48.519  25.778  31.339  1.00  0.00     0.009 A 
ATOM     83  C   UNL A   1      48.981  26.452  29.062  1.00  0.00     0.009 A 
ATOM     84  C   UNL A   1      49.836  25.331  31.470  1.00  0.00     0.001 A 
ATOM     85  C   UNL A   1      50.289  25.982  29.188  1.00  0.00     0.001 A 
ATOM     86  C   UNL A   1      50.718  25.430  30.395  1.00  0.00     0.000 A 
ENDBRANCH  68  81
ENDBRANCH  42  43
ENDBRANCH  34  37
ENDBRANCH  32  33
ENDBRANCH  31  32
ENDBRANCH   1  31
TORSDOF 15
ENDMDL
MODEL 2
REMARK VINA RESULT:     -12.5      0.426      5.698
REMARK SMILES O=C(NCCCCNC(=O)c1ccc(-c2c3nc(c(-c4ccccc4)c4ccc([nH]4)c(-c4ccccc4)c4nc(c(-c5ccccc5)c5ccc2[nH]5)C=C4)C=C3)cc1)C1=Cc2cc(Cl)cc(-c3ccc(CO)cc3)c2O[C@@H]1C(F)(F)F
REMARK SMILES IDX 5 1 4 2 3 3 1 4 2 5 59 7 60 8 77 9 61 10 76 11 62 12 75 13
REMARK SMILES IDX 63 14 66 15 64 16 65 17 78 18 79 19 80 20 81 21 67 22 68 23
REMARK SMILES IDX 74 24 69 25 73 26 70 27 71 28 72 29 6 31 7 32 8 33 9 34
REMARK SMILES IDX 10 36 11 37 12 38 58 39 13 40 57 41 14 42 15 43 16 44 51 45
REMARK SMILES IDX 17 46 56 47 50 48 52 49 18 50 55 51 49 52 48 53 19 55 41 56
REMARK SMILES IDX 26 57 40 58 27 59 30 60 39 61 53 62 28 63 29 64 38 66 54 67
REMARK SMILES IDX 31 68 20 69 21 70 25 71 22 72 24 73 23 74 42 75 43 76 47 77
REMARK SMILES IDX 44 78 46 79 45 80 32 81 33 82 37 83 34 84 36 85 35 86
REMARK H PARENT 3 6 72 30 8 35 52 54 30 65
REMARK Flexibility Score: inf
ROOT
ATOM      1  C   UNL A   1      32.419  27.334  26.106  1.00  0.00     0.023 C 
ENDROOT
BRANCH   1   2
ATOM      2  C   UNL A   1      31.101  26.556  26.206  1.00  0.00     0.116 C 
BRANCH   2   3
ATOM      3  N   UNL A   1      31.230  25.255  26.866  1.00  0.00    -0.352 N 
ATOM      4  O   UNL A   1      32.244  23.374  27.558  1.00  0.00    -0.270 OA
ATOM      5  C   UNL A   1      32.065  24.188  26.655  1.00  0.00     0.251 C 
ATOM      6  H   UNL A   1      30.594  25.120  27.605  1.00  0.00     0.163 HD
BRANCH   5   7
ATOM      7  C   UNL A   1      32.834  24.050  25.396  1.00  0.00     0.067 C 
ATOM      8  C   UNL A   1      34.151  24.284  25.389  1.00  0.00     0.025 C 
ATOM      9  C   UNL A   1      32.261  23.108  24.381  1.00  0.00     0.314 C 
ATOM     10  C   UNL A   1      34.974  23.137  25.017  1.00  0.00     0.019 A 
ATOM     11  O   UNL A   1      32.997  21.862  24.347  1.00  0.00    -0.475 OA
ATOM     12  C   UNL A   1      36.317  23.157  25.400  1.00  0.00     0.032 A 
ATOM     13  C   UNL A   1      34.338  21.926  24.662  1.00  0.00     0.135 A 
ATOM     14  C   UNL A   1      37.008  21.958  25.501  1.00  0.00     0.042 A 
ATOM     15  C   UNL A   1      35.023  20.711  24.815  1.00  0.00     0.026 A 
ATOM     16  Cl  UNL A   1      38.609  21.954  26.130  1.00  0.00    -0.084 Cl
ATOM     17  C   UNL A   1      36.370  20.749  25.226  1.00  0.00     0.033 A 
BRANCH   9  18
ATOM     18  C   UNL A   1      32.195  23.789  22.993  1.00  0.00     0.429 C 
ATOM     19  F   UNL A   1      32.332  22.889  21.991  1.00  0.00    -0.167 F 
ATOM     20  F   UNL A   1      31.006  24.413  22.800  1.00  0.00    -0.167 F 
ATOM     21  F   UNL A   1      33.161  24.725  22.822  1.00  0.00    -0.167 F 
ENDBRANCH   9  18
BRANCH  15  22
ATOM     22  C   UNL A   1      34.345  19.408  24.805  1.00  0.00    -0.015 A 
ATOM     23  C   UNL A   1      33.110  19.272  25.463  1.00  0.00     0.009 A 
ATOM     24  C   UNL A   1      34.953  18.262  24.287  1.00  0.00     0.009 A 
ATOM     25  C   UNL A   1      32.544  18.017  25.684  1.00  0.00     0.007 A 
ATOM     26  C   UNL A   1      34.383  17.002  24.499  1.00  0.00     0.007 A 
ATOM     27  C   UNL A   1      33.195  16.867  25.230  1.00  0.00    -0.023 A 
BRANCH  27  28
ATOM     28  C   UNL A   1      32.662  15.513  25.611  1.00  0.00     0.191 C 
BRANCH  28  29
ATOM     29  O   UNL A   1      33.683  14.536  25.433  1.00  0.00    -0.392 OA
ATOM     30  H   UNL A   1      34.138  14.694  24.590  1.00  0.00     0.211 HD
ENDBRANCH  28  29
ENDBRANCH  27  28
ENDBRANCH  15  22
ENDBRANCH   5   7
ENDBRANCH   2   3
ENDBRANCH   1   2
BRANCH   1  31
ATOM     31  C   UNL A   1      32.531  28.520  27.076  1.00  0.00     0.023 C 
BRANCH  31  32
ATOM     32  C   UNL A   1      33.688  29.497  26.864  1.00  0.00     0.116 C 
BRANCH  32  33
ATOM     33  N   UNL A   1      33.751  30.603  27.805  1.00  0.00    -0.352 N 
ATOM     34  C   UNL A   1      34.798  30.934  28.645  1.00  0.00     0.251 C 
ATOM     35  H   UNL A   1      32.958  31.184  27.850  1.00  0.00     0.163 HD
ATOM     36  O   UNL A   1      34.707  31.886  29.420  1.00  0.00    -0.269 OA
BRANCH  34  37
ATOM     37  C   UNL A   1      36.015  30.088  28.665  1.00  0.00     0.039 A 
ATOM     38  C   UNL A   1      36.849  30.083  27.544  1.00  0.00     0.014 A 
ATOM     39  C   UNL A   1      36.386  29.390  29.819  1.00  0.00     0.014 A 
ATOM     40  C   UNL A   1      38.116  29.498  27.627  1.00  0.00     0.010 A 
ATOM     41  C   UNL A   1      37.671  28.855  29.919  1.00  0.00     0.010 A 
ATOM     42  C   UNL A   1      38.564  28.949  28.842  1.00  0.00    -0.014 A 
BRANCH  42  43
ATOM     43  C   UNL A   1      40.004  28.628  29.036  1.00  0.00     0.031 A 
ATOM     44  C   UNL A   1      40.583  27.303  28.640  1.00  0.00     0.074 A 
ATOM     45  C   UNL A   1      40.786  29.532  29.661  1.00  0.00     0.049 A 
ATOM     46  N   UNL A   1      41.824  26.891  28.728  1.00  0.00    -0.248 NA
ATOM     47  C   UNL A   1      39.652  26.306  28.095  1.00  0.00     0.031 C 
ATOM     48  C   UNL A   1      40.334  30.830  30.171  1.00  0.00     0.029 A 
ATOM     49  N   UNL A   1      42.119  29.495  29.988  1.00  0.00    -0.354 N 
ATOM     50  C   UNL A   1      41.827  25.591  28.243  1.00  0.00     0.074 A 
ATOM     51  C   UNL A   1      40.454  25.266  27.910  1.00  0.00     0.031 C 
ATOM     52  C   UNL A   1      41.374  31.472  30.723  1.00  0.00     0.029 A 
ATOM     53  C   UNL A   1      42.558  30.624  30.636  1.00  0.00     0.049 A 
ATOM     54  H   UNL A   1      42.705  28.732  29.777  1.00  0.00     0.167 HD
ATOM     55  C   UNL A   1      42.876  24.749  28.074  1.00  0.00     0.031 A 
ATOM     56  C   UNL A   1      43.775  30.949  31.112  1.00  0.00     0.031 A 
ATOM     57  C   UNL A   1      44.237  25.058  28.430  1.00  0.00     0.049 A 
ATOM     58  C   UNL A   1      44.919  29.995  30.934  1.00  0.00     0.074 A 
ATOM     59  C   UNL A   1      45.377  24.297  28.226  1.00  0.00     0.029 A 
ATOM     60  N   UNL A   1      44.642  26.210  29.088  1.00  0.00    -0.354 N 
ATOM     61  N   UNL A   1      44.924  28.816  30.364  1.00  0.00    -0.248 NA
ATOM     62  C   UNL A   1      46.225  30.422  31.457  1.00  0.00     0.031 C 
ATOM     63  C   UNL A   1      46.461  24.962  28.813  1.00  0.00     0.029 A 
ATOM     64  C   UNL A   1      46.005  26.161  29.337  1.00  0.00     0.049 A 
ATOM     65  H   UNL A   1      44.048  26.952  29.342  1.00  0.00     0.167 HD
ATOM     66  C   UNL A   1      46.234  28.361  30.449  1.00  0.00     0.074 A 
ATOM     67  C   UNL A   1      46.998  29.402  31.107  1.00  0.00     0.031 C 
ATOM     68  C   UNL A   1      46.752  27.185  30.019  1.00  0.00     0.031 A 
BRANCH  55  69
ATOM     69  C   UNL A   1      42.582  23.398  27.482  1.00  0.00    -0.014 A 
ATOM     70  C   UNL A   1      42.894  23.111  26.144  1.00  0.00     0.009 A 
ATOM     71  C   UNL A   1      42.010  22.392  28.277  1.00  0.00     0.009 A 
ATOM     72  C   UNL A   1      42.598  21.859  25.601  1.00  0.00     0.001 A 
ATOM     73  C   UNL A   1      41.740  21.133  27.739  1.00  0.00     0.001 A 
ATOM     74  C   UNL A   1      42.023  20.871  26.399  1.00  0.00     0.000 A 
ENDBRANCH  55  69
BRANCH  56  75
ATOM     75  C   UNL A   1      43.967  32.253  31.796  1.00  0.00    -0.014 A 
ATOM     76  C   UNL A   1      43.815  32.358  33.186  1.00  0.00     0.009 A 
ATOM     77  C   UNL A   1      44.340  33.391  31.063  1.00  0.00     0.009 A 
ATOM     78  C   UNL A   1      44.023  33.581  33.828  1.00  0.00     0.001 A 
ATOM     79  C   UNL A   1      44.570  34.606  31.711  1.00  0.00     0.001 A 
ATOM     80  C   UNL A   1      44.407  34.701  33.092  1.00  0.00     0.000 A 
ENDBRANCH  56  75
BRANCH  68  81
ATOM     81  C   UNL A   1      48.218  26.958  30.258  1.00  0.00    -0.014 A 
ATOM     82  C   UNL A   1      49.180  27.416  29.341  1.00  0.00     0.009 A 
ATOM     83  C   UNL A   1      48.647  26.307  31.425  1.00  0.00     0.009 A 
ATOM     84  C   UNL A   1      50.539  27.201  29.578  1.00  0.00     0.001 A 
ATOM     85  C   UNL A   1      50.008  26.117  31.671  1.00  0.00     0.001 A 
ATOM     86  C   UNL A   1      50.952  26.556  30.743  1.00  0.00     0.000 A 
ENDBRANCH  68  81
ENDBRANCH  42  43
ENDBRANCH  34  37
ENDBRANCH  32  33
ENDBRANCH  31  32
ENDBRANCH   1  31
TORSDOF 15
ENDMDL
MODEL 3
REMARK VINA RESULT:     -12.5      2.516      6.586
REMARK SMILES O=C(NCCCCNC(=O)c1ccc(-c2c3nc(c(-c4ccccc4)c4ccc([nH]4)c(-c4ccccc4)c4nc(c(-c5ccccc5)c5ccc2[nH]5)C=C4)C=C3)cc1)C1=Cc2cc(Cl)cc(-c3ccc(CO)cc3)c2O[C@@H]1C(F)(F)F
REMARK SMILES IDX 5 1 4 2 3 3 1 4 2 5 59 7 60 8 77 9 61 10 76 11 62 12 75 13
REMARK SMILES IDX 63 14 66 15 64 16 65 17 78 18 79 19 80 20 81 21 67 22 68 23
REMARK SMILES IDX 74 24 69 25 73 26 70 27 71 28 72 29 6 31 7 32 8 33 9 34
REMARK SMILES IDX 10 36 11 37 12 38 58 39 13 40 57 41 14 42 15 43 16 44 51 45
REMARK SMILES IDX 17 46 56 47 50 48 52 49 18 50 55 51 49 52 48 53 19 55 41 56
REMARK SMILES IDX 26 57 40 58 27 59 30 60 39 61 53 62 28 63 29 64 38 66 54 67
REMARK SMILES IDX 31 68 20 69 21 70 25 71 22 72 24 73 23 74 42 75 43 76 47 77
REMARK SMILES IDX 44 78 46 79 45 80 32 81 33 82 37 83 34 84 36 85 35 86
REMARK H PARENT 3 6 72 30 8 35 52 54 30 65
REMARK Flexibility Score: inf
ROOT
ATOM      1  C   UNL A   1      32.748  27.824  26.730  1.00  0.00     0.023 C 
ENDROOT
BRANCH   1   2
ATOM      2  C   UNL A   1      31.707  26.901  26.084  1.00  0.00     0.116 C 
BRANCH   2   3
ATOM      3  N   UNL A   1      31.623  25.577  26.705  1.00  0.00    -0.352 N 
ATOM      4  O   UNL A   1      32.326  23.547  27.357  1.00  0.00    -0.270 OA
ATOM      5  C   UNL A   1      32.294  24.403  26.477  1.00  0.00     0.251 C 
ATOM      6  H   UNL A   1      30.956  25.518  27.425  1.00  0.00     0.163 HD
BRANCH   5   7
ATOM      7  C   UNL A   1      33.066  24.186  25.231  1.00  0.00     0.067 C 
ATOM      8  C   UNL A   1      34.393  24.351  25.230  1.00  0.00     0.025 C 
ATOM      9  C   UNL A   1      32.452  23.244  24.239  1.00  0.00     0.314 C 
ATOM     10  C   UNL A   1      35.157  23.152  24.902  1.00  0.00     0.019 A 
ATOM     11  O   UNL A   1      33.122  21.961  24.251  1.00  0.00    -0.475 OA
ATOM     12  C   UNL A   1      36.496  23.114  25.297  1.00  0.00     0.032 A 
ATOM     13  C   UNL A   1      34.462  21.965  24.577  1.00  0.00     0.135 A 
ATOM     14  C   UNL A   1      37.123  21.884  25.441  1.00  0.00     0.042 A 
ATOM     15  C   UNL A   1      35.081  20.722  24.774  1.00  0.00     0.026 A 
ATOM     16  Cl  UNL A   1      38.716  21.816  26.086  1.00  0.00    -0.084 Cl
ATOM     17  C   UNL A   1      36.425  20.702  25.197  1.00  0.00     0.033 A 
BRANCH   9  18
ATOM     18  C   UNL A   1      32.434  23.885  22.831  1.00  0.00     0.429 C 
ATOM     19  F   UNL A   1      31.213  24.386  22.529  1.00  0.00    -0.167 F 
ATOM     20  F   UNL A   1      33.313  24.914  22.740  1.00  0.00    -0.167 F 
ATOM     21  F   UNL A   1      32.757  23.006  21.850  1.00  0.00    -0.167 F 
ENDBRANCH   9  18
BRANCH  15  22
ATOM     22  C   UNL A   1      34.336  19.456  24.797  1.00  0.00    -0.015 A 
ATOM     23  C   UNL A   1      33.145  19.374  25.539  1.00  0.00     0.009 A 
ATOM     24  C   UNL A   1      34.844  18.288  24.223  1.00  0.00     0.009 A 
ATOM     25  C   UNL A   1      32.530  18.147  25.784  1.00  0.00     0.007 A 
ATOM     26  C   UNL A   1      34.225  17.056  24.460  1.00  0.00     0.007 A 
ATOM     27  C   UNL A   1      33.086  16.971  25.272  1.00  0.00    -0.023 A 
BRANCH  27  28
ATOM     28  C   UNL A   1      32.510  15.642  25.674  1.00  0.00     0.191 C 
BRANCH  28  29
ATOM     29  O   UNL A   1      33.463  14.616  25.414  1.00  0.00    -0.392 OA
ATOM     30  H   UNL A   1      33.599  14.090  26.218  1.00  0.00     0.211 HD
ENDBRANCH  28  29
ENDBRANCH  27  28
ENDBRANCH  15  22
ENDBRANCH   5   7
ENDBRANCH   2   3
ENDBRANCH   1   2
BRANCH   1  31
ATOM     31  C   UNL A   1      32.190  29.175  27.205  1.00  0.00     0.023 C 
BRANCH  31  32
ATOM     32  C   UNL A   1      33.093  30.400  27.059  1.00  0.00     0.116 C 
BRANCH  32  33
ATOM     33  N   UNL A   1      32.407  31.682  27.046  1.00  0.00    -0.352 N 
ATOM     34  C   UNL A   1      32.834  32.869  27.610  1.00  0.00     0.251 C 
ATOM     35  H   UNL A   1      31.540  31.708  26.581  1.00  0.00     0.163 HD
ATOM     36  O   UNL A   1      32.136  33.881  27.551  1.00  0.00    -0.269 OA
BRANCH  34  37
ATOM     37  C   UNL A   1      34.112  32.905  28.359  1.00  0.00     0.039 A 
ATOM     38  C   UNL A   1      34.130  32.455  29.682  1.00  0.00     0.014 A 
ATOM     39  C   UNL A   1      35.304  33.278  27.730  1.00  0.00     0.014 A 
ATOM     40  C   UNL A   1      35.353  32.245  30.325  1.00  0.00     0.010 A 
ATOM     41  C   UNL A   1      36.526  33.018  28.352  1.00  0.00     0.010 A 
ATOM     42  C   UNL A   1      36.561  32.452  29.636  1.00  0.00    -0.014 A 
BRANCH  42  43
ATOM     43  C   UNL A   1      37.840  31.926  30.185  1.00  0.00     0.031 A 
ATOM     44  C   UNL A   1      38.474  30.672  29.663  1.00  0.00     0.074 A 
ATOM     45  C   UNL A   1      38.396  32.560  31.238  1.00  0.00     0.049 A 
ATOM     46  N   UNL A   1      39.599  30.108  30.028  1.00  0.00    -0.248 NA
ATOM     47  C   UNL A   1      37.747  29.948  28.611  1.00  0.00     0.031 C 
ATOM     48  C   UNL A   1      37.843  33.747  31.898  1.00  0.00     0.029 A 
ATOM     49  N   UNL A   1      39.540  32.291  31.949  1.00  0.00    -0.354 N 
ATOM     50  C   UNL A   1      39.721  28.966  29.249  1.00  0.00     0.074 A 
ATOM     51  C   UNL A   1      38.529  28.893  28.426  1.00  0.00     0.031 C 
ATOM     52  C   UNL A   1      38.657  34.114  32.898  1.00  0.00     0.029 A 
ATOM     53  C   UNL A   1      39.773  33.176  32.972  1.00  0.00     0.049 A 
ATOM     54  H   UNL A   1      40.136  31.535  31.743  1.00  0.00     0.167 HD
ATOM     55  C   UNL A   1      40.737  28.070  29.208  1.00  0.00     0.031 A 
ATOM     56  C   UNL A   1      40.769  33.235  33.877  1.00  0.00     0.031 A 
ATOM     57  C   UNL A   1      41.909  28.124  30.044  1.00  0.00     0.049 A 
ATOM     58  C   UNL A   1      41.873  32.222  33.829  1.00  0.00     0.074 A 
ATOM     59  C   UNL A   1      43.025  27.303  30.021  1.00  0.00     0.029 A 
ATOM     60  N   UNL A   1      42.107  29.034  31.072  1.00  0.00    -0.354 N 
ATOM     61  N   UNL A   1      42.031  31.216  33.003  1.00  0.00    -0.248 NA
ATOM     62  C   UNL A   1      42.941  32.357  34.830  1.00  0.00     0.031 C 
ATOM     63  C   UNL A   1      43.869  27.679  31.072  1.00  0.00     0.029 A 
ATOM     64  C   UNL A   1      43.305  28.767  31.718  1.00  0.00     0.049 A 
ATOM     65  H   UNL A   1      41.487  29.761  31.309  1.00  0.00     0.167 HD
ATOM     66  C   UNL A   1      43.220  30.603  33.377  1.00  0.00     0.074 A 
ATOM     67  C   UNL A   1      43.752  31.363  34.490  1.00  0.00     0.031 C 
ATOM     68  C   UNL A   1      43.813  29.508  32.843  1.00  0.00     0.031 A 
BRANCH  55  69
ATOM     69  C   UNL A   1      40.613  26.940  28.224  1.00  0.00    -0.014 A 
ATOM     70  C   UNL A   1      41.142  27.048  26.927  1.00  0.00     0.009 A 
ATOM     71  C   UNL A   1      39.986  25.743  28.603  1.00  0.00     0.009 A 
ATOM     72  C   UNL A   1      41.004  25.999  26.016  1.00  0.00     0.001 A 
ATOM     73  C   UNL A   1      39.873  24.686  27.698  1.00  0.00     0.001 A 
ATOM     74  C   UNL A   1      40.372  24.818  26.403  1.00  0.00     0.000 A 
ENDBRANCH  55  69
BRANCH  56  75
ATOM     75  C   UNL A   1      40.763  34.311  34.901  1.00  0.00    -0.014 A 
ATOM     76  C   UNL A   1      41.363  35.550  34.637  1.00  0.00     0.009 A 
ATOM     77  C   UNL A   1      40.122  34.113  36.134  1.00  0.00     0.009 A 
ATOM     78  C   UNL A   1      41.331  36.567  35.592  1.00  0.00     0.001 A 
ATOM     79  C   UNL A   1      40.071  35.140  37.079  1.00  0.00     0.001 A 
ATOM     80  C   UNL A   1      40.680  36.364  36.809  1.00  0.00     0.000 A 
ENDBRANCH  56  75
BRANCH  68  81
ATOM     81  C   UNL A   1      45.104  29.060  33.466  1.00  0.00    -0.014 A 
ATOM     82  C   UNL A   1      45.117  28.117  34.508  1.00  0.00     0.009 A 
ATOM     83  C   UNL A   1      46.326  29.560  32.988  1.00  0.00     0.009 A 
ATOM     84  C   UNL A   1      46.325  27.707  35.075  1.00  0.00     0.001 A 
ATOM     85  C   UNL A   1      47.533  29.128  33.539  1.00  0.00     0.001 A 
ATOM     86  C   UNL A   1      47.531  28.209  34.588  1.00  0.00     0.000 A 
ENDBRANCH  68  81
ENDBRANCH  42  43
ENDBRANCH  34  37
ENDBRANCH  32  33
ENDBRANCH  31  32
ENDBRANCH   1  31
TORSDOF 15
ENDMDL
