MODEL 1
REMARK VINA RESULT:     -11.7      0.000      0.000
REMARK SMILES O=C(NCCCCNC(=O)c1cccc2cccc(C(=O)NC3COC3)c12)c1ccc(-c2c3nc(c(-c4ccccc4)c4ccc([nH]4)c(-c4ccccc4)c4nc(c(-c5ccccc5)c5ccc2[nH]5)C=C4)C=C3)cc1
REMARK SMILES IDX 5 1 4 2 3 3 1 4 2 5 28 7 29 8 75 9 30 10 74 11 31 12 32 13
REMARK SMILES IDX 33 14 68 15 34 16 73 17 67 18 69 19 35 20 72 21 66 22 65 23
REMARK SMILES IDX 36 25 58 26 43 27 57 28 44 29 47 30 56 31 70 32 45 33 46 34
REMARK SMILES IDX 55 36 71 37 48 38 37 39 38 40 42 41 39 42 41 43 40 44 59 45
REMARK SMILES IDX 60 46 64 47 61 48 63 49 62 50 49 51 50 52 54 53 51 54 53 55
REMARK SMILES IDX 52 56 6 57 7 58 8 59 9 60 10 62 11 63 12 64 27 65 13 66
REMARK SMILES IDX 15 67 19 68 14 69 16 70 18 71 17 72 20 73 21 74 22 75 23 77
REMARK SMILES IDX 24 78 26 79 25 80
REMARK H PARENT 3 6 69 24 47 35 8 61 22 76
REMARK Flexibility Score: inf
ROOT
ATOM      1  C   UNL A   1      37.821  19.551  24.771  1.00  0.00     0.023 C 
ENDROOT
BRANCH   1   2
ATOM      2  C   UNL A   1      38.914  19.948  25.751  1.00  0.00     0.116 C 
BRANCH   2   3
ATOM      3  N   UNL A   1      40.028  19.012  25.793  1.00  0.00    -0.352 N 
ATOM      4  O   UNL A   1      42.176  18.336  25.905  1.00  0.00    -0.269 OA
ATOM      5  C   UNL A   1      41.364  19.244  26.036  1.00  0.00     0.251 C 
ATOM      6  H   UNL A   1      39.790  18.071  25.623  1.00  0.00     0.163 HD
BRANCH   5   7
ATOM      7  C   UNL A   1      41.829  20.592  26.442  1.00  0.00     0.039 A 
ATOM      8  C   UNL A   1      42.167  21.548  25.485  1.00  0.00     0.014 A 
ATOM      9  C   UNL A   1      41.902  20.914  27.802  1.00  0.00     0.014 A 
ATOM     10  C   UNL A   1      42.721  22.759  25.878  1.00  0.00     0.010 A 
ATOM     11  C   UNL A   1      42.352  22.178  28.198  1.00  0.00     0.010 A 
ATOM     12  C   UNL A   1      42.783  23.106  27.238  1.00  0.00    -0.014 A 
BRANCH  12  13
ATOM     13  C   UNL A   1      43.193  24.485  27.606  1.00  0.00     0.031 A 
ATOM     14  C   UNL A   1      44.629  24.921  27.558  1.00  0.00     0.074 A 
ATOM     15  C   UNL A   1      42.230  25.357  27.966  1.00  0.00     0.049 A 
ATOM     16  N   UNL A   1      45.139  26.097  27.831  1.00  0.00    -0.248 NA
ATOM     17  C   UNL A   1      45.623  23.913  27.161  1.00  0.00     0.031 C 
ATOM     18  C   UNL A   1      40.800  25.044  28.054  1.00  0.00     0.029 A 
ATOM     19  N   UNL A   1      42.297  26.684  28.300  1.00  0.00    -0.354 N 
ATOM     20  C   UNL A   1      46.511  25.967  27.660  1.00  0.00     0.074 A 
ATOM     21  C   UNL A   1      46.758  24.590  27.283  1.00  0.00     0.031 C 
ATOM     22  C   UNL A   1      40.121  26.159  28.353  1.00  0.00     0.029 A 
ATOM     23  C   UNL A   1      41.071  27.243  28.566  1.00  0.00     0.049 A 
ATOM     24  H   UNL A   1      43.142  27.189  28.345  1.00  0.00     0.167 HD
ATOM     25  C   UNL A   1      47.474  26.910  27.803  1.00  0.00     0.031 A 
ATOM     26  C   UNL A   1      40.739  28.484  28.965  1.00  0.00     0.031 A 
ATOM     27  C   UNL A   1      47.218  28.274  28.193  1.00  0.00     0.049 A 
ATOM     28  C   UNL A   1      41.831  29.490  29.167  1.00  0.00     0.074 A 
ATOM     29  C   UNL A   1      48.120  29.313  28.341  1.00  0.00     0.029 A 
ATOM     30  N   UNL A   1      45.967  28.786  28.506  1.00  0.00    -0.354 N 
ATOM     31  N   UNL A   1      43.120  29.360  28.968  1.00  0.00    -0.248 NA
ATOM     32  C   UNL A   1      41.423  30.814  29.653  1.00  0.00     0.031 C 
ATOM     33  C   UNL A   1      47.426  30.435  28.807  1.00  0.00     0.029 A 
ATOM     34  C   UNL A   1      46.079  30.116  28.880  1.00  0.00     0.049 A 
ATOM     35  H   UNL A   1      45.124  28.280  28.468  1.00  0.00     0.167 HD
ATOM     36  C   UNL A   1      43.677  30.589  29.286  1.00  0.00     0.074 A 
ATOM     37  C   UNL A   1      42.580  31.458  29.665  1.00  0.00     0.031 C 
ATOM     38  C   UNL A   1      44.979  30.964  29.266  1.00  0.00     0.031 A 
BRANCH  25  39
ATOM     39  C   UNL A   1      48.902  26.489  27.579  1.00  0.00    -0.014 A 
ATOM     40  C   UNL A   1      49.705  26.018  28.630  1.00  0.00     0.009 A 
ATOM     41  C   UNL A   1      49.443  26.528  26.283  1.00  0.00     0.009 A 
ATOM     42  C   UNL A   1      51.029  25.636  28.395  1.00  0.00     0.001 A 
ATOM     43  C   UNL A   1      50.756  26.116  26.046  1.00  0.00     0.001 A 
ATOM     44  C   UNL A   1      51.551  25.681  27.103  1.00  0.00     0.000 A 
ENDBRANCH  25  39
BRANCH  26  45
ATOM     45  C   UNL A   1      39.316  28.824  29.221  1.00  0.00    -0.014 A 
ATOM     46  C   UNL A   1      38.746  28.617  30.487  1.00  0.00     0.009 A 
ATOM     47  C   UNL A   1      38.522  29.377  28.203  1.00  0.00     0.009 A 
ATOM     48  C   UNL A   1      37.406  28.937  30.718  1.00  0.00     0.001 A 
ATOM     49  C   UNL A   1      37.195  29.729  28.447  1.00  0.00     0.001 A 
ATOM     50  C   UNL A   1      36.634  29.499  29.702  1.00  0.00     0.000 A 
ENDBRANCH  26  45
BRANCH  38  51
ATOM     51  C   UNL A   1      45.280  32.390  29.638  1.00  0.00    -0.014 A 
ATOM     52  C   UNL A   1      45.585  32.753  30.959  1.00  0.00     0.009 A 
ATOM     53  C   UNL A   1      45.279  33.380  28.643  1.00  0.00     0.009 A 
ATOM     54  C   UNL A   1      45.844  34.087  31.282  1.00  0.00     0.001 A 
ATOM     55  C   UNL A   1      45.572  34.706  28.963  1.00  0.00     0.001 A 
ATOM     56  C   UNL A   1      45.842  35.060  30.283  1.00  0.00     0.000 A 
ENDBRANCH  38  51
ENDBRANCH  12  13
ENDBRANCH   5   7
ENDBRANCH   2   3
ENDBRANCH   1   2
BRANCH   1  57
ATOM     57  C   UNL A   1      36.461  20.199  25.001  1.00  0.00     0.023 C 
BRANCH  57  58
ATOM     58  C   UNL A   1      36.451  21.610  25.596  1.00  0.00     0.116 C 
BRANCH  58  59
ATOM     59  N   UNL A   1      35.432  21.877  26.615  1.00  0.00    -0.352 N 
ATOM     60  C   UNL A   1      34.121  21.448  26.772  1.00  0.00     0.251 C 
ATOM     61  H   UNL A   1      35.738  22.480  27.329  1.00  0.00     0.163 HD
ATOM     62  O   UNL A   1      33.498  21.793  27.769  1.00  0.00    -0.269 OA
BRANCH  60  63
ATOM     63  C   UNL A   1      33.474  20.580  25.761  1.00  0.00     0.048 A 
ATOM     64  C   UNL A   1      33.289  19.251  26.192  1.00  0.00     0.014 A 
ATOM     65  C   UNL A   1      33.023  21.028  24.456  1.00  0.00     0.007 A 
ATOM     66  C   UNL A   1      32.826  18.281  25.326  1.00  0.00     0.001 A 
ATOM     67  C   UNL A   1      32.536  19.979  23.609  1.00  0.00    -0.017 A 
ATOM     68  C   UNL A   1      32.972  22.346  23.854  1.00  0.00     0.048 A 
ATOM     69  C   UNL A   1      32.478  18.645  24.038  1.00  0.00     0.009 A 
ATOM     70  C   UNL A   1      32.075  20.218  22.305  1.00  0.00     0.009 A 
ATOM     71  C   UNL A   1      32.463  22.549  22.547  1.00  0.00     0.014 A 
ATOM     72  C   UNL A   1      32.028  21.493  21.772  1.00  0.00     0.001 A 
BRANCH  68  73
ATOM     73  C   UNL A   1      33.346  23.651  24.451  1.00  0.00     0.252 C 
ATOM     74  O   UNL A   1      34.501  24.056  24.325  1.00  0.00    -0.269 OA
ATOM     75  N   UNL A   1      32.515  24.261  25.364  1.00  0.00    -0.345 N 
ATOM     76  H   UNL A   1      32.950  24.873  26.000  1.00  0.00     0.164 HD
BRANCH  75  77
ATOM     77  C   UNL A   1      31.069  24.114  25.504  1.00  0.00     0.134 C 
ATOM     78  C   UNL A   1      30.507  23.345  26.699  1.00  0.00     0.187 C 
ATOM     79  C   UNL A   1      30.284  25.287  26.086  1.00  0.00     0.187 C 
ATOM     80  O   UNL A   1      29.504  24.376  26.912  1.00  0.00    -0.377 OA
ENDBRANCH  75  77
ENDBRANCH  68  73
ENDBRANCH  60  63
ENDBRANCH  58  59
ENDBRANCH  57  58
ENDBRANCH   1  57
TORSDOF 13
ENDMDL
MODEL 2
REMARK VINA RESULT:     -11.7      0.222      5.916
REMARK SMILES O=C(NCCCCNC(=O)c1cccc2cccc(C(=O)NC3COC3)c12)c1ccc(-c2c3nc(c(-c4ccccc4)c4ccc([nH]4)c(-c4ccccc4)c4nc(c(-c5ccccc5)c5ccc2[nH]5)C=C4)C=C3)cc1
REMARK SMILES IDX 5 1 4 2 3 3 1 4 2 5 28 7 29 8 75 9 30 10 74 11 31 12 32 13
REMARK SMILES IDX 33 14 68 15 34 16 73 17 67 18 69 19 35 20 72 21 66 22 65 23
REMARK SMILES IDX 36 25 58 26 43 27 57 28 44 29 47 30 56 31 70 32 45 33 46 34
REMARK SMILES IDX 55 36 71 37 48 38 37 39 38 40 42 41 39 42 41 43 40 44 59 45
REMARK SMILES IDX 60 46 64 47 61 48 63 49 62 50 49 51 50 52 54 53 51 54 53 55
REMARK SMILES IDX 52 56 6 57 7 58 8 59 9 60 10 62 11 63 12 64 27 65 13 66
REMARK SMILES IDX 15 67 19 68 14 69 16 70 18 71 17 72 20 73 21 74 22 75 23 77
REMARK SMILES IDX 24 78 26 79 25 80
REMARK H PARENT 3 6 69 24 47 35 8 61 22 76
REMARK Flexibility Score: inf
ROOT
ATOM      1  C   UNL A   1      37.952  19.576  24.764  1.00  0.00     0.023 C 
ENDROOT
BRANCH   1   2
ATOM      2  C   UNL A   1      38.993  19.937  25.812  1.00  0.00     0.116 C 
BRANCH   2   3
ATOM      3  N   UNL A   1      40.116  19.012  25.861  1.00  0.00    -0.352 N 
ATOM      4  O   UNL A   1      42.271  18.358  25.970  1.00  0.00    -0.269 OA
ATOM      5  C   UNL A   1      41.452  19.260  26.092  1.00  0.00     0.251 C 
ATOM      6  H   UNL A   1      39.887  18.067  25.706  1.00  0.00     0.163 HD
BRANCH   5   7
ATOM      7  C   UNL A   1      41.906  20.618  26.475  1.00  0.00     0.039 A 
ATOM      8  C   UNL A   1      42.173  21.582  25.503  1.00  0.00     0.014 A 
ATOM      9  C   UNL A   1      42.042  20.942  27.830  1.00  0.00     0.014 A 
ATOM     10  C   UNL A   1      42.719  22.805  25.869  1.00  0.00     0.010 A 
ATOM     11  C   UNL A   1      42.483  22.216  28.203  1.00  0.00     0.010 A 
ATOM     12  C   UNL A   1      42.843  23.153  27.223  1.00  0.00    -0.014 A 
BRANCH  12  13
ATOM     13  C   UNL A   1      43.240  24.541  27.572  1.00  0.00     0.031 A 
ATOM     14  C   UNL A   1      42.231  25.567  28.000  1.00  0.00     0.074 A 
ATOM     15  C   UNL A   1      44.550  24.857  27.520  1.00  0.00     0.049 A 
ATOM     16  N   UNL A   1      42.428  26.812  28.356  1.00  0.00    -0.248 NA
ATOM     17  C   UNL A   1      40.821  25.150  28.029  1.00  0.00     0.031 C 
ATOM     18  C   UNL A   1      45.621  23.943  27.114  1.00  0.00     0.029 A 
ATOM     19  N   UNL A   1      45.209  26.018  27.832  1.00  0.00    -0.354 N 
ATOM     20  C   UNL A   1      41.170  27.334  28.629  1.00  0.00     0.074 A 
ATOM     21  C   UNL A   1      40.212  26.277  28.375  1.00  0.00     0.031 C 
ATOM     22  C   UNL A   1      46.804  24.554  27.261  1.00  0.00     0.029 A 
ATOM     23  C   UNL A   1      46.571  25.928  27.686  1.00  0.00     0.049 A 
ATOM     24  H   UNL A   1      44.750  26.837  28.130  1.00  0.00     0.167 HD
ATOM     25  C   UNL A   1      40.845  28.580  29.054  1.00  0.00     0.031 A 
ATOM     26  C   UNL A   1      47.534  26.852  27.849  1.00  0.00     0.031 A 
ATOM     27  C   UNL A   1      41.805  29.629  29.290  1.00  0.00     0.049 A 
ATOM     28  C   UNL A   1      47.139  28.236  28.266  1.00  0.00     0.074 A 
ATOM     29  C   UNL A   1      41.581  30.917  29.746  1.00  0.00     0.029 A 
ATOM     30  N   UNL A   1      43.172  29.514  29.079  1.00  0.00    -0.354 N 
ATOM     31  N   UNL A   1      45.949  28.703  28.554  1.00  0.00    -0.248 NA
ATOM     32  C   UNL A   1      48.222  29.222  28.380  1.00  0.00     0.031 C 
ATOM     33  C   UNL A   1      42.802  31.600  29.747  1.00  0.00     0.029 A 
ATOM     34  C   UNL A   1      43.798  30.717  29.362  1.00  0.00     0.049 A 
ATOM     35  H   UNL A   1      43.629  28.698  28.774  1.00  0.00     0.167 HD
ATOM     36  C   UNL A   1      46.138  30.033  28.900  1.00  0.00     0.074 A 
ATOM     37  C   UNL A   1      47.563  30.288  28.811  1.00  0.00     0.031 C 
ATOM     38  C   UNL A   1      45.216  30.958  29.258  1.00  0.00     0.031 A 
BRANCH  25  39
ATOM     39  C   UNL A   1      39.385  28.892  29.250  1.00  0.00    -0.014 A 
ATOM     40  C   UNL A   1      38.750  28.693  30.486  1.00  0.00     0.009 A 
ATOM     41  C   UNL A   1      38.640  29.430  28.187  1.00  0.00     0.009 A 
ATOM     42  C   UNL A   1      37.392  28.989  30.641  1.00  0.00     0.001 A 
ATOM     43  C   UNL A   1      37.292  29.753  28.354  1.00  0.00     0.001 A 
ATOM     44  C   UNL A   1      36.666  29.522  29.577  1.00  0.00     0.000 A 
ENDBRANCH  25  39
BRANCH  26  45
ATOM     45  C   UNL A   1      48.953  26.498  27.588  1.00  0.00    -0.014 A 
ATOM     46  C   UNL A   1      49.784  26.050  28.626  1.00  0.00     0.009 A 
ATOM     47  C   UNL A   1      49.480  26.587  26.289  1.00  0.00     0.009 A 
ATOM     48  C   UNL A   1      51.118  25.723  28.372  1.00  0.00     0.001 A 
ATOM     49  C   UNL A   1      50.803  26.224  26.031  1.00  0.00     0.001 A 
ATOM     50  C   UNL A   1      51.623  25.802  27.075  1.00  0.00     0.000 A 
ENDBRANCH  26  45
BRANCH  38  51
ATOM     51  C   UNL A   1      45.730  32.327  29.610  1.00  0.00    -0.014 A 
ATOM     52  C   UNL A   1      45.828  33.343  28.647  1.00  0.00     0.009 A 
ATOM     53  C   UNL A   1      46.100  32.608  30.935  1.00  0.00     0.009 A 
ATOM     54  C   UNL A   1      46.325  34.600  28.996  1.00  0.00     0.001 A 
ATOM     55  C   UNL A   1      46.564  33.875  31.288  1.00  0.00     0.001 A 
ATOM     56  C   UNL A   1      46.687  34.866  30.316  1.00  0.00     0.000 A 
ENDBRANCH  38  51
ENDBRANCH  12  13
ENDBRANCH   5   7
ENDBRANCH   2   3
ENDBRANCH   1   2
BRANCH   1  57
ATOM     57  C   UNL A   1      36.555  20.135  25.003  1.00  0.00     0.023 C 
BRANCH  57  58
ATOM     58  C   UNL A   1      36.455  21.582  25.493  1.00  0.00     0.116 C 
BRANCH  58  59
ATOM     59  N   UNL A   1      35.459  21.847  26.535  1.00  0.00    -0.352 N 
ATOM     60  C   UNL A   1      34.154  21.411  26.723  1.00  0.00     0.251 C 
ATOM     61  H   UNL A   1      35.778  22.454  27.240  1.00  0.00     0.163 HD
ATOM     62  O   UNL A   1      33.553  21.755  27.734  1.00  0.00    -0.269 OA
BRANCH  60  63
ATOM     63  C   UNL A   1      33.489  20.536  25.731  1.00  0.00     0.048 A 
ATOM     64  C   UNL A   1      33.297  19.214  26.181  1.00  0.00     0.014 A 
ATOM     65  C   UNL A   1      33.028  20.971  24.425  1.00  0.00     0.007 A 
ATOM     66  C   UNL A   1      32.817  18.237  25.332  1.00  0.00     0.001 A 
ATOM     67  C   UNL A   1      32.523  19.915  23.597  1.00  0.00    -0.017 A 
ATOM     68  C   UNL A   1      32.982  22.281  23.807  1.00  0.00     0.048 A 
ATOM     69  C   UNL A   1      32.457  18.588  24.044  1.00  0.00     0.009 A 
ATOM     70  C   UNL A   1      32.049  20.142  22.295  1.00  0.00     0.009 A 
ATOM     71  C   UNL A   1      32.461  22.473  22.503  1.00  0.00     0.014 A 
ATOM     72  C   UNL A   1      32.008  21.411  21.747  1.00  0.00     0.001 A 
BRANCH  68  73
ATOM     73  C   UNL A   1      33.373  23.590  24.383  1.00  0.00     0.252 C 
ATOM     74  O   UNL A   1      34.526  23.992  24.224  1.00  0.00    -0.269 OA
ATOM     75  N   UNL A   1      32.567  24.210  25.311  1.00  0.00    -0.345 N 
ATOM     76  H   UNL A   1      33.020  24.827  25.931  1.00  0.00     0.164 HD
BRANCH  75  77
ATOM     77  C   UNL A   1      31.125  24.068  25.490  1.00  0.00     0.134 C 
ATOM     78  C   UNL A   1      30.592  23.331  26.718  1.00  0.00     0.187 C 
ATOM     79  C   UNL A   1      30.354  25.256  26.058  1.00  0.00     0.187 C 
ATOM     80  O   UNL A   1      29.594  24.369  26.926  1.00  0.00    -0.377 OA
ENDBRANCH  75  77
ENDBRANCH  68  73
ENDBRANCH  60  63
ENDBRANCH  58  59
ENDBRANCH  57  58
ENDBRANCH   1  57
TORSDOF 13
ENDMDL
MODEL 3
REMARK VINA RESULT:     -11.6      2.358      7.330
REMARK SMILES O=C(NCCCCNC(=O)c1cccc2cccc(C(=O)NC3COC3)c12)c1ccc(-c2c3nc(c(-c4ccccc4)c4ccc([nH]4)c(-c4ccccc4)c4nc(c(-c5ccccc5)c5ccc2[nH]5)C=C4)C=C3)cc1
REMARK SMILES IDX 5 1 4 2 3 3 1 4 2 5 28 7 29 8 75 9 30 10 74 11 31 12 32 13
REMARK SMILES IDX 33 14 68 15 34 16 73 17 67 18 69 19 35 20 72 21 66 22 65 23
REMARK SMILES IDX 36 25 58 26 43 27 57 28 44 29 47 30 56 31 70 32 45 33 46 34
REMARK SMILES IDX 55 36 71 37 48 38 37 39 38 40 42 41 39 42 41 43 40 44 59 45
REMARK SMILES IDX 60 46 64 47 61 48 63 49 62 50 49 51 50 52 54 53 51 54 53 55
REMARK SMILES IDX 52 56 6 57 7 58 8 59 9 60 10 62 11 63 12 64 27 65 13 66
REMARK SMILES IDX 15 67 19 68 14 69 16 70 18 71 17 72 20 73 21 74 22 75 23 77
REMARK SMILES IDX 24 78 26 79 25 80
REMARK H PARENT 3 6 69 24 47 35 8 61 22 76
REMARK Flexibility Score: inf
ROOT
ATOM      1  C   UNL A   1      32.393  27.802  26.882  1.00  0.00     0.023 C 
ENDROOT
BRANCH   1   2
ATOM      2  C   UNL A   1      33.735  28.476  27.119  1.00  0.00     0.116 C 
BRANCH   2   3
ATOM      3  N   UNL A   1      33.623  29.864  27.542  1.00  0.00    -0.352 N 
ATOM      4  O   UNL A   1      34.217  31.783  28.568  1.00  0.00    -0.269 OA
ATOM      5  C   UNL A   1      34.544  30.668  28.179  1.00  0.00     0.251 C 
ATOM      6  H   UNL A   1      32.759  30.294  27.343  1.00  0.00     0.163 HD
BRANCH   5   7
ATOM      7  C   UNL A   1      35.926  30.186  28.409  1.00  0.00     0.039 A 
ATOM      8  C   UNL A   1      36.900  30.308  27.418  1.00  0.00     0.014 A 
ATOM      9  C   UNL A   1      36.263  29.627  29.647  1.00  0.00     0.014 A 
ATOM     10  C   UNL A   1      38.152  29.738  27.600  1.00  0.00     0.010 A 
ATOM     11  C   UNL A   1      37.561  29.156  29.873  1.00  0.00     0.010 A 
ATOM     12  C   UNL A   1      38.513  29.192  28.842  1.00  0.00    -0.014 A 
BRANCH  12  13
ATOM     13  C   UNL A   1      39.922  28.777  29.060  1.00  0.00     0.031 A 
ATOM     14  C   UNL A   1      40.918  29.683  29.722  1.00  0.00     0.074 A 
ATOM     15  C   UNL A   1      40.285  27.539  28.668  1.00  0.00     0.049 A 
ATOM     16  N   UNL A   1      42.178  29.454  30.000  1.00  0.00    -0.248 NA
ATOM     17  C   UNL A   1      40.450  31.020  30.118  1.00  0.00     0.031 C 
ATOM     18  C   UNL A   1      39.402  26.570  28.010  1.00  0.00     0.029 A 
ATOM     19  N   UNL A   1      41.476  26.871  28.786  1.00  0.00    -0.354 N 
ATOM     20  C   UNL A   1      42.659  30.620  30.582  1.00  0.00     0.074 A 
ATOM     21  C   UNL A   1      41.561  31.565  30.596  1.00  0.00     0.031 C 
ATOM     22  C   UNL A   1      40.060  25.416  27.841  1.00  0.00     0.029 A 
ATOM     23  C   UNL A   1      41.434  25.589  28.295  1.00  0.00     0.049 A 
ATOM     24  H   UNL A   1      42.284  27.271  29.182  1.00  0.00     0.167 HD
ATOM     25  C   UNL A   1      43.901  30.876  31.061  1.00  0.00     0.031 A 
ATOM     26  C   UNL A   1      42.397  24.656  28.193  1.00  0.00     0.031 A 
ATOM     27  C   UNL A   1      44.990  29.932  31.029  1.00  0.00     0.049 A 
ATOM     28  C   UNL A   1      43.774  24.987  28.681  1.00  0.00     0.074 A 
ATOM     29  C   UNL A   1      46.278  30.085  31.512  1.00  0.00     0.029 A 
ATOM     30  N   UNL A   1      44.921  28.662  30.474  1.00  0.00    -0.354 N 
ATOM     31  N   UNL A   1      44.203  26.083  29.260  1.00  0.00    -0.248 NA
ATOM     32  C   UNL A   1      44.802  23.954  28.500  1.00  0.00     0.031 C 
ATOM     33  C   UNL A   1      47.007  28.935  31.190  1.00  0.00     0.029 A 
ATOM     34  C   UNL A   1      46.153  28.035  30.572  1.00  0.00     0.049 A 
ATOM     35  H   UNL A   1      44.116  28.265  30.071  1.00  0.00     0.167 HD
ATOM     36  C   UNL A   1      45.546  25.866  29.530  1.00  0.00     0.074 A 
ATOM     37  C   UNL A   1      45.851  24.524  29.074  1.00  0.00     0.031 C 
ATOM     38  C   UNL A   1      46.444  26.703  30.102  1.00  0.00     0.031 A 
BRANCH  25  39
ATOM     39  C   UNL A   1      44.162  32.248  31.624  1.00  0.00    -0.014 A 
ATOM     40  C   UNL A   1      43.973  32.534  32.985  1.00  0.00     0.009 A 
ATOM     41  C   UNL A   1      44.643  33.265  30.781  1.00  0.00     0.009 A 
ATOM     42  C   UNL A   1      44.220  33.817  33.481  1.00  0.00     0.001 A 
ATOM     43  C   UNL A   1      44.919  34.537  31.286  1.00  0.00     0.001 A 
ATOM     44  C   UNL A   1      44.698  34.816  32.633  1.00  0.00     0.000 A 
ENDBRANCH  25  39
BRANCH  26  45
ATOM     45  C   UNL A   1      42.090  23.338  27.579  1.00  0.00    -0.014 A 
ATOM     46  C   UNL A   1      42.358  23.099  26.222  1.00  0.00     0.009 A 
ATOM     47  C   UNL A   1      41.542  22.303  28.354  1.00  0.00     0.009 A 
ATOM     48  C   UNL A   1      42.063  21.858  25.653  1.00  0.00     0.001 A 
ATOM     49  C   UNL A   1      41.282  21.053  27.791  1.00  0.00     0.001 A 
ATOM     50  C   UNL A   1      41.533  20.835  26.438  1.00  0.00     0.000 A 
ENDBRANCH  26  45
BRANCH  38  51
ATOM     51  C   UNL A   1      47.838  26.173  30.294  1.00  0.00    -0.014 A 
ATOM     52  C   UNL A   1      48.761  26.141  29.237  1.00  0.00     0.009 A 
ATOM     53  C   UNL A   1      48.239  25.720  31.561  1.00  0.00     0.009 A 
ATOM     54  C   UNL A   1      50.044  25.628  29.437  1.00  0.00     0.001 A 
ATOM     55  C   UNL A   1      49.532  25.240  31.766  1.00  0.00     0.001 A 
ATOM     56  C   UNL A   1      50.430  25.184  30.701  1.00  0.00     0.000 A 
ENDBRANCH  38  51
ENDBRANCH  12  13
ENDBRANCH   5   7
ENDBRANCH   2   3
ENDBRANCH   1   2
BRANCH   1  57
ATOM     57  C   UNL A   1      32.457  26.351  26.420  1.00  0.00     0.023 C 
BRANCH  57  58
ATOM     58  C   UNL A   1      33.797  25.849  25.874  1.00  0.00     0.116 C 
BRANCH  58  59
ATOM     59  N   UNL A   1      33.862  25.614  24.429  1.00  0.00    -0.352 N 
ATOM     60  C   UNL A   1      34.439  24.611  23.663  1.00  0.00     0.251 C 
ATOM     61  H   UNL A   1      33.406  26.305  23.898  1.00  0.00     0.163 HD
ATOM     62  O   UNL A   1      34.292  24.634  22.446  1.00  0.00    -0.269 OA
BRANCH  60  63
ATOM     63  C   UNL A   1      35.215  23.519  24.292  1.00  0.00     0.048 A 
ATOM     64  C   UNL A   1      36.433  23.943  24.859  1.00  0.00     0.014 A 
ATOM     65  C   UNL A   1      34.778  22.136  24.373  1.00  0.00     0.007 A 
ATOM     66  C   UNL A   1      37.338  23.032  25.365  1.00  0.00     0.001 A 
ATOM     67  C   UNL A   1      35.753  21.242  24.923  1.00  0.00    -0.017 A 
ATOM     68  C   UNL A   1      33.531  21.498  24.001  1.00  0.00     0.048 A 
ATOM     69  C   UNL A   1      37.003  21.690  25.370  1.00  0.00     0.009 A 
ATOM     70  C   UNL A   1      35.515  19.865  25.063  1.00  0.00     0.009 A 
ATOM     71  C   UNL A   1      33.318  20.110  24.194  1.00  0.00     0.014 A 
ATOM     72  C   UNL A   1      34.306  19.296  24.710  1.00  0.00     0.001 A 
BRANCH  68  73
ATOM     73  C   UNL A   1      32.301  22.118  23.453  1.00  0.00     0.252 C 
ATOM     74  O   UNL A   1      32.225  22.324  22.242  1.00  0.00    -0.269 OA
ATOM     75  N   UNL A   1      31.387  22.711  24.294  1.00  0.00    -0.345 N 
ATOM     76  H   UNL A   1      30.831  23.419  23.896  1.00  0.00     0.164 HD
BRANCH  75  77
ATOM     77  C   UNL A   1      31.138  22.419  25.703  1.00  0.00     0.134 C 
ATOM     78  C   UNL A   1      32.205  22.766  26.740  1.00  0.00     0.187 C 
ATOM     79  C   UNL A   1      30.272  23.397  26.494  1.00  0.00     0.187 C 
ATOM     80  O   UNL A   1      31.192  23.327  27.620  1.00  0.00    -0.377 OA
ENDBRANCH  75  77
ENDBRANCH  68  73
ENDBRANCH  60  63
ENDBRANCH  58  59
ENDBRANCH  57  58
ENDBRANCH   1  57
TORSDOF 13
ENDMDL
