MODEL 1
REMARK VINA RESULT:     -11.1      0.000      0.000
REMARK SMILES Cc1nonc1C[C@@]1(C(=O)NCCCCNC(=O)c2ccc(-c3c4nc(c(-c5ccccc5)c5ccc([nH]5)c(-c5ccccc5)c5nc(c(-c6ccccc6)c6ccc3[nH]6)C=C5)C=C4)cc2)CCC[NH2+]C1
REMARK SMILES IDX 13 1 12 2 11 3 9 4 10 5 8 7 67 8 71 9 68 10 70 11 69 12 7 15
REMARK SMILES IDX 6 16 1 17 2 18 3 19 4 20 5 21 14 22 15 23 16 24 17 25 18 27
REMARK SMILES IDX 19 28 20 29 66 30 21 31 65 32 22 33 23 34 24 35 59 36 25 37
REMARK SMILES IDX 64 38 58 39 60 40 26 41 63 42 57 43 56 44 27 46 49 47 34 48
REMARK SMILES IDX 48 49 35 50 38 51 47 52 61 53 36 54 37 55 46 57 62 58 39 59
REMARK SMILES IDX 28 60 29 61 33 62 30 63 32 64 31 65 50 66 51 67 55 68 52 69
REMARK SMILES IDX 54 70 53 71 40 72 41 73 45 74 42 75 44 76 43 77
REMARK H PARENT 11 6 70 13 70 14 16 26 60 45 38 56
REMARK Flexibility Score: inf
ROOT
ATOM      1  C   UNL A   1      36.685  21.017  24.582  1.00  0.00     0.023 C 
ENDROOT
BRANCH   1   2
ATOM      2  C   UNL A   1      35.534  21.115  25.582  1.00  0.00     0.116 C 
BRANCH   2   3
ATOM      3  N   UNL A   1      34.271  20.812  24.949  1.00  0.00    -0.355 N 
ATOM      4  C   UNL A   1      33.172  21.548  24.637  1.00  0.00     0.232 C 
ATOM      5  O   UNL A   1      32.223  20.888  24.196  1.00  0.00    -0.274 OA
ATOM      6  H   UNL A   1      34.188  19.866  24.686  1.00  0.00     0.163 HD
BRANCH   4   7
ATOM      7  C   UNL A   1      33.098  23.083  24.797  1.00  0.00     0.104 C 
ATOM      8  C   UNL A   1      33.288  23.466  26.298  1.00  0.00     0.029 C 
ATOM      9  C   UNL A   1      31.699  23.603  24.359  1.00  0.00     0.277 C 
ATOM     10  C   UNL A   1      32.083  23.115  27.176  1.00  0.00     0.063 C 
ATOM     11  N   UNL A   1      30.593  23.178  25.218  1.00  0.00    -0.345 N 
ATOM     12  C   UNL A   1      30.780  23.641  26.590  1.00  0.00     0.260 C 
ATOM     13  H   UNL A   1      29.722  23.563  24.853  1.00  0.00     0.346 HD
ATOM     14  H   UNL A   1      30.562  22.158  25.223  1.00  0.00     0.346 HD
BRANCH   7  15
ATOM     15  C   UNL A   1      34.176  23.826  23.955  1.00  0.00     0.085 C 
BRANCH  15  16
ATOM     16  C   UNL A   1      33.763  24.505  22.691  1.00  0.00     0.109 A 
ATOM     17  C   UNL A   1      33.631  27.037  23.375  1.00  0.00     0.073 C 
ATOM     18  C   UNL A   1      33.543  25.882  22.458  1.00  0.00     0.105 A 
ATOM     19  N   UNL A   1      33.219  26.072  21.178  1.00  0.00    -0.055 NA
ATOM     20  O   UNL A   1      33.252  24.804  20.606  1.00  0.00    -0.244 OA
ATOM     21  N   UNL A   1      33.611  23.845  21.542  1.00  0.00    -0.055 NA
ENDBRANCH  15  16
ENDBRANCH   7  15
ENDBRANCH   4   7
ENDBRANCH   2   3
ENDBRANCH   1   2
BRANCH   1  22
ATOM     22  C   UNL A   1      37.715  19.932  24.902  1.00  0.00     0.023 C 
BRANCH  22  23
ATOM     23  C   UNL A   1      38.908  20.402  25.725  1.00  0.00     0.116 C 
BRANCH  23  24
ATOM     24  N   UNL A   1      39.984  19.423  25.760  1.00  0.00    -0.352 N 
ATOM     25  C   UNL A   1      41.307  19.598  26.078  1.00  0.00     0.251 C 
ATOM     26  H   UNL A   1      39.725  18.503  25.521  1.00  0.00     0.163 HD
ATOM     27  O   UNL A   1      42.111  18.687  25.896  1.00  0.00    -0.269 OA
BRANCH  25  28
ATOM     28  C   UNL A   1      41.769  20.895  26.613  1.00  0.00     0.039 A 
ATOM     29  C   UNL A   1      42.252  21.858  25.725  1.00  0.00     0.014 A 
ATOM     30  C   UNL A   1      41.709  21.168  27.982  1.00  0.00     0.014 A 
ATOM     31  C   UNL A   1      42.613  23.119  26.204  1.00  0.00     0.010 A 
ATOM     32  C   UNL A   1      41.991  22.449  28.446  1.00  0.00     0.010 A 
ATOM     33  C   UNL A   1      42.447  23.438  27.562  1.00  0.00    -0.014 A 
BRANCH  33  34
ATOM     34  C   UNL A   1      42.736  24.803  28.072  1.00  0.00     0.031 A 
ATOM     35  C   UNL A   1      44.131  25.179  28.484  1.00  0.00     0.074 A 
ATOM     36  C   UNL A   1      41.728  25.686  28.219  1.00  0.00     0.049 A 
ATOM     37  N   UNL A   1      44.566  26.305  28.993  1.00  0.00    -0.248 NA
ATOM     38  C   UNL A   1      45.173  24.151  28.325  1.00  0.00     0.031 C 
ATOM     39  C   UNL A   1      40.323  25.432  27.893  1.00  0.00     0.029 A 
ATOM     40  N   UNL A   1      41.733  26.976  28.687  1.00  0.00    -0.354 N 
ATOM     41  C   UNL A   1      45.922  26.113  29.227  1.00  0.00     0.074 A 
ATOM     42  C   UNL A   1      46.228  24.750  28.854  1.00  0.00     0.031 C 
ATOM     43  C   UNL A   1      39.607  26.541  28.141  1.00  0.00     0.029 A 
ATOM     44  C   UNL A   1      40.492  27.567  28.686  1.00  0.00     0.049 A 
ATOM     45  H   UNL A   1      42.548  27.435  28.993  1.00  0.00     0.167 HD
ATOM     46  C   UNL A   1      46.836  26.999  29.691  1.00  0.00     0.031 A 
ATOM     47  C   UNL A   1      40.106  28.793  29.087  1.00  0.00     0.031 A 
ATOM     48  C   UNL A   1      46.533  28.357  30.061  1.00  0.00     0.049 A 
ATOM     49  C   UNL A   1      41.136  29.746  29.629  1.00  0.00     0.074 A 
ATOM     50  C   UNL A   1      47.401  29.345  30.489  1.00  0.00     0.029 A 
ATOM     51  N   UNL A   1      45.264  28.912  30.051  1.00  0.00    -0.354 N 
ATOM     52  N   UNL A   1      42.428  29.575  29.771  1.00  0.00    -0.248 NA
ATOM     53  C   UNL A   1      40.652  31.066  30.056  1.00  0.00     0.031 C 
ATOM     54  C   UNL A   1      46.648  30.482  30.800  1.00  0.00     0.029 A 
ATOM     55  C   UNL A   1      45.320  30.223  30.498  1.00  0.00     0.049 A 
ATOM     56  H   UNL A   1      44.444  28.446  29.769  1.00  0.00     0.167 HD
ATOM     57  C   UNL A   1      42.914  30.773  30.279  1.00  0.00     0.074 A 
ATOM     58  C   UNL A   1      41.782  31.668  30.398  1.00  0.00     0.031 C 
ATOM     59  C   UNL A   1      44.185  31.102  30.616  1.00  0.00     0.031 A 
BRANCH  46  60
ATOM     60  C   UNL A   1      48.256  26.520  29.834  1.00  0.00    -0.014 A 
ATOM     61  C   UNL A   1      48.715  25.951  31.034  1.00  0.00     0.009 A 
ATOM     62  C   UNL A   1      49.135  26.604  28.744  1.00  0.00     0.009 A 
ATOM     63  C   UNL A   1      50.035  25.511  31.148  1.00  0.00     0.001 A 
ATOM     64  C   UNL A   1      50.445  26.134  28.851  1.00  0.00     0.001 A 
ATOM     65  C   UNL A   1      50.897  25.598  30.056  1.00  0.00     0.000 A 
ENDBRANCH  46  60
BRANCH  47  66
ATOM     66  C   UNL A   1      38.679  29.197  28.988  1.00  0.00    -0.014 A 
ATOM     67  C   UNL A   1      37.821  29.060  30.090  1.00  0.00     0.009 A 
ATOM     68  C   UNL A   1      38.160  29.706  27.787  1.00  0.00     0.009 A 
ATOM     69  C   UNL A   1      36.469  29.393  29.982  1.00  0.00     0.001 A 
ATOM     70  C   UNL A   1      36.815  30.070  27.691  1.00  0.00     0.001 A 
ATOM     71  C   UNL A   1      35.968  29.901  28.785  1.00  0.00     0.000 A 
ENDBRANCH  47  66
BRANCH  59  72
ATOM     72  C   UNL A   1      44.425  32.499  31.115  1.00  0.00    -0.014 A 
ATOM     73  C   UNL A   1      44.372  32.807  32.483  1.00  0.00     0.009 A 
ATOM     74  C   UNL A   1      44.748  33.517  30.202  1.00  0.00     0.009 A 
ATOM     75  C   UNL A   1      44.601  34.112  32.924  1.00  0.00     0.001 A 
ATOM     76  C   UNL A   1      45.009  34.813  30.648  1.00  0.00     0.001 A 
ATOM     77  C   UNL A   1      44.926  35.111  32.007  1.00  0.00     0.000 A 
ENDBRANCH  59  72
ENDBRANCH  33  34
ENDBRANCH  25  28
ENDBRANCH  23  24
ENDBRANCH  22  23
ENDBRANCH   1  22
TORSDOF 13
ENDMDL
MODEL 2
REMARK VINA RESULT:     -11.1      1.420      6.184
REMARK SMILES Cc1nonc1C[C@@]1(C(=O)NCCCCNC(=O)c2ccc(-c3c4nc(c(-c5ccccc5)c5ccc([nH]5)c(-c5ccccc5)c5nc(c(-c6ccccc6)c6ccc3[nH]6)C=C5)C=C4)cc2)CCC[NH2+]C1
REMARK SMILES IDX 13 1 12 2 11 3 9 4 10 5 8 7 67 8 71 9 68 10 70 11 69 12 7 15
REMARK SMILES IDX 6 16 1 17 2 18 3 19 4 20 5 21 14 22 15 23 16 24 17 25 18 27
REMARK SMILES IDX 19 28 20 29 66 30 21 31 65 32 22 33 23 34 24 35 59 36 25 37
REMARK SMILES IDX 64 38 58 39 60 40 26 41 63 42 57 43 56 44 27 46 49 47 34 48
REMARK SMILES IDX 48 49 35 50 38 51 47 52 61 53 36 54 37 55 46 57 62 58 39 59
REMARK SMILES IDX 28 60 29 61 33 62 30 63 32 64 31 65 50 66 51 67 55 68 52 69
REMARK SMILES IDX 54 70 53 71 40 72 41 73 45 74 42 75 44 76 43 77
REMARK H PARENT 11 6 70 13 70 14 16 26 60 45 38 56
REMARK Flexibility Score: inf
ROOT
ATOM      1  C   UNL A   1      36.905  21.078  24.630  1.00  0.00     0.023 C 
ENDROOT
BRANCH   1   2
ATOM      2  C   UNL A   1      35.695  21.250  25.547  1.00  0.00     0.116 C 
BRANCH   2   3
ATOM      3  N   UNL A   1      34.470  20.923  24.854  1.00  0.00    -0.355 N 
ATOM      4  C   UNL A   1      33.333  21.612  24.574  1.00  0.00     0.232 C 
ATOM      5  O   UNL A   1      32.440  20.935  24.051  1.00  0.00    -0.274 OA
ATOM      6  H   UNL A   1      34.456  20.001  24.509  1.00  0.00     0.163 HD
BRANCH   4   7
ATOM      7  C   UNL A   1      33.154  23.120  24.863  1.00  0.00     0.104 C 
ATOM      8  C   UNL A   1      33.336  23.388  26.390  1.00  0.00     0.029 C 
ATOM      9  C   UNL A   1      31.716  23.574  24.480  1.00  0.00     0.277 C 
ATOM     10  C   UNL A   1      32.170  22.881  27.244  1.00  0.00     0.063 C 
ATOM     11  N   UNL A   1      30.654  23.003  25.309  1.00  0.00    -0.345 N 
ATOM     12  C   UNL A   1      30.827  23.361  26.714  1.00  0.00     0.260 C 
ATOM     13  H   UNL A   1      29.754  23.354  24.984  1.00  0.00     0.346 HD
ATOM     14  H   UNL A   1      30.694  21.986  25.229  1.00  0.00     0.346 HD
BRANCH   7  15
ATOM     15  C   UNL A   1      34.166  24.004  24.079  1.00  0.00     0.085 C 
BRANCH  15  16
ATOM     16  C   UNL A   1      33.768  24.549  22.747  1.00  0.00     0.109 A 
ATOM     17  C   UNL A   1      33.649  27.140  23.160  1.00  0.00     0.073 C 
ATOM     18  C   UNL A   1      33.559  25.895  22.369  1.00  0.00     0.105 A 
ATOM     19  N   UNL A   1      33.247  25.951  21.072  1.00  0.00    -0.055 NA
ATOM     20  O   UNL A   1      33.276  24.630  20.638  1.00  0.00    -0.244 OA
ATOM     21  N   UNL A   1      33.621  23.773  21.673  1.00  0.00    -0.055 NA
ENDBRANCH  15  16
ENDBRANCH   7  15
ENDBRANCH   4   7
ENDBRANCH   2   3
ENDBRANCH   1   2
BRANCH   1  22
ATOM     22  C   UNL A   1      37.820  19.908  24.996  1.00  0.00     0.023 C 
BRANCH  22  23
ATOM     23  C   UNL A   1      39.077  20.292  25.767  1.00  0.00     0.116 C 
BRANCH  23  24
ATOM     24  N   UNL A   1      40.048  19.209  25.829  1.00  0.00    -0.352 N 
ATOM     25  C   UNL A   1      41.403  19.269  26.032  1.00  0.00     0.251 C 
ATOM     26  H   UNL A   1      39.679  18.305  25.708  1.00  0.00     0.163 HD
ATOM     27  O   UNL A   1      42.093  18.263  25.891  1.00  0.00    -0.269 OA
BRANCH  25  28
ATOM     28  C   UNL A   1      42.036  20.555  26.393  1.00  0.00     0.039 A 
ATOM     29  C   UNL A   1      42.491  21.393  25.373  1.00  0.00     0.014 A 
ATOM     30  C   UNL A   1      42.164  20.940  27.730  1.00  0.00     0.014 A 
ATOM     31  C   UNL A   1      43.014  22.648  25.692  1.00  0.00     0.010 A 
ATOM     32  C   UNL A   1      42.609  22.221  28.041  1.00  0.00     0.010 A 
ATOM     33  C   UNL A   1      43.039  23.088  27.026  1.00  0.00    -0.014 A 
BRANCH  33  34
ATOM     34  C   UNL A   1      43.504  24.455  27.375  1.00  0.00     0.031 A 
ATOM     35  C   UNL A   1      42.517  25.510  27.787  1.00  0.00     0.074 A 
ATOM     36  C   UNL A   1      44.812  24.762  27.265  1.00  0.00     0.049 A 
ATOM     37  N   UNL A   1      42.729  26.768  28.084  1.00  0.00    -0.248 NA
ATOM     38  C   UNL A   1      41.102  25.109  27.853  1.00  0.00     0.031 C 
ATOM     39  C   UNL A   1      45.868  23.840  26.839  1.00  0.00     0.029 A 
ATOM     40  N   UNL A   1      45.476  25.941  27.499  1.00  0.00    -0.354 N 
ATOM     41  C   UNL A   1      41.478  27.307  28.356  1.00  0.00     0.074 A 
ATOM     42  C   UNL A   1      40.508  26.257  28.139  1.00  0.00     0.031 C 
ATOM     43  C   UNL A   1      47.049  24.479  26.871  1.00  0.00     0.029 A 
ATOM     44  C   UNL A   1      46.830  25.864  27.275  1.00  0.00     0.049 A 
ATOM     45  H   UNL A   1      45.024  26.763  27.799  1.00  0.00     0.167 HD
ATOM     46  C   UNL A   1      41.166  28.559  28.771  1.00  0.00     0.031 A 
ATOM     47  C   UNL A   1      47.787  26.806  27.374  1.00  0.00     0.031 A 
ATOM     48  C   UNL A   1      42.130  29.604  28.990  1.00  0.00     0.049 A 
ATOM     49  C   UNL A   1      47.408  28.196  27.805  1.00  0.00     0.074 A 
ATOM     50  C   UNL A   1      41.916  30.887  29.461  1.00  0.00     0.029 A 
ATOM     51  N   UNL A   1      43.488  29.487  28.745  1.00  0.00    -0.354 N 
ATOM     52  N   UNL A   1      46.230  28.668  28.133  1.00  0.00    -0.248 NA
ATOM     53  C   UNL A   1      48.496  29.180  27.888  1.00  0.00     0.031 C 
ATOM     54  C   UNL A   1      43.137  31.568  29.442  1.00  0.00     0.029 A 
ATOM     55  C   UNL A   1      44.122  30.687  29.025  1.00  0.00     0.049 A 
ATOM     56  H   UNL A   1      43.938  28.673  28.421  1.00  0.00     0.167 HD
ATOM     57  C   UNL A   1      46.440  29.995  28.486  1.00  0.00     0.074 A 
ATOM     58  C   UNL A   1      47.860  30.245  28.353  1.00  0.00     0.031 C 
ATOM     59  C   UNL A   1      45.537  30.924  28.884  1.00  0.00     0.031 A 
BRANCH  46  60
ATOM     60  C   UNL A   1      39.712  28.868  29.006  1.00  0.00    -0.014 A 
ATOM     61  C   UNL A   1      39.117  28.663  30.262  1.00  0.00     0.009 A 
ATOM     62  C   UNL A   1      38.935  29.409  27.969  1.00  0.00     0.009 A 
ATOM     63  C   UNL A   1      37.766  28.958  30.462  1.00  0.00     0.001 A 
ATOM     64  C   UNL A   1      37.594  29.732  28.180  1.00  0.00     0.001 A 
ATOM     65  C   UNL A   1      37.008  29.497  29.424  1.00  0.00     0.000 A 
ENDBRANCH  46  60
BRANCH  47  66
ATOM     66  C   UNL A   1      49.202  26.468  27.066  1.00  0.00    -0.014 A 
ATOM     67  C   UNL A   1      49.681  26.536  25.748  1.00  0.00     0.009 A 
ATOM     68  C   UNL A   1      50.078  26.058  28.083  1.00  0.00     0.009 A 
ATOM     69  C   UNL A   1      50.996  26.172  25.452  1.00  0.00     0.001 A 
ATOM     70  C   UNL A   1      51.403  25.725  27.789  1.00  0.00     0.001 A 
ATOM     71  C   UNL A   1      51.857  25.771  26.472  1.00  0.00     0.000 A 
ENDBRANCH  47  66
BRANCH  59  72
ATOM     72  C   UNL A   1      46.061  32.287  29.239  1.00  0.00    -0.014 A 
ATOM     73  C   UNL A   1      46.509  32.585  30.535  1.00  0.00     0.009 A 
ATOM     74  C   UNL A   1      46.145  33.279  28.247  1.00  0.00     0.009 A 
ATOM     75  C   UNL A   1      46.994  33.858  30.840  1.00  0.00     0.001 A 
ATOM     76  C   UNL A   1      46.661  34.539  28.547  1.00  0.00     0.001 A 
ATOM     77  C   UNL A   1      47.076  34.831  29.845  1.00  0.00     0.000 A 
ENDBRANCH  59  72
ENDBRANCH  33  34
ENDBRANCH  25  28
ENDBRANCH  23  24
ENDBRANCH  22  23
ENDBRANCH   1  22
TORSDOF 13
ENDMDL
MODEL 3
REMARK VINA RESULT:     -11.0      4.664      9.322
REMARK SMILES Cc1nonc1C[C@@]1(C(=O)NCCCCNC(=O)c2ccc(-c3c4nc(c(-c5ccccc5)c5ccc([nH]5)c(-c5ccccc5)c5nc(c(-c6ccccc6)c6ccc3[nH]6)C=C5)C=C4)cc2)CCC[NH2+]C1
REMARK SMILES IDX 13 1 12 2 11 3 9 4 10 5 8 7 67 8 71 9 68 10 70 11 69 12 7 15
REMARK SMILES IDX 6 16 1 17 2 18 3 19 4 20 5 21 14 22 15 23 16 24 17 25 18 27
REMARK SMILES IDX 19 28 20 29 66 30 21 31 65 32 22 33 23 34 24 35 59 36 25 37
REMARK SMILES IDX 64 38 58 39 60 40 26 41 63 42 57 43 56 44 27 46 49 47 34 48
REMARK SMILES IDX 48 49 35 50 38 51 47 52 61 53 36 54 37 55 46 57 62 58 39 59
REMARK SMILES IDX 28 60 29 61 33 62 30 63 32 64 31 65 50 66 51 67 55 68 52 69
REMARK SMILES IDX 54 70 53 71 40 72 41 73 45 74 42 75 44 76 43 77
REMARK H PARENT 11 6 70 13 70 14 16 26 60 45 38 56
REMARK Flexibility Score: inf
ROOT
ATOM      1  C   UNL A   1      31.612  30.376  26.574  1.00  0.00     0.023 C 
ENDROOT
BRANCH   1   2
ATOM      2  C   UNL A   1      32.178  29.711  25.321  1.00  0.00     0.116 C 
BRANCH   2   3
ATOM      3  N   UNL A   1      31.131  29.067  24.560  1.00  0.00    -0.355 N 
ATOM      4  C   UNL A   1      30.993  27.836  24.003  1.00  0.00     0.232 C 
ATOM      5  O   UNL A   1      29.976  27.698  23.313  1.00  0.00    -0.274 OA
ATOM      6  H   UNL A   1      30.348  29.646  24.413  1.00  0.00     0.163 HD
BRANCH   4   7
ATOM      7  C   UNL A   1      32.001  26.684  24.213  1.00  0.00     0.104 C 
ATOM      8  C   UNL A   1      33.392  27.090  23.633  1.00  0.00     0.029 C 
ATOM      9  C   UNL A   1      31.533  25.412  23.450  1.00  0.00     0.277 C 
ATOM     10  C   UNL A   1      33.433  27.114  22.102  1.00  0.00     0.063 C 
ATOM     11  N   UNL A   1      31.549  25.534  21.992  1.00  0.00    -0.345 N 
ATOM     12  C   UNL A   1      32.892  25.826  21.499  1.00  0.00     0.260 C 
ATOM     13  H   UNL A   1      31.227  24.659  21.581  1.00  0.00     0.346 HD
ATOM     14  H   UNL A   1      30.934  26.305  21.727  1.00  0.00     0.346 HD
BRANCH   7  15
ATOM     15  C   UNL A   1      32.179  26.310  25.714  1.00  0.00     0.085 C 
BRANCH  15  16
ATOM     16  C   UNL A   1      31.320  25.237  26.297  1.00  0.00     0.109 A 
ATOM     17  C   UNL A   1      33.028  23.317  26.840  1.00  0.00     0.073 C 
ATOM     18  C   UNL A   1      31.701  23.965  26.782  1.00  0.00     0.105 A 
ATOM     19  N   UNL A   1      30.628  23.326  27.251  1.00  0.00    -0.055 NA
ATOM     20  O   UNL A   1      29.573  24.214  27.070  1.00  0.00    -0.244 OA
ATOM     21  N   UNL A   1      30.013  25.401  26.501  1.00  0.00    -0.055 NA
ENDBRANCH  15  16
ENDBRANCH   7  15
ENDBRANCH   4   7
ENDBRANCH   2   3
ENDBRANCH   1   2
BRANCH   1  22
ATOM     22  C   UNL A   1      31.584  31.905  26.525  1.00  0.00     0.023 C 
BRANCH  22  23
ATOM     23  C   UNL A   1      32.734  32.592  27.251  1.00  0.00     0.116 C 
BRANCH  23  24
ATOM     24  N   UNL A   1      32.443  33.982  27.571  1.00  0.00    -0.352 N 
ATOM     25  C   UNL A   1      33.012  34.793  28.521  1.00  0.00     0.251 C 
ATOM     26  H   UNL A   1      31.736  34.401  27.028  1.00  0.00     0.163 HD
ATOM     27  O   UNL A   1      32.528  35.895  28.762  1.00  0.00    -0.269 OA
BRANCH  25  28
ATOM     28  C   UNL A   1      34.193  34.323  29.274  1.00  0.00     0.039 A 
ATOM     29  C   UNL A   1      34.008  33.756  30.537  1.00  0.00     0.014 A 
ATOM     30  C   UNL A   1      35.477  34.425  28.730  1.00  0.00     0.014 A 
ATOM     31  C   UNL A   1      35.103  33.231  31.225  1.00  0.00     0.010 A 
ATOM     32  C   UNL A   1      36.553  33.829  29.380  1.00  0.00     0.010 A 
ATOM     33  C   UNL A   1      36.378  33.227  30.635  1.00  0.00    -0.014 A 
BRANCH  33  34
ATOM     34  C   UNL A   1      37.536  32.589  31.312  1.00  0.00     0.031 A 
ATOM     35  C   UNL A   1      38.214  31.398  30.694  1.00  0.00     0.074 A 
ATOM     36  C   UNL A   1      37.941  33.047  32.512  1.00  0.00     0.049 A 
ATOM     37  N   UNL A   1      39.208  30.681  31.158  1.00  0.00    -0.248 NA
ATOM     38  C   UNL A   1      37.695  30.934  29.397  1.00  0.00     0.031 C 
ATOM     39  C   UNL A   1      37.343  34.171  33.238  1.00  0.00     0.029 A 
ATOM     40  N   UNL A   1      38.951  32.618  33.338  1.00  0.00    -0.354 N 
ATOM     41  C   UNL A   1      39.420  29.680  30.219  1.00  0.00     0.074 A 
ATOM     42  C   UNL A   1      38.421  29.847  29.187  1.00  0.00     0.031 C 
ATOM     43  C   UNL A   1      38.017  34.362  34.384  1.00  0.00     0.029 A 
ATOM     44  C   UNL A   1      39.061  33.349  34.497  1.00  0.00     0.049 A 
ATOM     45  H   UNL A   1      39.540  31.860  33.120  1.00  0.00     0.167 HD
ATOM     46  C   UNL A   1      40.375  28.719  30.205  1.00  0.00     0.031 A 
ATOM     47  C   UNL A   1      39.903  33.213  35.540  1.00  0.00     0.031 A 
ATOM     48  C   UNL A   1      41.371  28.552  31.230  1.00  0.00     0.049 A 
ATOM     49  C   UNL A   1      40.932  32.117  35.514  1.00  0.00     0.074 A 
ATOM     50  C   UNL A   1      42.413  27.643  31.278  1.00  0.00     0.029 A 
ATOM     51  N   UNL A   1      41.444  29.308  32.389  1.00  0.00    -0.354 N 
ATOM     52  N   UNL A   1      41.169  31.226  34.582  1.00  0.00    -0.248 NA
ATOM     53  C   UNL A   1      41.817  32.016  36.683  1.00  0.00     0.031 C 
ATOM     54  C   UNL A   1      43.079  27.807  32.497  1.00  0.00     0.029 A 
ATOM     55  C   UNL A   1      42.495  28.863  33.176  1.00  0.00     0.049 A 
ATOM     56  H   UNL A   1      40.840  30.050  32.621  1.00  0.00     0.167 HD
ATOM     57  C   UNL A   1      42.246  30.477  35.040  1.00  0.00     0.074 A 
ATOM     58  C   UNL A   1      42.628  31.033  36.321  1.00  0.00     0.031 C 
ATOM     59  C   UNL A   1      42.862  29.423  34.452  1.00  0.00     0.031 A 
BRANCH  46  60
ATOM     60  C   UNL A   1      40.380  27.763  29.043  1.00  0.00    -0.014 A 
ATOM     61  C   UNL A   1      41.120  28.033  27.880  1.00  0.00     0.009 A 
ATOM     62  C   UNL A   1      39.666  26.557  29.127  1.00  0.00     0.009 A 
ATOM     63  C   UNL A   1      41.114  27.133  26.812  1.00  0.00     0.001 A 
ATOM     64  C   UNL A   1      39.687  25.645  28.071  1.00  0.00     0.001 A 
ATOM     65  C   UNL A   1      40.403  25.938  26.911  1.00  0.00     0.000 A 
ENDBRANCH  46  60
BRANCH  47  66
ATOM     66  C   UNL A   1      39.815  34.142  36.697  1.00  0.00    -0.014 A 
ATOM     67  C   UNL A   1      39.026  33.819  37.812  1.00  0.00     0.009 A 
ATOM     68  C   UNL A   1      40.504  35.365  36.687  1.00  0.00     0.009 A 
ATOM     69  C   UNL A   1      38.904  34.714  38.878  1.00  0.00     0.001 A 
ATOM     70  C   UNL A   1      40.407  36.244  37.769  1.00  0.00     0.001 A 
ATOM     71  C   UNL A   1      39.598  35.923  38.857  1.00  0.00     0.000 A 
ENDBRANCH  47  66
BRANCH  59  72
ATOM     72  C   UNL A   1      44.037  28.822  35.173  1.00  0.00    -0.014 A 
ATOM     73  C   UNL A   1      43.876  27.760  36.076  1.00  0.00     0.009 A 
ATOM     74  C   UNL A   1      45.331  29.302  34.913  1.00  0.00     0.009 A 
ATOM     75  C   UNL A   1      44.982  27.217  36.732  1.00  0.00     0.001 A 
ATOM     76  C   UNL A   1      46.438  28.735  35.545  1.00  0.00     0.001 A 
ATOM     77  C   UNL A   1      46.261  27.699  36.461  1.00  0.00     0.000 A 
ENDBRANCH  59  72
ENDBRANCH  33  34
ENDBRANCH  25  28
ENDBRANCH  23  24
ENDBRANCH  22  23
ENDBRANCH   1  22
TORSDOF 13
ENDMDL
