MODEL 1
REMARK VINA RESULT:     -11.6      0.000      0.000
REMARK SMILES O=C(CC1(NC(=O)c2ccccc2[N+](=O)[O-])CCC1)NCCCCNC(=O)c1ccc(-c2c3nc(c(-c4ccccc4)c4ccc([nH]4)c(-c4ccccc4)c4nc(c(-c5ccccc5)c5ccc2[nH]5)C=C4)C=C3)cc1
REMARK SMILES IDX 21 1 20 2 1 3 2 4 3 6 4 7 17 8 19 9 18 10 5 11 6 12 7 14
REMARK SMILES IDX 8 15 9 16 13 17 10 18 12 19 11 20 14 21 15 22 16 23 22 24
REMARK SMILES IDX 23 25 24 26 25 27 26 28 27 30 28 31 29 32 75 33 30 34 74 35
REMARK SMILES IDX 31 36 32 37 33 38 68 39 34 40 73 41 67 42 69 43 35 44 72 45
REMARK SMILES IDX 66 46 65 47 36 49 58 50 43 51 57 52 44 53 47 54 56 55 70 56
REMARK SMILES IDX 45 57 46 58 55 60 71 61 48 62 37 63 38 64 42 65 39 66 41 67
REMARK SMILES IDX 40 68 59 69 60 70 64 71 61 72 63 73 62 74 49 75 50 76 54 77
REMARK SMILES IDX 51 78 53 79 52 80
REMARK H PARENT 20 5 5 13 25 29 69 48 47 59
REMARK Flexibility Score: inf
ROOT
ATOM      1  C   UNL A   1      31.545  29.958  25.377  1.00  0.00     0.116 C 
ENDROOT
BRANCH   1   2
ATOM      2  N   UNL A   1      32.627  29.126  24.909  1.00  0.00    -0.356 N 
ATOM      3  O   UNL A   1      31.788  28.926  22.809  1.00  0.00    -0.275 OA
ATOM      4  C   UNL A   1      32.615  28.595  23.649  1.00  0.00     0.222 C 
ATOM      5  H   UNL A   1      33.387  28.938  25.506  1.00  0.00     0.163 HD
BRANCH   4   6
ATOM      6  C   UNL A   1      33.652  27.512  23.470  1.00  0.00     0.128 C 
BRANCH   6   7
ATOM      7  C   UNL A   1      33.226  26.127  23.910  1.00  0.00     0.049 C 
ATOM      8  C   UNL A   1      34.203  25.762  25.082  1.00  0.00     0.029 C 
ATOM      9  C   UNL A   1      32.049  25.882  24.912  1.00  0.00     0.029 C 
ATOM     10  C   UNL A   1      33.029  25.371  25.974  1.00  0.00     0.005 C 
BRANCH   7  11
ATOM     11  N   UNL A   1      33.145  25.096  22.854  1.00  0.00    -0.346 N 
ATOM     12  C   UNL A   1      33.535  23.805  22.581  1.00  0.00     0.258 C 
ATOM     13  H   UNL A   1      32.642  25.454  22.087  1.00  0.00     0.164 HD
ATOM     14  O   UNL A   1      33.448  23.545  21.368  1.00  0.00    -0.269 OA
BRANCH  12  15
ATOM     15  C   UNL A   1      33.926  22.643  23.454  1.00  0.00     0.117 A 
ATOM     16  C   UNL A   1      32.849  21.724  23.614  1.00  0.00     0.021 A 
ATOM     17  C   UNL A   1      35.122  22.235  24.051  1.00  0.00     0.282 A 
ATOM     18  C   UNL A   1      32.957  20.501  24.292  1.00  0.00     0.001 A 
ATOM     19  C   UNL A   1      35.230  21.014  24.779  1.00  0.00     0.086 A 
ATOM     20  C   UNL A   1      34.153  20.146  24.887  1.00  0.00     0.007 A 
BRANCH  17  21
ATOM     21  N   UNL A   1      36.377  22.917  23.881  1.00  0.00     0.063 N 
ATOM     22  O   UNL A   1      36.912  23.409  24.878  1.00  0.00    -0.258 OA
ATOM     23  O   UNL A   1      36.815  23.000  22.719  1.00  0.00    -0.258 OA
ENDBRANCH  17  21
ENDBRANCH  12  15
ENDBRANCH   7  11
ENDBRANCH   6   7
ENDBRANCH   4   6
ENDBRANCH   1   2
BRANCH   1  24
ATOM     24  C   UNL A   1      31.899  30.563  26.731  1.00  0.00     0.023 C 
BRANCH  24  25
ATOM     25  C   UNL A   1      31.579  32.056  26.853  1.00  0.00     0.023 C 
BRANCH  25  26
ATOM     26  C   UNL A   1      32.720  32.904  27.396  1.00  0.00     0.116 C 
BRANCH  26  27
ATOM     27  N   UNL A   1      32.327  34.265  27.710  1.00  0.00    -0.352 N 
ATOM     28  C   UNL A   1      32.950  35.127  28.584  1.00  0.00     0.251 C 
ATOM     29  H   UNL A   1      31.528  34.609  27.250  1.00  0.00     0.163 HD
ATOM     30  O   UNL A   1      32.505  36.232  28.824  1.00  0.00    -0.269 OA
BRANCH  28  31
ATOM     31  C   UNL A   1      34.159  34.630  29.268  1.00  0.00     0.039 A 
ATOM     32  C   UNL A   1      34.007  33.994  30.500  1.00  0.00     0.014 A 
ATOM     33  C   UNL A   1      35.400  34.688  28.629  1.00  0.00     0.014 A 
ATOM     34  C   UNL A   1      35.107  33.363  31.075  1.00  0.00     0.010 A 
ATOM     35  C   UNL A   1      36.477  33.998  29.172  1.00  0.00     0.010 A 
ATOM     36  C   UNL A   1      36.340  33.334  30.402  1.00  0.00    -0.014 A 
BRANCH  36  37
ATOM     37  C   UNL A   1      37.500  32.622  30.985  1.00  0.00     0.031 A 
ATOM     38  C   UNL A   1      38.058  33.063  32.307  1.00  0.00     0.074 A 
ATOM     39  C   UNL A   1      38.072  31.608  30.308  1.00  0.00     0.049 A 
ATOM     40  N   UNL A   1      39.075  32.582  32.975  1.00  0.00    -0.248 NA
ATOM     41  C   UNL A   1      37.402  34.213  32.954  1.00  0.00     0.031 C 
ATOM     42  C   UNL A   1      37.646  31.116  28.995  1.00  0.00     0.029 A 
ATOM     43  N   UNL A   1      39.135  30.804  30.633  1.00  0.00    -0.354 N 
ATOM     44  C   UNL A   1      39.186  33.375  34.110  1.00  0.00     0.074 A 
ATOM     45  C   UNL A   1      38.174  34.403  34.013  1.00  0.00     0.031 C 
ATOM     46  C   UNL A   1      38.420  30.076  28.644  1.00  0.00     0.029 A 
ATOM     47  C   UNL A   1      39.415  29.849  29.686  1.00  0.00     0.049 A 
ATOM     48  H   UNL A   1      39.649  30.903  31.467  1.00  0.00     0.167 HD
ATOM     49  C   UNL A   1      40.037  33.243  35.153  1.00  0.00     0.031 A 
ATOM     50  C   UNL A   1      40.369  28.899  29.663  1.00  0.00     0.031 A 
ATOM     51  C   UNL A   1      41.036  32.215  35.252  1.00  0.00     0.049 A 
ATOM     52  C   UNL A   1      41.309  28.781  30.830  1.00  0.00     0.074 A 
ATOM     53  C   UNL A   1      41.917  31.964  36.290  1.00  0.00     0.029 A 
ATOM     54  N   UNL A   1      41.285  31.265  34.274  1.00  0.00    -0.354 N 
ATOM     55  N   UNL A   1      41.356  29.494  31.929  1.00  0.00    -0.248 NA
ATOM     56  C   UNL A   1      42.319  27.716  30.758  1.00  0.00     0.031 C 
ATOM     57  C   UNL A   1      42.732  30.891  35.918  1.00  0.00     0.029 A 
ATOM     58  C   UNL A   1      42.321  30.438  34.674  1.00  0.00     0.049 A 
ATOM     59  H   UNL A   1      40.798  31.187  33.422  1.00  0.00     0.167 HD
ATOM     60  C   UNL A   1      42.381  28.949  32.691  1.00  0.00     0.074 A 
ATOM     61  C   UNL A   1      42.916  27.834  31.936  1.00  0.00     0.031 C 
ATOM     62  C   UNL A   1      42.839  29.334  33.907  1.00  0.00     0.031 A 
BRANCH  49  63
ATOM     63  C   UNL A   1      39.921  34.245  36.269  1.00  0.00    -0.014 A 
ATOM     64  C   UNL A   1      39.110  33.995  37.388  1.00  0.00     0.009 A 
ATOM     65  C   UNL A   1      40.648  35.444  36.211  1.00  0.00     0.009 A 
ATOM     66  C   UNL A   1      39.000  34.942  38.408  1.00  0.00     0.001 A 
ATOM     67  C   UNL A   1      40.559  36.376  37.247  1.00  0.00     0.001 A 
ATOM     68  C   UNL A   1      39.728  36.128  38.339  1.00  0.00     0.000 A 
ENDBRANCH  49  63
BRANCH  50  69
ATOM     69  C   UNL A   1      40.472  27.972  28.506  1.00  0.00    -0.014 A 
ATOM     70  C   UNL A   1      41.211  28.330  27.367  1.00  0.00     0.009 A 
ATOM     71  C   UNL A   1      39.822  26.728  28.528  1.00  0.00     0.009 A 
ATOM     72  C   UNL A   1      41.273  27.474  26.265  1.00  0.00     0.001 A 
ATOM     73  C   UNL A   1      39.910  25.862  27.436  1.00  0.00     0.001 A 
ATOM     74  C   UNL A   1      40.625  26.239  26.302  1.00  0.00     0.000 A 
ENDBRANCH  50  69
BRANCH  62  75
ATOM     75  C   UNL A   1      43.951  28.524  34.511  1.00  0.00    -0.014 A 
ATOM     76  C   UNL A   1      45.294  28.893  34.344  1.00  0.00     0.009 A 
ATOM     77  C   UNL A   1      43.643  27.402  35.294  1.00  0.00     0.009 A 
ATOM     78  C   UNL A   1      46.310  28.132  34.925  1.00  0.00     0.001 A 
ATOM     79  C   UNL A   1      44.660  26.660  35.898  1.00  0.00     0.001 A 
ATOM     80  C   UNL A   1      45.992  27.020  35.705  1.00  0.00     0.000 A 
ENDBRANCH  62  75
ENDBRANCH  36  37
ENDBRANCH  28  31
ENDBRANCH  26  27
ENDBRANCH  25  26
ENDBRANCH  24  25
ENDBRANCH   1  24
TORSDOF 15
ENDMDL
MODEL 2
REMARK VINA RESULT:     -11.6      3.451      4.993
REMARK SMILES O=C(CC1(NC(=O)c2ccccc2[N+](=O)[O-])CCC1)NCCCCNC(=O)c1ccc(-c2c3nc(c(-c4ccccc4)c4ccc([nH]4)c(-c4ccccc4)c4nc(c(-c5ccccc5)c5ccc2[nH]5)C=C4)C=C3)cc1
REMARK SMILES IDX 21 1 20 2 1 3 2 4 3 6 4 7 17 8 19 9 18 10 5 11 6 12 7 14
REMARK SMILES IDX 8 15 9 16 13 17 10 18 12 19 11 20 14 21 15 22 16 23 22 24
REMARK SMILES IDX 23 25 24 26 25 27 26 28 27 30 28 31 29 32 75 33 30 34 74 35
REMARK SMILES IDX 31 36 32 37 33 38 68 39 34 40 73 41 67 42 69 43 35 44 72 45
REMARK SMILES IDX 66 46 65 47 36 49 58 50 43 51 57 52 44 53 47 54 56 55 70 56
REMARK SMILES IDX 45 57 46 58 55 60 71 61 48 62 37 63 38 64 42 65 39 66 41 67
REMARK SMILES IDX 40 68 59 69 60 70 64 71 61 72 63 73 62 74 49 75 50 76 54 77
REMARK SMILES IDX 51 78 53 79 52 80
REMARK H PARENT 20 5 5 13 25 29 69 48 47 59
REMARK Flexibility Score: inf
ROOT
ATOM      1  C   UNL A   1      31.421  29.231  25.149  1.00  0.00     0.116 C 
ENDROOT
BRANCH   1   2
ATOM      2  N   UNL A   1      30.903  28.219  24.259  1.00  0.00    -0.356 N 
ATOM      3  O   UNL A   1      30.724  26.644  25.884  1.00  0.00    -0.275 OA
ATOM      4  C   UNL A   1      30.670  26.945  24.700  1.00  0.00     0.222 C 
ATOM      5  H   UNL A   1      30.715  28.449  23.321  1.00  0.00     0.163 HD
BRANCH   4   6
ATOM      6  C   UNL A   1      30.445  25.975  23.563  1.00  0.00     0.128 C 
BRANCH   6   7
ATOM      7  C   UNL A   1      31.684  25.258  23.070  1.00  0.00     0.049 C 
ATOM      8  C   UNL A   1      32.082  26.008  21.750  1.00  0.00     0.029 C 
ATOM      9  C   UNL A   1      33.119  25.583  23.601  1.00  0.00     0.029 C 
ATOM     10  C   UNL A   1      33.520  26.156  22.238  1.00  0.00     0.005 C 
BRANCH   7  11
ATOM     11  N   UNL A   1      31.579  23.791  22.917  1.00  0.00    -0.346 N 
ATOM     12  C   UNL A   1      32.132  22.621  23.384  1.00  0.00     0.258 C 
ATOM     13  H   UNL A   1      30.877  23.581  22.260  1.00  0.00     0.164 HD
ATOM     14  O   UNL A   1      31.852  21.655  22.652  1.00  0.00    -0.269 OA
BRANCH  12  15
ATOM     15  C   UNL A   1      32.891  22.271  24.636  1.00  0.00     0.117 A 
ATOM     16  C   UNL A   1      34.207  21.811  24.337  1.00  0.00     0.021 A 
ATOM     17  C   UNL A   1      32.621  22.387  26.002  1.00  0.00     0.282 A 
ATOM     18  C   UNL A   1      35.172  21.512  25.310  1.00  0.00     0.001 A 
ATOM     19  C   UNL A   1      33.580  22.043  26.998  1.00  0.00     0.086 A 
ATOM     20  C   UNL A   1      34.855  21.619  26.651  1.00  0.00     0.007 A 
BRANCH  17  21
ATOM     21  N   UNL A   1      31.425  22.983  26.535  1.00  0.00     0.063 N 
ATOM     22  O   UNL A   1      31.537  23.778  27.471  1.00  0.00    -0.258 OA
ATOM     23  O   UNL A   1      30.347  22.613  26.034  1.00  0.00    -0.258 OA
ENDBRANCH  17  21
ENDBRANCH  12  15
ENDBRANCH   7  11
ENDBRANCH   6   7
ENDBRANCH   4   6
ENDBRANCH   1   2
BRANCH   1  24
ATOM     24  C   UNL A   1      32.919  29.403  24.928  1.00  0.00     0.023 C 
BRANCH  24  25
ATOM     25  C   UNL A   1      33.790  28.495  25.802  1.00  0.00     0.023 C 
BRANCH  25  26
ATOM     26  C   UNL A   1      33.598  28.686  27.299  1.00  0.00     0.116 C 
BRANCH  26  27
ATOM     27  N   UNL A   1      33.545  30.080  27.699  1.00  0.00    -0.352 N 
ATOM     28  C   UNL A   1      34.565  30.825  28.244  1.00  0.00     0.251 C 
ATOM     29  H   UNL A   1      32.686  30.542  27.567  1.00  0.00     0.163 HD
ATOM     30  O   UNL A   1      34.401  31.974  28.603  1.00  0.00    -0.269 OA
BRANCH  28  31
ATOM     31  C   UNL A   1      35.862  30.149  28.430  1.00  0.00     0.039 A 
ATOM     32  C   UNL A   1      36.800  30.221  27.401  1.00  0.00     0.014 A 
ATOM     33  C   UNL A   1      36.179  29.564  29.660  1.00  0.00     0.014 A 
ATOM     34  C   UNL A   1      38.090  29.746  27.625  1.00  0.00     0.010 A 
ATOM     35  C   UNL A   1      37.484  29.155  29.902  1.00  0.00     0.010 A 
ATOM     36  C   UNL A   1      38.449  29.238  28.885  1.00  0.00    -0.014 A 
BRANCH  36  37
ATOM     37  C   UNL A   1      39.831  28.777  29.146  1.00  0.00     0.031 A 
ATOM     38  C   UNL A   1      40.801  29.686  29.843  1.00  0.00     0.074 A 
ATOM     39  C   UNL A   1      40.221  27.559  28.722  1.00  0.00     0.049 A 
ATOM     40  N   UNL A   1      42.056  29.474  30.149  1.00  0.00    -0.248 NA
ATOM     41  C   UNL A   1      40.304  31.018  30.227  1.00  0.00     0.031 C 
ATOM     42  C   UNL A   1      39.381  26.603  27.996  1.00  0.00     0.029 A 
ATOM     43  N   UNL A   1      41.426  26.915  28.845  1.00  0.00    -0.354 N 
ATOM     44  C   UNL A   1      42.498  30.647  30.748  1.00  0.00     0.074 A 
ATOM     45  C   UNL A   1      41.399  31.586  30.710  1.00  0.00     0.031 C 
ATOM     46  C   UNL A   1      40.088  25.483  27.768  1.00  0.00     0.029 A 
ATOM     47  C   UNL A   1      41.436  25.654  28.298  1.00  0.00     0.049 A 
ATOM     48  H   UNL A   1      42.210  27.318  29.284  1.00  0.00     0.167 HD
ATOM     49  C   UNL A   1      43.703  30.910  31.303  1.00  0.00     0.031 A 
ATOM     50  C   UNL A   1      42.423  24.741  28.232  1.00  0.00     0.031 A 
ATOM     51  C   UNL A   1      44.791  29.972  31.349  1.00  0.00     0.049 A 
ATOM     52  C   UNL A   1      43.756  25.063  28.849  1.00  0.00     0.074 A 
ATOM     53  C   UNL A   1      46.036  30.122  31.933  1.00  0.00     0.029 A 
ATOM     54  N   UNL A   1      44.760  28.705  30.788  1.00  0.00    -0.354 N 
ATOM     55  N   UNL A   1      44.137  26.150  29.474  1.00  0.00    -0.248 NA
ATOM     56  C   UNL A   1      44.791  24.023  28.762  1.00  0.00     0.031 C 
ATOM     57  C   UNL A   1      46.777  28.963  31.682  1.00  0.00     0.029 A 
ATOM     58  C   UNL A   1      45.972  28.070  30.993  1.00  0.00     0.049 A 
ATOM     59  H   UNL A   1      43.990  28.314  30.315  1.00  0.00     0.167 HD
ATOM     60  C   UNL A   1      45.445  25.917  29.879  1.00  0.00     0.074 A 
ATOM     61  C   UNL A   1      45.784  24.577  29.444  1.00  0.00     0.031 C 
ATOM     62  C   UNL A   1      46.290  26.736  30.550  1.00  0.00     0.031 A 
BRANCH  49  63
ATOM     63  C   UNL A   1      43.902  32.274  31.904  1.00  0.00    -0.014 A 
ATOM     64  C   UNL A   1      44.392  33.342  31.136  1.00  0.00     0.009 A 
ATOM     65  C   UNL A   1      43.575  32.499  33.250  1.00  0.00     0.009 A 
ATOM     66  C   UNL A   1      44.586  34.599  31.713  1.00  0.00     0.001 A 
ATOM     67  C   UNL A   1      43.742  33.764  33.817  1.00  0.00     0.001 A 
ATOM     68  C   UNL A   1      44.256  34.810  33.051  1.00  0.00     0.000 A 
ENDBRANCH  49  63
BRANCH  50  69
ATOM     69  C   UNL A   1      42.186  23.430  27.575  1.00  0.00    -0.014 A 
ATOM     70  C   UNL A   1      41.603  22.369  28.286  1.00  0.00     0.009 A 
ATOM     71  C   UNL A   1      42.552  23.227  26.235  1.00  0.00     0.009 A 
ATOM     72  C   UNL A   1      41.418  21.125  27.677  1.00  0.00     0.001 A 
ATOM     73  C   UNL A   1      42.339  21.991  25.621  1.00  0.00     0.001 A 
ATOM     74  C   UNL A   1      41.783  20.938  26.344  1.00  0.00     0.000 A 
ENDBRANCH  50  69
BRANCH  62  75
ATOM     75  C   UNL A   1      47.650  26.194  30.885  1.00  0.00    -0.014 A 
ATOM     76  C   UNL A   1      48.696  26.224  29.951  1.00  0.00     0.009 A 
ATOM     77  C   UNL A   1      47.897  25.688  32.170  1.00  0.00     0.009 A 
ATOM     78  C   UNL A   1      49.957  25.727  30.289  1.00  0.00     0.001 A 
ATOM     79  C   UNL A   1      49.166  25.218  32.515  1.00  0.00     0.001 A 
ATOM     80  C   UNL A   1      50.191  25.229  31.571  1.00  0.00     0.000 A 
ENDBRANCH  62  75
ENDBRANCH  36  37
ENDBRANCH  28  31
ENDBRANCH  26  27
ENDBRANCH  25  26
ENDBRANCH  24  25
ENDBRANCH   1  24
TORSDOF 15
ENDMDL
MODEL 3
REMARK VINA RESULT:     -11.5      3.273      7.753
REMARK SMILES O=C(CC1(NC(=O)c2ccccc2[N+](=O)[O-])CCC1)NCCCCNC(=O)c1ccc(-c2c3nc(c(-c4ccccc4)c4ccc([nH]4)c(-c4ccccc4)c4nc(c(-c5ccccc5)c5ccc2[nH]5)C=C4)C=C3)cc1
REMARK SMILES IDX 21 1 20 2 1 3 2 4 3 6 4 7 17 8 19 9 18 10 5 11 6 12 7 14
REMARK SMILES IDX 8 15 9 16 13 17 10 18 12 19 11 20 14 21 15 22 16 23 22 24
REMARK SMILES IDX 23 25 24 26 25 27 26 28 27 30 28 31 29 32 75 33 30 34 74 35
REMARK SMILES IDX 31 36 32 37 33 38 68 39 34 40 73 41 67 42 69 43 35 44 72 45
REMARK SMILES IDX 66 46 65 47 36 49 58 50 43 51 57 52 44 53 47 54 56 55 70 56
REMARK SMILES IDX 45 57 46 58 55 60 71 61 48 62 37 63 38 64 42 65 39 66 41 67
REMARK SMILES IDX 40 68 59 69 60 70 64 71 61 72 63 73 62 74 49 75 50 76 54 77
REMARK SMILES IDX 51 78 53 79 52 80
REMARK H PARENT 20 5 5 13 25 29 69 48 47 59
REMARK Flexibility Score: inf
ROOT
ATOM      1  C   UNL A   1      34.205  23.383  22.585  1.00  0.00     0.116 C 
ENDROOT
BRANCH   1   2
ATOM      2  N   UNL A   1      32.784  23.556  22.768  1.00  0.00    -0.356 N 
ATOM      3  O   UNL A   1      32.762  25.666  21.931  1.00  0.00    -0.275 OA
ATOM      4  C   UNL A   1      32.177  24.751  22.494  1.00  0.00     0.222 C 
ATOM      5  H   UNL A   1      32.242  22.802  23.094  1.00  0.00     0.163 HD
BRANCH   4   6
ATOM      6  C   UNL A   1      30.774  24.824  23.049  1.00  0.00     0.128 C 
BRANCH   6   7
ATOM      7  C   UNL A   1      30.678  25.116  24.532  1.00  0.00     0.049 C 
ATOM      8  C   UNL A   1      32.058  25.765  24.902  1.00  0.00     0.029 C 
ATOM      9  C   UNL A   1      30.001  26.409  25.098  1.00  0.00     0.029 C 
ATOM     10  C   UNL A   1      31.355  26.928  25.594  1.00  0.00     0.005 C 
BRANCH   7  11
ATOM     11  N   UNL A   1      30.294  23.985  25.402  1.00  0.00    -0.346 N 
ATOM     12  C   UNL A   1      30.779  22.794  25.892  1.00  0.00     0.258 C 
ATOM     13  H   UNL A   1      29.384  24.133  25.747  1.00  0.00     0.164 HD
ATOM     14  O   UNL A   1      29.871  22.082  26.354  1.00  0.00    -0.269 OA
BRANCH  12  15
ATOM     15  C   UNL A   1      32.171  22.250  26.078  1.00  0.00     0.117 A 
ATOM     16  C   UNL A   1      32.870  22.944  27.107  1.00  0.00     0.021 A 
ATOM     17  C   UNL A   1      32.874  21.172  25.533  1.00  0.00     0.282 A 
ATOM     18  C   UNL A   1      34.147  22.587  27.566  1.00  0.00     0.001 A 
ATOM     19  C   UNL A   1      34.189  20.829  25.962  1.00  0.00     0.086 A 
ATOM     20  C   UNL A   1      34.816  21.527  26.984  1.00  0.00     0.007 A 
BRANCH  17  21
ATOM     21  N   UNL A   1      32.307  20.233  24.603  1.00  0.00     0.063 N 
ATOM     22  O   UNL A   1      32.027  19.104  25.013  1.00  0.00    -0.258 OA
ATOM     23  O   UNL A   1      32.180  20.620  23.427  1.00  0.00    -0.258 OA
ENDBRANCH  17  21
ENDBRANCH  12  15
ENDBRANCH   7  11
ENDBRANCH   6   7
ENDBRANCH   4   6
ENDBRANCH   1   2
BRANCH   1  24
ATOM     24  C   UNL A   1      34.938  23.678  23.889  1.00  0.00     0.023 C 
BRANCH  24  25
ATOM     25  C   UNL A   1      36.403  23.228  23.899  1.00  0.00     0.023 C 
BRANCH  25  26
ATOM     26  C   UNL A   1      37.141  23.513  25.199  1.00  0.00     0.116 C 
BRANCH  26  27
ATOM     27  N   UNL A   1      38.227  22.586  25.460  1.00  0.00    -0.352 N 
ATOM     28  C   UNL A   1      39.377  22.837  26.172  1.00  0.00     0.251 C 
ATOM     29  H   UNL A   1      38.130  21.681  25.086  1.00  0.00     0.163 HD
ATOM     30  O   UNL A   1      40.258  22.007  26.283  1.00  0.00    -0.269 OA
BRANCH  28  31
ATOM     31  C   UNL A   1      39.526  24.184  26.752  1.00  0.00     0.039 A 
ATOM     32  C   UNL A   1      39.092  24.393  28.061  1.00  0.00     0.014 A 
ATOM     33  C   UNL A   1      40.201  25.182  26.044  1.00  0.00     0.014 A 
ATOM     34  C   UNL A   1      39.384  25.603  28.687  1.00  0.00     0.010 A 
ATOM     35  C   UNL A   1      40.550  26.359  26.694  1.00  0.00     0.010 A 
ATOM     36  C   UNL A   1      40.140  26.581  28.019  1.00  0.00    -0.014 A 
BRANCH  36  37
ATOM     37  C   UNL A   1      40.497  27.849  28.695  1.00  0.00     0.031 A 
ATOM     38  C   UNL A   1      41.872  28.025  29.272  1.00  0.00     0.074 A 
ATOM     39  C   UNL A   1      39.574  28.822  28.822  1.00  0.00     0.049 A 
ATOM     40  N   UNL A   1      42.372  29.050  29.913  1.00  0.00    -0.248 NA
ATOM     41  C   UNL A   1      42.802  26.891  29.131  1.00  0.00     0.031 C 
ATOM     42  C   UNL A   1      38.192  28.750  28.341  1.00  0.00     0.029 A 
ATOM     43  N   UNL A   1      39.662  30.066  29.394  1.00  0.00    -0.354 N 
ATOM     44  C   UNL A   1      43.665  28.680  30.260  1.00  0.00     0.074 A 
ATOM     45  C   UNL A   1      43.853  27.318  29.812  1.00  0.00     0.031 C 
ATOM     46  C   UNL A   1      37.573  29.912  28.609  1.00  0.00     0.029 A 
ATOM     47  C   UNL A   1      38.500  30.794  29.310  1.00  0.00     0.049 A 
ATOM     48  H   UNL A   1      40.480  30.404  29.824  1.00  0.00     0.167 HD
ATOM     49  C   UNL A   1      44.620  29.416  30.873  1.00  0.00     0.031 A 
ATOM     50  C   UNL A   1      38.216  32.035  29.750  1.00  0.00     0.031 A 
ATOM     51  C   UNL A   1      44.434  30.774  31.309  1.00  0.00     0.049 A 
ATOM     52  C   UNL A   1      39.292  32.829  30.437  1.00  0.00     0.074 A 
ATOM     53  C   UNL A   1      45.353  31.625  31.896  1.00  0.00     0.029 A 
ATOM     54  N   UNL A   1      43.245  31.477  31.201  1.00  0.00    -0.354 N 
ATOM     55  N   UNL A   1      40.532  32.490  30.695  1.00  0.00    -0.248 NA
ATOM     56  C   UNL A   1      38.931  34.182  30.882  1.00  0.00     0.031 C 
ATOM     57  C   UNL A   1      44.705  32.829  32.189  1.00  0.00     0.029 A 
ATOM     58  C   UNL A   1      43.399  32.746  31.732  1.00  0.00     0.049 A 
ATOM     59  H   UNL A   1      42.413  31.127  30.806  1.00  0.00     0.167 HD
ATOM     60  C   UNL A   1      41.108  33.596  31.307  1.00  0.00     0.074 A 
ATOM     61  C   UNL A   1      40.085  34.622  31.364  1.00  0.00     0.031 C 
ATOM     62  C   UNL A   1      42.369  33.751  31.779  1.00  0.00     0.031 A 
BRANCH  49  63
ATOM     63  C   UNL A   1      45.952  28.760  31.109  1.00  0.00    -0.014 A 
ATOM     64  C   UNL A   1      46.214  28.052  32.293  1.00  0.00     0.009 A 
ATOM     65  C   UNL A   1      46.950  28.831  30.126  1.00  0.00     0.009 A 
ATOM     66  C   UNL A   1      47.461  27.462  32.504  1.00  0.00     0.001 A 
ATOM     67  C   UNL A   1      48.187  28.215  30.326  1.00  0.00     0.001 A 
ATOM     68  C   UNL A   1      48.444  27.539  31.519  1.00  0.00     0.000 A 
ENDBRANCH  49  63
BRANCH  50  69
ATOM     69  C   UNL A   1      36.863  32.611  29.538  1.00  0.00    -0.014 A 
ATOM     70  C   UNL A   1      35.878  32.508  30.533  1.00  0.00     0.009 A 
ATOM     71  C   UNL A   1      36.544  33.259  28.334  1.00  0.00     0.009 A 
ATOM     72  C   UNL A   1      34.595  33.015  30.315  1.00  0.00     0.001 A 
ATOM     73  C   UNL A   1      35.269  33.790  28.130  1.00  0.00     0.001 A 
ATOM     74  C   UNL A   1      34.292  33.659  29.116  1.00  0.00     0.000 A 
ENDBRANCH  50  69
BRANCH  62  75
ATOM     75  C   UNL A   1      42.722  35.088  32.367  1.00  0.00    -0.014 A 
ATOM     76  C   UNL A   1      42.382  35.415  33.688  1.00  0.00     0.009 A 
ATOM     77  C   UNL A   1      43.445  36.013  31.599  1.00  0.00     0.009 A 
ATOM     78  C   UNL A   1      42.733  36.658  34.218  1.00  0.00     0.001 A 
ATOM     79  C   UNL A   1      43.819  37.244  32.141  1.00  0.00     0.001 A 
ATOM     80  C   UNL A   1      43.455  37.568  33.446  1.00  0.00     0.000 A 
ENDBRANCH  62  75
ENDBRANCH  36  37
ENDBRANCH  28  31
ENDBRANCH  26  27
ENDBRANCH  25  26
ENDBRANCH  24  25
ENDBRANCH   1  24
TORSDOF 15
ENDMDL
