MODEL 1
REMARK VINA RESULT:     -12.2      0.000      0.000
REMARK SMILES O=C(NCCCCNC(=O)[C@@H]1CCCN1S(=O)(=O)c1ccc2[nH]c(=O)c(=O)[nH]c2c1)c1ccc(-c2c3nc(c(-c4ccccc4)c4ccc([nH]4)c(-c4ccccc4)c4nc(c(-c5ccccc5)c5ccc2[nH]5)C=C4)C=C3)cc1
REMARK SMILES IDX 5 1 4 2 3 3 1 4 2 5 31 7 32 8 78 9 33 10 77 11 34 12 35 13
REMARK SMILES IDX 36 14 71 15 37 16 76 17 70 18 72 19 38 20 75 21 69 22 68 23
REMARK SMILES IDX 39 25 61 26 46 27 60 28 47 29 50 30 59 31 73 32 48 33 49 34
REMARK SMILES IDX 58 36 74 37 51 38 40 39 41 40 45 41 42 42 44 43 43 44 62 45
REMARK SMILES IDX 63 46 67 47 64 48 66 49 65 50 52 51 53 52 57 53 54 54 56 55
REMARK SMILES IDX 55 56 6 57 7 58 8 59 9 60 10 62 11 63 12 64 15 65 13 66
REMARK SMILES IDX 14 67 16 68 17 69 18 70 19 71 20 72 30 73 21 74 29 75 22 76
REMARK SMILES IDX 28 77 23 78 26 79 24 81 27 83 25 84
REMARK H PARENT 3 6 72 24 50 35 8 61 28 80 23 82
REMARK Flexibility Score: inf
ROOT
ATOM      1  C   UNL A   1      32.453  27.906  27.217  1.00  0.00     0.023 C 
ENDROOT
BRANCH   1   2
ATOM      2  C   UNL A   1      33.816  28.591  27.263  1.00  0.00     0.116 C 
BRANCH   2   3
ATOM      3  N   UNL A   1      33.701  29.989  27.638  1.00  0.00    -0.352 N 
ATOM      4  O   UNL A   1      34.225  31.865  28.767  1.00  0.00    -0.269 OA
ATOM      5  C   UNL A   1      34.582  30.774  28.335  1.00  0.00     0.251 C 
ATOM      6  H   UNL A   1      32.872  30.437  27.350  1.00  0.00     0.163 HD
BRANCH   5   7
ATOM      7  C   UNL A   1      35.961  30.301  28.575  1.00  0.00     0.039 A 
ATOM      8  C   UNL A   1      36.341  29.795  29.823  1.00  0.00     0.014 A 
ATOM      9  C   UNL A   1      36.872  30.322  27.516  1.00  0.00     0.014 A 
ATOM     10  C   UNL A   1      37.657  29.397  30.040  1.00  0.00     0.010 A 
ATOM     11  C   UNL A   1      38.176  29.869  27.718  1.00  0.00     0.010 A 
ATOM     12  C   UNL A   1      38.582  29.420  28.985  1.00  0.00    -0.014 A 
BRANCH  12  13
ATOM     13  C   UNL A   1      39.964  28.920  29.186  1.00  0.00     0.031 A 
ATOM     14  C   UNL A   1      41.041  29.831  29.696  1.00  0.00     0.074 A 
ATOM     15  C   UNL A   1      40.252  27.648  28.858  1.00  0.00     0.049 A 
ATOM     16  N   UNL A   1      42.319  29.593  29.844  1.00  0.00    -0.248 NA
ATOM     17  C   UNL A   1      40.631  31.191  30.081  1.00  0.00     0.031 C 
ATOM     18  C   UNL A   1      39.292  26.668  28.351  1.00  0.00     0.029 A 
ATOM     19  N   UNL A   1      41.443  26.967  28.889  1.00  0.00    -0.354 N 
ATOM     20  C   UNL A   1      42.872  30.777  30.313  1.00  0.00     0.074 A 
ATOM     21  C   UNL A   1      41.793  31.738  30.410  1.00  0.00     0.031 C 
ATOM     22  C   UNL A   1      39.929  25.510  28.120  1.00  0.00     0.029 A 
ATOM     23  C   UNL A   1      41.348  25.684  28.411  1.00  0.00     0.049 A 
ATOM     24  H   UNL A   1      42.282  27.360  29.220  1.00  0.00     0.167 HD
ATOM     25  C   UNL A   1      44.163  31.040  30.631  1.00  0.00     0.031 A 
ATOM     26  C   UNL A   1      42.299  24.758  28.196  1.00  0.00     0.031 A 
ATOM     27  C   UNL A   1      45.233  30.084  30.529  1.00  0.00     0.049 A 
ATOM     28  C   UNL A   1      43.727  25.081  28.519  1.00  0.00     0.074 A 
ATOM     29  C   UNL A   1      46.566  30.242  30.869  1.00  0.00     0.029 A 
ATOM     30  N   UNL A   1      45.096  28.795  30.038  1.00  0.00    -0.354 N 
ATOM     31  N   UNL A   1      44.229  26.192  29.000  1.00  0.00    -0.248 NA
ATOM     32  C   UNL A   1      44.718  24.025  28.274  1.00  0.00     0.031 C 
ATOM     33  C   UNL A   1      47.243  29.063  30.537  1.00  0.00     0.029 A 
ATOM     34  C   UNL A   1      46.323  28.155  30.040  1.00  0.00     0.049 A 
ATOM     35  H   UNL A   1      44.249  28.393  29.734  1.00  0.00     0.167 HD
ATOM     36  C   UNL A   1      45.592  25.964  29.136  1.00  0.00     0.074 A 
ATOM     37  C   UNL A   1      45.836  24.605  28.691  1.00  0.00     0.031 C 
ATOM     38  C   UNL A   1      46.551  26.804  29.593  1.00  0.00     0.031 A 
BRANCH  25  39
ATOM     39  C   UNL A   1      44.490  32.435  31.085  1.00  0.00    -0.014 A 
ATOM     40  C   UNL A   1      44.449  32.794  32.441  1.00  0.00     0.009 A 
ATOM     41  C   UNL A   1      44.864  33.401  30.138  1.00  0.00     0.009 A 
ATOM     42  C   UNL A   1      44.736  34.103  32.835  1.00  0.00     0.001 A 
ATOM     43  C   UNL A   1      45.176  34.702  30.536  1.00  0.00     0.001 A 
ATOM     44  C   UNL A   1      45.101  35.055  31.882  1.00  0.00     0.000 A 
ENDBRANCH  25  39
BRANCH  26  45
ATOM     45  C   UNL A   1      41.913  23.444  27.623  1.00  0.00    -0.014 A 
ATOM     46  C   UNL A   1      41.297  22.471  28.422  1.00  0.00     0.009 A 
ATOM     47  C   UNL A   1      42.104  23.184  26.256  1.00  0.00     0.009 A 
ATOM     48  C   UNL A   1      40.885  21.259  27.863  1.00  0.00     0.001 A 
ATOM     49  C   UNL A   1      41.669  21.983  25.697  1.00  0.00     0.001 A 
ATOM     50  C   UNL A   1      41.064  21.019  26.500  1.00  0.00     0.000 A 
ENDBRANCH  26  45
BRANCH  38  51
ATOM     51  C   UNL A   1      47.952  26.272  29.669  1.00  0.00    -0.014 A 
ATOM     52  C   UNL A   1      48.807  26.308  28.558  1.00  0.00     0.009 A 
ATOM     53  C   UNL A   1      48.443  25.788  30.893  1.00  0.00     0.009 A 
ATOM     54  C   UNL A   1      50.122  25.852  28.666  1.00  0.00     0.001 A 
ATOM     55  C   UNL A   1      49.763  25.354  31.004  1.00  0.00     0.001 A 
ATOM     56  C   UNL A   1      50.600  25.381  29.889  1.00  0.00     0.000 A 
ENDBRANCH  38  51
ENDBRANCH  12  13
ENDBRANCH   5   7
ENDBRANCH   2   3
ENDBRANCH   1   2
BRANCH   1  57
ATOM     57  C   UNL A   1      31.725  28.024  25.872  1.00  0.00     0.023 C 
BRANCH  57  58
ATOM     58  C   UNL A   1      32.650  28.060  24.651  1.00  0.00     0.116 C 
BRANCH  58  59
ATOM     59  N   UNL A   1      32.363  26.932  23.784  1.00  0.00    -0.355 N 
ATOM     60  C   UNL A   1      33.112  25.812  23.560  1.00  0.00     0.238 C 
ATOM     61  H   UNL A   1      31.512  26.980  23.290  1.00  0.00     0.163 HD
ATOM     62  O   UNL A   1      33.030  25.298  22.445  1.00  0.00    -0.273 OA
BRANCH  60  63
ATOM     63  C   UNL A   1      33.942  25.226  24.681  1.00  0.00     0.162 C 
ATOM     64  C   UNL A   1      34.798  24.062  24.196  1.00  0.00     0.032 C 
ATOM     65  N   UNL A   1      33.281  24.697  25.923  1.00  0.00    -0.185 NA
ATOM     66  C   UNL A   1      35.408  23.571  25.491  1.00  0.00     0.019 C 
ATOM     67  C   UNL A   1      34.296  23.746  26.523  1.00  0.00     0.103 C 
BRANCH  65  68
ATOM     68  S   UNL A   1      31.722  23.974  25.842  1.00  0.00     0.243 S 
ATOM     69  O   UNL A   1      31.261  23.720  27.191  1.00  0.00    -0.207 OA
ATOM     70  O   UNL A   1      30.932  24.804  24.956  1.00  0.00    -0.207 OA
BRANCH  68  71
ATOM     71  C   UNL A   1      31.900  22.415  24.995  1.00  0.00     0.084 A 
ATOM     72  C   UNL A   1      31.975  22.368  23.599  1.00  0.00     0.024 A 
ATOM     73  C   UNL A   1      32.190  21.263  25.742  1.00  0.00     0.050 A 
ATOM     74  C   UNL A   1      32.170  21.153  22.938  1.00  0.00     0.030 A 
ATOM     75  C   UNL A   1      32.475  20.069  25.079  1.00  0.00     0.066 A 
ATOM     76  C   UNL A   1      32.416  20.004  23.682  1.00  0.00     0.065 A 
ATOM     77  N   UNL A   1      32.870  18.941  25.805  1.00  0.00    -0.316 N 
ATOM     78  N   UNL A   1      32.636  18.792  23.027  1.00  0.00    -0.316 N 
ATOM     79  C   UNL A   1      33.183  17.734  25.217  1.00  0.00     0.314 A 
ATOM     80  H   UNL A   1      32.926  19.012  26.786  1.00  0.00     0.170 HD
ATOM     81  C   UNL A   1      32.969  17.629  23.686  1.00  0.00     0.314 A 
ATOM     82  H   UNL A   1      32.549  18.765  22.047  1.00  0.00     0.170 HD
ATOM     83  O   UNL A   1      33.608  16.789  25.867  1.00  0.00    -0.263 OA
ATOM     84  O   UNL A   1      33.093  16.568  23.090  1.00  0.00    -0.263 OA
ENDBRANCH  68  71
ENDBRANCH  65  68
ENDBRANCH  60  63
ENDBRANCH  58  59
ENDBRANCH  57  58
ENDBRANCH   1  57
TORSDOF 13
ENDMDL
MODEL 2
REMARK VINA RESULT:     -12.1      2.611      6.842
REMARK SMILES O=C(NCCCCNC(=O)[C@@H]1CCCN1S(=O)(=O)c1ccc2[nH]c(=O)c(=O)[nH]c2c1)c1ccc(-c2c3nc(c(-c4ccccc4)c4ccc([nH]4)c(-c4ccccc4)c4nc(c(-c5ccccc5)c5ccc2[nH]5)C=C4)C=C3)cc1
REMARK SMILES IDX 5 1 4 2 3 3 1 4 2 5 31 7 32 8 78 9 33 10 77 11 34 12 35 13
REMARK SMILES IDX 36 14 71 15 37 16 76 17 70 18 72 19 38 20 75 21 69 22 68 23
REMARK SMILES IDX 39 25 61 26 46 27 60 28 47 29 50 30 59 31 73 32 48 33 49 34
REMARK SMILES IDX 58 36 74 37 51 38 40 39 41 40 45 41 42 42 44 43 43 44 62 45
REMARK SMILES IDX 63 46 67 47 64 48 66 49 65 50 52 51 53 52 57 53 54 54 56 55
REMARK SMILES IDX 55 56 6 57 7 58 8 59 9 60 10 62 11 63 12 64 15 65 13 66
REMARK SMILES IDX 14 67 16 68 17 69 18 70 19 71 20 72 30 73 21 74 29 75 22 76
REMARK SMILES IDX 28 77 23 78 26 79 24 81 27 83 25 84
REMARK H PARENT 3 6 72 24 50 35 8 61 28 80 23 82
REMARK Flexibility Score: inf
ROOT
ATOM      1  C   UNL A   1      31.336  31.197  26.122  1.00  0.00     0.023 C 
ENDROOT
BRANCH   1   2
ATOM      2  C   UNL A   1      32.477  31.702  27.001  1.00  0.00     0.116 C 
BRANCH   2   3
ATOM      3  N   UNL A   1      32.300  33.098  27.358  1.00  0.00    -0.352 N 
ATOM      4  O   UNL A   1      32.613  34.963  28.580  1.00  0.00    -0.269 OA
ATOM      5  C   UNL A   1      33.040  33.873  28.214  1.00  0.00     0.251 C 
ATOM      6  H   UNL A   1      31.542  33.552  26.925  1.00  0.00     0.163 HD
BRANCH   5   7
ATOM      7  C   UNL A   1      34.347  33.390  28.703  1.00  0.00     0.039 A 
ATOM      8  C   UNL A   1      34.435  32.583  29.843  1.00  0.00     0.014 A 
ATOM      9  C   UNL A   1      35.497  33.714  27.978  1.00  0.00     0.014 A 
ATOM     10  C   UNL A   1      35.682  32.176  30.312  1.00  0.00     0.010 A 
ATOM     11  C   UNL A   1      36.741  33.258  28.417  1.00  0.00     0.010 A 
ATOM     12  C   UNL A   1      36.843  32.502  29.595  1.00  0.00    -0.014 A 
BRANCH  12  13
ATOM     13  C   UNL A   1      38.167  32.003  30.042  1.00  0.00     0.031 A 
ATOM     14  C   UNL A   1      38.721  30.717  29.507  1.00  0.00     0.074 A 
ATOM     15  C   UNL A   1      38.846  32.698  30.974  1.00  0.00     0.049 A 
ATOM     16  N   UNL A   1      39.813  30.084  29.852  1.00  0.00    -0.248 NA
ATOM     17  C   UNL A   1      37.941  30.047  28.454  1.00  0.00     0.031 C 
ATOM     18  C   UNL A   1      38.410  33.960  31.570  1.00  0.00     0.029 A 
ATOM     19  N   UNL A   1      40.041  32.429  31.592  1.00  0.00    -0.354 N 
ATOM     20  C   UNL A   1      39.841  28.930  29.080  1.00  0.00     0.074 A 
ATOM     21  C   UNL A   1      38.647  28.942  28.260  1.00  0.00     0.031 C 
ATOM     22  C   UNL A   1      39.325  34.359  32.467  1.00  0.00     0.029 A 
ATOM     23  C   UNL A   1      40.380  33.355  32.545  1.00  0.00     0.049 A 
ATOM     24  H   UNL A   1      40.599  31.648  31.373  1.00  0.00     0.167 HD
ATOM     25  C   UNL A   1      40.775  27.949  29.059  1.00  0.00     0.031 A 
ATOM     26  C   UNL A   1      41.407  33.381  33.414  1.00  0.00     0.031 A 
ATOM     27  C   UNL A   1      41.958  27.938  29.879  1.00  0.00     0.049 A 
ATOM     28  C   UNL A   1      42.410  32.266  33.400  1.00  0.00     0.074 A 
ATOM     29  C   UNL A   1      42.985  27.011  29.898  1.00  0.00     0.029 A 
ATOM     30  N   UNL A   1      42.264  28.895  30.834  1.00  0.00    -0.354 N 
ATOM     31  N   UNL A   1      42.444  31.201  32.637  1.00  0.00    -0.248 NA
ATOM     32  C   UNL A   1      43.515  32.356  34.364  1.00  0.00     0.031 C 
ATOM     33  C   UNL A   1      43.888  27.381  30.902  1.00  0.00     0.029 A 
ATOM     34  C   UNL A   1      43.449  28.566  31.469  1.00  0.00     0.049 A 
ATOM     35  H   UNL A   1      41.718  29.691  31.032  1.00  0.00     0.167 HD
ATOM     36  C   UNL A   1      43.585  30.504  33.011  1.00  0.00     0.074 A 
ATOM     37  C   UNL A   1      44.217  31.271  34.068  1.00  0.00     0.031 C 
ATOM     38  C   UNL A   1      44.065  29.337  32.519  1.00  0.00     0.031 A 
BRANCH  25  39
ATOM     39  C   UNL A   1      40.530  26.784  28.141  1.00  0.00    -0.014 A 
ATOM     40  C   UNL A   1      41.078  26.739  26.850  1.00  0.00     0.009 A 
ATOM     41  C   UNL A   1      39.752  25.704  28.586  1.00  0.00     0.009 A 
ATOM     42  C   UNL A   1      40.818  25.655  26.008  1.00  0.00     0.001 A 
ATOM     43  C   UNL A   1      39.514  24.610  27.752  1.00  0.00     0.001 A 
ATOM     44  C   UNL A   1      40.037  24.592  26.461  1.00  0.00     0.000 A 
ENDBRANCH  25  39
BRANCH  26  45
ATOM     45  C   UNL A   1      41.509  34.503  34.379  1.00  0.00    -0.014 A 
ATOM     46  C   UNL A   1      42.176  35.686  34.030  1.00  0.00     0.009 A 
ATOM     47  C   UNL A   1      40.885  34.417  35.634  1.00  0.00     0.009 A 
ATOM     48  C   UNL A   1      42.219  36.759  34.923  1.00  0.00     0.001 A 
ATOM     49  C   UNL A   1      40.910  35.500  36.513  1.00  0.00     0.001 A 
ATOM     50  C   UNL A   1      41.580  36.669  36.159  1.00  0.00     0.000 A 
ENDBRANCH  26  45
BRANCH  38  51
ATOM     51  C   UNL A   1      45.356  28.829  33.091  1.00  0.00    -0.014 A 
ATOM     52  C   UNL A   1      45.372  27.929  34.167  1.00  0.00     0.009 A 
ATOM     53  C   UNL A   1      46.572  29.207  32.499  1.00  0.00     0.009 A 
ATOM     54  C   UNL A   1      46.583  27.432  34.651  1.00  0.00     0.001 A 
ATOM     55  C   UNL A   1      47.779  28.692  32.970  1.00  0.00     0.001 A 
ATOM     56  C   UNL A   1      47.784  27.808  34.049  1.00  0.00     0.000 A 
ENDBRANCH  38  51
ENDBRANCH  12  13
ENDBRANCH   5   7
ENDBRANCH   2   3
ENDBRANCH   1   2
BRANCH   1  57
ATOM     57  C   UNL A   1      31.712  30.036  25.193  1.00  0.00     0.023 C 
BRANCH  57  58
ATOM     58  C   UNL A   1      31.750  28.664  25.876  1.00  0.00     0.116 C 
BRANCH  58  59
ATOM     59  N   UNL A   1      30.672  27.834  25.368  1.00  0.00    -0.355 N 
ATOM     60  C   UNL A   1      30.560  27.230  24.148  1.00  0.00     0.238 C 
ATOM     61  H   UNL A   1      29.920  27.686  25.987  1.00  0.00     0.163 HD
ATOM     62  O   UNL A   1      29.423  27.088  23.697  1.00  0.00    -0.273 OA
BRANCH  60  63
ATOM     63  C   UNL A   1      31.797  26.714  23.448  1.00  0.00     0.162 C 
ATOM     64  C   UNL A   1      31.579  26.585  21.945  1.00  0.00     0.032 C 
ATOM     65  N   UNL A   1      32.402  25.395  23.840  1.00  0.00    -0.185 NA
ATOM     66  C   UNL A   1      32.872  25.936  21.503  1.00  0.00     0.019 C 
ATOM     67  C   UNL A   1      33.219  24.974  22.636  1.00  0.00     0.103 C 
BRANCH  65  68
ATOM     68  S   UNL A   1      31.405  24.109  24.396  1.00  0.00     0.243 S 
ATOM     69  O   UNL A   1      30.889  24.458  25.703  1.00  0.00    -0.207 OA
ATOM     70  O   UNL A   1      30.486  23.809  23.318  1.00  0.00    -0.207 OA
BRANCH  68  71
ATOM     71  C   UNL A   1      32.436  22.663  24.555  1.00  0.00     0.084 A 
ATOM     72  C   UNL A   1      33.360  22.559  25.599  1.00  0.00     0.024 A 
ATOM     73  C   UNL A   1      32.158  21.538  23.763  1.00  0.00     0.050 A 
ATOM     74  C   UNL A   1      34.129  21.403  25.756  1.00  0.00     0.030 A 
ATOM     75  C   UNL A   1      32.864  20.354  23.980  1.00  0.00     0.066 A 
ATOM     76  C   UNL A   1      33.880  20.303  24.942  1.00  0.00     0.065 A 
ATOM     77  N   UNL A   1      32.525  19.196  23.274  1.00  0.00    -0.316 N 
ATOM     78  N   UNL A   1      34.627  19.137  25.109  1.00  0.00    -0.316 N 
ATOM     79  C   UNL A   1      33.166  17.988  23.449  1.00  0.00     0.314 A 
ATOM     80  H   UNL A   1      31.793  19.246  22.617  1.00  0.00     0.170 HD
ATOM     81  C   UNL A   1      34.387  17.980  24.403  1.00  0.00     0.314 A 
ATOM     82  H   UNL A   1      35.363  19.141  25.764  1.00  0.00     0.170 HD
ATOM     83  O   UNL A   1      32.795  16.971  22.881  1.00  0.00    -0.263 OA
ATOM     84  O   UNL A   1      35.101  16.993  24.527  1.00  0.00    -0.263 OA
ENDBRANCH  68  71
ENDBRANCH  65  68
ENDBRANCH  60  63
ENDBRANCH  58  59
ENDBRANCH  57  58
ENDBRANCH   1  57
TORSDOF 13
ENDMDL
MODEL 3
REMARK VINA RESULT:     -12.0      2.343      7.948
REMARK SMILES O=C(NCCCCNC(=O)[C@@H]1CCCN1S(=O)(=O)c1ccc2[nH]c(=O)c(=O)[nH]c2c1)c1ccc(-c2c3nc(c(-c4ccccc4)c4ccc([nH]4)c(-c4ccccc4)c4nc(c(-c5ccccc5)c5ccc2[nH]5)C=C4)C=C3)cc1
REMARK SMILES IDX 5 1 4 2 3 3 1 4 2 5 31 7 32 8 78 9 33 10 77 11 34 12 35 13
REMARK SMILES IDX 36 14 71 15 37 16 76 17 70 18 72 19 38 20 75 21 69 22 68 23
REMARK SMILES IDX 39 25 61 26 46 27 60 28 47 29 50 30 59 31 73 32 48 33 49 34
REMARK SMILES IDX 58 36 74 37 51 38 40 39 41 40 45 41 42 42 44 43 43 44 62 45
REMARK SMILES IDX 63 46 67 47 64 48 66 49 65 50 52 51 53 52 57 53 54 54 56 55
REMARK SMILES IDX 55 56 6 57 7 58 8 59 9 60 10 62 11 63 12 64 15 65 13 66
REMARK SMILES IDX 14 67 16 68 17 69 18 70 19 71 20 72 30 73 21 74 29 75 22 76
REMARK SMILES IDX 28 77 23 78 26 79 24 81 27 83 25 84
REMARK H PARENT 3 6 72 24 50 35 8 61 28 80 23 82
REMARK Flexibility Score: inf
ROOT
ATOM      1  C   UNL A   1      37.247  19.890  24.765  1.00  0.00     0.023 C 
ENDROOT
BRANCH   1   2
ATOM      2  C   UNL A   1      38.469  20.515  25.432  1.00  0.00     0.116 C 
BRANCH   2   3
ATOM      3  N   UNL A   1      39.549  19.555  25.578  1.00  0.00    -0.352 N 
ATOM      4  O   UNL A   1      41.684  18.883  25.818  1.00  0.00    -0.269 OA
ATOM      5  C   UNL A   1      40.844  19.763  25.976  1.00  0.00     0.251 C 
ATOM      6  H   UNL A   1      39.318  18.623  25.359  1.00  0.00     0.163 HD
BRANCH   5   7
ATOM      7  C   UNL A   1      41.230  21.051  26.588  1.00  0.00     0.039 A 
ATOM      8  C   UNL A   1      41.068  21.272  27.960  1.00  0.00     0.014 A 
ATOM      9  C   UNL A   1      41.809  22.032  25.779  1.00  0.00     0.014 A 
ATOM     10  C   UNL A   1      41.397  22.510  28.507  1.00  0.00     0.010 A 
ATOM     11  C   UNL A   1      42.191  23.251  26.340  1.00  0.00     0.010 A 
ATOM     12  C   UNL A   1      41.972  23.504  27.703  1.00  0.00    -0.014 A 
BRANCH  12  13
ATOM     13  C   UNL A   1      42.401  24.795  28.294  1.00  0.00     0.031 A 
ATOM     14  C   UNL A   1      41.410  25.893  28.537  1.00  0.00     0.074 A 
ATOM     15  C   UNL A   1      43.705  24.987  28.568  1.00  0.00     0.049 A 
ATOM     16  N   UNL A   1      41.619  27.115  28.958  1.00  0.00    -0.248 NA
ATOM     17  C   UNL A   1      39.997  25.584  28.260  1.00  0.00     0.031 C 
ATOM     18  C   UNL A   1      44.763  23.996  28.375  1.00  0.00     0.029 A 
ATOM     19  N   UNL A   1      44.361  26.089  29.053  1.00  0.00    -0.354 N 
ATOM     20  C   UNL A   1      40.374  27.728  28.972  1.00  0.00     0.074 A 
ATOM     21  C   UNL A   1      39.415  26.750  28.503  1.00  0.00     0.031 C 
ATOM     22  C   UNL A   1      45.937  24.533  28.739  1.00  0.00     0.029 A 
ATOM     23  C   UNL A   1      45.720  25.919  29.139  1.00  0.00     0.049 A 
ATOM     24  H   UNL A   1      43.903  26.921  29.313  1.00  0.00     0.167 HD
ATOM     25  C   UNL A   1      40.059  28.994  29.342  1.00  0.00     0.031 A 
ATOM     26  C   UNL A   1      46.692  26.788  29.470  1.00  0.00     0.031 A 
ATOM     27  C   UNL A   1      41.016  29.965  29.803  1.00  0.00     0.049 A 
ATOM     28  C   UNL A   1      46.326  28.194  29.839  1.00  0.00     0.074 A 
ATOM     29  C   UNL A   1      40.789  31.258  30.241  1.00  0.00     0.029 A 
ATOM     30  N   UNL A   1      42.384  29.753  29.874  1.00  0.00    -0.354 N 
ATOM     31  N   UNL A   1      45.140  28.750  29.886  1.00  0.00    -0.248 NA
ATOM     32  C   UNL A   1      47.430  29.093  30.201  1.00  0.00     0.031 C 
ATOM     33  C   UNL A   1      42.026  31.845  30.529  1.00  0.00     0.029 A 
ATOM     34  C   UNL A   1      43.018  30.899  30.321  1.00  0.00     0.049 A 
ATOM     35  H   UNL A   1      42.838  28.911  29.640  1.00  0.00     0.167 HD
ATOM     36  C   UNL A   1      45.350  30.056  30.305  1.00  0.00     0.074 A 
ATOM     37  C   UNL A   1      46.779  30.209  30.502  1.00  0.00     0.031 C 
ATOM     38  C   UNL A   1      44.439  31.038  30.511  1.00  0.00     0.031 A 
BRANCH  25  39
ATOM     39  C   UNL A   1      38.619  29.408  29.222  1.00  0.00    -0.014 A 
ATOM     40  C   UNL A   1      37.716  29.238  30.282  1.00  0.00     0.009 A 
ATOM     41  C   UNL A   1      38.166  29.997  28.031  1.00  0.00     0.009 A 
ATOM     42  C   UNL A   1      36.378  29.611  30.138  1.00  0.00     0.001 A 
ATOM     43  C   UNL A   1      36.834  30.393  27.898  1.00  0.00     0.001 A 
ATOM     44  C   UNL A   1      35.939  30.190  28.948  1.00  0.00     0.000 A 
ENDBRANCH  25  39
BRANCH  26  45
ATOM     45  C   UNL A   1      48.106  26.337  29.439  1.00  0.00    -0.014 A 
ATOM     46  C   UNL A   1      48.696  25.763  30.574  1.00  0.00     0.009 A 
ATOM     47  C   UNL A   1      48.852  26.425  28.253  1.00  0.00     0.009 A 
ATOM     48  C   UNL A   1      50.009  25.290  30.522  1.00  0.00     0.001 A 
ATOM     49  C   UNL A   1      50.154  25.929  28.197  1.00  0.00     0.001 A 
ATOM     50  C   UNL A   1      50.734  25.366  29.332  1.00  0.00     0.000 A 
ENDBRANCH  26  45
BRANCH  38  51
ATOM     51  C   UNL A   1      44.951  32.358  31.007  1.00  0.00    -0.014 A 
ATOM     52  C   UNL A   1      45.290  33.389  30.118  1.00  0.00     0.009 A 
ATOM     53  C   UNL A   1      45.032  32.594  32.390  1.00  0.00     0.009 A 
ATOM     54  C   UNL A   1      45.718  34.625  30.605  1.00  0.00     0.001 A 
ATOM     55  C   UNL A   1      45.438  33.837  32.872  1.00  0.00     0.001 A 
ATOM     56  C   UNL A   1      45.786  34.850  31.980  1.00  0.00     0.000 A 
ENDBRANCH  38  51
ENDBRANCH  12  13
ENDBRANCH   5   7
ENDBRANCH   2   3
ENDBRANCH   1   2
BRANCH   1  57
ATOM     57  C   UNL A   1      35.901  20.426  25.271  1.00  0.00     0.023 C 
BRANCH  57  58
ATOM     58  C   UNL A   1      35.476  21.760  24.648  1.00  0.00     0.116 C 
BRANCH  58  59
ATOM     59  N   UNL A   1      34.306  21.559  23.810  1.00  0.00    -0.355 N 
ATOM     60  C   UNL A   1      32.988  21.559  24.169  1.00  0.00     0.238 C 
ATOM     61  H   UNL A   1      34.488  21.402  22.855  1.00  0.00     0.163 HD
ATOM     62  O   UNL A   1      32.233  20.835  23.519  1.00  0.00    -0.273 OA
BRANCH  60  63
ATOM     63  C   UNL A   1      32.509  22.471  25.275  1.00  0.00     0.162 C 
ATOM     64  C   UNL A   1      31.137  22.055  25.793  1.00  0.00     0.032 C 
ATOM     65  N   UNL A   1      32.373  23.950  25.040  1.00  0.00    -0.185 NA
ATOM     66  C   UNL A   1      30.825  23.171  26.765  1.00  0.00     0.019 C 
ATOM     67  C   UNL A   1      31.402  24.420  26.103  1.00  0.00     0.103 C 
BRANCH  65  68
ATOM     68  S   UNL A   1      31.936  24.550  23.489  1.00  0.00     0.243 S 
ATOM     69  O   UNL A   1      33.096  24.482  22.625  1.00  0.00    -0.207 OA
ATOM     70  O   UNL A   1      30.718  23.862  23.113  1.00  0.00    -0.207 OA
BRANCH  68  71
ATOM     71  C   UNL A   1      31.470  26.260  23.688  1.00  0.00     0.084 A 
ATOM     72  C   UNL A   1      32.443  27.241  23.904  1.00  0.00     0.024 A 
ATOM     73  C   UNL A   1      30.151  26.644  23.405  1.00  0.00     0.050 A 
ATOM     74  C   UNL A   1      32.084  28.587  24.006  1.00  0.00     0.030 A 
ATOM     75  C   UNL A   1      29.813  27.998  23.417  1.00  0.00     0.066 A 
ATOM     76  C   UNL A   1      30.766  28.962  23.764  1.00  0.00     0.065 A 
ATOM     77  N   UNL A   1      28.531  28.404  23.032  1.00  0.00    -0.316 N 
ATOM     78  N   UNL A   1      30.406  30.308  23.839  1.00  0.00    -0.316 N 
ATOM     79  C   UNL A   1      28.132  29.723  23.002  1.00  0.00     0.314 A 
ATOM     80  H   UNL A   1      27.881  27.712  22.769  1.00  0.00     0.170 HD
ATOM     81  C   UNL A   1      29.145  30.768  23.533  1.00  0.00     0.314 A 
ATOM     82  H   UNL A   1      31.086  30.960  24.126  1.00  0.00     0.170 HD
ATOM     83  O   UNL A   1      27.034  30.057  22.580  1.00  0.00    -0.263 OA
ATOM     84  O   UNL A   1      28.842  31.946  23.670  1.00  0.00    -0.263 OA
ENDBRANCH  68  71
ENDBRANCH  65  68
ENDBRANCH  60  63
ENDBRANCH  58  59
ENDBRANCH  57  58
ENDBRANCH   1  57
TORSDOF 13
ENDMDL
