MODEL 1
REMARK VINA RESULT:     -10.6      0.000      0.000
REMARK SMILES COCc1nc2ccccc2n1CC(=O)NCCCCNC(=O)c1ccc(-c2c3nc(c(-c4ccccc4)c4ccc([nH]4)c(-c4ccccc4)c4nc(c(-c5ccccc5)c5ccc2[nH]5)C=C4)C=C3)cc1
REMARK SMILES IDX 18 1 17 2 16 3 14 4 15 5 13 7 12 8 4 9 5 10 6 11 11 12 7 13
REMARK SMILES IDX 10 14 8 15 9 16 3 17 2 18 1 19 19 20 20 21 21 22 22 23 23 25
REMARK SMILES IDX 24 26 25 27 71 28 26 29 70 30 27 31 28 32 29 33 64 34 30 35
REMARK SMILES IDX 69 36 63 37 65 38 31 39 68 40 62 41 61 42 32 44 54 45 39 46
REMARK SMILES IDX 53 47 40 48 43 49 52 50 66 51 41 52 42 53 51 55 67 56 44 57
REMARK SMILES IDX 33 58 34 59 38 60 35 61 37 62 36 63 55 64 56 65 60 66 57 67
REMARK SMILES IDX 59 68 58 69 45 70 46 71 50 72 47 73 49 74 48 75
REMARK H PARENT 16 6 21 24 65 43 43 54
REMARK Flexibility Score: inf
ROOT
ATOM      1  C   UNL A   1      38.280  23.640  26.158  1.00  0.00     0.023 C 
ENDROOT
BRANCH   1   2
ATOM      2  C   UNL A   1      36.816  23.754  25.739  1.00  0.00     0.116 C 
BRANCH   2   3
ATOM      3  N   UNL A   1      35.922  23.185  26.728  1.00  0.00    -0.355 N 
ATOM      4  C   UNL A   1      34.560  23.164  26.735  1.00  0.00     0.240 C 
ATOM      5  O   UNL A   1      33.992  22.631  27.694  1.00  0.00    -0.273 OA
ATOM      6  H   UNL A   1      36.359  22.756  27.499  1.00  0.00     0.163 HD
BRANCH   4   7
ATOM      7  C   UNL A   1      33.765  23.747  25.586  1.00  0.00     0.223 C 
BRANCH   7   8
ATOM      8  N   UNL A   1      32.763  24.718  25.995  1.00  0.00    -0.316 N 
ATOM      9  C   UNL A   1      31.470  24.444  26.408  1.00  0.00     0.136 A 
ATOM     10  N   UNL A   1      30.868  25.562  26.772  1.00  0.00    -0.231 NA
ATOM     11  C   UNL A   1      31.778  26.567  26.616  1.00  0.00     0.089 A 
ATOM     12  C   UNL A   1      32.971  26.080  26.099  1.00  0.00     0.069 A 
ATOM     13  C   UNL A   1      31.659  27.929  26.930  1.00  0.00     0.030 A 
ATOM     14  C   UNL A   1      34.075  26.913  25.856  1.00  0.00     0.028 A 
ATOM     15  C   UNL A   1      32.763  28.765  26.737  1.00  0.00     0.002 A 
ATOM     16  C   UNL A   1      33.952  28.262  26.208  1.00  0.00     0.002 A 
BRANCH   9  17
ATOM     17  C   UNL A   1      30.904  23.054  26.493  1.00  0.00     0.235 C 
BRANCH  17  18
ATOM     18  O   UNL A   1      30.086  22.905  27.657  1.00  0.00    -0.377 OA
ATOM     19  C   UNL A   1      28.780  22.422  27.360  1.00  0.00     0.195 C 
ENDBRANCH  17  18
ENDBRANCH   9  17
ENDBRANCH   7   8
ENDBRANCH   4   7
ENDBRANCH   2   3
ENDBRANCH   1   2
BRANCH   1  20
ATOM     20  C   UNL A   1      38.825  22.206  26.139  1.00  0.00     0.023 C 
BRANCH  20  21
ATOM     21  C   UNL A   1      40.210  22.054  26.775  1.00  0.00     0.116 C 
BRANCH  21  22
ATOM     22  N   UNL A   1      41.304  22.194  25.834  1.00  0.00    -0.352 N 
ATOM     23  C   UNL A   1      42.267  23.140  25.625  1.00  0.00     0.251 C 
ATOM     24  H   UNL A   1      41.366  21.440  25.205  1.00  0.00     0.163 HD
ATOM     25  O   UNL A   1      43.143  22.860  24.803  1.00  0.00    -0.269 OA
BRANCH  23  26
ATOM     26  C   UNL A   1      42.272  24.490  26.245  1.00  0.00     0.039 A 
ATOM     27  C   UNL A   1      42.764  24.786  27.516  1.00  0.00     0.014 A 
ATOM     28  C   UNL A   1      41.643  25.511  25.507  1.00  0.00     0.014 A 
ATOM     29  C   UNL A   1      42.501  26.011  28.100  1.00  0.00     0.010 A 
ATOM     30  C   UNL A   1      41.403  26.753  26.074  1.00  0.00     0.010 A 
ATOM     31  C   UNL A   1      41.774  26.969  27.397  1.00  0.00    -0.014 A 
BRANCH  31  32
ATOM     32  C   UNL A   1      41.487  28.211  28.096  1.00  0.00     0.031 A 
ATOM     33  C   UNL A   1      42.530  29.259  27.951  1.00  0.00     0.074 A 
ATOM     34  C   UNL A   1      40.339  28.404  28.771  1.00  0.00     0.049 A 
ATOM     35  N   UNL A   1      43.222  29.840  28.877  1.00  0.00    -0.248 NA
ATOM     36  C   UNL A   1      42.936  29.615  26.581  1.00  0.00     0.031 C 
ATOM     37  C   UNL A   1      39.141  27.560  28.753  1.00  0.00     0.029 A 
ATOM     38  N   UNL A   1      39.956  29.473  29.522  1.00  0.00    -0.354 N 
ATOM     39  C   UNL A   1      44.042  30.755  28.219  1.00  0.00     0.074 A 
ATOM     40  C   UNL A   1      43.926  30.476  26.812  1.00  0.00     0.031 C 
ATOM     41  C   UNL A   1      38.096  28.268  29.234  1.00  0.00     0.029 A 
ATOM     42  C   UNL A   1      38.588  29.541  29.731  1.00  0.00     0.049 A 
ATOM     43  H   UNL A   1      40.591  30.134  29.883  1.00  0.00     0.167 HD
ATOM     44  C   UNL A   1      44.594  31.821  28.860  1.00  0.00     0.031 A 
ATOM     45  C   UNL A   1      37.899  30.610  30.192  1.00  0.00     0.031 A 
ATOM     46  C   UNL A   1      44.594  31.650  30.285  1.00  0.00     0.049 A 
ATOM     47  C   UNL A   1      38.854  31.503  30.884  1.00  0.00     0.074 A 
ATOM     48  C   UNL A   1      45.251  30.833  31.177  1.00  0.00     0.029 A 
ATOM     49  N   UNL A   1      43.534  32.204  30.958  1.00  0.00    -0.354 N 
ATOM     50  N   UNL A   1      39.469  31.190  31.988  1.00  0.00    -0.248 NA
ATOM     51  C   UNL A   1      39.418  32.627  30.153  1.00  0.00     0.031 C 
ATOM     52  C   UNL A   1      44.333  30.631  32.247  1.00  0.00     0.029 A 
ATOM     53  C   UNL A   1      43.176  31.368  31.982  1.00  0.00     0.049 A 
ATOM     54  H   UNL A   1      43.102  33.060  30.740  1.00  0.00     0.167 HD
ATOM     55  C   UNL A   1      40.717  31.781  31.874  1.00  0.00     0.074 A 
ATOM     56  C   UNL A   1      40.571  32.768  30.811  1.00  0.00     0.031 C 
ATOM     57  C   UNL A   1      41.815  31.215  32.457  1.00  0.00     0.031 A 
BRANCH  44  58
ATOM     58  C   UNL A   1      44.741  33.184  28.222  1.00  0.00    -0.014 A 
ATOM     59  C   UNL A   1      43.645  33.991  27.860  1.00  0.00     0.009 A 
ATOM     60  C   UNL A   1      46.002  33.810  28.238  1.00  0.00     0.009 A 
ATOM     61  C   UNL A   1      43.787  35.347  27.554  1.00  0.00     0.001 A 
ATOM     62  C   UNL A   1      46.143  35.178  27.970  1.00  0.00     0.001 A 
ATOM     63  C   UNL A   1      45.034  35.948  27.634  1.00  0.00     0.000 A 
ENDBRANCH  44  58
BRANCH  45  64
ATOM     64  C   UNL A   1      36.576  31.078  29.725  1.00  0.00    -0.014 A 
ATOM     65  C   UNL A   1      36.225  30.947  28.368  1.00  0.00     0.009 A 
ATOM     66  C   UNL A   1      35.779  31.901  30.533  1.00  0.00     0.009 A 
ATOM     67  C   UNL A   1      35.142  31.644  27.827  1.00  0.00     0.001 A 
ATOM     68  C   UNL A   1      34.693  32.601  29.990  1.00  0.00     0.001 A 
ATOM     69  C   UNL A   1      34.385  32.484  28.636  1.00  0.00     0.000 A 
ENDBRANCH  45  64
BRANCH  57  70
ATOM     70  C   UNL A   1      41.596  30.147  33.503  1.00  0.00    -0.014 A 
ATOM     71  C   UNL A   1      41.661  30.528  34.852  1.00  0.00     0.009 A 
ATOM     72  C   UNL A   1      41.508  28.779  33.199  1.00  0.00     0.009 A 
ATOM     73  C   UNL A   1      41.661  29.572  35.869  1.00  0.00     0.001 A 
ATOM     74  C   UNL A   1      41.480  27.822  34.220  1.00  0.00     0.001 A 
ATOM     75  C   UNL A   1      41.570  28.219  35.552  1.00  0.00     0.000 A 
ENDBRANCH  57  70
ENDBRANCH  31  32
ENDBRANCH  23  26
ENDBRANCH  21  22
ENDBRANCH  20  21
ENDBRANCH   1  20
TORSDOF 14
ENDMDL
MODEL 2
REMARK VINA RESULT:     -10.3      1.968      2.999
REMARK SMILES COCc1nc2ccccc2n1CC(=O)NCCCCNC(=O)c1ccc(-c2c3nc(c(-c4ccccc4)c4ccc([nH]4)c(-c4ccccc4)c4nc(c(-c5ccccc5)c5ccc2[nH]5)C=C4)C=C3)cc1
REMARK SMILES IDX 18 1 17 2 16 3 14 4 15 5 13 7 12 8 4 9 5 10 6 11 11 12 7 13
REMARK SMILES IDX 10 14 8 15 9 16 3 17 2 18 1 19 19 20 20 21 21 22 22 23 23 25
REMARK SMILES IDX 24 26 25 27 71 28 26 29 70 30 27 31 28 32 29 33 64 34 30 35
REMARK SMILES IDX 69 36 63 37 65 38 31 39 68 40 62 41 61 42 32 44 54 45 39 46
REMARK SMILES IDX 53 47 40 48 43 49 52 50 66 51 41 52 42 53 51 55 67 56 44 57
REMARK SMILES IDX 33 58 34 59 38 60 35 61 37 62 36 63 55 64 56 65 60 66 57 67
REMARK SMILES IDX 59 68 58 69 45 70 46 71 50 72 47 73 49 74 48 75
REMARK H PARENT 16 6 21 24 65 43 43 54
REMARK Flexibility Score: inf
ROOT
ATOM      1  C   UNL A   1      39.462  23.699  26.867  1.00  0.00     0.023 C 
ENDROOT
BRANCH   1   2
ATOM      2  C   UNL A   1      38.078  24.113  26.372  1.00  0.00     0.116 C 
BRANCH   2   3
ATOM      3  N   UNL A   1      37.828  23.660  25.018  1.00  0.00    -0.355 N 
ATOM      4  C   UNL A   1      36.657  23.241  24.462  1.00  0.00     0.240 C 
ATOM      5  O   UNL A   1      36.671  22.882  23.280  1.00  0.00    -0.273 OA
ATOM      6  H   UNL A   1      38.610  23.653  24.421  1.00  0.00     0.163 HD
BRANCH   4   7
ATOM      7  C   UNL A   1      35.368  23.247  25.257  1.00  0.00     0.223 C 
BRANCH   7   8
ATOM      8  N   UNL A   1      34.218  22.750  24.520  1.00  0.00    -0.316 N 
ATOM      9  C   UNL A   1      33.356  23.498  23.735  1.00  0.00     0.136 A 
ATOM     10  N   UNL A   1      32.470  22.706  23.159  1.00  0.00    -0.231 NA
ATOM     11  C   UNL A   1      32.767  21.433  23.553  1.00  0.00     0.089 A 
ATOM     12  C   UNL A   1      33.840  21.424  24.434  1.00  0.00     0.069 A 
ATOM     13  C   UNL A   1      32.172  20.223  23.166  1.00  0.00     0.030 A 
ATOM     14  C   UNL A   1      34.351  20.234  24.977  1.00  0.00     0.028 A 
ATOM     15  C   UNL A   1      32.697  19.025  23.661  1.00  0.00     0.002 A 
ATOM     16  C   UNL A   1      33.769  19.033  24.553  1.00  0.00     0.002 A 
BRANCH   9  17
ATOM     17  C   UNL A   1      33.497  24.981  23.531  1.00  0.00     0.235 C 
BRANCH  17  18
ATOM     18  O   UNL A   1      33.858  25.279  22.179  1.00  0.00    -0.377 OA
ATOM     19  C   UNL A   1      33.068  26.318  21.610  1.00  0.00     0.195 C 
ENDBRANCH  17  18
ENDBRANCH   9  17
ENDBRANCH   7   8
ENDBRANCH   4   7
ENDBRANCH   2   3
ENDBRANCH   1   2
BRANCH   1  20
ATOM     20  C   UNL A   1      39.892  22.296  26.420  1.00  0.00     0.023 C 
BRANCH  20  21
ATOM     21  C   UNL A   1      41.367  21.980  26.679  1.00  0.00     0.116 C 
BRANCH  21  22
ATOM     22  N   UNL A   1      42.243  22.330  25.578  1.00  0.00    -0.352 N 
ATOM     23  C   UNL A   1      42.995  23.426  25.268  1.00  0.00     0.251 C 
ATOM     24  H   UNL A   1      42.309  21.617  24.902  1.00  0.00     0.163 HD
ATOM     25  O   UNL A   1      43.745  23.321  24.294  1.00  0.00    -0.269 OA
BRANCH  23  26
ATOM     26  C   UNL A   1      42.901  24.737  25.960  1.00  0.00     0.039 A 
ATOM     27  C   UNL A   1      43.396  25.007  27.236  1.00  0.00     0.014 A 
ATOM     28  C   UNL A   1      42.171  25.738  25.292  1.00  0.00     0.014 A 
ATOM     29  C   UNL A   1      43.044  26.172  27.891  1.00  0.00     0.010 A 
ATOM     30  C   UNL A   1      41.840  26.923  25.930  1.00  0.00     0.010 A 
ATOM     31  C   UNL A   1      42.222  27.100  27.255  1.00  0.00    -0.014 A 
BRANCH  31  32
ATOM     32  C   UNL A   1      41.847  28.274  28.027  1.00  0.00     0.031 A 
ATOM     33  C   UNL A   1      42.835  29.383  27.986  1.00  0.00     0.074 A 
ATOM     34  C   UNL A   1      40.672  28.359  28.676  1.00  0.00     0.049 A 
ATOM     35  N   UNL A   1      43.468  29.935  28.971  1.00  0.00    -0.248 NA
ATOM     36  C   UNL A   1      43.261  29.854  26.657  1.00  0.00     0.031 C 
ATOM     37  C   UNL A   1      39.522  27.456  28.562  1.00  0.00     0.029 A 
ATOM     38  N   UNL A   1      40.210  29.353  29.484  1.00  0.00    -0.354 N 
ATOM     39  C   UNL A   1      44.255  30.934  28.403  1.00  0.00     0.074 A 
ATOM     40  C   UNL A   1      44.194  30.747  26.977  1.00  0.00     0.031 C 
ATOM     41  C   UNL A   1      38.427  28.074  29.056  1.00  0.00     0.029 A 
ATOM     42  C   UNL A   1      38.834  29.334  29.653  1.00  0.00     0.049 A 
ATOM     43  H   UNL A   1      40.797  30.020  29.909  1.00  0.00     0.167 HD
ATOM     44  C   UNL A   1      44.729  31.982  29.132  1.00  0.00     0.031 A 
ATOM     45  C   UNL A   1      38.075  30.331  30.161  1.00  0.00     0.031 A 
ATOM     46  C   UNL A   1      44.697  31.714  30.541  1.00  0.00     0.049 A 
ATOM     47  C   UNL A   1      38.959  31.224  30.942  1.00  0.00     0.074 A 
ATOM     48  C   UNL A   1      45.373  30.872  31.397  1.00  0.00     0.029 A 
ATOM     49  N   UNL A   1      43.590  32.163  31.215  1.00  0.00    -0.354 N 
ATOM     50  N   UNL A   1      39.558  30.868  32.042  1.00  0.00    -0.248 NA
ATOM     51  C   UNL A   1      39.481  32.423  30.308  1.00  0.00     0.031 C 
ATOM     52  C   UNL A   1      44.437  30.549  32.421  1.00  0.00     0.029 A 
ATOM     53  C   UNL A   1      43.249  31.241  32.168  1.00  0.00     0.049 A 
ATOM     54  H   UNL A   1      43.118  33.008  31.042  1.00  0.00     0.167 HD
ATOM     55  C   UNL A   1      40.775  31.530  32.009  1.00  0.00     0.074 A 
ATOM     56  C   UNL A   1      40.606  32.579  31.011  1.00  0.00     0.031 C 
ATOM     57  C   UNL A   1      41.885  30.984  32.588  1.00  0.00     0.031 A 
BRANCH  44  58
ATOM     58  C   UNL A   1      44.820  33.391  28.591  1.00  0.00    -0.014 A 
ATOM     59  C   UNL A   1      46.032  33.993  28.201  1.00  0.00     0.009 A 
ATOM     60  C   UNL A   1      43.639  34.043  28.189  1.00  0.00     0.009 A 
ATOM     61  C   UNL A   1      46.071  35.162  27.437  1.00  0.00     0.001 A 
ATOM     62  C   UNL A   1      43.674  35.193  27.390  1.00  0.00     0.001 A 
ATOM     63  C   UNL A   1      44.891  35.749  27.009  1.00  0.00     0.000 A 
ENDBRANCH  44  58
BRANCH  45  64
ATOM     64  C   UNL A   1      36.742  30.760  29.685  1.00  0.00    -0.014 A 
ATOM     65  C   UNL A   1      36.392  30.586  28.332  1.00  0.00     0.009 A 
ATOM     66  C   UNL A   1      35.929  31.588  30.472  1.00  0.00     0.009 A 
ATOM     67  C   UNL A   1      35.294  31.246  27.775  1.00  0.00     0.001 A 
ATOM     68  C   UNL A   1      34.829  32.251  29.912  1.00  0.00     0.001 A 
ATOM     69  C   UNL A   1      34.522  32.092  28.562  1.00  0.00     0.000 A 
ENDBRANCH  45  64
BRANCH  57  70
ATOM     70  C   UNL A   1      41.695  29.837  33.552  1.00  0.00    -0.014 A 
ATOM     71  C   UNL A   1      41.688  30.129  34.925  1.00  0.00     0.009 A 
ATOM     72  C   UNL A   1      41.703  28.489  33.156  1.00  0.00     0.009 A 
ATOM     73  C   UNL A   1      41.711  29.108  35.876  1.00  0.00     0.001 A 
ATOM     74  C   UNL A   1      41.697  27.465  34.110  1.00  0.00     0.001 A 
ATOM     75  C   UNL A   1      41.715  27.776  35.468  1.00  0.00     0.000 A 
ENDBRANCH  57  70
ENDBRANCH  31  32
ENDBRANCH  23  26
ENDBRANCH  21  22
ENDBRANCH  20  21
ENDBRANCH   1  20
TORSDOF 14
ENDMDL
MODEL 3
REMARK VINA RESULT:     -10.2      4.804      9.881
REMARK SMILES COCc1nc2ccccc2n1CC(=O)NCCCCNC(=O)c1ccc(-c2c3nc(c(-c4ccccc4)c4ccc([nH]4)c(-c4ccccc4)c4nc(c(-c5ccccc5)c5ccc2[nH]5)C=C4)C=C3)cc1
REMARK SMILES IDX 18 1 17 2 16 3 14 4 15 5 13 7 12 8 4 9 5 10 6 11 11 12 7 13
REMARK SMILES IDX 10 14 8 15 9 16 3 17 2 18 1 19 19 20 20 21 21 22 22 23 23 25
REMARK SMILES IDX 24 26 25 27 71 28 26 29 70 30 27 31 28 32 29 33 64 34 30 35
REMARK SMILES IDX 69 36 63 37 65 38 31 39 68 40 62 41 61 42 32 44 54 45 39 46
REMARK SMILES IDX 53 47 40 48 43 49 52 50 66 51 41 52 42 53 51 55 67 56 44 57
REMARK SMILES IDX 33 58 34 59 38 60 35 61 37 62 36 63 55 64 56 65 60 66 57 67
REMARK SMILES IDX 59 68 58 69 45 70 46 71 50 72 47 73 49 74 48 75
REMARK H PARENT 16 6 21 24 65 43 43 54
REMARK Flexibility Score: inf
ROOT
ATOM      1  C   UNL A   1      36.168  34.051  29.452  1.00  0.00     0.023 C 
ENDROOT
BRANCH   1   2
ATOM      2  C   UNL A   1      35.565  34.018  30.854  1.00  0.00     0.116 C 
BRANCH   2   3
ATOM      3  N   UNL A   1      36.439  34.631  31.835  1.00  0.00    -0.355 N 
ATOM      4  C   UNL A   1      36.685  34.245  33.118  1.00  0.00     0.240 C 
ATOM      5  O   UNL A   1      37.464  34.927  33.791  1.00  0.00    -0.273 OA
ATOM      6  H   UNL A   1      36.917  35.438  31.534  1.00  0.00     0.163 HD
BRANCH   4   7
ATOM      7  C   UNL A   1      36.051  32.995  33.692  1.00  0.00     0.223 C 
BRANCH   7   8
ATOM      8  N   UNL A   1      36.954  31.857  33.767  1.00  0.00    -0.316 N 
ATOM      9  C   UNL A   1      37.786  31.534  34.826  1.00  0.00     0.136 A 
ATOM     10  N   UNL A   1      38.409  30.396  34.577  1.00  0.00    -0.231 NA
ATOM     11  C   UNL A   1      37.965  29.964  33.360  1.00  0.00     0.089 A 
ATOM     12  C   UNL A   1      37.074  30.872  32.805  1.00  0.00     0.069 A 
ATOM     13  C   UNL A   1      38.265  28.776  32.678  1.00  0.00     0.030 A 
ATOM     14  C   UNL A   1      36.463  30.654  31.560  1.00  0.00     0.028 A 
ATOM     15  C   UNL A   1      37.631  28.520  31.457  1.00  0.00     0.002 A 
ATOM     16  C   UNL A   1      36.745  29.447  30.909  1.00  0.00     0.002 A 
BRANCH   9  17
ATOM     17  C   UNL A   1      37.874  32.345  36.088  1.00  0.00     0.235 C 
BRANCH  17  18
ATOM     18  O   UNL A   1      38.164  31.510  37.213  1.00  0.00    -0.377 OA
ATOM     19  C   UNL A   1      37.532  31.951  38.410  1.00  0.00     0.195 C 
ENDBRANCH  17  18
ENDBRANCH   9  17
ENDBRANCH   7   8
ENDBRANCH   4   7
ENDBRANCH   2   3
ENDBRANCH   1   2
BRANCH   1  20
ATOM     20  C   UNL A   1      37.566  33.426  29.357  1.00  0.00     0.023 C 
BRANCH  20  21
ATOM     21  C   UNL A   1      38.696  34.442  29.169  1.00  0.00     0.116 C 
BRANCH  21  22
ATOM     22  N   UNL A   1      39.597  34.530  30.300  1.00  0.00    -0.352 N 
ATOM     23  C   UNL A   1      40.607  33.745  30.781  1.00  0.00     0.251 C 
ATOM     24  H   UNL A   1      39.449  35.337  30.845  1.00  0.00     0.163 HD
ATOM     25  O   UNL A   1      41.269  34.210  31.712  1.00  0.00    -0.269 OA
BRANCH  23  26
ATOM     26  C   UNL A   1      40.890  32.361  30.321  1.00  0.00     0.039 A 
ATOM     27  C   UNL A   1      39.965  31.318  30.303  1.00  0.00     0.014 A 
ATOM     28  C   UNL A   1      42.226  32.088  29.971  1.00  0.00     0.014 A 
ATOM     29  C   UNL A   1      40.382  30.017  30.097  1.00  0.00     0.010 A 
ATOM     30  C   UNL A   1      42.647  30.789  29.732  1.00  0.00     0.010 A 
ATOM     31  C   UNL A   1      41.730  29.752  29.867  1.00  0.00    -0.014 A 
BRANCH  31  32
ATOM     32  C   UNL A   1      42.103  28.355  29.717  1.00  0.00     0.031 A 
ATOM     33  C   UNL A   1      42.856  27.788  30.866  1.00  0.00     0.074 A 
ATOM     34  C   UNL A   1      41.743  27.629  28.643  1.00  0.00     0.049 A 
ATOM     35  N   UNL A   1      44.039  27.265  30.875  1.00  0.00    -0.248 NA
ATOM     36  C   UNL A   1      42.252  27.936  32.201  1.00  0.00     0.031 C 
ATOM     37  C   UNL A   1      40.784  27.998  27.597  1.00  0.00     0.029 A 
ATOM     38  N   UNL A   1      42.067  26.343  28.330  1.00  0.00    -0.354 N 
ATOM     39  C   UNL A   1      44.269  26.870  32.191  1.00  0.00     0.074 A 
ATOM     40  C   UNL A   1      43.204  27.429  32.982  1.00  0.00     0.031 C 
ATOM     41  C   UNL A   1      40.411  26.885  26.929  1.00  0.00     0.029 A 
ATOM     42  C   UNL A   1      41.217  25.770  27.397  1.00  0.00     0.049 A 
ATOM     43  H   UNL A   1      42.831  25.868  28.728  1.00  0.00     0.167 HD
ATOM     44  C   UNL A   1      45.198  25.928  32.511  1.00  0.00     0.031 A 
ATOM     45  C   UNL A   1      41.120  24.454  27.102  1.00  0.00     0.031 A 
ATOM     46  C   UNL A   1      46.152  25.735  31.456  1.00  0.00     0.049 A 
ATOM     47  C   UNL A   1      42.363  23.793  27.556  1.00  0.00     0.074 A 
ATOM     48  C   UNL A   1      47.166  26.481  30.899  1.00  0.00     0.029 A 
ATOM     49  N   UNL A   1      45.884  24.711  30.583  1.00  0.00    -0.354 N 
ATOM     50  N   UNL A   1      43.534  24.014  27.032  1.00  0.00    -0.248 NA
ATOM     51  C   UNL A   1      42.375  23.140  28.855  1.00  0.00     0.031 C 
ATOM     52  C   UNL A   1      47.207  26.094  29.528  1.00  0.00     0.029 A 
ATOM     53  C   UNL A   1      46.247  25.100  29.321  1.00  0.00     0.049 A 
ATOM     54  H   UNL A   1      45.496  23.840  30.824  1.00  0.00     0.167 HD
ATOM     55  C   UNL A   1      44.418  23.925  28.096  1.00  0.00     0.074 A 
ATOM     56  C   UNL A   1      43.674  23.238  29.145  1.00  0.00     0.031 C 
ATOM     57  C   UNL A   1      45.565  24.665  28.117  1.00  0.00     0.031 A 
BRANCH  44  58
ATOM     58  C   UNL A   1      44.990  24.895  33.595  1.00  0.00    -0.014 A 
ATOM     59  C   UNL A   1      43.847  24.076  33.672  1.00  0.00     0.009 A 
ATOM     60  C   UNL A   1      46.083  24.521  34.398  1.00  0.00     0.009 A 
ATOM     61  C   UNL A   1      43.797  22.939  34.484  1.00  0.00     0.001 A 
ATOM     62  C   UNL A   1      46.052  23.361  35.183  1.00  0.00     0.001 A 
ATOM     63  C   UNL A   1      44.911  22.566  35.220  1.00  0.00     0.000 A 
ENDBRANCH  44  58
BRANCH  45  64
ATOM     64  C   UNL A   1      39.880  23.698  26.825  1.00  0.00    -0.014 A 
ATOM     65  C   UNL A   1      39.953  22.344  26.446  1.00  0.00     0.009 A 
ATOM     66  C   UNL A   1      38.656  24.362  26.655  1.00  0.00     0.009 A 
ATOM     67  C   UNL A   1      38.858  21.688  25.879  1.00  0.00     0.001 A 
ATOM     68  C   UNL A   1      37.559  23.704  26.085  1.00  0.00     0.001 A 
ATOM     69  C   UNL A   1      37.665  22.373  25.683  1.00  0.00     0.000 A 
ENDBRANCH  45  64
BRANCH  57  70
ATOM     70  C   UNL A   1      46.023  25.307  26.830  1.00  0.00    -0.014 A 
ATOM     71  C   UNL A   1      47.104  24.719  26.153  1.00  0.00     0.009 A 
ATOM     72  C   UNL A   1      45.545  26.546  26.374  1.00  0.00     0.009 A 
ATOM     73  C   UNL A   1      47.705  25.358  25.068  1.00  0.00     0.001 A 
ATOM     74  C   UNL A   1      46.130  27.174  25.268  1.00  0.00     0.001 A 
ATOM     75  C   UNL A   1      47.217  26.586  24.625  1.00  0.00     0.000 A 
ENDBRANCH  57  70
ENDBRANCH  31  32
ENDBRANCH  23  26
ENDBRANCH  21  22
ENDBRANCH  20  21
ENDBRANCH   1  20
TORSDOF 14
ENDMDL
