MODEL 1
REMARK VINA RESULT:     -12.0      0.000      0.000
REMARK SMILES C[C@H]1OCC[C@@H]1C(=O)Nc1sc2c(c1C(=O)NCCCCNC(=O)c1ccc(-c3c4nc(c(-c5ccccc5)c5ccc([nH]5)c(-c5ccccc5)c5nc(c(-c6ccccc6)c6ccc3[nH]6)C=C5)C=C4)cc1)CCC2
REMARK SMILES IDX 19 1 18 2 17 3 15 4 16 5 14 7 10 8 11 9 12 10 13 11 75 12
REMARK SMILES IDX 73 13 74 14 9 15 7 16 8 17 6 19 1 20 2 21 3 22 4 23 5 24
REMARK SMILES IDX 20 25 21 26 22 27 23 28 24 30 25 31 26 32 72 33 27 34 71 35
REMARK SMILES IDX 28 36 29 37 30 38 65 39 31 40 70 41 64 42 66 43 32 44 69 45
REMARK SMILES IDX 63 46 62 47 33 49 55 50 40 51 54 52 41 53 44 54 53 55 67 56
REMARK SMILES IDX 42 57 43 58 52 60 68 61 45 62 34 63 35 64 39 65 36 66 38 67
REMARK SMILES IDX 37 68 56 69 57 70 61 71 58 72 60 73 59 74 46 75 47 76 51 77
REMARK SMILES IDX 48 78 50 79 49 80
REMARK H PARENT 17 6 9 18 22 29 66 48 44 59
REMARK Flexibility Score: inf
ROOT
ATOM      1  C   UNL A   1      33.365  27.962  27.124  1.00  0.00     0.023 C 
ENDROOT
BRANCH   1   2
ATOM      2  C   UNL A   1      31.902  27.850  26.690  1.00  0.00     0.116 C 
BRANCH   2   3
ATOM      3  N   UNL A   1      31.284  26.564  26.876  1.00  0.00    -0.352 N 
ATOM      4  C   UNL A   1      31.558  25.315  26.382  1.00  0.00     0.254 C 
ATOM      5  O   UNL A   1      31.163  24.395  27.108  1.00  0.00    -0.269 OA
ATOM      6  H   UNL A   1      30.508  26.585  27.483  1.00  0.00     0.163 HD
BRANCH   4   7
ATOM      7  C   UNL A   1      32.225  25.024  25.106  1.00  0.00     0.078 A 
ATOM      8  C   UNL A   1      33.341  24.170  25.078  1.00  0.00     0.108 A 
ATOM      9  S   UNL A   1      34.328  24.363  23.690  1.00  0.00    -0.122 S 
ATOM     10  C   UNL A   1      33.147  25.286  22.977  1.00  0.00     0.011 A 
ATOM     11  C   UNL A   1      32.062  25.555  23.776  1.00  0.00    -0.019 A 
ATOM     12  C   UNL A   1      33.127  25.931  21.642  1.00  0.00     0.047 C 
ATOM     13  C   UNL A   1      31.134  26.441  23.016  1.00  0.00     0.038 C 
ATOM     14  C   UNL A   1      31.643  26.343  21.550  1.00  0.00     0.010 C 
BRANCH   8  15
ATOM     15  N   UNL A   1      33.941  23.324  25.978  1.00  0.00    -0.317 N 
ATOM     16  C   UNL A   1      34.163  21.984  25.939  1.00  0.00     0.230 C 
ATOM     17  O   UNL A   1      34.742  21.499  26.924  1.00  0.00    -0.274 OA
ATOM     18  H   UNL A   1      34.270  23.766  26.794  1.00  0.00     0.170 HD
BRANCH  16  19
ATOM     19  C   UNL A   1      33.881  21.056  24.761  1.00  0.00     0.110 C 
ATOM     20  C   UNL A   1      32.106  21.170  22.963  1.00  0.00     0.039 C 
ATOM     21  C   UNL A   1      32.406  20.872  24.433  1.00  0.00     0.127 C 
ATOM     22  O   UNL A   1      32.107  19.491  24.689  1.00  0.00    -0.378 OA
ATOM     23  C   UNL A   1      33.314  18.748  24.521  1.00  0.00     0.161 C 
ATOM     24  C   UNL A   1      34.465  19.668  24.845  1.00  0.00     0.044 C 
ENDBRANCH  16  19
ENDBRANCH   8  15
ENDBRANCH   4   7
ENDBRANCH   2   3
ENDBRANCH   1   2
BRANCH   1  25
ATOM     25  C   UNL A   1      34.004  29.354  27.013  1.00  0.00     0.023 C 
BRANCH  25  26
ATOM     26  C   UNL A   1      35.432  29.455  27.546  1.00  0.00     0.116 C 
BRANCH  26  27
ATOM     27  N   UNL A   1      35.507  29.855  28.960  1.00  0.00    -0.352 N 
ATOM     28  C   UNL A   1      36.474  29.535  29.910  1.00  0.00     0.251 C 
ATOM     29  H   UNL A   1      34.771  30.426  29.279  1.00  0.00     0.163 HD
ATOM     30  O   UNL A   1      36.265  29.634  31.104  1.00  0.00    -0.269 OA
BRANCH  28  31
ATOM     31  C   UNL A   1      37.798  29.128  29.413  1.00  0.00     0.039 A 
ATOM     32  C   UNL A   1      38.492  29.770  28.383  1.00  0.00     0.014 A 
ATOM     33  C   UNL A   1      38.369  28.082  30.114  1.00  0.00     0.014 A 
ATOM     34  C   UNL A   1      39.800  29.364  28.120  1.00  0.00     0.010 A 
ATOM     35  C   UNL A   1      39.716  27.933  30.081  1.00  0.00     0.010 A 
ATOM     36  C   UNL A   1      40.395  28.439  28.986  1.00  0.00    -0.014 A 
BRANCH  36  37
ATOM     37  C   UNL A   1      41.741  27.922  28.843  1.00  0.00     0.031 A 
ATOM     38  C   UNL A   1      41.856  26.672  28.054  1.00  0.00     0.074 A 
ATOM     39  C   UNL A   1      42.795  28.729  29.113  1.00  0.00     0.049 A 
ATOM     40  N   UNL A   1      42.285  25.528  28.462  1.00  0.00    -0.248 NA
ATOM     41  C   UNL A   1      41.319  26.648  26.682  1.00  0.00     0.031 C 
ATOM     42  C   UNL A   1      42.797  30.140  29.545  1.00  0.00     0.029 A 
ATOM     43  N   UNL A   1      44.110  28.502  28.891  1.00  0.00    -0.354 N 
ATOM     44  C   UNL A   1      42.239  24.676  27.363  1.00  0.00     0.074 A 
ATOM     45  C   UNL A   1      41.476  25.364  26.354  1.00  0.00     0.031 C 
ATOM     46  C   UNL A   1      44.006  30.691  29.294  1.00  0.00     0.029 A 
ATOM     47  C   UNL A   1      44.904  29.642  28.852  1.00  0.00     0.049 A 
ATOM     48  H   UNL A   1      44.478  27.598  28.769  1.00  0.00     0.167 HD
ATOM     49  C   UNL A   1      43.018  23.560  27.295  1.00  0.00     0.031 A 
ATOM     50  C   UNL A   1      46.193  29.708  28.430  1.00  0.00     0.031 A 
ATOM     51  C   UNL A   1      43.656  23.292  28.559  1.00  0.00     0.049 A 
ATOM     52  C   UNL A   1      46.723  28.320  28.464  1.00  0.00     0.074 A 
ATOM     53  C   UNL A   1      43.197  22.985  29.824  1.00  0.00     0.029 A 
ATOM     54  N   UNL A   1      44.936  23.773  28.724  1.00  0.00    -0.354 N 
ATOM     55  N   UNL A   1      46.858  27.640  29.569  1.00  0.00    -0.248 NA
ATOM     56  C   UNL A   1      46.596  27.519  27.253  1.00  0.00     0.031 C 
ATOM     57  C   UNL A   1      44.008  23.765  30.699  1.00  0.00     0.029 A 
ATOM     58  C   UNL A   1      44.977  24.420  29.934  1.00  0.00     0.049 A 
ATOM     59  H   UNL A   1      45.684  23.671  28.091  1.00  0.00     0.167 HD
ATOM     60  C   UNL A   1      46.393  26.366  29.264  1.00  0.00     0.074 A 
ATOM     61  C   UNL A   1      46.326  26.328  27.801  1.00  0.00     0.031 C 
ATOM     62  C   UNL A   1      45.809  25.572  30.213  1.00  0.00     0.031 A 
BRANCH  49  63
ATOM     63  C   UNL A   1      43.505  22.923  26.022  1.00  0.00    -0.014 A 
ATOM     64  C   UNL A   1      43.572  21.519  25.958  1.00  0.00     0.009 A 
ATOM     65  C   UNL A   1      44.142  23.635  24.991  1.00  0.00     0.009 A 
ATOM     66  C   UNL A   1      44.301  20.868  24.958  1.00  0.00     0.001 A 
ATOM     67  C   UNL A   1      44.839  22.986  23.967  1.00  0.00     0.001 A 
ATOM     68  C   UNL A   1      44.942  21.603  23.968  1.00  0.00     0.000 A 
ENDBRANCH  49  63
BRANCH  50  69
ATOM     69  C   UNL A   1      46.849  30.814  27.690  1.00  0.00    -0.014 A 
ATOM     70  C   UNL A   1      46.108  31.719  26.914  1.00  0.00     0.009 A 
ATOM     71  C   UNL A   1      48.195  31.137  27.952  1.00  0.00     0.009 A 
ATOM     72  C   UNL A   1      46.683  32.915  26.450  1.00  0.00     0.001 A 
ATOM     73  C   UNL A   1      48.769  32.328  27.490  1.00  0.00     0.001 A 
ATOM     74  C   UNL A   1      48.008  33.224  26.749  1.00  0.00     0.000 A 
ENDBRANCH  50  69
BRANCH  62  75
ATOM     75  C   UNL A   1      45.805  26.053  31.649  1.00  0.00    -0.014 A 
ATOM     76  C   UNL A   1      44.831  26.926  32.168  1.00  0.00     0.009 A 
ATOM     77  C   UNL A   1      46.689  25.443  32.550  1.00  0.00     0.009 A 
ATOM     78  C   UNL A   1      44.755  27.190  33.541  1.00  0.00     0.001 A 
ATOM     79  C   UNL A   1      46.601  25.691  33.923  1.00  0.00     0.001 A 
ATOM     80  C   UNL A   1      45.637  26.566  34.418  1.00  0.00     0.000 A 
ENDBRANCH  62  75
ENDBRANCH  36  37
ENDBRANCH  28  31
ENDBRANCH  26  27
ENDBRANCH  25  26
ENDBRANCH   1  25
TORSDOF 13
ENDMDL
MODEL 2
REMARK VINA RESULT:     -12.0      2.911      7.306
REMARK SMILES C[C@H]1OCC[C@@H]1C(=O)Nc1sc2c(c1C(=O)NCCCCNC(=O)c1ccc(-c3c4nc(c(-c5ccccc5)c5ccc([nH]5)c(-c5ccccc5)c5nc(c(-c6ccccc6)c6ccc3[nH]6)C=C5)C=C4)cc1)CCC2
REMARK SMILES IDX 19 1 18 2 17 3 15 4 16 5 14 7 10 8 11 9 12 10 13 11 75 12
REMARK SMILES IDX 73 13 74 14 9 15 7 16 8 17 6 19 1 20 2 21 3 22 4 23 5 24
REMARK SMILES IDX 20 25 21 26 22 27 23 28 24 30 25 31 26 32 72 33 27 34 71 35
REMARK SMILES IDX 28 36 29 37 30 38 65 39 31 40 70 41 64 42 66 43 32 44 69 45
REMARK SMILES IDX 63 46 62 47 33 49 55 50 40 51 54 52 41 53 44 54 53 55 67 56
REMARK SMILES IDX 42 57 43 58 52 60 68 61 45 62 34 63 35 64 39 65 36 66 38 67
REMARK SMILES IDX 37 68 56 69 57 70 61 71 58 72 60 73 59 74 46 75 47 76 51 77
REMARK SMILES IDX 48 78 50 79 49 80
REMARK H PARENT 17 6 9 18 22 29 66 48 44 59
REMARK Flexibility Score: inf
ROOT
ATOM      1  C   UNL A   1      38.409  23.615  26.238  1.00  0.00     0.023 C 
ENDROOT
BRANCH   1   2
ATOM      2  C   UNL A   1      36.962  23.490  25.760  1.00  0.00     0.116 C 
BRANCH   2   3
ATOM      3  N   UNL A   1      36.004  23.063  26.747  1.00  0.00    -0.352 N 
ATOM      4  C   UNL A   1      34.761  22.494  26.656  1.00  0.00     0.254 C 
ATOM      5  O   UNL A   1      34.448  21.822  27.646  1.00  0.00    -0.269 OA
ATOM      6  H   UNL A   1      36.304  23.208  27.674  1.00  0.00     0.163 HD
BRANCH   4   7
ATOM      7  C   UNL A   1      33.825  22.649  25.534  1.00  0.00     0.078 A 
ATOM      8  C   UNL A   1      32.959  21.596  25.194  1.00  0.00     0.108 A 
ATOM      9  S   UNL A   1      32.358  21.682  23.591  1.00  0.00    -0.122 S 
ATOM     10  C   UNL A   1      32.932  23.234  23.457  1.00  0.00     0.011 A 
ATOM     11  C   UNL A   1      33.660  23.676  24.537  1.00  0.00    -0.019 A 
ATOM     12  C   UNL A   1      32.849  24.179  22.319  1.00  0.00     0.047 C 
ATOM     13  C   UNL A   1      34.154  25.050  24.232  1.00  0.00     0.038 C 
ATOM     14  C   UNL A   1      33.309  25.485  23.001  1.00  0.00     0.010 C 
BRANCH   8  15
ATOM     15  N   UNL A   1      32.599  20.405  25.776  1.00  0.00    -0.317 N 
ATOM     16  C   UNL A   1      32.702  19.124  25.337  1.00  0.00     0.230 C 
ATOM     17  O   UNL A   1      32.279  18.248  26.108  1.00  0.00    -0.274 OA
ATOM     18  H   UNL A   1      32.196  20.496  26.670  1.00  0.00     0.170 HD
BRANCH  16  19
ATOM     19  C   UNL A   1      33.390  18.661  24.056  1.00  0.00     0.110 C 
ATOM     20  C   UNL A   1      32.485  18.374  21.712  1.00  0.00     0.039 C 
ATOM     21  C   UNL A   1      32.521  17.816  23.135  1.00  0.00     0.127 C 
ATOM     22  O   UNL A   1      33.124  16.513  23.099  1.00  0.00    -0.378 OA
ATOM     23  C   UNL A   1      34.518  16.673  23.362  1.00  0.00     0.161 C 
ATOM     24  C   UNL A   1      34.680  17.901  24.224  1.00  0.00     0.044 C 
ENDBRANCH  16  19
ENDBRANCH   8  15
ENDBRANCH   4   7
ENDBRANCH   2   3
ENDBRANCH   1   2
BRANCH   1  25
ATOM     25  C   UNL A   1      39.191  22.302  26.395  1.00  0.00     0.023 C 
BRANCH  25  26
ATOM     26  C   UNL A   1      40.453  22.399  27.249  1.00  0.00     0.116 C 
BRANCH  26  27
ATOM     27  N   UNL A   1      41.699  22.287  26.475  1.00  0.00    -0.352 N 
ATOM     28  C   UNL A   1      42.434  23.291  25.849  1.00  0.00     0.251 C 
ATOM     29  H   UNL A   1      42.063  21.376  26.386  1.00  0.00     0.163 HD
ATOM     30  O   UNL A   1      43.242  23.049  24.973  1.00  0.00    -0.269 OA
BRANCH  28  31
ATOM     31  C   UNL A   1      42.244  24.667  26.334  1.00  0.00     0.039 A 
ATOM     32  C   UNL A   1      41.386  25.603  25.751  1.00  0.00     0.014 A 
ATOM     33  C   UNL A   1      42.931  24.957  27.498  1.00  0.00     0.014 A 
ATOM     34  C   UNL A   1      41.198  26.819  26.407  1.00  0.00     0.010 A 
ATOM     35  C   UNL A   1      42.490  25.972  28.281  1.00  0.00     0.010 A 
ATOM     36  C   UNL A   1      41.762  26.983  27.678  1.00  0.00    -0.014 A 
BRANCH  36  37
ATOM     37  C   UNL A   1      41.655  28.185  28.480  1.00  0.00     0.031 A 
ATOM     38  C   UNL A   1      42.677  29.223  28.200  1.00  0.00     0.074 A 
ATOM     39  C   UNL A   1      40.505  28.438  29.149  1.00  0.00     0.049 A 
ATOM     40  N   UNL A   1      43.565  29.684  29.012  1.00  0.00    -0.248 NA
ATOM     41  C   UNL A   1      42.816  29.727  26.822  1.00  0.00     0.031 C 
ATOM     42  C   UNL A   1      39.262  27.644  29.189  1.00  0.00     0.029 A 
ATOM     43  N   UNL A   1      40.143  29.560  29.811  1.00  0.00    -0.354 N 
ATOM     44  C   UNL A   1      44.269  30.658  28.312  1.00  0.00     0.074 A 
ATOM     45  C   UNL A   1      43.887  30.516  26.931  1.00  0.00     0.031 C 
ATOM     46  C   UNL A   1      38.237  28.425  29.601  1.00  0.00     0.029 A 
ATOM     47  C   UNL A   1      38.776  29.706  30.016  1.00  0.00     0.049 A 
ATOM     48  H   UNL A   1      40.798  30.224  30.125  1.00  0.00     0.167 HD
ATOM     49  C   UNL A   1      44.948  31.647  28.959  1.00  0.00     0.031 A 
ATOM     50  C   UNL A   1      38.144  30.827  30.446  1.00  0.00     0.031 A 
ATOM     51  C   UNL A   1      45.022  31.388  30.375  1.00  0.00     0.049 A 
ATOM     52  C   UNL A   1      39.181  31.684  31.080  1.00  0.00     0.074 A 
ATOM     53  C   UNL A   1      45.591  30.393  31.144  1.00  0.00     0.029 A 
ATOM     54  N   UNL A   1      44.063  31.982  31.167  1.00  0.00    -0.354 N 
ATOM     55  N   UNL A   1      39.826  31.333  32.158  1.00  0.00    -0.248 NA
ATOM     56  C   UNL A   1      39.864  32.654  30.236  1.00  0.00     0.031 C 
ATOM     57  C   UNL A   1      44.613  30.109  32.142  1.00  0.00     0.029 A 
ATOM     58  C   UNL A   1      43.555  31.011  31.992  1.00  0.00     0.049 A 
ATOM     59  H   UNL A   1      43.794  32.929  31.145  1.00  0.00     0.167 HD
ATOM     60  C   UNL A   1      41.149  31.678  31.912  1.00  0.00     0.074 A 
ATOM     61  C   UNL A   1      41.098  32.567  30.748  1.00  0.00     0.031 C 
ATOM     62  C   UNL A   1      42.186  30.977  32.464  1.00  0.00     0.031 A 
BRANCH  49  63
ATOM     63  C   UNL A   1      45.221  33.017  28.399  1.00  0.00    -0.014 A 
ATOM     64  C   UNL A   1      44.198  33.981  28.455  1.00  0.00     0.009 A 
ATOM     65  C   UNL A   1      46.332  33.318  27.593  1.00  0.00     0.009 A 
ATOM     66  C   UNL A   1      44.251  35.147  27.685  1.00  0.00     0.001 A 
ATOM     67  C   UNL A   1      46.407  34.502  26.852  1.00  0.00     0.001 A 
ATOM     68  C   UNL A   1      45.353  35.403  26.877  1.00  0.00     0.000 A 
ENDBRANCH  49  63
BRANCH  50  69
ATOM     69  C   UNL A   1      36.812  31.332  30.034  1.00  0.00    -0.014 A 
ATOM     70  C   UNL A   1      35.873  31.781  30.977  1.00  0.00     0.009 A 
ATOM     71  C   UNL A   1      36.552  31.615  28.678  1.00  0.00     0.009 A 
ATOM     72  C   UNL A   1      34.740  32.512  30.579  1.00  0.00     0.001 A 
ATOM     73  C   UNL A   1      35.424  32.343  28.281  1.00  0.00     0.001 A 
ATOM     74  C   UNL A   1      34.524  32.803  29.234  1.00  0.00     0.000 A 
ENDBRANCH  50  69
BRANCH  62  75
ATOM     75  C   UNL A   1      41.865  29.894  33.472  1.00  0.00    -0.014 A 
ATOM     76  C   UNL A   1      41.617  28.555  33.114  1.00  0.00     0.009 A 
ATOM     77  C   UNL A   1      42.022  30.192  34.832  1.00  0.00     0.009 A 
ATOM     78  C   UNL A   1      41.515  27.554  34.087  1.00  0.00     0.001 A 
ATOM     79  C   UNL A   1      41.940  29.191  35.803  1.00  0.00     0.001 A 
ATOM     80  C   UNL A   1      41.684  27.872  35.432  1.00  0.00     0.000 A 
ENDBRANCH  62  75
ENDBRANCH  36  37
ENDBRANCH  28  31
ENDBRANCH  26  27
ENDBRANCH  25  26
ENDBRANCH   1  25
TORSDOF 13
ENDMDL
MODEL 3
REMARK VINA RESULT:     -12.0      3.686      5.366
REMARK SMILES C[C@H]1OCC[C@@H]1C(=O)Nc1sc2c(c1C(=O)NCCCCNC(=O)c1ccc(-c3c4nc(c(-c5ccccc5)c5ccc([nH]5)c(-c5ccccc5)c5nc(c(-c6ccccc6)c6ccc3[nH]6)C=C5)C=C4)cc1)CCC2
REMARK SMILES IDX 19 1 18 2 17 3 15 4 16 5 14 7 10 8 11 9 12 10 13 11 75 12
REMARK SMILES IDX 73 13 74 14 9 15 7 16 8 17 6 19 1 20 2 21 3 22 4 23 5 24
REMARK SMILES IDX 20 25 21 26 22 27 23 28 24 30 25 31 26 32 72 33 27 34 71 35
REMARK SMILES IDX 28 36 29 37 30 38 65 39 31 40 70 41 64 42 66 43 32 44 69 45
REMARK SMILES IDX 63 46 62 47 33 49 55 50 40 51 54 52 41 53 44 54 53 55 67 56
REMARK SMILES IDX 42 57 43 58 52 60 68 61 45 62 34 63 35 64 39 65 36 66 38 67
REMARK SMILES IDX 37 68 56 69 57 70 61 71 58 72 60 73 59 74 46 75 47 76 51 77
REMARK SMILES IDX 48 78 50 79 49 80
REMARK H PARENT 17 6 9 18 22 29 66 48 44 59
REMARK Flexibility Score: inf
ROOT
ATOM      1  C   UNL A   1      33.957  30.995  27.678  1.00  0.00     0.023 C 
ENDROOT
BRANCH   1   2
ATOM      2  C   UNL A   1      32.937  29.922  27.298  1.00  0.00     0.116 C 
BRANCH   2   3
ATOM      3  N   UNL A   1      33.445  28.580  27.179  1.00  0.00    -0.352 N 
ATOM      4  C   UNL A   1      33.123  27.529  26.360  1.00  0.00     0.254 C 
ATOM      5  O   UNL A   1      34.052  26.731  26.188  1.00  0.00    -0.269 OA
ATOM      6  H   UNL A   1      34.170  28.376  27.814  1.00  0.00     0.163 HD
BRANCH   4   7
ATOM      7  C   UNL A   1      31.814  27.295  25.737  1.00  0.00     0.078 A 
ATOM      8  C   UNL A   1      31.136  26.086  25.965  1.00  0.00     0.108 A 
ATOM      9  S   UNL A   1      29.951  25.720  24.780  1.00  0.00    -0.122 S 
ATOM     10  C   UNL A   1      30.074  27.263  24.179  1.00  0.00     0.011 A 
ATOM     11  C   UNL A   1      31.051  28.034  24.763  1.00  0.00    -0.019 A 
ATOM     12  C   UNL A   1      29.348  27.901  23.056  1.00  0.00     0.047 C 
ATOM     13  C   UNL A   1      31.074  29.355  24.070  1.00  0.00     0.038 C 
ATOM     14  C   UNL A   1      29.742  29.378  23.268  1.00  0.00     0.010 C 
BRANCH   8  15
ATOM     15  N   UNL A   1      31.301  25.023  26.819  1.00  0.00    -0.317 N 
ATOM     16  C   UNL A   1      31.979  23.854  26.677  1.00  0.00     0.230 C 
ATOM     17  O   UNL A   1      31.940  23.081  27.648  1.00  0.00    -0.274 OA
ATOM     18  H   UNL A   1      30.849  25.127  27.688  1.00  0.00     0.170 HD
BRANCH  16  19
ATOM     19  C   UNL A   1      32.871  23.465  25.502  1.00  0.00     0.110 C 
ATOM     20  C   UNL A   1      32.284  22.500  23.239  1.00  0.00     0.039 C 
ATOM     21  C   UNL A   1      32.415  22.229  24.739  1.00  0.00     0.127 C 
ATOM     22  O   UNL A   1      33.434  21.237  24.935  1.00  0.00    -0.378 OA
ATOM     23  C   UNL A   1      34.664  21.921  25.175  1.00  0.00     0.161 C 
ATOM     24  C   UNL A   1      34.330  23.249  25.810  1.00  0.00     0.044 C 
ENDBRANCH  16  19
ENDBRANCH   8  15
ENDBRANCH   4   7
ENDBRANCH   2   3
ENDBRANCH   1   2
BRANCH   1  25
ATOM     25  C   UNL A   1      33.645  32.427  27.216  1.00  0.00     0.023 C 
BRANCH  25  26
ATOM     26  C   UNL A   1      32.353  33.019  27.772  1.00  0.00     0.116 C 
BRANCH  26  27
ATOM     27  N   UNL A   1      32.430  34.466  28.030  1.00  0.00    -0.352 N 
ATOM     28  C   UNL A   1      33.218  35.150  28.953  1.00  0.00     0.251 C 
ATOM     29  H   UNL A   1      31.844  35.028  27.474  1.00  0.00     0.163 HD
ATOM     30  O   UNL A   1      32.960  36.284  29.308  1.00  0.00    -0.269 OA
BRANCH  28  31
ATOM     31  C   UNL A   1      34.426  34.468  29.444  1.00  0.00     0.039 A 
ATOM     32  C   UNL A   1      34.466  33.626  30.559  1.00  0.00     0.014 A 
ATOM     33  C   UNL A   1      35.544  34.653  28.651  1.00  0.00     0.014 A 
ATOM     34  C   UNL A   1      35.647  32.933  30.818  1.00  0.00     0.010 A 
ATOM     35  C   UNL A   1      36.544  33.741  28.710  1.00  0.00     0.010 A 
ATOM     36  C   UNL A   1      36.680  33.005  29.875  1.00  0.00    -0.014 A 
BRANCH  36  37
ATOM     37  C   UNL A   1      37.963  32.345  30.003  1.00  0.00     0.031 A 
ATOM     38  C   UNL A   1      38.023  30.969  29.452  1.00  0.00     0.074 A 
ATOM     39  C   UNL A   1      39.065  33.082  30.278  1.00  0.00     0.049 A 
ATOM     40  N   UNL A   1      38.263  29.879  30.096  1.00  0.00    -0.248 NA
ATOM     41  C   UNL A   1      37.652  30.755  28.041  1.00  0.00     0.031 C 
ATOM     42  C   UNL A   1      39.182  34.540  30.471  1.00  0.00     0.029 A 
ATOM     43  N   UNL A   1      40.362  32.694  30.279  1.00  0.00    -0.354 N 
ATOM     44  C   UNL A   1      38.246  28.855  29.155  1.00  0.00     0.074 A 
ATOM     45  C   UNL A   1      37.694  29.424  27.952  1.00  0.00     0.031 C 
ATOM     46  C   UNL A   1      40.469  34.920  30.301  1.00  0.00     0.029 A 
ATOM     47  C   UNL A   1      41.284  33.728  30.162  1.00  0.00     0.049 A 
ATOM     48  H   UNL A   1      40.632  31.751  30.357  1.00  0.00     0.167 HD
ATOM     49  C   UNL A   1      38.891  27.675  29.377  1.00  0.00     0.031 A 
ATOM     50  C   UNL A   1      42.611  33.595  29.916  1.00  0.00     0.031 A 
ATOM     51  C   UNL A   1      39.339  27.576  30.743  1.00  0.00     0.049 A 
ATOM     52  C   UNL A   1      42.967  32.190  30.248  1.00  0.00     0.074 A 
ATOM     53  C   UNL A   1      38.701  27.542  31.966  1.00  0.00     0.029 A 
ATOM     54  N   UNL A   1      40.639  27.953  31.000  1.00  0.00    -0.354 N 
ATOM     55  N   UNL A   1      42.889  31.706  31.457  1.00  0.00    -0.248 NA
ATOM     56  C   UNL A   1      42.891  31.203  29.178  1.00  0.00     0.031 C 
ATOM     57  C   UNL A   1      39.490  28.384  32.804  1.00  0.00     0.029 A 
ATOM     58  C   UNL A   1      40.613  28.797  32.082  1.00  0.00     0.049 A 
ATOM     59  H   UNL A   1      41.439  27.670  30.501  1.00  0.00     0.167 HD
ATOM     60  C   UNL A   1      42.317  30.450  31.304  1.00  0.00     0.074 A 
ATOM     61  C   UNL A   1      42.419  30.159  29.871  1.00  0.00     0.031 C 
ATOM     62  C   UNL A   1      41.536  29.895  32.280  1.00  0.00     0.031 A 
BRANCH  49  63
ATOM     63  C   UNL A   1      39.446  26.779  28.304  1.00  0.00    -0.014 A 
ATOM     64  C   UNL A   1      39.279  25.388  28.438  1.00  0.00     0.009 A 
ATOM     65  C   UNL A   1      40.344  27.216  27.314  1.00  0.00     0.009 A 
ATOM     66  C   UNL A   1      40.027  24.486  27.675  1.00  0.00     0.001 A 
ATOM     67  C   UNL A   1      41.065  26.317  26.522  1.00  0.00     0.001 A 
ATOM     68  C   UNL A   1      40.927  24.952  26.723  1.00  0.00     0.000 A 
ENDBRANCH  49  63
BRANCH  50  69
ATOM     69  C   UNL A   1      43.476  34.483  29.102  1.00  0.00    -0.014 A 
ATOM     70  C   UNL A   1      43.384  34.514  27.701  1.00  0.00     0.009 A 
ATOM     71  C   UNL A   1      44.227  35.501  29.723  1.00  0.00     0.009 A 
ATOM     72  C   UNL A   1      43.991  35.542  26.958  1.00  0.00     0.001 A 
ATOM     73  C   UNL A   1      44.832  36.525  28.984  1.00  0.00     0.001 A 
ATOM     74  C   UNL A   1      44.702  36.553  27.601  1.00  0.00     0.000 A 
ENDBRANCH  50  69
BRANCH  62  75
ATOM     75  C   UNL A   1      41.419  30.621  33.604  1.00  0.00    -0.014 A 
ATOM     76  C   UNL A   1      40.485  31.646  33.843  1.00  0.00     0.009 A 
ATOM     77  C   UNL A   1      42.130  30.112  34.700  1.00  0.00     0.009 A 
ATOM     78  C   UNL A   1      40.282  32.154  35.132  1.00  0.00     0.001 A 
ATOM     79  C   UNL A   1      41.915  30.604  35.990  1.00  0.00     0.001 A 
ATOM     80  C   UNL A   1      40.993  31.627  36.206  1.00  0.00     0.000 A 
ENDBRANCH  62  75
ENDBRANCH  36  37
ENDBRANCH  28  31
ENDBRANCH  26  27
ENDBRANCH  25  26
ENDBRANCH   1  25
TORSDOF 13
ENDMDL
