MODEL 1
REMARK VINA RESULT:     -10.0      0.000      0.000
REMARK SMILES CC(C)C[C@H](NC(=O)CNC(=O)[C@@H]([NH3+])C(C)C)C(=O)NCCCCNC(=O)c1ccc(-c2c3nc(c(-c4ccccc4)c4ccc([nH]4)c(-c4ccccc4)c4nc(c(-c5ccccc5)c5ccc2[nH]5)C=C4)C=C3)cc1
REMARK SMILES IDX 21 1 20 2 18 3 19 4 5 6 4 7 2 8 1 9 3 10 6 11 7 12 8 14 9 15
REMARK SMILES IDX 10 16 11 17 12 19 13 20 14 21 15 25 16 26 17 27 22 28 23 29
REMARK SMILES IDX 24 30 25 31 26 32 27 34 28 35 29 36 75 37 30 38 74 39 31 40
REMARK SMILES IDX 32 41 33 42 68 43 34 44 73 45 67 46 69 47 35 48 72 49 66 50
REMARK SMILES IDX 65 51 36 53 58 54 43 55 57 56 44 57 47 58 56 59 70 60 45 61
REMARK SMILES IDX 46 62 55 64 71 65 48 66 37 67 38 68 42 69 39 70 41 71 40 72
REMARK SMILES IDX 59 73 60 74 64 75 61 76 63 77 62 78 49 79 50 80 54 81 51 82
REMARK SMILES IDX 53 83 52 84
REMARK H PARENT 20 5 6 13 10 18 14 22 14 23 14 24 25 33 69 52 47 63
REMARK Flexibility Score: inf
ROOT
ATOM      1  C   UNL A   1      35.502  22.115  24.915  1.00  0.00     0.116 C 
ENDROOT
BRANCH   1   2
ATOM      2  N   UNL A   1      34.411  22.145  23.954  1.00  0.00    -0.354 N 
ATOM      3  C   UNL A   1      33.149  21.628  24.038  1.00  0.00     0.242 C 
ATOM      4  O   UNL A   1      32.352  21.904  23.139  1.00  0.00    -0.273 OA
ATOM      5  H   UNL A   1      34.614  22.610  23.110  1.00  0.00     0.163 HD
BRANCH   3   6
ATOM      6  C   UNL A   1      32.716  20.831  25.283  1.00  0.00     0.171 C 
BRANCH   6   7
ATOM      7  C   UNL A   1      32.609  19.333  24.931  1.00  0.00     0.038 C 
BRANCH   7   8
ATOM      8  C   UNL A   1      33.574  18.761  23.869  1.00  0.00    -0.015 C 
ATOM      9  C   UNL A   1      34.737  17.968  24.465  1.00  0.00     0.007 C 
ATOM     10  C   UNL A   1      32.782  17.850  22.921  1.00  0.00     0.007 C 
ENDBRANCH   7   8
ENDBRANCH   6   7
BRANCH   6  11
ATOM     11  N   UNL A   1      31.456  21.419  25.772  1.00  0.00    -0.343 N 
ATOM     12  C   UNL A   1      31.142  22.537  26.473  1.00  0.00     0.240 C 
ATOM     13  H   UNL A   1      30.666  20.880  25.537  1.00  0.00     0.164 HD
ATOM     14  O   UNL A   1      29.946  22.702  26.738  1.00  0.00    -0.273 OA
BRANCH  12  15
ATOM     15  C   UNL A   1      32.179  23.579  26.886  1.00  0.00     0.216 C 
BRANCH  15  16
ATOM     16  N   UNL A   1      31.692  24.943  26.796  1.00  0.00    -0.342 N 
ATOM     17  C   UNL A   1      31.483  25.732  25.704  1.00  0.00     0.278 C 
ATOM     18  H   UNL A   1      31.479  25.366  27.659  1.00  0.00     0.164 HD
ATOM     19  O   UNL A   1      31.097  26.887  25.904  1.00  0.00    -0.268 OA
BRANCH  17  20
ATOM     20  C   UNL A   1      31.704  25.222  24.256  1.00  0.00     0.273 C 
BRANCH  20  21
ATOM     21  N   UNL A   1      30.478  25.370  23.444  1.00  0.00    -0.347 N 
ATOM     22  H   UNL A   1      30.686  25.143  22.472  1.00  0.00     0.345 HD
ATOM     23  H   UNL A   1      30.145  26.331  23.506  1.00  0.00     0.345 HD
ATOM     24  H   UNL A   1      29.760  24.738  23.796  1.00  0.00     0.345 HD
ENDBRANCH  20  21
BRANCH  20  25
ATOM     25  C   UNL A   1      32.943  25.890  23.626  1.00  0.00     0.051 C 
ATOM     26  C   UNL A   1      34.155  25.700  24.551  1.00  0.00     0.014 C 
ATOM     27  C   UNL A   1      33.279  25.313  22.246  1.00  0.00     0.014 C 
ENDBRANCH  20  25
ENDBRANCH  17  20
ENDBRANCH  15  16
ENDBRANCH  12  15
ENDBRANCH   6  11
ENDBRANCH   3   6
ENDBRANCH   1   2
BRANCH   1  28
ATOM     28  C   UNL A   1      36.829  21.818  24.231  1.00  0.00     0.023 C 
BRANCH  28  29
ATOM     29  C   UNL A   1      37.503  20.538  24.718  1.00  0.00     0.023 C 
BRANCH  29  30
ATOM     30  C   UNL A   1      38.636  20.761  25.713  1.00  0.00     0.116 C 
BRANCH  30  31
ATOM     31  N   UNL A   1      39.621  19.689  25.691  1.00  0.00    -0.352 N 
ATOM     32  C   UNL A   1      40.955  19.757  26.005  1.00  0.00     0.251 C 
ATOM     33  H   UNL A   1      39.288  18.804  25.418  1.00  0.00     0.163 HD
ATOM     34  O   UNL A   1      41.703  18.807  25.806  1.00  0.00    -0.269 OA
BRANCH  32  35
ATOM     35  C   UNL A   1      41.479  21.018  26.559  1.00  0.00     0.039 A 
ATOM     36  C   UNL A   1      42.011  21.970  25.691  1.00  0.00     0.014 A 
ATOM     37  C   UNL A   1      41.361  21.277  27.928  1.00  0.00     0.014 A 
ATOM     38  C   UNL A   1      42.369  23.222  26.190  1.00  0.00     0.010 A 
ATOM     39  C   UNL A   1      41.647  22.548  28.408  1.00  0.00     0.010 A 
ATOM     40  C   UNL A   1      42.156  23.530  27.544  1.00  0.00    -0.014 A 
BRANCH  40  41
ATOM     41  C   UNL A   1      42.465  24.876  28.082  1.00  0.00     0.031 A 
ATOM     42  C   UNL A   1      43.866  25.204  28.511  1.00  0.00     0.074 A 
ATOM     43  C   UNL A   1      41.475  25.773  28.247  1.00  0.00     0.049 A 
ATOM     44  N   UNL A   1      44.325  26.299  29.060  1.00  0.00    -0.248 NA
ATOM     45  C   UNL A   1      44.880  24.153  28.327  1.00  0.00     0.031 C 
ATOM     46  C   UNL A   1      40.065  25.557  27.911  1.00  0.00     0.029 A 
ATOM     47  N   UNL A   1      41.505  27.050  28.747  1.00  0.00    -0.354 N 
ATOM     48  C   UNL A   1      45.671  26.060  29.306  1.00  0.00     0.074 A 
ATOM     49  C   UNL A   1      45.943  24.701  28.895  1.00  0.00     0.031 C 
ATOM     50  C   UNL A   1      39.372  26.674  28.187  1.00  0.00     0.029 A 
ATOM     51  C   UNL A   1      40.279  27.669  28.751  1.00  0.00     0.049 A 
ATOM     52  H   UNL A   1      42.328  27.482  29.072  1.00  0.00     0.167 HD
ATOM     53  C   UNL A   1      46.602  26.902  29.810  1.00  0.00     0.031 A 
ATOM     54  C   UNL A   1      39.925  28.900  29.165  1.00  0.00     0.031 A 
ATOM     55  C   UNL A   1      46.335  28.259  30.201  1.00  0.00     0.049 A 
ATOM     56  C   UNL A   1      40.979  29.818  29.717  1.00  0.00     0.074 A 
ATOM     57  C   UNL A   1      47.224  29.214  30.662  1.00  0.00     0.029 A 
ATOM     58  N   UNL A   1      45.083  28.853  30.176  1.00  0.00    -0.354 N 
ATOM     59  N   UNL A   1      42.261  29.601  29.878  1.00  0.00    -0.248 NA
ATOM     60  C   UNL A   1      40.536  31.155  30.136  1.00  0.00     0.031 C 
ATOM     61  C   UNL A   1      46.500  30.374  30.957  1.00  0.00     0.029 A 
ATOM     62  C   UNL A   1      45.171  30.156  30.633  1.00  0.00     0.049 A 
ATOM     63  H   UNL A   1      44.254  28.413  29.877  1.00  0.00     0.167 HD
ATOM     64  C   UNL A   1      42.783  30.781  30.390  1.00  0.00     0.074 A 
ATOM     65  C   UNL A   1      41.681  31.715  30.499  1.00  0.00     0.031 C 
ATOM     66  C   UNL A   1      44.062  31.069  30.736  1.00  0.00     0.031 A 
BRANCH  53  67
ATOM     67  C   UNL A   1      47.998  26.369  29.967  1.00  0.00    -0.014 A 
ATOM     68  C   UNL A   1      48.927  26.439  28.916  1.00  0.00     0.009 A 
ATOM     69  C   UNL A   1      48.397  25.805  31.189  1.00  0.00     0.009 A 
ATOM     70  C   UNL A   1      50.213  25.919  29.072  1.00  0.00     0.001 A 
ATOM     71  C   UNL A   1      49.692  25.313  31.352  1.00  0.00     0.001 A 
ATOM     72  C   UNL A   1      50.595  25.360  30.291  1.00  0.00     0.000 A 
ENDBRANCH  53  67
BRANCH  54  73
ATOM     73  C   UNL A   1      38.513  29.347  29.048  1.00  0.00    -0.014 A 
ATOM     74  C   UNL A   1      38.033  29.868  27.836  1.00  0.00     0.009 A 
ATOM     75  C   UNL A   1      37.641  29.260  30.143  1.00  0.00     0.009 A 
ATOM     76  C   UNL A   1      36.714  30.314  27.731  1.00  0.00     0.001 A 
ATOM     77  C   UNL A   1      36.315  29.683  30.027  1.00  0.00     0.001 A 
ATOM     78  C   UNL A   1      35.855  30.218  28.825  1.00  0.00     0.000 A 
ENDBRANCH  54  73
BRANCH  66  79
ATOM     79  C   UNL A   1      44.341  32.457  31.236  1.00  0.00    -0.014 A 
ATOM     80  C   UNL A   1      44.298  32.759  32.605  1.00  0.00     0.009 A 
ATOM     81  C   UNL A   1      44.695  33.464  30.324  1.00  0.00     0.009 A 
ATOM     82  C   UNL A   1      44.574  34.054  33.049  1.00  0.00     0.001 A 
ATOM     83  C   UNL A   1      44.995  34.750  30.774  1.00  0.00     0.001 A 
ATOM     84  C   UNL A   1      44.927  35.046  32.134  1.00  0.00     0.000 A 
ENDBRANCH  66  79
ENDBRANCH  40  41
ENDBRANCH  32  35
ENDBRANCH  30  31
ENDBRANCH  29  30
ENDBRANCH  28  29
ENDBRANCH   1  28
TORSDOF 19
ENDMDL
MODEL 2
REMARK VINA RESULT:      -9.9      1.363      3.738
REMARK SMILES CC(C)C[C@H](NC(=O)CNC(=O)[C@@H]([NH3+])C(C)C)C(=O)NCCCCNC(=O)c1ccc(-c2c3nc(c(-c4ccccc4)c4ccc([nH]4)c(-c4ccccc4)c4nc(c(-c5ccccc5)c5ccc2[nH]5)C=C4)C=C3)cc1
REMARK SMILES IDX 21 1 20 2 18 3 19 4 5 6 4 7 2 8 1 9 3 10 6 11 7 12 8 14 9 15
REMARK SMILES IDX 10 16 11 17 12 19 13 20 14 21 15 25 16 26 17 27 22 28 23 29
REMARK SMILES IDX 24 30 25 31 26 32 27 34 28 35 29 36 75 37 30 38 74 39 31 40
REMARK SMILES IDX 32 41 33 42 68 43 34 44 73 45 67 46 69 47 35 48 72 49 66 50
REMARK SMILES IDX 65 51 36 53 58 54 43 55 57 56 44 57 47 58 56 59 70 60 45 61
REMARK SMILES IDX 46 62 55 64 71 65 48 66 37 67 38 68 42 69 39 70 41 71 40 72
REMARK SMILES IDX 59 73 60 74 64 75 61 76 63 77 62 78 49 79 50 80 54 81 51 82
REMARK SMILES IDX 53 83 52 84
REMARK H PARENT 20 5 6 13 10 18 14 22 14 23 14 24 25 33 69 52 47 63
REMARK Flexibility Score: inf
ROOT
ATOM      1  C   UNL A   1      37.338  22.466  25.308  1.00  0.00     0.116 C 
ENDROOT
BRANCH   1   2
ATOM      2  N   UNL A   1      36.447  22.695  26.435  1.00  0.00    -0.354 N 
ATOM      3  C   UNL A   1      35.175  23.191  26.464  1.00  0.00     0.242 C 
ATOM      4  O   UNL A   1      34.570  23.161  27.538  1.00  0.00    -0.273 OA
ATOM      5  H   UNL A   1      36.820  22.455  27.314  1.00  0.00     0.163 HD
BRANCH   3   6
ATOM      6  C   UNL A   1      34.490  23.653  25.165  1.00  0.00     0.171 C 
BRANCH   6   7
ATOM      7  C   UNL A   1      34.642  25.180  25.010  1.00  0.00     0.038 C 
BRANCH   7   8
ATOM      8  C   UNL A   1      33.426  26.073  25.341  1.00  0.00    -0.015 C 
ATOM      9  C   UNL A   1      33.779  27.303  26.175  1.00  0.00     0.007 C 
ATOM     10  C   UNL A   1      32.777  26.531  24.027  1.00  0.00     0.007 C 
ENDBRANCH   7   8
ENDBRANCH   6   7
BRANCH   6  11
ATOM     11  N   UNL A   1      33.088  23.197  25.213  1.00  0.00    -0.343 N 
ATOM     12  C   UNL A   1      32.489  21.981  25.224  1.00  0.00     0.240 C 
ATOM     13  H   UNL A   1      32.445  23.942  25.245  1.00  0.00     0.164 HD
ATOM     14  O   UNL A   1      31.253  21.977  25.240  1.00  0.00    -0.273 OA
BRANCH  12  15
ATOM     15  C   UNL A   1      33.269  20.668  25.262  1.00  0.00     0.216 C 
BRANCH  15  16
ATOM     16  N   UNL A   1      32.925  19.762  24.182  1.00  0.00    -0.342 N 
ATOM     17  C   UNL A   1      33.011  18.404  24.112  1.00  0.00     0.278 C 
ATOM     18  H   UNL A   1      32.573  20.197  23.372  1.00  0.00     0.164 HD
ATOM     19  O   UNL A   1      32.688  17.868  23.047  1.00  0.00    -0.268 OA
BRANCH  17  20
ATOM     20  C   UNL A   1      33.484  17.538  25.309  1.00  0.00     0.273 C 
BRANCH  20  21
ATOM     21  N   UNL A   1      32.495  17.557  26.406  1.00  0.00    -0.347 N 
ATOM     22  H   UNL A   1      32.666  18.366  27.003  1.00  0.00     0.345 HD
ATOM     23  H   UNL A   1      32.583  16.703  26.956  1.00  0.00     0.345 HD
ATOM     24  H   UNL A   1      31.555  17.614  26.014  1.00  0.00     0.345 HD
ENDBRANCH  20  21
BRANCH  20  25
ATOM     25  C   UNL A   1      33.856  16.117  24.840  1.00  0.00     0.051 C 
ATOM     26  C   UNL A   1      35.336  15.843  25.151  1.00  0.00     0.014 C 
ATOM     27  C   UNL A   1      33.002  15.037  25.515  1.00  0.00     0.014 C 
ENDBRANCH  20  25
ENDBRANCH  17  20
ENDBRANCH  15  16
ENDBRANCH  12  15
ENDBRANCH   6  11
ENDBRANCH   3   6
ENDBRANCH   1   2
BRANCH   1  28
ATOM     28  C   UNL A   1      37.011  21.157  24.605  1.00  0.00     0.023 C 
BRANCH  28  29
ATOM     29  C   UNL A   1      37.935  20.002  24.984  1.00  0.00     0.023 C 
BRANCH  29  30
ATOM     30  C   UNL A   1      39.178  20.420  25.760  1.00  0.00     0.116 C 
BRANCH  30  31
ATOM     31  N   UNL A   1      40.189  19.374  25.805  1.00  0.00    -0.352 N 
ATOM     32  C   UNL A   1      41.516  19.490  26.135  1.00  0.00     0.251 C 
ATOM     33  H   UNL A   1      39.883  18.468  25.569  1.00  0.00     0.163 HD
ATOM     34  O   UNL A   1      42.290  18.550  25.993  1.00  0.00    -0.269 OA
BRANCH  32  35
ATOM     35  C   UNL A   1      42.000  20.788  26.636  1.00  0.00     0.039 A 
ATOM     36  C   UNL A   1      42.506  21.717  25.729  1.00  0.00     0.014 A 
ATOM     37  C   UNL A   1      41.870  21.102  27.992  1.00  0.00     0.014 A 
ATOM     38  C   UNL A   1      42.825  23.000  26.175  1.00  0.00     0.010 A 
ATOM     39  C   UNL A   1      42.116  22.400  28.418  1.00  0.00     0.010 A 
ATOM     40  C   UNL A   1      42.598  23.360  27.514  1.00  0.00    -0.014 A 
BRANCH  40  41
ATOM     41  C   UNL A   1      42.865  24.735  27.994  1.00  0.00     0.031 A 
ATOM     42  C   UNL A   1      44.262  25.135  28.375  1.00  0.00     0.074 A 
ATOM     43  C   UNL A   1      41.843  25.597  28.154  1.00  0.00     0.049 A 
ATOM     44  N   UNL A   1      44.689  26.268  28.871  1.00  0.00    -0.248 NA
ATOM     45  C   UNL A   1      45.313  24.119  28.202  1.00  0.00     0.031 C 
ATOM     46  C   UNL A   1      40.435  25.313  27.864  1.00  0.00     0.029 A 
ATOM     47  N   UNL A   1      41.833  26.893  28.607  1.00  0.00    -0.354 N 
ATOM     48  C   UNL A   1      46.049  26.092  29.089  1.00  0.00     0.074 A 
ATOM     49  C   UNL A   1      46.367  24.731  28.720  1.00  0.00     0.031 C 
ATOM     50  C   UNL A   1      39.704  26.410  28.117  1.00  0.00     0.029 A 
ATOM     51  C   UNL A   1      40.583  27.461  28.621  1.00  0.00     0.049 A 
ATOM     52  H   UNL A   1      42.645  27.369  28.893  1.00  0.00     0.167 HD
ATOM     53  C   UNL A   1      46.957  26.989  29.538  1.00  0.00     0.031 A 
ATOM     54  C   UNL A   1      40.189  28.691  28.999  1.00  0.00     0.031 A 
ATOM     55  C   UNL A   1      46.644  28.348  29.887  1.00  0.00     0.049 A 
ATOM     56  C   UNL A   1      41.218  29.671  29.490  1.00  0.00     0.074 A 
ATOM     57  C   UNL A   1      47.504  29.355  30.289  1.00  0.00     0.029 A 
ATOM     58  N   UNL A   1      45.369  28.890  29.873  1.00  0.00    -0.354 N 
ATOM     59  N   UNL A   1      42.512  29.512  29.624  1.00  0.00    -0.248 NA
ATOM     60  C   UNL A   1      40.730  31.004  29.872  1.00  0.00     0.031 C 
ATOM     61  C   UNL A   1      46.741  30.495  30.562  1.00  0.00     0.029 A 
ATOM     62  C   UNL A   1      45.414  30.211  30.281  1.00  0.00     0.049 A 
ATOM     63  H   UNL A   1      44.552  28.406  29.613  1.00  0.00     0.167 HD
ATOM     64  C   UNL A   1      42.997  30.730  30.079  1.00  0.00     0.074 A 
ATOM     65  C   UNL A   1      41.860  31.622  30.184  1.00  0.00     0.031 C 
ATOM     66  C   UNL A   1      44.271  31.081  30.380  1.00  0.00     0.031 A 
BRANCH  53  67
ATOM     67  C   UNL A   1      48.377  26.519  29.677  1.00  0.00    -0.014 A 
ATOM     68  C   UNL A   1      48.866  26.030  30.899  1.00  0.00     0.009 A 
ATOM     69  C   UNL A   1      49.235  26.549  28.566  1.00  0.00     0.009 A 
ATOM     70  C   UNL A   1      50.194  25.618  31.017  1.00  0.00     0.001 A 
ATOM     71  C   UNL A   1      50.555  26.109  28.679  1.00  0.00     0.001 A 
ATOM     72  C   UNL A   1      51.036  25.655  29.906  1.00  0.00     0.000 A 
ENDBRANCH  53  67
BRANCH  54  73
ATOM     73  C   UNL A   1      38.758  29.077  28.904  1.00  0.00    -0.014 A 
ATOM     74  C   UNL A   1      37.904  28.910  30.006  1.00  0.00     0.009 A 
ATOM     75  C   UNL A   1      38.236  29.609  27.715  1.00  0.00     0.009 A 
ATOM     76  C   UNL A   1      36.552  29.247  29.912  1.00  0.00     0.001 A 
ATOM     77  C   UNL A   1      36.889  29.969  27.632  1.00  0.00     0.001 A 
ATOM     78  C   UNL A   1      36.047  29.779  28.727  1.00  0.00     0.000 A 
ENDBRANCH  54  73
BRANCH  66  79
ATOM     79  C   UNL A   1      44.505  32.497  30.823  1.00  0.00    -0.014 A 
ATOM     80  C   UNL A   1      44.489  32.848  32.181  1.00  0.00     0.009 A 
ATOM     81  C   UNL A   1      44.790  33.485  29.866  1.00  0.00     0.009 A 
ATOM     82  C   UNL A   1      44.722  34.168  32.571  1.00  0.00     0.001 A 
ATOM     83  C   UNL A   1      45.049  34.797  30.261  1.00  0.00     0.001 A 
ATOM     84  C   UNL A   1      45.007  35.139  31.611  1.00  0.00     0.000 A 
ENDBRANCH  66  79
ENDBRANCH  40  41
ENDBRANCH  32  35
ENDBRANCH  30  31
ENDBRANCH  29  30
ENDBRANCH  28  29
ENDBRANCH   1  28
TORSDOF 19
ENDMDL
MODEL 3
REMARK VINA RESULT:      -9.8      1.897      2.844
REMARK SMILES CC(C)C[C@H](NC(=O)CNC(=O)[C@@H]([NH3+])C(C)C)C(=O)NCCCCNC(=O)c1ccc(-c2c3nc(c(-c4ccccc4)c4ccc([nH]4)c(-c4ccccc4)c4nc(c(-c5ccccc5)c5ccc2[nH]5)C=C4)C=C3)cc1
REMARK SMILES IDX 21 1 20 2 18 3 19 4 5 6 4 7 2 8 1 9 3 10 6 11 7 12 8 14 9 15
REMARK SMILES IDX 10 16 11 17 12 19 13 20 14 21 15 25 16 26 17 27 22 28 23 29
REMARK SMILES IDX 24 30 25 31 26 32 27 34 28 35 29 36 75 37 30 38 74 39 31 40
REMARK SMILES IDX 32 41 33 42 68 43 34 44 73 45 67 46 69 47 35 48 72 49 66 50
REMARK SMILES IDX 65 51 36 53 58 54 43 55 57 56 44 57 47 58 56 59 70 60 45 61
REMARK SMILES IDX 46 62 55 64 71 65 48 66 37 67 38 68 42 69 39 70 41 71 40 72
REMARK SMILES IDX 59 73 60 74 64 75 61 76 63 77 62 78 49 79 50 80 54 81 51 82
REMARK SMILES IDX 53 83 52 84
REMARK H PARENT 20 5 6 13 10 18 14 22 14 23 14 24 25 33 69 52 47 63
REMARK Flexibility Score: inf
ROOT
ATOM      1  C   UNL A   1      36.122  21.176  25.576  1.00  0.00     0.116 C 
ENDROOT
BRANCH   1   2
ATOM      2  N   UNL A   1      35.105  20.232  25.140  1.00  0.00    -0.354 N 
ATOM      3  C   UNL A   1      33.821  20.450  24.728  1.00  0.00     0.242 C 
ATOM      4  O   UNL A   1      33.192  19.493  24.272  1.00  0.00    -0.273 OA
ATOM      5  H   UNL A   1      35.386  19.289  25.143  1.00  0.00     0.163 HD
BRANCH   3   6
ATOM      6  C   UNL A   1      33.237  21.875  24.722  1.00  0.00     0.171 C 
BRANCH   6   7
ATOM      7  C   UNL A   1      31.758  21.833  25.160  1.00  0.00     0.038 C 
BRANCH   7   8
ATOM      8  C   UNL A   1      31.238  22.954  26.087  1.00  0.00    -0.015 C 
ATOM      9  C   UNL A   1      29.983  22.568  26.868  1.00  0.00     0.007 C 
ATOM     10  C   UNL A   1      32.348  23.329  27.079  1.00  0.00     0.007 C 
ENDBRANCH   7   8
ENDBRANCH   6   7
BRANCH   6  11
ATOM     11  N   UNL A   1      33.442  22.436  23.375  1.00  0.00    -0.343 N 
ATOM     12  C   UNL A   1      33.500  23.694  22.872  1.00  0.00     0.240 C 
ATOM     13  H   UNL A   1      33.565  21.743  22.686  1.00  0.00     0.164 HD
ATOM     14  O   UNL A   1      33.663  23.792  21.651  1.00  0.00    -0.273 OA
BRANCH  12  15
ATOM     15  C   UNL A   1      33.419  24.945  23.746  1.00  0.00     0.216 C 
BRANCH  15  16
ATOM     16  N   UNL A   1      33.217  26.165  22.987  1.00  0.00    -0.342 N 
ATOM     17  C   UNL A   1      33.087  27.454  23.413  1.00  0.00     0.278 C 
ATOM     18  H   UNL A   1      33.165  26.043  22.012  1.00  0.00     0.164 HD
ATOM     19  O   UNL A   1      32.878  28.316  22.554  1.00  0.00    -0.268 OA
BRANCH  17  20
ATOM     20  C   UNL A   1      33.201  27.851  24.907  1.00  0.00     0.273 C 
BRANCH  20  21
ATOM     21  N   UNL A   1      34.135  28.982  25.089  1.00  0.00    -0.347 N 
ATOM     22  H   UNL A   1      33.644  29.759  25.532  1.00  0.00     0.345 HD
ATOM     23  H   UNL A   1      34.491  29.277  24.182  1.00  0.00     0.345 HD
ATOM     24  H   UNL A   1      34.912  28.688  25.681  1.00  0.00     0.345 HD
ENDBRANCH  20  21
BRANCH  20  25
ATOM     25  C   UNL A   1      31.805  28.103  25.512  1.00  0.00     0.051 C 
ATOM     26  C   UNL A   1      31.348  26.858  26.287  1.00  0.00     0.014 C 
ATOM     27  C   UNL A   1      31.788  29.308  26.460  1.00  0.00     0.014 C 
ENDBRANCH  20  25
ENDBRANCH  17  20
ENDBRANCH  15  16
ENDBRANCH  12  15
ENDBRANCH   6  11
ENDBRANCH   3   6
ENDBRANCH   1   2
BRANCH   1  28
ATOM     28  C   UNL A   1      37.330  21.151  24.650  1.00  0.00     0.023 C 
BRANCH  28  29
ATOM     29  C   UNL A   1      38.234  19.936  24.845  1.00  0.00     0.023 C 
BRANCH  29  30
ATOM     30  C   UNL A   1      39.276  20.097  25.945  1.00  0.00     0.116 C 
BRANCH  30  31
ATOM     31  N   UNL A   1      40.272  19.035  25.935  1.00  0.00    -0.352 N 
ATOM     32  C   UNL A   1      41.633  19.147  26.072  1.00  0.00     0.251 C 
ATOM     33  H   UNL A   1      39.925  18.121  25.815  1.00  0.00     0.163 HD
ATOM     34  O   UNL A   1      42.369  18.181  25.901  1.00  0.00    -0.269 OA
BRANCH  32  35
ATOM     35  C   UNL A   1      42.196  20.468  26.399  1.00  0.00     0.039 A 
ATOM     36  C   UNL A   1      42.598  21.308  25.362  1.00  0.00     0.014 A 
ATOM     37  C   UNL A   1      42.241  20.894  27.730  1.00  0.00     0.014 A 
ATOM     38  C   UNL A   1      42.990  22.613  25.656  1.00  0.00     0.010 A 
ATOM     39  C   UNL A   1      42.559  22.216  28.012  1.00  0.00     0.010 A 
ATOM     40  C   UNL A   1      42.938  23.086  26.978  1.00  0.00    -0.014 A 
BRANCH  40  41
ATOM     41  C   UNL A   1      43.285  24.489  27.305  1.00  0.00     0.031 A 
ATOM     42  C   UNL A   1      44.715  24.940  27.236  1.00  0.00     0.074 A 
ATOM     43  C   UNL A   1      42.325  25.332  27.731  1.00  0.00     0.049 A 
ATOM     44  N   UNL A   1      45.228  26.105  27.539  1.00  0.00    -0.248 NA
ATOM     45  C   UNL A   1      45.705  23.944  26.794  1.00  0.00     0.031 C 
ATOM     46  C   UNL A   1      40.907  25.000  27.885  1.00  0.00     0.029 A 
ATOM     47  N   UNL A   1      42.402  26.647  28.117  1.00  0.00    -0.354 N 
ATOM     48  C   UNL A   1      46.598  25.973  27.347  1.00  0.00     0.074 A 
ATOM     49  C   UNL A   1      46.842  24.604  26.951  1.00  0.00     0.031 C 
ATOM     50  C   UNL A   1      40.244  26.089  28.305  1.00  0.00     0.029 A 
ATOM     51  C   UNL A   1      41.193  27.184  28.483  1.00  0.00     0.049 A 
ATOM     52  H   UNL A   1      43.245  27.155  28.130  1.00  0.00     0.167 HD
ATOM     53  C   UNL A   1      47.564  26.912  27.470  1.00  0.00     0.031 A 
ATOM     54  C   UNL A   1      40.883  28.421  28.916  1.00  0.00     0.031 A 
ATOM     55  C   UNL A   1      47.318  28.278  27.845  1.00  0.00     0.049 A 
ATOM     56  C   UNL A   1      41.975  29.448  29.040  1.00  0.00     0.074 A 
ATOM     57  C   UNL A   1      48.221  29.323  27.934  1.00  0.00     0.029 A 
ATOM     58  N   UNL A   1      46.077  28.787  28.194  1.00  0.00    -0.354 N 
ATOM     59  N   UNL A   1      43.254  29.327  28.787  1.00  0.00    -0.248 NA
ATOM     60  C   UNL A   1      41.573  30.784  29.500  1.00  0.00     0.031 C 
ATOM     61  C   UNL A   1      47.532  30.455  28.380  1.00  0.00     0.029 A 
ATOM     62  C   UNL A   1      46.192  30.127  28.519  1.00  0.00     0.049 A 
ATOM     63  H   UNL A   1      45.239  28.271  28.208  1.00  0.00     0.167 HD
ATOM     64  C   UNL A   1      43.808  30.576  29.030  1.00  0.00     0.074 A 
ATOM     65  C   UNL A   1      42.721  31.444  29.437  1.00  0.00     0.031 C 
ATOM     66  C   UNL A   1      45.099  30.972  28.924  1.00  0.00     0.031 A 
BRANCH  53  67
ATOM     67  C   UNL A   1      48.978  26.484  27.195  1.00  0.00    -0.014 A 
ATOM     68  C   UNL A   1      49.539  26.604  25.914  1.00  0.00     0.009 A 
ATOM     69  C   UNL A   1      49.766  25.970  28.237  1.00  0.00     0.009 A 
ATOM     70  C   UNL A   1      50.846  26.180  25.671  1.00  0.00     0.001 A 
ATOM     71  C   UNL A   1      51.083  25.575  27.998  1.00  0.00     0.001 A 
ATOM     72  C   UNL A   1      51.619  25.670  26.714  1.00  0.00     0.000 A 
ENDBRANCH  53  67
BRANCH  54  73
ATOM     73  C   UNL A   1      39.475  28.766  29.239  1.00  0.00    -0.014 A 
ATOM     74  C   UNL A   1      38.620  29.258  28.240  1.00  0.00     0.009 A 
ATOM     75  C   UNL A   1      38.980  28.610  30.542  1.00  0.00     0.009 A 
ATOM     76  C   UNL A   1      37.303  29.608  28.546  1.00  0.00     0.001 A 
ATOM     77  C   UNL A   1      37.655  28.938  30.839  1.00  0.00     0.001 A 
ATOM     78  C   UNL A   1      36.821  29.445  29.844  1.00  0.00     0.000 A 
ENDBRANCH  54  73
BRANCH  66  79
ATOM     79  C   UNL A   1      45.401  32.412  29.222  1.00  0.00    -0.014 A 
ATOM     80  C   UNL A   1      45.328  33.394  28.223  1.00  0.00     0.009 A 
ATOM     81  C   UNL A   1      45.721  32.796  30.535  1.00  0.00     0.009 A 
ATOM     82  C   UNL A   1      45.600  34.730  28.526  1.00  0.00     0.001 A 
ATOM     83  C   UNL A   1      45.966  34.135  30.839  1.00  0.00     0.001 A 
ATOM     84  C   UNL A   1      45.913  35.099  29.834  1.00  0.00     0.000 A 
ENDBRANCH  66  79
ENDBRANCH  40  41
ENDBRANCH  32  35
ENDBRANCH  30  31
ENDBRANCH  29  30
ENDBRANCH  28  29
ENDBRANCH   1  28
TORSDOF 19
ENDMDL
