MODEL 1
REMARK VINA RESULT:     -13.2      0.000      0.000
REMARK SMILES Cc1ccc(C(=O)NC2(CC(=O)NCCCCNC(=O)c3ccc(-c4c5nc(c(-c6ccccc6)c6ccc([nH]6)c(-c6ccccc6)c6nc(c(-c7ccccc7)c7ccc4[nH]7)C=C6)C=C5)cc3)CCC2)cc1
REMARK SMILES IDX 15 1 14 2 13 3 11 4 12 5 10 7 9 8 69 9 71 10 70 11 8 12 6 13
REMARK SMILES IDX 7 14 5 16 1 17 2 18 3 19 73 20 4 21 72 22 16 23 17 24 18 25
REMARK SMILES IDX 19 26 20 28 21 29 22 30 68 31 23 32 67 33 24 34 25 35 26 36
REMARK SMILES IDX 61 37 27 38 66 39 60 40 62 41 28 42 65 43 59 44 58 45 29 47
REMARK SMILES IDX 51 48 36 49 50 50 37 51 40 52 49 53 63 54 38 55 39 56 48 58
REMARK SMILES IDX 64 59 41 60 30 61 31 62 35 63 32 64 34 65 33 66 52 67 53 68
REMARK SMILES IDX 57 69 54 70 56 71 55 72 42 73 43 74 47 75 44 76 46 77 45 78
REMARK H PARENT 13 6 8 15 18 27 62 46 40 57
REMARK Flexibility Score: inf
ROOT
ATOM      1  C   UNL A   1      34.871  32.078  27.619  1.00  0.00     0.023 C 
ENDROOT
BRANCH   1   2
ATOM      2  C   UNL A   1      34.794  30.551  27.627  1.00  0.00     0.116 C 
BRANCH   2   3
ATOM      3  N   UNL A   1      33.240  29.935  27.918  1.00  0.00    -0.356 N 
ATOM      4  C   UNL A   1      32.101  28.451  27.318  1.00  0.00     0.222 C 
ATOM      5  O   UNL A   1      31.095  27.897  27.859  1.00  0.00    -0.275 OA
ATOM      6  H   UNL A   1      32.769  30.485  28.586  1.00  0.00     0.163 HD
BRANCH   4   7
ATOM      7  C   UNL A   1      32.322  27.566  25.649  1.00  0.00     0.128 C 
BRANCH   7   8
ATOM      8  C   UNL A   1      31.091  26.787  24.794  1.00  0.00     0.049 C 
ATOM      9  C   UNL A   1      31.443  26.168  23.395  1.00  0.00     0.029 C 
ATOM     10  C   UNL A   1      29.707  27.267  23.935  1.00  0.00     0.029 C 
ATOM     11  C   UNL A   1      30.562  27.245  22.688  1.00  0.00     0.005 C 
BRANCH   8  12
ATOM     12  N   UNL A   1      30.448  25.954  25.796  1.00  0.00    -0.346 N 
ATOM     13  C   UNL A   1      31.165  24.844  26.136  1.00  0.00     0.251 C 
ATOM     14  O   UNL A   1      30.864  24.097  27.053  1.00  0.00    -0.269 OA
ATOM     15  H   UNL A   1      29.574  26.171  26.194  1.00  0.00     0.164 HD
BRANCH  13  16
ATOM     16  C   UNL A   1      32.247  24.523  25.139  1.00  0.00     0.039 A 
ATOM     17  C   UNL A   1      36.632  22.871  23.227  1.00  0.00     0.044 C 
ATOM     18  C   UNL A   1      35.325  22.988  23.961  1.00  0.00    -0.051 A 
ATOM     19  C   UNL A   1      35.338  24.067  25.408  1.00  0.00     0.004 A 
ATOM     20  C   UNL A   1      33.801  22.578  23.099  1.00  0.00     0.004 A 
ATOM     21  C   UNL A   1      33.822  24.820  25.987  1.00  0.00     0.014 A 
ATOM     22  C   UNL A   1      32.232  23.362  23.639  1.00  0.00     0.014 A 
ENDBRANCH  13  16
ENDBRANCH   8  12
ENDBRANCH   7   8
ENDBRANCH   4   7
ENDBRANCH   2   3
ENDBRANCH   1   2
BRANCH   1  23
ATOM     23  C   UNL A   1      35.525  32.666  28.855  1.00  0.00     0.023 C 
BRANCH  23  24
ATOM     24  C   UNL A   1      34.857  32.204  30.131  1.00  0.00     0.116 C 
BRANCH  24  25
ATOM     25  N   UNL A   1      34.115  33.252  30.812  1.00  0.00    -0.352 N 
ATOM     26  C   UNL A   1      34.305  33.791  32.067  1.00  0.00     0.251 C 
ATOM     27  H   UNL A   1      33.366  33.635  30.301  1.00  0.00     0.163 HD
ATOM     28  O   UNL A   1      33.365  34.374  32.603  1.00  0.00    -0.269 OA
BRANCH  26  29
ATOM     29  C   UNL A   1      35.674  33.896  32.654  1.00  0.00     0.039 A 
ATOM     30  C   UNL A   1      36.627  34.512  31.828  1.00  0.00     0.014 A 
ATOM     31  C   UNL A   1      36.086  32.932  33.553  1.00  0.00     0.014 A 
ATOM     32  C   UNL A   1      37.853  33.893  31.637  1.00  0.00     0.010 A 
ATOM     33  C   UNL A   1      37.161  32.176  33.204  1.00  0.00     0.010 A 
ATOM     34  C   UNL A   1      38.019  32.646  32.218  1.00  0.00    -0.014 A 
BRANCH  34  35
ATOM     35  C   UNL A   1      39.186  31.812  32.108  1.00  0.00     0.031 A 
ATOM     36  C   UNL A   1      38.939  30.583  31.334  1.00  0.00     0.074 A 
ATOM     37  C   UNL A   1      40.361  32.371  32.482  1.00  0.00     0.049 A 
ATOM     38  N   UNL A   1      39.643  29.526  31.424  1.00  0.00    -0.248 NA
ATOM     39  C   UNL A   1      37.799  30.410  30.414  1.00  0.00     0.031 C 
ATOM     40  C   UNL A   1      41.740  31.978  32.227  1.00  0.00     0.029 A 
ATOM     41  N   UNL A   1      40.494  33.411  33.408  1.00  0.00    -0.354 N 
ATOM     42  C   UNL A   1      39.325  28.741  30.334  1.00  0.00     0.074 A 
ATOM     43  C   UNL A   1      38.075  29.237  29.836  1.00  0.00     0.031 C 
ATOM     44  C   UNL A   1      42.524  32.483  33.205  1.00  0.00     0.029 A 
ATOM     45  C   UNL A   1      41.650  33.141  34.164  1.00  0.00     0.049 A 
ATOM     46  H   UNL A   1      39.894  34.184  33.510  1.00  0.00     0.167 HD
ATOM     47  C   UNL A   1      40.281  27.890  29.883  1.00  0.00     0.031 A 
ATOM     48  C   UNL A   1      41.491  32.768  35.472  1.00  0.00     0.031 A 
ATOM     49  C   UNL A   1      41.464  28.026  30.728  1.00  0.00     0.049 A 
ATOM     50  C   UNL A   1      41.778  31.287  35.632  1.00  0.00     0.074 A 
ATOM     51  C   UNL A   1      42.601  28.808  30.610  1.00  0.00     0.029 A 
ATOM     52  N   UNL A   1      41.333  27.711  32.069  1.00  0.00    -0.354 N 
ATOM     53  N   UNL A   1      41.639  30.399  34.680  1.00  0.00    -0.248 NA
ATOM     54  C   UNL A   1      42.375  30.725  36.839  1.00  0.00     0.031 C 
ATOM     55  C   UNL A   1      43.121  29.002  31.923  1.00  0.00     0.029 A 
ATOM     56  C   UNL A   1      42.298  28.346  32.824  1.00  0.00     0.049 A 
ATOM     57  H   UNL A   1      40.643  27.114  32.437  1.00  0.00     0.167 HD
ATOM     58  C   UNL A   1      42.200  29.212  35.076  1.00  0.00     0.074 A 
ATOM     59  C   UNL A   1      42.629  29.466  36.442  1.00  0.00     0.031 C 
ATOM     60  C   UNL A   1      42.329  28.119  34.263  1.00  0.00     0.031 A 
BRANCH  47  61
ATOM     61  C   UNL A   1      40.284  27.133  28.589  1.00  0.00    -0.014 A 
ATOM     62  C   UNL A   1      41.044  27.657  27.524  1.00  0.00     0.009 A 
ATOM     63  C   UNL A   1      39.615  25.923  28.343  1.00  0.00     0.009 A 
ATOM     64  C   UNL A   1      41.132  27.023  26.283  1.00  0.00     0.001 A 
ATOM     65  C   UNL A   1      39.692  25.285  27.093  1.00  0.00     0.001 A 
ATOM     66  C   UNL A   1      40.454  25.833  26.065  1.00  0.00     0.000 A 
ENDBRANCH  47  61
BRANCH  48  67
ATOM     67  C   UNL A   1      40.402  33.576  36.124  1.00  0.00    -0.014 A 
ATOM     68  C   UNL A   1      39.317  32.833  36.652  1.00  0.00     0.009 A 
ATOM     69  C   UNL A   1      40.681  34.825  36.694  1.00  0.00     0.009 A 
ATOM     70  C   UNL A   1      38.725  33.193  37.869  1.00  0.00     0.001 A 
ATOM     71  C   UNL A   1      40.041  35.204  37.885  1.00  0.00     0.001 A 
ATOM     72  C   UNL A   1      39.129  34.354  38.512  1.00  0.00     0.000 A 
ENDBRANCH  48  67
BRANCH  60  73
ATOM     73  C   UNL A   1      42.532  26.689  34.730  1.00  0.00    -0.014 A 
ATOM     74  C   UNL A   1      41.613  25.970  35.497  1.00  0.00     0.009 A 
ATOM     75  C   UNL A   1      43.650  25.953  34.259  1.00  0.00     0.009 A 
ATOM     76  C   UNL A   1      41.824  24.625  35.824  1.00  0.00     0.001 A 
ATOM     77  C   UNL A   1      43.818  24.591  34.502  1.00  0.00     0.001 A 
ATOM     78  C   UNL A   1      42.913  23.932  35.311  1.00  0.00     0.000 A 
ENDBRANCH  60  73
ENDBRANCH  34  35
ENDBRANCH  26  29
ENDBRANCH  24  25
ENDBRANCH  23  24
ENDBRANCH   1  23
TORSDOF 14
ENDMDL
MODEL 2
REMARK VINA RESULT:     -13.0      5.111     10.084
REMARK SMILES Cc1ccc(C(=O)NC2(CC(=O)NCCCCNC(=O)c3ccc(-c4c5nc(c(-c6ccccc6)c6ccc([nH]6)c(-c6ccccc6)c6nc(c(-c7ccccc7)c7ccc4[nH]7)C=C6)C=C5)cc3)CCC2)cc1
REMARK SMILES IDX 15 1 14 2 13 3 11 4 12 5 10 7 9 8 69 9 71 10 70 11 8 12 6 13
REMARK SMILES IDX 7 14 5 16 1 17 2 18 3 19 73 20 4 21 72 22 16 23 17 24 18 25
REMARK SMILES IDX 19 26 20 28 21 29 22 30 68 31 23 32 67 33 24 34 25 35 26 36
REMARK SMILES IDX 61 37 27 38 66 39 60 40 62 41 28 42 65 43 59 44 58 45 29 47
REMARK SMILES IDX 51 48 36 49 50 50 37 51 40 52 49 53 63 54 38 55 39 56 48 58
REMARK SMILES IDX 64 59 41 60 30 61 31 62 35 63 32 64 34 65 33 66 52 67 53 68
REMARK SMILES IDX 57 69 54 70 56 71 55 72 42 73 43 74 47 75 44 76 46 77 45 78
REMARK H PARENT 13 6 8 15 18 27 62 46 40 57
REMARK Flexibility Score: inf
ROOT
ATOM      1  C   UNL A   1      39.996  23.042  27.457  1.00  0.00     0.023 C 
ENDROOT
BRANCH   1   2
ATOM      2  C   UNL A   1      38.950  23.211  26.356  1.00  0.00     0.116 C 
BRANCH   2   3
ATOM      3  N   UNL A   1      37.893  21.894  26.193  1.00  0.00    -0.356 N 
ATOM      4  C   UNL A   1      36.268  21.416  25.197  1.00  0.00     0.222 C 
ATOM      5  O   UNL A   1      35.770  20.287  24.901  1.00  0.00    -0.275 OA
ATOM      6  H   UNL A   1      38.179  21.148  26.769  1.00  0.00     0.163 HD
BRANCH   4   7
ATOM      7  C   UNL A   1      35.046  22.699  24.503  1.00  0.00     0.128 C 
BRANCH   7   8
ATOM      8  C   UNL A   1      33.484  22.355  23.960  1.00  0.00     0.049 C 
ATOM      9  C   UNL A   1      32.284  22.669  24.922  1.00  0.00     0.029 C 
ATOM     10  C   UNL A   1      32.562  20.953  23.701  1.00  0.00     0.029 C 
ATOM     11  C   UNL A   1      32.015  21.141  25.098  1.00  0.00     0.005 C 
BRANCH   8  12
ATOM     12  N   UNL A   1      33.465  22.883  22.607  1.00  0.00    -0.346 N 
ATOM     13  C   UNL A   1      33.247  24.228  22.540  1.00  0.00     0.251 C 
ATOM     14  O   UNL A   1      33.333  24.879  21.511  1.00  0.00    -0.269 OA
ATOM     15  H   UNL A   1      33.597  22.321  21.810  1.00  0.00     0.164 HD
BRANCH  13  16
ATOM     16  C   UNL A   1      32.692  24.792  23.823  1.00  0.00     0.039 A 
ATOM     17  C   UNL A   1      31.712  28.049  27.569  1.00  0.00     0.044 C 
ATOM     18  C   UNL A   1      31.880  27.396  26.225  1.00  0.00    -0.051 A 
ATOM     19  C   UNL A   1      33.585  27.151  25.685  1.00  0.00     0.004 A 
ATOM     20  C   UNL A   1      30.524  26.423  25.553  1.00  0.00     0.004 A 
ATOM     21  C   UNL A   1      33.983  25.869  24.501  1.00  0.00     0.014 A 
ATOM     22  C   UNL A   1      30.898  25.074  24.366  1.00  0.00     0.014 A 
ENDBRANCH  13  16
ENDBRANCH   8  12
ENDBRANCH   7   8
ENDBRANCH   4   7
ENDBRANCH   2   3
ENDBRANCH   1   2
BRANCH   1  23
ATOM     23  C   UNL A   1      41.163  22.154  27.066  1.00  0.00     0.023 C 
BRANCH  23  24
ATOM     24  C   UNL A   1      41.894  22.675  25.847  1.00  0.00     0.116 C 
BRANCH  24  25
ATOM     25  N   UNL A   1      42.798  21.704  25.253  1.00  0.00    -0.352 N 
ATOM     26  C   UNL A   1      44.100  21.861  24.829  1.00  0.00     0.251 C 
ATOM     27  H   UNL A   1      42.426  20.800  25.138  1.00  0.00     0.163 HD
ATOM     28  O   UNL A   1      44.554  21.055  24.019  1.00  0.00    -0.269 OA
BRANCH  26  29
ATOM     29  C   UNL A   1      45.019  22.817  25.517  1.00  0.00     0.039 A 
ATOM     30  C   UNL A   1      45.095  22.666  26.910  1.00  0.00     0.014 A 
ATOM     31  C   UNL A   1      45.208  24.069  24.964  1.00  0.00     0.014 A 
ATOM     32  C   UNL A   1      44.961  23.785  27.716  1.00  0.00     0.010 A 
ATOM     33  C   UNL A   1      44.827  25.140  25.709  1.00  0.00     0.010 A 
ATOM     34  C   UNL A   1      44.668  24.981  27.080  1.00  0.00    -0.014 A 
BRANCH  34  35
ATOM     35  C   UNL A   1      44.442  26.247  27.724  1.00  0.00     0.031 A 
ATOM     36  C   UNL A   1      43.060  26.729  27.566  1.00  0.00     0.074 A 
ATOM     37  C   UNL A   1      45.408  26.671  28.572  1.00  0.00     0.049 A 
ATOM     38  N   UNL A   1      42.708  27.949  27.675  1.00  0.00    -0.248 NA
ATOM     39  C   UNL A   1      41.928  25.861  27.189  1.00  0.00     0.031 C 
ATOM     40  C   UNL A   1      45.401  27.693  29.609  1.00  0.00     0.029 A 
ATOM     41  N   UNL A   1      46.757  26.309  28.494  1.00  0.00    -0.354 N 
ATOM     42  C   UNL A   1      41.334  27.959  27.797  1.00  0.00     0.074 A 
ATOM     43  C   UNL A   1      40.881  26.683  27.326  1.00  0.00     0.031 C 
ATOM     44  C   UNL A   1      46.665  28.127  29.801  1.00  0.00     0.029 A 
ATOM     45  C   UNL A   1      47.508  27.453  28.825  1.00  0.00     0.049 A 
ATOM     46  H   UNL A   1      47.113  25.424  28.254  1.00  0.00     0.167 HD
ATOM     47  C   UNL A   1      40.780  28.995  28.475  1.00  0.00     0.031 A 
ATOM     48  C   UNL A   1      48.210  28.072  27.826  1.00  0.00     0.031 A 
ATOM     49  C   UNL A   1      41.846  29.890  28.914  1.00  0.00     0.049 A 
ATOM     50  C   UNL A   1      47.534  29.374  27.440  1.00  0.00     0.074 A 
ATOM     51  C   UNL A   1      42.568  29.962  30.094  1.00  0.00     0.029 A 
ATOM     52  N   UNL A   1      42.617  30.496  27.937  1.00  0.00    -0.354 N 
ATOM     53  N   UNL A   1      46.254  29.612  27.581  1.00  0.00    -0.248 NA
ATOM     54  C   UNL A   1      48.276  30.548  26.996  1.00  0.00     0.031 C 
ATOM     55  C   UNL A   1      43.818  30.577  29.791  1.00  0.00     0.029 A 
ATOM     56  C   UNL A   1      43.848  30.868  28.436  1.00  0.00     0.049 A 
ATOM     57  H   UNL A   1      42.326  30.642  27.008  1.00  0.00     0.167 HD
ATOM     58  C   UNL A   1      46.010  30.945  27.363  1.00  0.00     0.074 A 
ATOM     59  C   UNL A   1      47.308  31.479  26.982  1.00  0.00     0.031 C 
ATOM     60  C   UNL A   1      44.793  31.540  27.553  1.00  0.00     0.031 A 
BRANCH  47  61
ATOM     61  C   UNL A   1      39.366  29.108  28.964  1.00  0.00    -0.014 A 
ATOM     62  C   UNL A   1      38.387  29.537  28.047  1.00  0.00     0.009 A 
ATOM     63  C   UNL A   1      38.918  28.799  30.259  1.00  0.00     0.009 A 
ATOM     64  C   UNL A   1      37.039  29.659  28.392  1.00  0.00     0.001 A 
ATOM     65  C   UNL A   1      37.564  28.928  30.614  1.00  0.00     0.001 A 
ATOM     66  C   UNL A   1      36.625  29.353  29.679  1.00  0.00     0.000 A 
ENDBRANCH  47  61
BRANCH  48  67
ATOM     67  C   UNL A   1      48.848  27.055  26.919  1.00  0.00    -0.014 A 
ATOM     68  C   UNL A   1      48.438  27.097  25.563  1.00  0.00     0.009 A 
ATOM     69  C   UNL A   1      50.119  26.539  27.204  1.00  0.00     0.009 A 
ATOM     70  C   UNL A   1      49.359  26.900  24.527  1.00  0.00     0.001 A 
ATOM     71  C   UNL A   1      51.019  26.289  26.155  1.00  0.00     0.001 A 
ATOM     72  C   UNL A   1      50.667  26.547  24.830  1.00  0.00     0.000 A 
ENDBRANCH  48  67
BRANCH  60  73
ATOM     73  C   UNL A   1      44.349  32.858  26.945  1.00  0.00    -0.014 A 
ATOM     74  C   UNL A   1      44.165  33.076  25.579  1.00  0.00     0.009 A 
ATOM     75  C   UNL A   1      43.949  33.919  27.797  1.00  0.00     0.009 A 
ATOM     76  C   UNL A   1      43.673  34.292  25.090  1.00  0.00     0.001 A 
ATOM     77  C   UNL A   1      43.371  35.095  27.323  1.00  0.00     0.001 A 
ATOM     78  C   UNL A   1      43.258  35.292  25.960  1.00  0.00     0.000 A 
ENDBRANCH  60  73
ENDBRANCH  34  35
ENDBRANCH  26  29
ENDBRANCH  24  25
ENDBRANCH  23  24
ENDBRANCH   1  23
TORSDOF 14
ENDMDL
MODEL 3
REMARK VINA RESULT:     -12.9      2.025      3.316
REMARK SMILES Cc1ccc(C(=O)NC2(CC(=O)NCCCCNC(=O)c3ccc(-c4c5nc(c(-c6ccccc6)c6ccc([nH]6)c(-c6ccccc6)c6nc(c(-c7ccccc7)c7ccc4[nH]7)C=C6)C=C5)cc3)CCC2)cc1
REMARK SMILES IDX 15 1 14 2 13 3 11 4 12 5 10 7 9 8 69 9 71 10 70 11 8 12 6 13
REMARK SMILES IDX 7 14 5 16 1 17 2 18 3 19 73 20 4 21 72 22 16 23 17 24 18 25
REMARK SMILES IDX 19 26 20 28 21 29 22 30 68 31 23 32 67 33 24 34 25 35 26 36
REMARK SMILES IDX 61 37 27 38 66 39 60 40 62 41 28 42 65 43 59 44 58 45 29 47
REMARK SMILES IDX 51 48 36 49 50 50 37 51 40 52 49 53 63 54 38 55 39 56 48 58
REMARK SMILES IDX 64 59 41 60 30 61 31 62 35 63 32 64 34 65 33 66 52 67 53 68
REMARK SMILES IDX 57 69 54 70 56 71 55 72 42 73 43 74 47 75 44 76 46 77 45 78
REMARK H PARENT 13 6 8 15 18 27 62 46 40 57
REMARK Flexibility Score: inf
ROOT
ATOM      1  C   UNL A   1      32.907  28.513  27.375  1.00  0.00     0.023 C 
ENDROOT
BRANCH   1   2
ATOM      2  C   UNL A   1      31.933  28.030  26.300  1.00  0.00     0.116 C 
BRANCH   2   3
ATOM      3  N   UNL A   1      30.983  26.705  26.770  1.00  0.00    -0.356 N 
ATOM      4  C   UNL A   1      30.956  24.752  26.550  1.00  0.00     0.222 C 
ATOM      5  O   UNL A   1      30.393  23.841  27.231  1.00  0.00    -0.275 OA
ATOM      6  H   UNL A   1      30.218  27.003  27.314  1.00  0.00     0.163 HD
BRANCH   4   7
ATOM      7  C   UNL A   1      31.810  23.846  25.112  1.00  0.00     0.128 C 
BRANCH   7   8
ATOM      8  C   UNL A   1      31.955  24.444  23.539  1.00  0.00     0.049 C 
ATOM      9  C   UNL A   1      33.276  25.201  23.157  1.00  0.00     0.029 C 
ATOM     10  C   UNL A   1      31.281  25.725  22.651  1.00  0.00     0.029 C 
ATOM     11  C   UNL A   1      32.487  26.543  23.054  1.00  0.00     0.005 C 
BRANCH   8  12
ATOM     12  N   UNL A   1      31.505  23.341  22.707  1.00  0.00    -0.346 N 
ATOM     13  C   UNL A   1      32.291  22.229  22.786  1.00  0.00     0.251 C 
ATOM     14  O   UNL A   1      32.006  21.159  22.276  1.00  0.00    -0.269 OA
ATOM     15  H   UNL A   1      30.703  23.391  22.137  1.00  0.00     0.164 HD
BRANCH  13  16
ATOM     16  C   UNL A   1      33.641  22.515  23.394  1.00  0.00     0.039 A 
ATOM     17  C   UNL A   1      38.123  21.764  25.618  1.00  0.00     0.044 C 
ATOM     18  C   UNL A   1      36.928  21.692  24.708  1.00  0.00    -0.051 A 
ATOM     19  C   UNL A   1      35.447  20.950  25.423  1.00  0.00     0.004 A 
ATOM     20  C   UNL A   1      36.845  22.797  23.291  1.00  0.00     0.004 A 
ATOM     21  C   UNL A   1      33.829  21.355  24.774  1.00  0.00     0.014 A 
ATOM     22  C   UNL A   1      35.201  23.267  22.622  1.00  0.00     0.014 A 
ENDBRANCH  13  16
ENDBRANCH   8  12
ENDBRANCH   7   8
ENDBRANCH   4   7
ENDBRANCH   2   3
ENDBRANCH   1   2
BRANCH   1  23
ATOM     23  C   UNL A   1      34.364  28.458  26.954  1.00  0.00     0.023 C 
BRANCH  23  24
ATOM     24  C   UNL A   1      35.098  29.744  27.266  1.00  0.00     0.116 C 
BRANCH  24  25
ATOM     25  N   UNL A   1      34.304  30.938  27.029  1.00  0.00    -0.352 N 
ATOM     26  C   UNL A   1      33.992  31.971  27.887  1.00  0.00     0.251 C 
ATOM     27  H   UNL A   1      33.935  31.023  26.120  1.00  0.00     0.163 HD
ATOM     28  O   UNL A   1      33.016  32.672  27.630  1.00  0.00    -0.269 OA
BRANCH  26  29
ATOM     29  C   UNL A   1      34.949  32.395  28.953  1.00  0.00     0.039 A 
ATOM     30  C   UNL A   1      35.946  33.288  28.532  1.00  0.00     0.014 A 
ATOM     31  C   UNL A   1      35.224  31.518  29.985  1.00  0.00     0.014 A 
ATOM     32  C   UNL A   1      37.267  33.026  28.859  1.00  0.00     0.010 A 
ATOM     33  C   UNL A   1      36.508  31.094  30.114  1.00  0.00     0.010 A 
ATOM     34  C   UNL A   1      37.521  31.832  29.515  1.00  0.00    -0.014 A 
BRANCH  34  35
ATOM     35  C   UNL A   1      38.817  31.342  29.904  1.00  0.00     0.031 A 
ATOM     36  C   UNL A   1      39.203  30.116  29.185  1.00  0.00     0.074 A 
ATOM     37  C   UNL A   1      39.580  32.181  30.643  1.00  0.00     0.049 A 
ATOM     38  N   UNL A   1      40.068  29.281  29.604  1.00  0.00    -0.248 NA
ATOM     39  C   UNL A   1      38.576  29.674  27.925  1.00  0.00     0.031 C 
ATOM     40  C   UNL A   1      41.005  32.177  30.943  1.00  0.00     0.029 A 
ATOM     41  N   UNL A   1      39.085  33.191  31.475  1.00  0.00    -0.354 N 
ATOM     42  C   UNL A   1      40.395  28.474  28.534  1.00  0.00     0.074 A 
ATOM     43  C   UNL A   1      39.340  28.634  27.576  1.00  0.00     0.031 C 
ATOM     44  C   UNL A   1      41.207  32.842  32.101  1.00  0.00     0.029 A 
ATOM     45  C   UNL A   1      39.900  33.215  32.621  1.00  0.00     0.049 A 
ATOM     46  H   UNL A   1      38.313  33.773  31.292  1.00  0.00     0.167 HD
ATOM     47  C   UNL A   1      41.634  27.921  28.530  1.00  0.00     0.031 A 
ATOM     48  C   UNL A   1      39.366  32.774  33.801  1.00  0.00     0.031 A 
ATOM     49  C   UNL A   1      42.337  28.341  29.738  1.00  0.00     0.049 A 
ATOM     50  C   UNL A   1      39.942  31.418  34.164  1.00  0.00     0.074 A 
ATOM     51  C   UNL A   1      43.193  29.400  29.991  1.00  0.00     0.029 A 
ATOM     52  N   UNL A   1      41.799  27.962  30.956  1.00  0.00    -0.354 N 
ATOM     53  N   UNL A   1      40.403  30.555  33.294  1.00  0.00    -0.248 NA
ATOM     54  C   UNL A   1      40.167  30.999  35.542  1.00  0.00     0.031 C 
ATOM     55  C   UNL A   1      43.115  29.686  31.385  1.00  0.00     0.029 A 
ATOM     56  C   UNL A   1      42.213  28.807  31.965  1.00  0.00     0.049 A 
ATOM     57  H   UNL A   1      41.200  27.192  31.086  1.00  0.00     0.167 HD
ATOM     58  C   UNL A   1      41.061  29.548  33.954  1.00  0.00     0.074 A 
ATOM     59  C   UNL A   1      40.866  29.866  35.359  1.00  0.00     0.031 C 
ATOM     60  C   UNL A   1      41.761  28.553  33.327  1.00  0.00     0.031 A 
BRANCH  47  61
ATOM     61  C   UNL A   1      42.317  27.231  27.386  1.00  0.00    -0.014 A 
ATOM     62  C   UNL A   1      42.993  26.025  27.656  1.00  0.00     0.009 A 
ATOM     63  C   UNL A   1      42.324  27.667  26.051  1.00  0.00     0.009 A 
ATOM     64  C   UNL A   1      43.645  25.293  26.662  1.00  0.00     0.001 A 
ATOM     65  C   UNL A   1      42.987  26.938  25.048  1.00  0.00     0.001 A 
ATOM     66  C   UNL A   1      43.642  25.750  25.353  1.00  0.00     0.000 A 
ENDBRANCH  47  61
BRANCH  48  67
ATOM     67  C   UNL A   1      37.943  33.244  33.946  1.00  0.00    -0.014 A 
ATOM     68  C   UNL A   1      37.694  34.581  33.547  1.00  0.00     0.009 A 
ATOM     69  C   UNL A   1      36.880  32.333  33.891  1.00  0.00     0.009 A 
ATOM     70  C   UNL A   1      36.520  34.918  32.861  1.00  0.00     0.001 A 
ATOM     71  C   UNL A   1      35.684  32.699  33.251  1.00  0.00     0.001 A 
ATOM     72  C   UNL A   1      35.537  33.957  32.667  1.00  0.00     0.000 A 
ENDBRANCH  48  67
BRANCH  60  73
ATOM     73  C   UNL A   1      42.135  27.215  33.938  1.00  0.00    -0.014 A 
ATOM     74  C   UNL A   1      43.406  26.641  33.868  1.00  0.00     0.009 A 
ATOM     75  C   UNL A   1      41.199  26.539  34.763  1.00  0.00     0.009 A 
ATOM     76  C   UNL A   1      43.707  25.443  34.526  1.00  0.00     0.001 A 
ATOM     77  C   UNL A   1      41.520  25.398  35.495  1.00  0.00     0.001 A 
ATOM     78  C   UNL A   1      42.772  24.833  35.353  1.00  0.00     0.000 A 
ENDBRANCH  60  73
ENDBRANCH  34  35
ENDBRANCH  26  29
ENDBRANCH  24  25
ENDBRANCH  23  24
ENDBRANCH   1  23
TORSDOF 14
ENDMDL
