MODEL 1
REMARK VINA RESULT:     -10.8      0.000      0.000
REMARK SMILES CC(C)[C@H](CO)NS(=O)(=O)c1ccc(C(=O)NCCCCNC(=O)c2ccc(-c3c4nc(c(-c5ccccc5)c5ccc([nH]5)c(-c5ccccc5)c5nc(c(-c6ccccc6)c6ccc3[nH]6)C=C5)C=C4)cc2)cn1
REMARK SMILES IDX 18 1 17 2 15 3 16 4 14 6 11 7 12 8 74 9 13 10 73 11 8 12
REMARK SMILES IDX 9 13 10 14 7 15 4 17 2 18 1 19 3 20 5 21 6 22 19 24 20 25
REMARK SMILES IDX 21 26 22 27 23 28 24 30 25 31 26 32 72 33 27 34 71 35 28 36
REMARK SMILES IDX 29 37 30 38 65 39 31 40 70 41 64 42 66 43 32 44 69 45 63 46
REMARK SMILES IDX 62 47 33 49 55 50 40 51 54 52 41 53 44 54 53 55 67 56 42 57
REMARK SMILES IDX 43 58 52 60 68 61 45 62 34 63 35 64 39 65 36 66 38 67 37 68
REMARK SMILES IDX 56 69 57 70 61 71 58 72 60 73 59 74 46 75 47 76 51 77 48 78
REMARK SMILES IDX 50 79 49 80
REMARK H PARENT 17 5 7 16 6 23 22 29 66 48 44 59
REMARK Flexibility Score: inf
ROOT
ATOM      1  C   UNL A   1      36.561  22.020  25.767  1.00  0.00     0.116 C 
ENDROOT
BRANCH   1   2
ATOM      2  N   UNL A   1      35.436  22.197  26.662  1.00  0.00    -0.352 N 
ATOM      3  C   UNL A   1      34.261  22.900  26.565  1.00  0.00     0.252 C 
ATOM      4  O   UNL A   1      33.498  22.835  27.529  1.00  0.00    -0.269 OA
ATOM      5  H   UNL A   1      35.533  21.715  27.514  1.00  0.00     0.163 HD
BRANCH   3   6
ATOM      6  C   UNL A   1      33.850  23.707  25.383  1.00  0.00     0.058 A 
ATOM      7  C   UNL A   1      33.269  25.416  23.292  1.00  0.00     0.170 A 
ATOM      8  C   UNL A   1      32.686  24.167  23.312  1.00  0.00     0.043 A 
ATOM      9  N   UNL A   1      34.095  25.868  24.269  1.00  0.00    -0.243 NA
ATOM     10  C   UNL A   1      33.034  23.287  24.335  1.00  0.00     0.018 A 
ATOM     11  C   UNL A   1      34.344  25.010  25.295  1.00  0.00     0.126 A 
BRANCH   7  12
ATOM     12  S   UNL A   1      33.038  26.531  21.904  1.00  0.00     0.258 S 
ATOM     13  O   UNL A   1      33.114  25.759  20.685  1.00  0.00    -0.205 OA
ATOM     14  O   UNL A   1      33.905  27.671  22.126  1.00  0.00    -0.205 OA
BRANCH  12  15
ATOM     15  N   UNL A   1      31.462  27.175  21.996  1.00  0.00    -0.204 NA
ATOM     16  H   UNL A   1      31.298  27.632  21.099  1.00  0.00     0.141 HD
BRANCH  15  17
ATOM     17  C   UNL A   1      31.020  28.147  23.030  1.00  0.00     0.098 C 
BRANCH  17  18
ATOM     18  C   UNL A   1      30.191  27.529  24.191  1.00  0.00     0.003 C 
ATOM     19  C   UNL A   1      29.206  26.431  23.775  1.00  0.00     0.009 C 
ATOM     20  C   UNL A   1      31.017  27.041  25.377  1.00  0.00     0.009 C 
ENDBRANCH  17  18
BRANCH  17  21
ATOM     21  C   UNL A   1      30.190  29.252  22.310  1.00  0.00     0.176 C 
BRANCH  21  22
ATOM     22  O   UNL A   1      30.964  29.958  21.345  1.00  0.00    -0.395 OA
ATOM     23  H   UNL A   1      31.552  30.584  21.796  1.00  0.00     0.210 HD
ENDBRANCH  21  22
ENDBRANCH  17  21
ENDBRANCH  15  17
ENDBRANCH  12  15
ENDBRANCH   7  12
ENDBRANCH   3   6
ENDBRANCH   1   2
BRANCH   1  24
ATOM     24  C   UNL A   1      36.542  20.626  25.135  1.00  0.00     0.023 C 
BRANCH  24  25
ATOM     25  C   UNL A   1      37.925  20.121  24.708  1.00  0.00     0.023 C 
BRANCH  25  26
ATOM     26  C   UNL A   1      39.034  20.373  25.727  1.00  0.00     0.116 C 
BRANCH  26  27
ATOM     27  N   UNL A   1      40.074  19.356  25.712  1.00  0.00    -0.352 N 
ATOM     28  C   UNL A   1      41.394  19.488  26.066  1.00  0.00     0.251 C 
ATOM     29  H   UNL A   1      39.795  18.460  25.412  1.00  0.00     0.163 HD
ATOM     30  O   UNL A   1      42.178  18.559  25.908  1.00  0.00    -0.269 OA
BRANCH  28  31
ATOM     31  C   UNL A   1      41.871  20.783  26.591  1.00  0.00     0.039 A 
ATOM     32  C   UNL A   1      42.345  21.738  25.689  1.00  0.00     0.014 A 
ATOM     33  C   UNL A   1      41.809  21.066  27.958  1.00  0.00     0.014 A 
ATOM     34  C   UNL A   1      42.693  23.008  26.150  1.00  0.00     0.010 A 
ATOM     35  C   UNL A   1      42.098  22.351  28.407  1.00  0.00     0.010 A 
ATOM     36  C   UNL A   1      42.537  23.334  27.507  1.00  0.00    -0.014 A 
BRANCH  36  37
ATOM     37  C   UNL A   1      42.816  24.703  28.003  1.00  0.00     0.031 A 
ATOM     38  C   UNL A   1      44.209  25.090  28.410  1.00  0.00     0.074 A 
ATOM     39  C   UNL A   1      41.801  25.575  28.151  1.00  0.00     0.049 A 
ATOM     40  N   UNL A   1      44.635  26.217  28.921  1.00  0.00    -0.248 NA
ATOM     41  C   UNL A   1      45.256  24.069  28.242  1.00  0.00     0.031 C 
ATOM     42  C   UNL A   1      40.396  25.306  27.835  1.00  0.00     0.029 A 
ATOM     43  N   UNL A   1      41.794  26.865  28.617  1.00  0.00    -0.354 N 
ATOM     44  C   UNL A   1      45.993  26.034  29.153  1.00  0.00     0.074 A 
ATOM     45  C   UNL A   1      46.311  24.676  28.766  1.00  0.00     0.031 C 
ATOM     46  C   UNL A   1      39.669  26.405  28.093  1.00  0.00     0.029 A 
ATOM     47  C   UNL A   1      40.548  27.442  28.623  1.00  0.00     0.049 A 
ATOM     48  H   UNL A   1      42.607  27.334  28.917  1.00  0.00     0.167 HD
ATOM     49  C   UNL A   1      46.897  26.922  29.629  1.00  0.00     0.031 A 
ATOM     50  C   UNL A   1      40.156  28.669  29.016  1.00  0.00     0.031 A 
ATOM     51  C   UNL A   1      46.587  28.276  29.998  1.00  0.00     0.049 A 
ATOM     52  C   UNL A   1      41.181  29.636  29.537  1.00  0.00     0.074 A 
ATOM     53  C   UNL A   1      47.446  29.270  30.432  1.00  0.00     0.029 A 
ATOM     54  N   UNL A   1      45.315  28.827  29.973  1.00  0.00    -0.354 N 
ATOM     55  N   UNL A   1      42.472  29.469  29.687  1.00  0.00    -0.248 NA
ATOM     56  C   UNL A   1      40.693  30.965  29.933  1.00  0.00     0.031 C 
ATOM     57  C   UNL A   1      46.687  30.413  30.709  1.00  0.00     0.029 A 
ATOM     58  C   UNL A   1      45.363  30.142  30.403  1.00  0.00     0.049 A 
ATOM     59  H   UNL A   1      44.500  28.353  29.692  1.00  0.00     0.167 HD
ATOM     60  C   UNL A   1      42.954  30.677  30.172  1.00  0.00     0.074 A 
ATOM     61  C   UNL A   1      41.820  31.572  30.276  1.00  0.00     0.031 C 
ATOM     62  C   UNL A   1      44.225  31.016  30.501  1.00  0.00     0.031 A 
BRANCH  49  63
ATOM     63  C   UNL A   1      48.314  26.447  29.777  1.00  0.00    -0.014 A 
ATOM     64  C   UNL A   1      49.244  26.606  28.737  1.00  0.00     0.009 A 
ATOM     65  C   UNL A   1      48.734  25.862  30.982  1.00  0.00     0.009 A 
ATOM     66  C   UNL A   1      50.557  26.154  28.888  1.00  0.00     0.001 A 
ATOM     67  C   UNL A   1      50.053  25.435  31.138  1.00  0.00     0.001 A 
ATOM     68  C   UNL A   1      50.961  25.573  30.089  1.00  0.00     0.000 A 
ENDBRANCH  49  63
BRANCH  50  69
ATOM     69  C   UNL A   1      38.729  29.062  28.912  1.00  0.00    -0.014 A 
ATOM     70  C   UNL A   1      37.877  28.939  30.020  1.00  0.00     0.009 A 
ATOM     71  C   UNL A   1      38.208  29.553  27.705  1.00  0.00     0.009 A 
ATOM     72  C   UNL A   1      36.525  29.275  29.915  1.00  0.00     0.001 A 
ATOM     73  C   UNL A   1      36.862  29.913  27.610  1.00  0.00     0.001 A 
ATOM     74  C   UNL A   1      36.020  29.764  28.713  1.00  0.00     0.000 A 
ENDBRANCH  50  69
BRANCH  62  75
ATOM     75  C   UNL A   1      44.456  32.420  30.977  1.00  0.00    -0.014 A 
ATOM     76  C   UNL A   1      44.410  32.741  32.342  1.00  0.00     0.009 A 
ATOM     77  C   UNL A   1      44.763  33.428  30.050  1.00  0.00     0.009 A 
ATOM     78  C   UNL A   1      44.636  34.051  32.766  1.00  0.00     0.001 A 
ATOM     79  C   UNL A   1      45.013  34.731  30.478  1.00  0.00     0.001 A 
ATOM     80  C   UNL A   1      44.943  35.043  31.835  1.00  0.00     0.000 A 
ENDBRANCH  62  75
ENDBRANCH  36  37
ENDBRANCH  28  31
ENDBRANCH  26  27
ENDBRANCH  25  26
ENDBRANCH  24  25
ENDBRANCH   1  24
TORSDOF 17
ENDMDL
MODEL 2
REMARK VINA RESULT:     -10.7      1.410      6.085
REMARK SMILES CC(C)[C@H](CO)NS(=O)(=O)c1ccc(C(=O)NCCCCNC(=O)c2ccc(-c3c4nc(c(-c5ccccc5)c5ccc([nH]5)c(-c5ccccc5)c5nc(c(-c6ccccc6)c6ccc3[nH]6)C=C5)C=C4)cc2)cn1
REMARK SMILES IDX 18 1 17 2 15 3 16 4 14 6 11 7 12 8 74 9 13 10 73 11 8 12
REMARK SMILES IDX 9 13 10 14 7 15 4 17 2 18 1 19 3 20 5 21 6 22 19 24 20 25
REMARK SMILES IDX 21 26 22 27 23 28 24 30 25 31 26 32 72 33 27 34 71 35 28 36
REMARK SMILES IDX 29 37 30 38 65 39 31 40 70 41 64 42 66 43 32 44 69 45 63 46
REMARK SMILES IDX 62 47 33 49 55 50 40 51 54 52 41 53 44 54 53 55 67 56 42 57
REMARK SMILES IDX 43 58 52 60 68 61 45 62 34 63 35 64 39 65 36 66 38 67 37 68
REMARK SMILES IDX 56 69 57 70 61 71 58 72 60 73 59 74 46 75 47 76 51 77 48 78
REMARK SMILES IDX 50 79 49 80
REMARK H PARENT 17 5 7 16 6 23 22 29 66 48 44 59
REMARK Flexibility Score: inf
ROOT
ATOM      1  C   UNL A   1      36.822  22.097  25.666  1.00  0.00     0.116 C 
ENDROOT
BRANCH   1   2
ATOM      2  N   UNL A   1      35.760  22.337  26.622  1.00  0.00    -0.352 N 
ATOM      3  C   UNL A   1      34.585  23.043  26.561  1.00  0.00     0.252 C 
ATOM      4  O   UNL A   1      33.888  23.043  27.576  1.00  0.00    -0.269 OA
ATOM      5  H   UNL A   1      35.912  21.905  27.493  1.00  0.00     0.163 HD
BRANCH   3   6
ATOM      6  C   UNL A   1      34.101  23.782  25.363  1.00  0.00     0.058 A 
ATOM      7  C   UNL A   1      33.376  25.377  23.227  1.00  0.00     0.170 A 
ATOM      8  C   UNL A   1      32.853  24.105  23.314  1.00  0.00     0.043 A 
ATOM      9  N   UNL A   1      34.210  25.905  24.158  1.00  0.00    -0.243 NA
ATOM     10  C   UNL A   1      33.273  23.283  24.359  1.00  0.00     0.018 A 
ATOM     11  C   UNL A   1      34.531  25.102  25.208  1.00  0.00     0.126 A 
BRANCH   7  12
ATOM     12  S   UNL A   1      33.050  26.423  21.804  1.00  0.00     0.258 S 
ATOM     13  O   UNL A   1      33.036  25.591  20.623  1.00  0.00    -0.205 OA
ATOM     14  O   UNL A   1      33.935  27.567  21.907  1.00  0.00    -0.205 OA
BRANCH  12  15
ATOM     15  N   UNL A   1      31.488  27.082  21.976  1.00  0.00    -0.204 NA
ATOM     16  H   UNL A   1      31.280  27.535  21.086  1.00  0.00     0.141 HD
BRANCH  15  17
ATOM     17  C   UNL A   1      31.110  28.065  23.025  1.00  0.00     0.098 C 
BRANCH  17  18
ATOM     18  C   UNL A   1      30.298  27.470  24.211  1.00  0.00     0.003 C 
ATOM     19  C   UNL A   1      29.403  26.278  23.855  1.00  0.00     0.009 C 
ATOM     20  C   UNL A   1      31.128  27.126  25.444  1.00  0.00     0.009 C 
ENDBRANCH  17  18
BRANCH  17  21
ATOM     21  C   UNL A   1      30.292  29.198  22.334  1.00  0.00     0.176 C 
BRANCH  21  22
ATOM     22  O   UNL A   1      31.098  29.977  21.455  1.00  0.00    -0.395 OA
ATOM     23  H   UNL A   1      31.649  30.584  21.974  1.00  0.00     0.210 HD
ENDBRANCH  21  22
ENDBRANCH  17  21
ENDBRANCH  15  17
ENDBRANCH  12  15
ENDBRANCH   7  12
ENDBRANCH   3   6
ENDBRANCH   1   2
BRANCH   1  24
ATOM     24  C   UNL A   1      36.751  20.669  25.119  1.00  0.00     0.023 C 
BRANCH  24  25
ATOM     25  C   UNL A   1      38.115  20.089  24.723  1.00  0.00     0.023 C 
BRANCH  25  26
ATOM     26  C   UNL A   1      39.205  20.258  25.778  1.00  0.00     0.116 C 
BRANCH  26  27
ATOM     27  N   UNL A   1      40.124  19.133  25.844  1.00  0.00    -0.352 N 
ATOM     28  C   UNL A   1      41.468  19.151  26.127  1.00  0.00     0.251 C 
ATOM     29  H   UNL A   1      39.733  18.247  25.664  1.00  0.00     0.163 HD
ATOM     30  O   UNL A   1      42.136  18.125  26.051  1.00  0.00    -0.269 OA
BRANCH  28  31
ATOM     31  C   UNL A   1      42.112  20.433  26.475  1.00  0.00     0.039 A 
ATOM     32  C   UNL A   1      42.605  21.236  25.444  1.00  0.00     0.014 A 
ATOM     33  C   UNL A   1      42.188  20.857  27.804  1.00  0.00     0.014 A 
ATOM     34  C   UNL A   1      43.113  22.501  25.740  1.00  0.00     0.010 A 
ATOM     35  C   UNL A   1      42.639  22.141  28.091  1.00  0.00     0.010 A 
ATOM     36  C   UNL A   1      43.100  22.977  27.061  1.00  0.00    -0.014 A 
BRANCH  36  37
ATOM     37  C   UNL A   1      43.553  24.351  27.385  1.00  0.00     0.031 A 
ATOM     38  C   UNL A   1      42.559  25.392  27.815  1.00  0.00     0.074 A 
ATOM     39  C   UNL A   1      44.849  24.677  27.224  1.00  0.00     0.049 A 
ATOM     40  N   UNL A   1      42.756  26.658  28.081  1.00  0.00    -0.248 NA
ATOM     41  C   UNL A   1      41.158  24.959  27.939  1.00  0.00     0.031 C 
ATOM     42  C   UNL A   1      45.904  23.769  26.768  1.00  0.00     0.029 A 
ATOM     43  N   UNL A   1      45.499  25.870  27.417  1.00  0.00    -0.354 N 
ATOM     44  C   UNL A   1      41.504  27.177  28.386  1.00  0.00     0.074 A 
ATOM     45  C   UNL A   1      40.549  26.100  28.230  1.00  0.00     0.031 C 
ATOM     46  C   UNL A   1      47.072  24.431  26.740  1.00  0.00     0.029 A 
ATOM     47  C   UNL A   1      46.843  25.815  27.143  1.00  0.00     0.049 A 
ATOM     48  H   UNL A   1      45.044  26.688  27.724  1.00  0.00     0.167 HD
ATOM     49  C   UNL A   1      41.180  28.431  28.776  1.00  0.00     0.031 A 
ATOM     50  C   UNL A   1      47.786  26.774  27.205  1.00  0.00     0.031 A 
ATOM     51  C   UNL A   1      42.128  29.498  28.946  1.00  0.00     0.049 A 
ATOM     52  C   UNL A   1      47.400  28.158  27.644  1.00  0.00     0.074 A 
ATOM     53  C   UNL A   1      41.905  30.787  29.397  1.00  0.00     0.029 A 
ATOM     54  N   UNL A   1      43.483  29.397  28.675  1.00  0.00    -0.354 N 
ATOM     55  N   UNL A   1      46.222  28.614  27.992  1.00  0.00    -0.248 NA
ATOM     56  C   UNL A   1      48.478  29.155  27.708  1.00  0.00     0.031 C 
ATOM     57  C   UNL A   1      43.120  31.480  29.360  1.00  0.00     0.029 A 
ATOM     58  C   UNL A   1      44.106  30.607  28.929  1.00  0.00     0.049 A 
ATOM     59  H   UNL A   1      43.935  28.586  28.348  1.00  0.00     0.167 HD
ATOM     60  C   UNL A   1      46.420  29.944  28.339  1.00  0.00     0.074 A 
ATOM     61  C   UNL A   1      47.833  30.216  28.173  1.00  0.00     0.031 C 
ATOM     62  C   UNL A   1      45.513  30.859  28.758  1.00  0.00     0.031 A 
BRANCH  49  63
ATOM     63  C   UNL A   1      39.729  28.715  29.043  1.00  0.00    -0.014 A 
ATOM     64  C   UNL A   1      39.173  28.506  30.315  1.00  0.00     0.009 A 
ATOM     65  C   UNL A   1      38.916  29.227  28.020  1.00  0.00     0.009 A 
ATOM     66  C   UNL A   1      37.821  28.769  30.547  1.00  0.00     0.001 A 
ATOM     67  C   UNL A   1      37.571  29.512  28.263  1.00  0.00     0.001 A 
ATOM     68  C   UNL A   1      37.023  29.275  29.522  1.00  0.00     0.000 A 
ENDBRANCH  49  63
BRANCH  50  69
ATOM     69  C   UNL A   1      49.195  26.455  26.861  1.00  0.00    -0.014 A 
ATOM     70  C   UNL A   1      49.664  26.635  25.551  1.00  0.00     0.009 A 
ATOM     71  C   UNL A   1      50.075  25.961  27.836  1.00  0.00     0.009 A 
ATOM     72  C   UNL A   1      50.978  26.303  25.217  1.00  0.00     0.001 A 
ATOM     73  C   UNL A   1      51.396  25.653  27.506  1.00  0.00     0.001 A 
ATOM     74  C   UNL A   1      51.844  25.816  26.195  1.00  0.00     0.000 A 
ENDBRANCH  50  69
BRANCH  62  75
ATOM     75  C   UNL A   1      46.026  32.228  29.092  1.00  0.00    -0.014 A 
ATOM     76  C   UNL A   1      46.078  33.241  28.123  1.00  0.00     0.009 A 
ATOM     77  C   UNL A   1      46.429  32.519  30.405  1.00  0.00     0.009 A 
ATOM     78  C   UNL A   1      46.551  34.511  28.456  1.00  0.00     0.001 A 
ATOM     79  C   UNL A   1      46.878  33.796  30.741  1.00  0.00     0.001 A 
ATOM     80  C   UNL A   1      46.945  34.789  29.764  1.00  0.00     0.000 A 
ENDBRANCH  62  75
ENDBRANCH  36  37
ENDBRANCH  28  31
ENDBRANCH  26  27
ENDBRANCH  25  26
ENDBRANCH  24  25
ENDBRANCH   1  24
TORSDOF 17
ENDMDL
MODEL 3
REMARK VINA RESULT:     -10.1      4.433      9.226
REMARK SMILES CC(C)[C@H](CO)NS(=O)(=O)c1ccc(C(=O)NCCCCNC(=O)c2ccc(-c3c4nc(c(-c5ccccc5)c5ccc([nH]5)c(-c5ccccc5)c5nc(c(-c6ccccc6)c6ccc3[nH]6)C=C5)C=C4)cc2)cn1
REMARK SMILES IDX 18 1 17 2 15 3 16 4 14 6 11 7 12 8 74 9 13 10 73 11 8 12
REMARK SMILES IDX 9 13 10 14 7 15 4 17 2 18 1 19 3 20 5 21 6 22 19 24 20 25
REMARK SMILES IDX 21 26 22 27 23 28 24 30 25 31 26 32 72 33 27 34 71 35 28 36
REMARK SMILES IDX 29 37 30 38 65 39 31 40 70 41 64 42 66 43 32 44 69 45 63 46
REMARK SMILES IDX 62 47 33 49 55 50 40 51 54 52 41 53 44 54 53 55 67 56 42 57
REMARK SMILES IDX 43 58 52 60 68 61 45 62 34 63 35 64 39 65 36 66 38 67 37 68
REMARK SMILES IDX 56 69 57 70 61 71 58 72 60 73 59 74 46 75 47 76 51 77 48 78
REMARK SMILES IDX 50 79 49 80
REMARK H PARENT 17 5 7 16 6 23 22 29 66 48 44 59
REMARK Flexibility Score: inf
ROOT
ATOM      1  C   UNL A   1      34.625  29.437  27.042  1.00  0.00     0.116 C 
ENDROOT
BRANCH   1   2
ATOM      2  N   UNL A   1      33.823  29.555  25.841  1.00  0.00    -0.352 N 
ATOM      3  C   UNL A   1      32.973  28.696  25.192  1.00  0.00     0.252 C 
ATOM      4  O   UNL A   1      32.431  29.121  24.171  1.00  0.00    -0.269 OA
ATOM      5  H   UNL A   1      33.906  30.431  25.400  1.00  0.00     0.163 HD
BRANCH   3   6
ATOM      6  C   UNL A   1      32.654  27.314  25.646  1.00  0.00     0.058 A 
ATOM      7  C   UNL A   1      31.779  24.839  26.506  1.00  0.00     0.170 A 
ATOM      8  C   UNL A   1      33.115  25.007  26.212  1.00  0.00     0.043 A 
ATOM      9  N   UNL A   1      30.867  25.841  26.426  1.00  0.00    -0.243 NA
ATOM     10  C   UNL A   1      33.538  26.240  25.717  1.00  0.00     0.018 A 
ATOM     11  C   UNL A   1      31.334  27.053  26.020  1.00  0.00     0.126 A 
BRANCH   7  12
ATOM     12  S   UNL A   1      31.117  23.230  26.949  1.00  0.00     0.258 S 
ATOM     13  O   UNL A   1      29.767  23.412  27.431  1.00  0.00    -0.205 OA
ATOM     14  O   UNL A   1      32.120  22.566  27.757  1.00  0.00    -0.205 OA
BRANCH  12  15
ATOM     15  N   UNL A   1      31.023  22.287  25.532  1.00  0.00    -0.204 NA
ATOM     16  H   UNL A   1      30.794  21.343  25.844  1.00  0.00     0.141 HD
BRANCH  15  17
ATOM     17  C   UNL A   1      32.139  22.129  24.562  1.00  0.00     0.098 C 
BRANCH  17  18
ATOM     18  C   UNL A   1      31.910  22.825  23.190  1.00  0.00     0.003 C 
ATOM     19  C   UNL A   1      30.930  24.003  23.213  1.00  0.00     0.009 C 
ATOM     20  C   UNL A   1      33.186  23.247  22.468  1.00  0.00     0.009 C 
ENDBRANCH  17  18
BRANCH  17  21
ATOM     21  C   UNL A   1      32.368  20.602  24.354  1.00  0.00     0.176 C 
BRANCH  21  22
ATOM     22  O   UNL A   1      32.080  19.854  25.532  1.00  0.00    -0.395 OA
ATOM     23  H   UNL A   1      31.131  19.905  25.724  1.00  0.00     0.210 HD
ENDBRANCH  21  22
ENDBRANCH  17  21
ENDBRANCH  15  17
ENDBRANCH  12  15
ENDBRANCH   7  12
ENDBRANCH   3   6
ENDBRANCH   1   2
BRANCH   1  24
ATOM     24  C   UNL A   1      34.611  30.744  27.838  1.00  0.00     0.023 C 
BRANCH  24  25
ATOM     25  C   UNL A   1      33.930  31.908  27.107  1.00  0.00     0.023 C 
BRANCH  25  26
ATOM     26  C   UNL A   1      32.571  32.306  27.677  1.00  0.00     0.116 C 
BRANCH  26  27
ATOM     27  N   UNL A   1      32.364  33.745  27.724  1.00  0.00    -0.352 N 
ATOM     28  C   UNL A   1      33.087  34.684  28.419  1.00  0.00     0.251 C 
ATOM     29  H   UNL A   1      31.611  34.089  27.190  1.00  0.00     0.163 HD
ATOM     30  O   UNL A   1      32.730  35.857  28.437  1.00  0.00    -0.269 OA
BRANCH  28  31
ATOM     31  C   UNL A   1      34.271  34.254  29.187  1.00  0.00     0.039 A 
ATOM     32  C   UNL A   1      34.078  33.618  30.416  1.00  0.00     0.014 A 
ATOM     33  C   UNL A   1      35.560  34.439  28.678  1.00  0.00     0.014 A 
ATOM     34  C   UNL A   1      35.177  33.102  31.104  1.00  0.00     0.010 A 
ATOM     35  C   UNL A   1      36.646  33.872  29.335  1.00  0.00     0.010 A 
ATOM     36  C   UNL A   1      36.464  33.193  30.551  1.00  0.00    -0.014 A 
BRANCH  36  37
ATOM     37  C   UNL A   1      37.632  32.574  31.222  1.00  0.00     0.031 A 
ATOM     38  C   UNL A   1      38.316  31.387  30.607  1.00  0.00     0.074 A 
ATOM     39  C   UNL A   1      38.031  33.040  32.421  1.00  0.00     0.049 A 
ATOM     40  N   UNL A   1      39.311  30.677  31.073  1.00  0.00    -0.248 NA
ATOM     41  C   UNL A   1      37.799  30.925  29.309  1.00  0.00     0.031 C 
ATOM     42  C   UNL A   1      37.421  34.157  33.146  1.00  0.00     0.029 A 
ATOM     43  N   UNL A   1      39.043  32.622  33.248  1.00  0.00    -0.354 N 
ATOM     44  C   UNL A   1      39.527  29.673  30.136  1.00  0.00     0.074 A 
ATOM     45  C   UNL A   1      38.533  29.841  29.098  1.00  0.00     0.031 C 
ATOM     46  C   UNL A   1      38.086  34.350  34.296  1.00  0.00     0.029 A 
ATOM     47  C   UNL A   1      39.145  33.352  34.406  1.00  0.00     0.049 A 
ATOM     48  H   UNL A   1      39.640  31.869  33.031  1.00  0.00     0.167 HD
ATOM     49  C   UNL A   1      40.476  28.709  30.133  1.00  0.00     0.031 A 
ATOM     50  C   UNL A   1      39.995  33.230  35.443  1.00  0.00     0.031 A 
ATOM     51  C   UNL A   1      41.474  28.550  31.156  1.00  0.00     0.049 A 
ATOM     52  C   UNL A   1      41.042  32.153  35.413  1.00  0.00     0.074 A 
ATOM     53  C   UNL A   1      42.517  27.641  31.210  1.00  0.00     0.029 A 
ATOM     54  N   UNL A   1      41.554  29.322  32.304  1.00  0.00    -0.354 N 
ATOM     55  N   UNL A   1      41.274  31.254  34.487  1.00  0.00    -0.248 NA
ATOM     56  C   UNL A   1      41.950  32.082  36.566  1.00  0.00     0.031 C 
ATOM     57  C   UNL A   1      43.205  27.838  32.413  1.00  0.00     0.029 A 
ATOM     58  C   UNL A   1      42.616  28.897  33.084  1.00  0.00     0.049 A 
ATOM     59  H   UNL A   1      40.945  30.060  32.532  1.00  0.00     0.167 HD
ATOM     60  C   UNL A   1      42.368  30.526  34.936  1.00  0.00     0.074 A 
ATOM     61  C   UNL A   1      42.762  31.098  36.207  1.00  0.00     0.031 C 
ATOM     62  C   UNL A   1      42.993  29.478  34.346  1.00  0.00     0.031 A 
BRANCH  49  63
ATOM     63  C   UNL A   1      40.476  27.747  28.980  1.00  0.00    -0.014 A 
ATOM     64  C   UNL A   1      41.244  27.994  27.830  1.00  0.00     0.009 A 
ATOM     65  C   UNL A   1      39.722  26.565  29.054  1.00  0.00     0.009 A 
ATOM     66  C   UNL A   1      41.229  27.093  26.763  1.00  0.00     0.001 A 
ATOM     67  C   UNL A   1      39.730  25.655  27.996  1.00  0.00     0.001 A 
ATOM     68  C   UNL A   1      40.475  25.923  26.849  1.00  0.00     0.000 A 
ENDBRANCH  49  63
BRANCH  50  69
ATOM     69  C   UNL A   1      39.906  34.166  36.592  1.00  0.00    -0.014 A 
ATOM     70  C   UNL A   1      39.197  33.804  37.748  1.00  0.00     0.009 A 
ATOM     71  C   UNL A   1      40.518  35.426  36.537  1.00  0.00     0.009 A 
ATOM     72  C   UNL A   1      39.082  34.696  38.816  1.00  0.00     0.001 A 
ATOM     73  C   UNL A   1      40.424  36.307  37.616  1.00  0.00     0.001 A 
ATOM     74  C   UNL A   1      39.698  35.944  38.751  1.00  0.00     0.000 A 
ENDBRANCH  50  69
BRANCH  62  75
ATOM     75  C   UNL A   1      44.181  28.902  35.057  1.00  0.00    -0.014 A 
ATOM     76  C   UNL A   1      44.041  27.838  35.961  1.00  0.00     0.009 A 
ATOM     77  C   UNL A   1      45.464  29.406  34.790  1.00  0.00     0.009 A 
ATOM     78  C   UNL A   1      45.161  27.310  36.606  1.00  0.00     0.001 A 
ATOM     79  C   UNL A   1      46.584  28.860  35.417  1.00  0.00     0.001 A 
ATOM     80  C   UNL A   1      46.430  27.818  36.330  1.00  0.00     0.000 A 
ENDBRANCH  62  75
ENDBRANCH  36  37
ENDBRANCH  28  31
ENDBRANCH  26  27
ENDBRANCH  25  26
ENDBRANCH  24  25
ENDBRANCH   1  24
TORSDOF 17
ENDMDL
