MODEL 1
REMARK VINA RESULT:     -10.2      0.000      0.000
REMARK SMILES O=C(C[C@H](c1ccsc1)n1cccc1)NCCCCNC(=O)c1ccc(-c2c3nc(c(-c4ccccc4)c4ccc([nH]4)c(-c4ccccc4)c4nc(c(-c5ccccc5)c5ccc2[nH]5)C=C4)C=C3)cc1
REMARK SMILES IDX 17 1 16 2 15 3 1 4 2 5 3 7 4 8 10 9 11 10 14 11 12 12 13 13
REMARK SMILES IDX 5 14 6 15 9 16 7 17 8 18 18 19 19 20 20 21 21 22 22 24 23 25
REMARK SMILES IDX 24 26 70 27 25 28 69 29 26 30 27 31 28 32 63 33 29 34 68 35
REMARK SMILES IDX 62 36 64 37 30 38 67 39 61 40 60 41 31 43 53 44 38 45 52 46
REMARK SMILES IDX 39 47 42 48 51 49 65 50 40 51 41 52 50 54 66 55 43 56 32 57
REMARK SMILES IDX 33 58 37 59 34 60 36 61 35 62 54 63 55 64 59 65 56 66 58 67
REMARK SMILES IDX 57 68 44 69 45 70 49 71 46 72 48 73 47 74
REMARK H PARENT 15 6 20 23 64 42 42 53
REMARK Flexibility Score: inf
ROOT
ATOM      1  C   UNL A   1      36.852  20.745  24.700  1.00  0.00     0.023 C 
ENDROOT
BRANCH   1   2
ATOM      2  C   UNL A   1      37.320  22.194  24.585  1.00  0.00     0.116 C 
BRANCH   2   3
ATOM      3  N   UNL A   1      36.250  23.139  24.848  1.00  0.00    -0.356 N 
ATOM      4  O   UNL A   1      35.662  23.410  22.648  1.00  0.00    -0.275 OA
ATOM      5  C   UNL A   1      35.448  23.620  23.839  1.00  0.00     0.222 C 
ATOM      6  H   UNL A   1      36.093  23.442  25.772  1.00  0.00     0.163 HD
BRANCH   5   7
ATOM      7  C   UNL A   1      34.272  24.460  24.281  1.00  0.00     0.130 C 
BRANCH   7   8
ATOM      8  C   UNL A   1      33.141  23.689  24.976  1.00  0.00     0.127 C 
BRANCH   8   9
ATOM      9  N   UNL A   1      31.975  24.569  25.193  1.00  0.00    -0.346 N 
ATOM     10  C   UNL A   1      31.025  24.468  26.179  1.00  0.00     0.086 A 
ATOM     11  C   UNL A   1      31.598  25.570  24.324  1.00  0.00     0.086 A 
ATOM     12  C   UNL A   1      30.057  25.421  25.953  1.00  0.00     0.019 A 
ATOM     13  C   UNL A   1      30.415  26.114  24.776  1.00  0.00     0.019 A 
ENDBRANCH   8   9
BRANCH   8  14
ATOM     14  C   UNL A   1      32.766  22.349  24.364  1.00  0.00    -0.014 A 
ATOM     15  C   UNL A   1      32.246  22.133  23.040  1.00  0.00     0.017 A 
ATOM     16  C   UNL A   1      32.974  21.131  24.995  1.00  0.00     0.070 A 
ATOM     17  C   UNL A   1      32.094  20.800  22.733  1.00  0.00     0.065 A 
ATOM     18  S   UNL A   1      32.582  19.787  24.015  1.00  0.00    -0.152 S 
ENDBRANCH   8  14
ENDBRANCH   7   8
ENDBRANCH   5   7
ENDBRANCH   2   3
ENDBRANCH   1   2
BRANCH   1  19
ATOM     19  C   UNL A   1      37.960  19.735  25.041  1.00  0.00     0.023 C 
BRANCH  19  20
ATOM     20  C   UNL A   1      39.063  20.295  25.942  1.00  0.00     0.116 C 
BRANCH  20  21
ATOM     21  N   UNL A   1      40.160  19.351  26.066  1.00  0.00    -0.352 N 
ATOM     22  C   UNL A   1      41.515  19.561  26.046  1.00  0.00     0.251 C 
ATOM     23  H   UNL A   1      39.888  18.413  26.182  1.00  0.00     0.163 HD
ATOM     24  O   UNL A   1      42.254  18.624  25.770  1.00  0.00    -0.269 OA
BRANCH  22  25
ATOM     25  C   UNL A   1      42.111  20.880  26.360  1.00  0.00     0.039 A 
ATOM     26  C   UNL A   1      42.649  21.626  25.299  1.00  0.00     0.014 A 
ATOM     27  C   UNL A   1      42.264  21.327  27.676  1.00  0.00     0.014 A 
ATOM     28  C   UNL A   1      43.296  22.833  25.546  1.00  0.00     0.010 A 
ATOM     29  C   UNL A   1      42.895  22.539  27.929  1.00  0.00     0.010 A 
ATOM     30  C   UNL A   1      43.395  23.298  26.862  1.00  0.00    -0.014 A 
BRANCH  30  31
ATOM     31  C   UNL A   1      43.824  24.689  27.123  1.00  0.00     0.031 A 
ATOM     32  C   UNL A   1      42.610  25.648  27.198  1.00  0.00     0.074 A 
ATOM     33  C   UNL A   1      45.165  24.898  27.304  1.00  0.00     0.049 A 
ATOM     34  N   UNL A   1      42.580  26.933  27.358  1.00  0.00    -0.248 NA
ATOM     35  C   UNL A   1      41.221  25.104  27.107  1.00  0.00     0.031 C 
ATOM     36  C   UNL A   1      46.205  23.843  27.224  1.00  0.00     0.029 A 
ATOM     37  N   UNL A   1      45.933  26.009  27.595  1.00  0.00    -0.354 N 
ATOM     38  C   UNL A   1      41.234  27.323  27.555  1.00  0.00     0.074 A 
ATOM     39  C   UNL A   1      40.436  26.156  27.350  1.00  0.00     0.031 C 
ATOM     40  C   UNL A   1      47.444  24.368  27.371  1.00  0.00     0.029 A 
ATOM     41  C   UNL A   1      47.339  25.796  27.598  1.00  0.00     0.049 A 
ATOM     42  H   UNL A   1      45.534  26.888  27.786  1.00  0.00     0.167 HD
ATOM     43  C   UNL A   1      40.877  28.577  27.962  1.00  0.00     0.031 A 
ATOM     44  C   UNL A   1      48.349  26.707  27.754  1.00  0.00     0.031 A 
ATOM     45  C   UNL A   1      42.010  29.433  27.936  1.00  0.00     0.049 A 
ATOM     46  C   UNL A   1      47.701  27.942  28.205  1.00  0.00     0.074 A 
ATOM     47  C   UNL A   1      42.711  29.970  26.888  1.00  0.00     0.029 A 
ATOM     48  N   UNL A   1      42.761  29.507  29.080  1.00  0.00    -0.354 N 
ATOM     49  N   UNL A   1      47.229  28.126  29.399  1.00  0.00    -0.248 NA
ATOM     50  C   UNL A   1      47.540  29.054  27.263  1.00  0.00     0.031 C 
ATOM     51  C   UNL A   1      44.044  29.867  27.322  1.00  0.00     0.029 A 
ATOM     52  C   UNL A   1      44.072  29.523  28.679  1.00  0.00     0.049 A 
ATOM     53  H   UNL A   1      42.426  29.541  30.006  1.00  0.00     0.167 HD
ATOM     54  C   UNL A   1      46.360  29.166  29.200  1.00  0.00     0.074 A 
ATOM     55  C   UNL A   1      46.839  29.882  28.035  1.00  0.00     0.031 C 
ATOM     56  C   UNL A   1      45.068  29.024  29.593  1.00  0.00     0.031 A 
BRANCH  43  57
ATOM     57  C   UNL A   1      39.616  29.137  28.555  1.00  0.00    -0.014 A 
ATOM     58  C   UNL A   1      39.295  28.748  29.879  1.00  0.00     0.009 A 
ATOM     59  C   UNL A   1      38.596  29.705  27.787  1.00  0.00     0.009 A 
ATOM     60  C   UNL A   1      37.990  28.801  30.372  1.00  0.00     0.001 A 
ATOM     61  C   UNL A   1      37.289  29.793  28.296  1.00  0.00     0.001 A 
ATOM     62  C   UNL A   1      36.980  29.306  29.567  1.00  0.00     0.000 A 
ENDBRANCH  43  57
BRANCH  44  63
ATOM     63  C   UNL A   1      49.846  26.815  27.581  1.00  0.00    -0.014 A 
ATOM     64  C   UNL A   1      50.729  27.459  28.447  1.00  0.00     0.009 A 
ATOM     65  C   UNL A   1      50.454  26.077  26.523  1.00  0.00     0.009 A 
ATOM     66  C   UNL A   1      52.127  27.285  28.317  1.00  0.00     0.001 A 
ATOM     67  C   UNL A   1      51.829  25.853  26.424  1.00  0.00     0.001 A 
ATOM     68  C   UNL A   1      52.671  26.449  27.339  1.00  0.00     0.000 A 
ENDBRANCH  44  63
BRANCH  56  69
ATOM     69  C   UNL A   1      44.827  28.000  30.695  1.00  0.00    -0.014 A 
ATOM     70  C   UNL A   1      45.145  28.320  32.026  1.00  0.00     0.009 A 
ATOM     71  C   UNL A   1      44.402  26.682  30.444  1.00  0.00     0.009 A 
ATOM     72  C   UNL A   1      45.065  27.366  33.050  1.00  0.00     0.001 A 
ATOM     73  C   UNL A   1      44.314  25.724  31.468  1.00  0.00     0.001 A 
ATOM     74  C   UNL A   1      44.651  26.068  32.772  1.00  0.00     0.000 A 
ENDBRANCH  56  69
ENDBRANCH  30  31
ENDBRANCH  22  25
ENDBRANCH  20  21
ENDBRANCH  19  20
ENDBRANCH   1  19
TORSDOF 14
ENDMDL
MODEL 2
REMARK VINA RESULT:     -10.1      1.614      2.295
REMARK SMILES O=C(C[C@H](c1ccsc1)n1cccc1)NCCCCNC(=O)c1ccc(-c2c3nc(c(-c4ccccc4)c4ccc([nH]4)c(-c4ccccc4)c4nc(c(-c5ccccc5)c5ccc2[nH]5)C=C4)C=C3)cc1
REMARK SMILES IDX 17 1 16 2 15 3 1 4 2 5 3 7 4 8 10 9 11 10 14 11 12 12 13 13
REMARK SMILES IDX 5 14 6 15 9 16 7 17 8 18 18 19 19 20 20 21 21 22 22 24 23 25
REMARK SMILES IDX 24 26 70 27 25 28 69 29 26 30 27 31 28 32 63 33 29 34 68 35
REMARK SMILES IDX 62 36 64 37 30 38 67 39 61 40 60 41 31 43 53 44 38 45 52 46
REMARK SMILES IDX 39 47 42 48 51 49 65 50 40 51 41 52 50 54 66 55 43 56 32 57
REMARK SMILES IDX 33 58 37 59 34 60 36 61 35 62 54 63 55 64 59 65 56 66 58 67
REMARK SMILES IDX 57 68 44 69 45 70 49 71 46 72 48 73 47 74
REMARK H PARENT 15 6 20 23 64 42 42 53
REMARK Flexibility Score: inf
ROOT
ATOM      1  C   UNL A   1      36.698  20.479  24.962  1.00  0.00     0.023 C 
ENDROOT
BRANCH   1   2
ATOM      2  C   UNL A   1      36.660  21.878  24.352  1.00  0.00     0.116 C 
BRANCH   2   3
ATOM      3  N   UNL A   1      35.402  22.554  24.607  1.00  0.00    -0.356 N 
ATOM      4  O   UNL A   1      36.284  24.111  26.041  1.00  0.00    -0.275 OA
ATOM      5  C   UNL A   1      35.335  23.683  25.390  1.00  0.00     0.222 C 
ATOM      6  H   UNL A   1      34.575  22.196  24.208  1.00  0.00     0.163 HD
BRANCH   5   7
ATOM      7  C   UNL A   1      33.991  24.375  25.428  1.00  0.00     0.130 C 
BRANCH   7   8
ATOM      8  C   UNL A   1      33.993  25.832  24.946  1.00  0.00     0.127 C 
BRANCH   8   9
ATOM      9  N   UNL A   1      33.368  25.933  23.611  1.00  0.00    -0.346 N 
ATOM     10  C   UNL A   1      32.488  26.891  23.172  1.00  0.00     0.086 A 
ATOM     11  C   UNL A   1      33.492  24.971  22.632  1.00  0.00     0.086 A 
ATOM     12  C   UNL A   1      32.070  26.552  21.904  1.00  0.00     0.019 A 
ATOM     13  C   UNL A   1      32.699  25.334  21.565  1.00  0.00     0.019 A 
ENDBRANCH   8   9
BRANCH   8  14
ATOM     14  C   UNL A   1      33.464  26.866  25.926  1.00  0.00    -0.014 A 
ATOM     15  C   UNL A   1      34.099  28.107  26.281  1.00  0.00     0.017 A 
ATOM     16  C   UNL A   1      32.224  26.776  26.542  1.00  0.00     0.070 A 
ATOM     17  C   UNL A   1      33.332  28.884  27.121  1.00  0.00     0.065 A 
ATOM     18  S   UNL A   1      31.837  28.147  27.486  1.00  0.00    -0.152 S 
ENDBRANCH   8  14
ENDBRANCH   7   8
ENDBRANCH   5   7
ENDBRANCH   2   3
ENDBRANCH   1   2
BRANCH   1  19
ATOM     19  C   UNL A   1      38.064  19.779  24.886  1.00  0.00     0.023 C 
BRANCH  19  20
ATOM     20  C   UNL A   1      39.086  20.288  25.905  1.00  0.00     0.116 C 
BRANCH  20  21
ATOM     21  N   UNL A   1      40.186  19.350  26.050  1.00  0.00    -0.352 N 
ATOM     22  C   UNL A   1      41.541  19.566  26.045  1.00  0.00     0.251 C 
ATOM     23  H   UNL A   1      39.917  18.411  26.169  1.00  0.00     0.163 HD
ATOM     24  O   UNL A   1      42.287  18.630  25.784  1.00  0.00    -0.269 OA
BRANCH  22  25
ATOM     25  C   UNL A   1      42.127  20.890  26.355  1.00  0.00     0.039 A 
ATOM     26  C   UNL A   1      42.737  21.599  25.308  1.00  0.00     0.014 A 
ATOM     27  C   UNL A   1      42.200  21.376  27.664  1.00  0.00     0.014 A 
ATOM     28  C   UNL A   1      43.377  22.809  25.560  1.00  0.00     0.010 A 
ATOM     29  C   UNL A   1      42.824  22.591  27.920  1.00  0.00     0.010 A 
ATOM     30  C   UNL A   1      43.397  23.314  26.864  1.00  0.00    -0.014 A 
BRANCH  30  31
ATOM     31  C   UNL A   1      43.821  24.709  27.110  1.00  0.00     0.031 A 
ATOM     32  C   UNL A   1      42.605  25.668  27.148  1.00  0.00     0.074 A 
ATOM     33  C   UNL A   1      45.158  24.922  27.310  1.00  0.00     0.049 A 
ATOM     34  N   UNL A   1      42.572  26.955  27.288  1.00  0.00    -0.248 NA
ATOM     35  C   UNL A   1      41.218  25.121  27.043  1.00  0.00     0.031 C 
ATOM     36  C   UNL A   1      46.201  23.867  27.264  1.00  0.00     0.029 A 
ATOM     37  N   UNL A   1      45.921  26.038  27.595  1.00  0.00    -0.354 N 
ATOM     38  C   UNL A   1      41.222  27.348  27.456  1.00  0.00     0.074 A 
ATOM     39  C   UNL A   1      40.428  26.176  27.256  1.00  0.00     0.031 C 
ATOM     40  C   UNL A   1      47.436  24.396  27.423  1.00  0.00     0.029 A 
ATOM     41  C   UNL A   1      47.327  25.827  27.625  1.00  0.00     0.049 A 
ATOM     42  H   UNL A   1      45.518  26.920  27.765  1.00  0.00     0.167 HD
ATOM     43  C   UNL A   1      40.858  28.607  27.836  1.00  0.00     0.031 A 
ATOM     44  C   UNL A   1      48.333  26.742  27.783  1.00  0.00     0.031 A 
ATOM     45  C   UNL A   1      41.990  29.464  27.815  1.00  0.00     0.049 A 
ATOM     46  C   UNL A   1      47.677  27.983  28.203  1.00  0.00     0.074 A 
ATOM     47  C   UNL A   1      42.708  29.984  26.770  1.00  0.00     0.029 A 
ATOM     48  N   UNL A   1      42.722  29.557  28.970  1.00  0.00    -0.354 N 
ATOM     49  N   UNL A   1      47.185  28.186  29.385  1.00  0.00    -0.248 NA
ATOM     50  C   UNL A   1      47.531  29.079  27.240  1.00  0.00     0.031 C 
ATOM     51  C   UNL A   1      44.034  29.890  27.228  1.00  0.00     0.029 A 
ATOM     52  C   UNL A   1      44.039  29.568  28.590  1.00  0.00     0.049 A 
ATOM     53  H   UNL A   1      42.372  29.606  29.889  1.00  0.00     0.167 HD
ATOM     54  C   UNL A   1      46.319  29.221  29.155  1.00  0.00     0.074 A 
ATOM     55  C   UNL A   1      46.816  29.919  27.987  1.00  0.00     0.031 C 
ATOM     56  C   UNL A   1      45.021  29.085  29.529  1.00  0.00     0.031 A 
BRANCH  43  57
ATOM     57  C   UNL A   1      39.587  29.175  28.398  1.00  0.00    -0.014 A 
ATOM     58  C   UNL A   1      39.307  28.911  29.763  1.00  0.00     0.009 A 
ATOM     59  C   UNL A   1      38.530  29.623  27.601  1.00  0.00     0.009 A 
ATOM     60  C   UNL A   1      38.010  28.964  30.277  1.00  0.00     0.001 A 
ATOM     61  C   UNL A   1      37.230  29.711  28.129  1.00  0.00     0.001 A 
ATOM     62  C   UNL A   1      36.966  29.345  29.450  1.00  0.00     0.000 A 
ENDBRANCH  43  57
BRANCH  44  63
ATOM     63  C   UNL A   1      49.833  26.848  27.633  1.00  0.00    -0.014 A 
ATOM     64  C   UNL A   1      50.685  27.619  28.423  1.00  0.00     0.009 A 
ATOM     65  C   UNL A   1      50.478  25.980  26.702  1.00  0.00     0.009 A 
ATOM     66  C   UNL A   1      52.088  27.450  28.352  1.00  0.00     0.001 A 
ATOM     67  C   UNL A   1      51.857  25.767  26.669  1.00  0.00     0.001 A 
ATOM     68  C   UNL A   1      52.667  26.497  27.513  1.00  0.00     0.000 A 
ENDBRANCH  44  63
BRANCH  56  69
ATOM     69  C   UNL A   1      44.762  28.079  30.644  1.00  0.00    -0.014 A 
ATOM     70  C   UNL A   1      45.081  28.411  31.971  1.00  0.00     0.009 A 
ATOM     71  C   UNL A   1      44.318  26.764  30.408  1.00  0.00     0.009 A 
ATOM     72  C   UNL A   1      44.985  27.472  33.007  1.00  0.00     0.001 A 
ATOM     73  C   UNL A   1      44.214  25.821  31.444  1.00  0.00     0.001 A 
ATOM     74  C   UNL A   1      44.552  26.176  32.745  1.00  0.00     0.000 A 
ENDBRANCH  56  69
ENDBRANCH  30  31
ENDBRANCH  22  25
ENDBRANCH  20  21
ENDBRANCH  19  20
ENDBRANCH   1  19
TORSDOF 14
ENDMDL
MODEL 3
REMARK VINA RESULT:     -10.1      3.079      7.222
REMARK SMILES O=C(C[C@H](c1ccsc1)n1cccc1)NCCCCNC(=O)c1ccc(-c2c3nc(c(-c4ccccc4)c4ccc([nH]4)c(-c4ccccc4)c4nc(c(-c5ccccc5)c5ccc2[nH]5)C=C4)C=C3)cc1
REMARK SMILES IDX 17 1 16 2 15 3 1 4 2 5 3 7 4 8 10 9 11 10 14 11 12 12 13 13
REMARK SMILES IDX 5 14 6 15 9 16 7 17 8 18 18 19 19 20 20 21 21 22 22 24 23 25
REMARK SMILES IDX 24 26 70 27 25 28 69 29 26 30 27 31 28 32 63 33 29 34 68 35
REMARK SMILES IDX 62 36 64 37 30 38 67 39 61 40 60 41 31 43 53 44 38 45 52 46
REMARK SMILES IDX 39 47 42 48 51 49 65 50 40 51 41 52 50 54 66 55 43 56 32 57
REMARK SMILES IDX 33 58 37 59 34 60 36 61 35 62 54 63 55 64 59 65 56 66 58 67
REMARK SMILES IDX 57 68 44 69 45 70 49 71 46 72 48 73 47 74
REMARK H PARENT 15 6 20 23 64 42 42 53
REMARK Flexibility Score: inf
ROOT
ATOM      1  C   UNL A   1      32.106  28.949  26.508  1.00  0.00     0.023 C 
ENDROOT
BRANCH   1   2
ATOM      2  C   UNL A   1      31.439  27.616  26.840  1.00  0.00     0.116 C 
BRANCH   2   3
ATOM      3  N   UNL A   1      32.353  26.497  26.707  1.00  0.00    -0.356 N 
ATOM      4  O   UNL A   1      30.718  24.889  26.698  1.00  0.00    -0.275 OA
ATOM      5  C   UNL A   1      31.898  25.206  26.571  1.00  0.00     0.222 C 
ATOM      6  H   UNL A   1      33.324  26.666  26.713  1.00  0.00     0.163 HD
BRANCH   5   7
ATOM      7  C   UNL A   1      32.954  24.167  26.273  1.00  0.00     0.130 C 
BRANCH   7   8
ATOM      8  C   UNL A   1      34.083  24.631  25.342  1.00  0.00     0.127 C 
BRANCH   8   9
ATOM      9  N   UNL A   1      35.241  23.720  25.444  1.00  0.00    -0.346 N 
ATOM     10  C   UNL A   1      36.486  23.888  24.890  1.00  0.00     0.086 A 
ATOM     11  C   UNL A   1      35.185  22.470  26.023  1.00  0.00     0.086 A 
ATOM     12  C   UNL A   1      37.231  22.756  25.138  1.00  0.00     0.019 A 
ATOM     13  C   UNL A   1      36.407  21.857  25.848  1.00  0.00     0.019 A 
ENDBRANCH   8   9
BRANCH   8  14
ATOM     14  C   UNL A   1      33.690  24.930  23.905  1.00  0.00    -0.014 A 
ATOM     15  C   UNL A   1      33.075  24.014  22.981  1.00  0.00     0.017 A 
ATOM     16  C   UNL A   1      33.796  26.186  23.326  1.00  0.00     0.070 A 
ATOM     17  C   UNL A   1      32.746  24.601  21.780  1.00  0.00     0.065 A 
ATOM     18  S   UNL A   1      33.154  26.257  21.743  1.00  0.00    -0.152 S 
ENDBRANCH   8  14
ENDBRANCH   7   8
ENDBRANCH   5   7
ENDBRANCH   2   3
ENDBRANCH   1   2
BRANCH   1  19
ATOM     19  C   UNL A   1      33.567  28.842  26.044  1.00  0.00     0.023 C 
BRANCH  19  20
ATOM     20  C   UNL A   1      34.593  28.980  27.171  1.00  0.00     0.116 C 
BRANCH  20  21
ATOM     21  N   UNL A   1      35.126  30.331  27.225  1.00  0.00    -0.352 N 
ATOM     22  C   UNL A   1      36.259  30.812  27.830  1.00  0.00     0.251 C 
ATOM     23  H   UNL A   1      34.589  31.007  26.753  1.00  0.00     0.163 HD
ATOM     24  O   UNL A   1      36.324  32.006  28.097  1.00  0.00    -0.269 OA
BRANCH  22  25
ATOM     25  C   UNL A   1      37.407  29.937  28.158  1.00  0.00     0.039 A 
ATOM     26  C   UNL A   1      38.394  29.754  27.177  1.00  0.00     0.014 A 
ATOM     27  C   UNL A   1      37.459  29.203  29.347  1.00  0.00     0.014 A 
ATOM     28  C   UNL A   1      39.452  28.877  27.400  1.00  0.00     0.010 A 
ATOM     29  C   UNL A   1      38.521  28.337  29.583  1.00  0.00     0.010 A 
ATOM     30  C   UNL A   1      39.524  28.189  28.616  1.00  0.00    -0.014 A 
BRANCH  30  31
ATOM     31  C   UNL A   1      40.764  27.473  28.987  1.00  0.00     0.031 A 
ATOM     32  C   UNL A   1      40.708  25.987  28.555  1.00  0.00     0.074 A 
ATOM     33  C   UNL A   1      41.750  28.214  29.582  1.00  0.00     0.049 A 
ATOM     34  N   UNL A   1      41.568  25.038  28.745  1.00  0.00    -0.248 NA
ATOM     35  C   UNL A   1      39.538  25.480  27.774  1.00  0.00     0.031 C 
ATOM     36  C   UNL A   1      41.647  29.659  29.905  1.00  0.00     0.029 A 
ATOM     37  N   UNL A   1      43.026  27.932  30.030  1.00  0.00    -0.354 N 
ATOM     38  C   UNL A   1      41.154  23.910  27.996  1.00  0.00     0.074 A 
ATOM     39  C   UNL A   1      39.874  24.230  27.449  1.00  0.00     0.031 C 
ATOM     40  C   UNL A   1      42.750  30.092  30.558  1.00  0.00     0.029 A 
ATOM     41  C   UNL A   1      43.692  28.999  30.693  1.00  0.00     0.049 A 
ATOM     42  H   UNL A   1      43.445  27.050  29.899  1.00  0.00     0.167 HD
ATOM     43  C   UNL A   1      41.946  22.813  27.810  1.00  0.00     0.031 A 
ATOM     44  C   UNL A   1      44.908  28.998  31.322  1.00  0.00     0.031 A 
ATOM     45  C   UNL A   1      43.097  22.903  28.636  1.00  0.00     0.049 A 
ATOM     46  C   UNL A   1      45.549  27.735  30.945  1.00  0.00     0.074 A 
ATOM     47  C   UNL A   1      43.244  22.782  29.993  1.00  0.00     0.029 A 
ATOM     48  N   UNL A   1      44.198  23.524  28.106  1.00  0.00    -0.354 N 
ATOM     49  N   UNL A   1      46.052  27.492  29.775  1.00  0.00    -0.248 NA
ATOM     50  C   UNL A   1      45.619  26.646  31.924  1.00  0.00     0.031 C 
ATOM     51  C   UNL A   1      44.175  23.792  30.295  1.00  0.00     0.029 A 
ATOM     52  C   UNL A   1      44.728  24.291  29.111  1.00  0.00     0.049 A 
ATOM     53  H   UNL A   1      44.540  23.436  27.186  1.00  0.00     0.167 HD
ATOM     54  C   UNL A   1      46.089  26.123  29.765  1.00  0.00     0.074 A 
ATOM     55  C   UNL A   1      46.157  25.704  31.150  1.00  0.00     0.031 C 
ATOM     56  C   UNL A   1      45.489  25.459  28.744  1.00  0.00     0.031 A 
BRANCH  43  57
ATOM     57  C   UNL A   1      41.903  21.680  26.825  1.00  0.00    -0.014 A 
ATOM     58  C   UNL A   1      40.690  20.955  26.723  1.00  0.00     0.009 A 
ATOM     59  C   UNL A   1      43.051  21.091  26.287  1.00  0.00     0.009 A 
ATOM     60  C   UNL A   1      40.645  19.651  26.228  1.00  0.00     0.001 A 
ATOM     61  C   UNL A   1      42.999  19.792  25.754  1.00  0.00     0.001 A 
ATOM     62  C   UNL A   1      41.809  19.061  25.762  1.00  0.00     0.000 A 
ENDBRANCH  43  57
BRANCH  44  63
ATOM     63  C   UNL A   1      45.725  29.856  32.259  1.00  0.00    -0.014 A 
ATOM     64  C   UNL A   1      47.070  30.191  32.106  1.00  0.00     0.009 A 
ATOM     65  C   UNL A   1      45.048  30.515  33.329  1.00  0.00     0.009 A 
ATOM     66  C   UNL A   1      47.662  31.197  32.906  1.00  0.00     0.001 A 
ATOM     67  C   UNL A   1      45.609  31.548  34.082  1.00  0.00     0.001 A 
ATOM     68  C   UNL A   1      46.922  31.903  33.856  1.00  0.00     0.000 A 
ENDBRANCH  44  63
BRANCH  56  69
ATOM     69  C   UNL A   1      45.332  26.250  27.450  1.00  0.00    -0.014 A 
ATOM     70  C   UNL A   1      46.472  26.726  26.781  1.00  0.00     0.009 A 
ATOM     71  C   UNL A   1      44.084  26.639  26.931  1.00  0.00     0.009 A 
ATOM     72  C   UNL A   1      46.372  27.568  25.665  1.00  0.00     0.001 A 
ATOM     73  C   UNL A   1      43.977  27.478  25.808  1.00  0.00     0.001 A 
ATOM     74  C   UNL A   1      45.125  27.945  25.178  1.00  0.00     0.000 A 
ENDBRANCH  56  69
ENDBRANCH  30  31
ENDBRANCH  22  25
ENDBRANCH  20  21
ENDBRANCH  19  20
ENDBRANCH   1  19
TORSDOF 14
ENDMDL
