MODEL 1
REMARK VINA RESULT:     -11.9      0.000      0.000
REMARK SMILES Cc1c(Cl)cc2c(c1C)O[C@@H](C(F)(F)F)C(C(=O)NCCCCNC(=O)c1ccc(-c3c4nc(c(-c5ccccc5)c5ccc([nH]5)c(-c5ccccc5)c5nc(c(-c6ccccc6)c6ccc3[nH]6)C=C5)C=C4)cc1)=C2
REMARK SMILES IDX 22 1 21 2 20 3 19 4 17 5 18 6 16 8 1 9 2 10 3 11 8 12 4 13
REMARK SMILES IDX 5 14 7 15 9 16 6 17 10 18 75 19 11 20 12 21 13 22 14 23
REMARK SMILES IDX 15 24 23 25 24 26 25 27 26 29 27 30 28 31 74 32 29 33 73 34
REMARK SMILES IDX 30 35 31 36 32 37 67 38 33 39 72 40 66 41 68 42 34 43 71 44
REMARK SMILES IDX 65 45 64 46 35 48 57 49 42 50 56 51 43 52 46 53 55 54 69 55
REMARK SMILES IDX 44 56 45 57 54 59 70 60 47 61 36 62 37 63 41 64 38 65 40 66
REMARK SMILES IDX 39 67 58 68 59 69 63 70 60 71 62 72 61 73 48 74 49 75 53 76
REMARK SMILES IDX 50 77 52 78 51 79
REMARK H PARENT 19 7 24 28 68 47 46 58
REMARK Flexibility Score: inf
ROOT
ATOM      1  C   UNL A   1      33.826  28.327  25.772  1.00  0.00     0.023 C 
ENDROOT
BRANCH   1   2
ATOM      2  C   UNL A   1      33.198  29.354  24.830  1.00  0.00     0.023 C 
BRANCH   2   3
ATOM      3  C   UNL A   1      33.405  29.057  23.347  1.00  0.00     0.116 C 
BRANCH   3   4
ATOM      4  N   UNL A   1      32.159  28.699  22.697  1.00  0.00    -0.352 N 
ATOM      5  C   UNL A   1      31.388  27.594  22.583  1.00  0.00     0.251 C 
ATOM      6  O   UNL A   1      30.340  27.756  21.948  1.00  0.00    -0.270 OA
ATOM      7  H   UNL A   1      31.772  29.463  22.211  1.00  0.00     0.163 HD
BRANCH   5   8
ATOM      8  C   UNL A   1      31.707  26.249  23.148  1.00  0.00     0.067 C 
ATOM      9  C   UNL A   1      34.526  20.639  24.999  1.00  0.00     0.046 C 
ATOM     10  C   UNL A   1      34.124  21.983  24.446  1.00  0.00    -0.026 A 
ATOM     11  C   UNL A   1      35.054  22.824  23.800  1.00  0.00     0.045 A 
ATOM     12  C   UNL A   1      32.793  22.439  24.597  1.00  0.00    -0.004 A 
ATOM     13  Cl  UNL A   1      36.720  22.392  23.610  1.00  0.00    -0.084 Cl
ATOM     14  C   UNL A   1      34.670  24.065  23.278  1.00  0.00     0.032 A 
ATOM     15  C   UNL A   1      32.427  23.688  24.056  1.00  0.00     0.131 A 
ATOM     16  C   UNL A   1      31.731  21.642  25.317  1.00  0.00     0.049 C 
ATOM     17  C   UNL A   1      33.352  24.497  23.399  1.00  0.00     0.019 A 
ATOM     18  O   UNL A   1      31.111  24.050  24.161  1.00  0.00    -0.475 OA
ATOM     19  C   UNL A   1      32.925  25.769  22.830  1.00  0.00     0.025 C 
ATOM     20  C   UNL A   1      30.821  25.470  24.079  1.00  0.00     0.314 C 
BRANCH  20  21
ATOM     21  C   UNL A   1      30.725  26.064  25.493  1.00  0.00     0.429 C 
ATOM     22  F   UNL A   1      29.613  25.598  26.120  1.00  0.00    -0.167 F 
ATOM     23  F   UNL A   1      31.783  25.745  26.272  1.00  0.00    -0.167 F 
ATOM     24  F   UNL A   1      30.635  27.413  25.490  1.00  0.00    -0.167 F 
ENDBRANCH  20  21
ENDBRANCH   5   8
ENDBRANCH   3   4
ENDBRANCH   2   3
ENDBRANCH   1   2
BRANCH   1  25
ATOM     25  C   UNL A   1      33.555  28.561  27.252  1.00  0.00     0.116 C 
BRANCH  25  26
ATOM     26  N   UNL A   1      33.503  29.968  27.620  1.00  0.00    -0.352 N 
ATOM     27  C   UNL A   1      34.497  30.740  28.168  1.00  0.00     0.251 C 
ATOM     28  H   UNL A   1      32.645  30.425  27.455  1.00  0.00     0.163 HD
ATOM     29  O   UNL A   1      34.280  31.899  28.506  1.00  0.00    -0.269 OA
BRANCH  27  30
ATOM     30  C   UNL A   1      35.826  30.138  28.380  1.00  0.00     0.039 A 
ATOM     31  C   UNL A   1      36.767  30.203  27.352  1.00  0.00     0.014 A 
ATOM     32  C   UNL A   1      36.149  29.567  29.614  1.00  0.00     0.014 A 
ATOM     33  C   UNL A   1      38.063  29.743  27.582  1.00  0.00     0.010 A 
ATOM     34  C   UNL A   1      37.458  29.176  29.864  1.00  0.00     0.010 A 
ATOM     35  C   UNL A   1      38.422  29.253  28.847  1.00  0.00    -0.014 A 
BRANCH  35  36
ATOM     36  C   UNL A   1      39.792  28.766  29.125  1.00  0.00     0.031 A 
ATOM     37  C   UNL A   1      40.768  29.673  29.818  1.00  0.00     0.074 A 
ATOM     38  C   UNL A   1      40.171  27.544  28.709  1.00  0.00     0.049 A 
ATOM     39  N   UNL A   1      42.037  29.481  30.070  1.00  0.00    -0.248 NA
ATOM     40  C   UNL A   1      40.254  30.979  30.264  1.00  0.00     0.031 C 
ATOM     41  C   UNL A   1      39.319  26.579  28.010  1.00  0.00     0.029 A 
ATOM     42  N   UNL A   1      41.379  26.903  28.817  1.00  0.00    -0.354 N 
ATOM     43  C   UNL A   1      42.475  30.647  30.682  1.00  0.00     0.074 A 
ATOM     44  C   UNL A   1      41.353  31.559  30.722  1.00  0.00     0.031 C 
ATOM     45  C   UNL A   1      40.023  25.458  27.780  1.00  0.00     0.029 A 
ATOM     46  C   UNL A   1      41.382  25.640  28.279  1.00  0.00     0.049 A 
ATOM     47  H   UNL A   1      42.169  27.312  29.238  1.00  0.00     0.167 HD
ATOM     48  C   UNL A   1      43.698  30.927  31.191  1.00  0.00     0.031 A 
ATOM     49  C   UNL A   1      42.373  24.732  28.199  1.00  0.00     0.031 A 
ATOM     50  C   UNL A   1      44.806  30.014  31.172  1.00  0.00     0.049 A 
ATOM     51  C   UNL A   1      43.727  25.074  28.755  1.00  0.00     0.074 A 
ATOM     52  C   UNL A   1      46.076  30.190  31.690  1.00  0.00     0.029 A 
ATOM     53  N   UNL A   1      44.770  28.749  30.609  1.00  0.00    -0.354 N 
ATOM     54  N   UNL A   1      44.120  26.173  29.351  1.00  0.00    -0.248 NA
ATOM     55  C   UNL A   1      44.771  24.047  28.628  1.00  0.00     0.031 C 
ATOM     56  C   UNL A   1      46.822  29.040  31.411  1.00  0.00     0.029 A 
ATOM     57  C   UNL A   1      46.001  28.134  30.757  1.00  0.00     0.049 A 
ATOM     58  H   UNL A   1      43.987  28.346  30.170  1.00  0.00     0.167 HD
ATOM     59  C   UNL A   1      45.453  25.965  29.683  1.00  0.00     0.074 A 
ATOM     60  C   UNL A   1      45.793  24.629  29.240  1.00  0.00     0.031 C 
ATOM     61  C   UNL A   1      46.319  26.807  30.299  1.00  0.00     0.031 A 
BRANCH  48  62
ATOM     62  C   UNL A   1      43.887  32.280  31.815  1.00  0.00    -0.014 A 
ATOM     63  C   UNL A   1      44.336  33.370  31.052  1.00  0.00     0.009 A 
ATOM     64  C   UNL A   1      43.598  32.473  33.174  1.00  0.00     0.009 A 
ATOM     65  C   UNL A   1      44.524  34.619  31.647  1.00  0.00     0.001 A 
ATOM     66  C   UNL A   1      43.760  33.731  33.759  1.00  0.00     0.001 A 
ATOM     67  C   UNL A   1      44.232  34.799  32.998  1.00  0.00     0.000 A 
ENDBRANCH  48  62
BRANCH  49  68
ATOM     68  C   UNL A   1      42.114  23.403  27.590  1.00  0.00    -0.014 A 
ATOM     69  C   UNL A   1      42.448  23.166  26.248  1.00  0.00     0.009 A 
ATOM     70  C   UNL A   1      41.539  22.366  28.341  1.00  0.00     0.009 A 
ATOM     71  C   UNL A   1      42.196  21.922  25.665  1.00  0.00     0.001 A 
ATOM     72  C   UNL A   1      41.310  21.116  27.762  1.00  0.00     0.001 A 
ATOM     73  C   UNL A   1      41.632  20.898  26.423  1.00  0.00     0.000 A 
ENDBRANCH  49  68
BRANCH  61  74
ATOM     74  C   UNL A   1      47.711  26.302  30.538  1.00  0.00    -0.014 A 
ATOM     75  C   UNL A   1      48.690  26.383  29.537  1.00  0.00     0.009 A 
ATOM     76  C   UNL A   1      48.061  25.790  31.797  1.00  0.00     0.009 A 
ATOM     77  C   UNL A   1      49.990  25.937  29.785  1.00  0.00     0.001 A 
ATOM     78  C   UNL A   1      49.367  25.368  32.050  1.00  0.00     0.001 A 
ATOM     79  C   UNL A   1      50.328  25.436  31.042  1.00  0.00     0.000 A 
ENDBRANCH  61  74
ENDBRANCH  35  36
ENDBRANCH  27  30
ENDBRANCH  25  26
ENDBRANCH   1  25
TORSDOF 12
ENDMDL
MODEL 2
REMARK VINA RESULT:     -11.8      2.694      7.533
REMARK SMILES Cc1c(Cl)cc2c(c1C)O[C@@H](C(F)(F)F)C(C(=O)NCCCCNC(=O)c1ccc(-c3c4nc(c(-c5ccccc5)c5ccc([nH]5)c(-c5ccccc5)c5nc(c(-c6ccccc6)c6ccc3[nH]6)C=C5)C=C4)cc1)=C2
REMARK SMILES IDX 22 1 21 2 20 3 19 4 17 5 18 6 16 8 1 9 2 10 3 11 8 12 4 13
REMARK SMILES IDX 5 14 7 15 9 16 6 17 10 18 75 19 11 20 12 21 13 22 14 23
REMARK SMILES IDX 15 24 23 25 24 26 25 27 26 29 27 30 28 31 74 32 29 33 73 34
REMARK SMILES IDX 30 35 31 36 32 37 67 38 33 39 72 40 66 41 68 42 34 43 71 44
REMARK SMILES IDX 65 45 64 46 35 48 57 49 42 50 56 51 43 52 46 53 55 54 69 55
REMARK SMILES IDX 44 56 45 57 54 59 70 60 47 61 36 62 37 63 41 64 38 65 40 66
REMARK SMILES IDX 39 67 58 68 59 69 63 70 60 71 62 72 61 73 48 74 49 75 53 76
REMARK SMILES IDX 50 77 52 78 51 79
REMARK H PARENT 19 7 24 28 68 47 46 58
REMARK Flexibility Score: inf
ROOT
ATOM      1  C   UNL A   1      37.773  19.917  24.874  1.00  0.00     0.023 C 
ENDROOT
BRANCH   1   2
ATOM      2  C   UNL A   1      36.838  21.064  24.492  1.00  0.00     0.023 C 
BRANCH   2   3
ATOM      3  C   UNL A   1      36.568  22.058  25.619  1.00  0.00     0.116 C 
BRANCH   3   4
ATOM      4  N   UNL A   1      35.553  21.566  26.530  1.00  0.00    -0.352 N 
ATOM      5  C   UNL A   1      34.255  21.836  26.799  1.00  0.00     0.251 C 
ATOM      6  O   UNL A   1      33.743  21.111  27.659  1.00  0.00    -0.270 OA
ATOM      7  H   UNL A   1      35.901  20.847  27.105  1.00  0.00     0.163 HD
BRANCH   5   8
ATOM      8  C   UNL A   1      33.437  22.904  26.153  1.00  0.00     0.067 C 
ATOM      9  C   UNL A   1      30.882  28.545  24.034  1.00  0.00     0.046 C 
ATOM     10  C   UNL A   1      31.651  27.411  24.664  1.00  0.00    -0.026 A 
ATOM     11  C   UNL A   1      32.822  27.640  25.415  1.00  0.00     0.045 A 
ATOM     12  C   UNL A   1      31.216  26.077  24.482  1.00  0.00    -0.004 A 
ATOM     13  Cl  UNL A   1      33.475  29.226  25.654  1.00  0.00    -0.084 Cl
ATOM     14  C   UNL A   1      33.522  26.583  26.007  1.00  0.00     0.032 A 
ATOM     15  C   UNL A   1      31.932  25.030  25.094  1.00  0.00     0.131 A 
ATOM     16  C   UNL A   1      30.006  25.716  23.654  1.00  0.00     0.049 C 
ATOM     17  C   UNL A   1      33.074  25.274  25.855  1.00  0.00     0.019 A 
ATOM     18  O   UNL A   1      31.428  23.764  24.952  1.00  0.00    -0.475 OA
ATOM     19  C   UNL A   1      33.769  24.164  26.494  1.00  0.00     0.025 C 
ATOM     20  C   UNL A   1      32.366  22.670  25.124  1.00  0.00     0.314 C 
BRANCH  20  21
ATOM     21  C   UNL A   1      32.902  22.224  23.754  1.00  0.00     0.429 C 
ATOM     22  F   UNL A   1      31.970  22.451  22.793  1.00  0.00    -0.167 F 
ATOM     23  F   UNL A   1      34.023  22.885  23.386  1.00  0.00    -0.167 F 
ATOM     24  F   UNL A   1      33.196  20.904  23.710  1.00  0.00    -0.167 F 
ENDBRANCH  20  21
ENDBRANCH   5   8
ENDBRANCH   3   4
ENDBRANCH   2   3
ENDBRANCH   1   2
BRANCH   1  25
ATOM     25  C   UNL A   1      38.958  20.316  25.745  1.00  0.00     0.116 C 
BRANCH  25  26
ATOM     26  N   UNL A   1      40.042  19.345  25.735  1.00  0.00    -0.352 N 
ATOM     27  C   UNL A   1      41.355  19.534  26.087  1.00  0.00     0.251 C 
ATOM     28  H   UNL A   1      39.803  18.436  25.438  1.00  0.00     0.163 HD
ATOM     29  O   UNL A   1      42.181  18.638  25.947  1.00  0.00    -0.269 OA
BRANCH  27  30
ATOM     30  C   UNL A   1      41.767  20.852  26.603  1.00  0.00     0.039 A 
ATOM     31  C   UNL A   1      42.200  21.825  25.700  1.00  0.00     0.014 A 
ATOM     32  C   UNL A   1      41.667  21.134  27.968  1.00  0.00     0.014 A 
ATOM     33  C   UNL A   1      42.479  23.110  26.162  1.00  0.00     0.010 A 
ATOM     34  C   UNL A   1      41.876  22.432  28.414  1.00  0.00     0.010 A 
ATOM     35  C   UNL A   1      42.292  23.428  27.517  1.00  0.00    -0.014 A 
BRANCH  35  36
ATOM     36  C   UNL A   1      42.571  24.785  28.036  1.00  0.00     0.031 A 
ATOM     37  C   UNL A   1      43.972  25.146  28.438  1.00  0.00     0.074 A 
ATOM     38  C   UNL A   1      41.566  25.666  28.197  1.00  0.00     0.049 A 
ATOM     39  N   UNL A   1      44.414  26.240  29.002  1.00  0.00    -0.248 NA
ATOM     40  C   UNL A   1      45.010  24.129  28.194  1.00  0.00     0.031 C 
ATOM     41  C   UNL A   1      40.160  25.426  27.862  1.00  0.00     0.029 A 
ATOM     42  N   UNL A   1      41.576  26.946  28.689  1.00  0.00    -0.354 N 
ATOM     43  C   UNL A   1      45.772  26.034  29.199  1.00  0.00     0.074 A 
ATOM     44  C   UNL A   1      46.075  24.696  28.741  1.00  0.00     0.031 C 
ATOM     45  C   UNL A   1      39.451  26.536  28.127  1.00  0.00     0.029 A 
ATOM     46  C   UNL A   1      40.341  27.547  28.686  1.00  0.00     0.049 A 
ATOM     47  H   UNL A   1      42.392  27.392  29.013  1.00  0.00     0.167 HD
ATOM     48  C   UNL A   1      46.694  26.892  29.695  1.00  0.00     0.031 A 
ATOM     49  C   UNL A   1      39.973  28.776  29.092  1.00  0.00     0.031 A 
ATOM     50  C   UNL A   1      46.398  28.229  30.131  1.00  0.00     0.049 A 
ATOM     51  C   UNL A   1      41.011  29.705  29.657  1.00  0.00     0.074 A 
ATOM     52  C   UNL A   1      47.266  29.188  30.618  1.00  0.00     0.029 A 
ATOM     53  N   UNL A   1      45.133  28.795  30.121  1.00  0.00    -0.354 N 
ATOM     54  N   UNL A   1      42.297  29.504  29.818  1.00  0.00    -0.248 NA
ATOM     55  C   UNL A   1      40.546  31.029  30.093  1.00  0.00     0.031 C 
ATOM     56  C   UNL A   1      46.519  30.327  30.936  1.00  0.00     0.029 A 
ATOM     57  C   UNL A   1      45.195  30.089  30.606  1.00  0.00     0.049 A 
ATOM     58  H   UNL A   1      44.313  28.344  29.815  1.00  0.00     0.167 HD
ATOM     59  C   UNL A   1      42.797  30.681  30.360  1.00  0.00     0.074 A 
ATOM     60  C   UNL A   1      41.681  31.595  30.481  1.00  0.00     0.031 C 
ATOM     61  C   UNL A   1      44.068  30.977  30.726  1.00  0.00     0.031 A 
BRANCH  48  62
ATOM     62  C   UNL A   1      48.110  26.401  29.785  1.00  0.00    -0.014 A 
ATOM     63  C   UNL A   1      49.001  26.566  28.713  1.00  0.00     0.009 A 
ATOM     64  C   UNL A   1      48.564  25.783  30.960  1.00  0.00     0.009 A 
ATOM     65  C   UNL A   1      50.311  26.091  28.803  1.00  0.00     0.001 A 
ATOM     66  C   UNL A   1      49.883  25.334  31.057  1.00  0.00     0.001 A 
ATOM     67  C   UNL A   1      50.751  25.480  29.976  1.00  0.00     0.000 A 
ENDBRANCH  48  62
BRANCH  49  68
ATOM     68  C   UNL A   1      38.560  29.210  28.955  1.00  0.00    -0.014 A 
ATOM     69  C   UNL A   1      38.089  29.701  27.728  1.00  0.00     0.009 A 
ATOM     70  C   UNL A   1      37.674  29.133  30.041  1.00  0.00     0.009 A 
ATOM     71  C   UNL A   1      36.764  30.123  27.595  1.00  0.00     0.001 A 
ATOM     72  C   UNL A   1      36.343  29.533  29.899  1.00  0.00     0.001 A 
ATOM     73  C   UNL A   1      35.892  30.034  28.679  1.00  0.00     0.000 A 
ENDBRANCH  49  68
BRANCH  61  74
ATOM     74  C   UNL A   1      44.318  32.348  31.282  1.00  0.00    -0.014 A 
ATOM     75  C   UNL A   1      44.258  32.590  32.662  1.00  0.00     0.009 A 
ATOM     76  C   UNL A   1      44.672  33.397  30.419  1.00  0.00     0.009 A 
ATOM     77  C   UNL A   1      44.523  33.864  33.166  1.00  0.00     0.001 A 
ATOM     78  C   UNL A   1      44.960  34.663  30.928  1.00  0.00     0.001 A 
ATOM     79  C   UNL A   1      44.879  34.898  32.300  1.00  0.00     0.000 A 
ENDBRANCH  61  74
ENDBRANCH  35  36
ENDBRANCH  27  30
ENDBRANCH  25  26
ENDBRANCH   1  25
TORSDOF 12
ENDMDL
MODEL 3
REMARK VINA RESULT:     -11.8      2.961      7.763
REMARK SMILES Cc1c(Cl)cc2c(c1C)O[C@@H](C(F)(F)F)C(C(=O)NCCCCNC(=O)c1ccc(-c3c4nc(c(-c5ccccc5)c5ccc([nH]5)c(-c5ccccc5)c5nc(c(-c6ccccc6)c6ccc3[nH]6)C=C5)C=C4)cc1)=C2
REMARK SMILES IDX 22 1 21 2 20 3 19 4 17 5 18 6 16 8 1 9 2 10 3 11 8 12 4 13
REMARK SMILES IDX 5 14 7 15 9 16 6 17 10 18 75 19 11 20 12 21 13 22 14 23
REMARK SMILES IDX 15 24 23 25 24 26 25 27 26 29 27 30 28 31 74 32 29 33 73 34
REMARK SMILES IDX 30 35 31 36 32 37 67 38 33 39 72 40 66 41 68 42 34 43 71 44
REMARK SMILES IDX 65 45 64 46 35 48 57 49 42 50 56 51 43 52 46 53 55 54 69 55
REMARK SMILES IDX 44 56 45 57 54 59 70 60 47 61 36 62 37 63 41 64 38 65 40 66
REMARK SMILES IDX 39 67 58 68 59 69 63 70 60 71 62 72 61 73 48 74 49 75 53 76
REMARK SMILES IDX 50 77 52 78 51 79
REMARK H PARENT 19 7 24 28 68 47 46 58
REMARK Flexibility Score: inf
ROOT
ATOM      1  C   UNL A   1      35.788  23.409  26.035  1.00  0.00     0.023 C 
ENDROOT
BRANCH   1   2
ATOM      2  C   UNL A   1      35.563  21.953  26.442  1.00  0.00     0.023 C 
BRANCH   2   3
ATOM      3  C   UNL A   1      34.276  21.709  27.226  1.00  0.00     0.116 C 
BRANCH   3   4
ATOM      4  N   UNL A   1      33.282  21.029  26.418  1.00  0.00    -0.352 N 
ATOM      5  C   UNL A   1      32.381  21.370  25.469  1.00  0.00     0.251 C 
ATOM      6  O   UNL A   1      31.744  20.423  24.995  1.00  0.00    -0.270 OA
ATOM      7  H   UNL A   1      33.257  20.064  26.613  1.00  0.00     0.163 HD
BRANCH   5   8
ATOM      8  C   UNL A   1      32.117  22.755  24.978  1.00  0.00     0.067 C 
ATOM      9  C   UNL A   1      31.004  29.175  24.362  1.00  0.00     0.046 C 
ATOM     10  C   UNL A   1      31.256  27.749  24.782  1.00  0.00    -0.026 A 
ATOM     11  C   UNL A   1      31.483  27.405  26.131  1.00  0.00     0.045 A 
ATOM     12  C   UNL A   1      31.298  26.724  23.807  1.00  0.00    -0.004 A 
ATOM     13  Cl  UNL A   1      31.510  28.585  27.397  1.00  0.00    -0.084 Cl
ATOM     14  C   UNL A   1      31.703  26.077  26.513  1.00  0.00     0.032 A 
ATOM     15  C   UNL A   1      31.513  25.393  24.217  1.00  0.00     0.131 A 
ATOM     16  C   UNL A   1      31.120  26.989  22.332  1.00  0.00     0.049 C 
ATOM     17  C   UNL A   1      31.712  25.064  25.557  1.00  0.00     0.019 A 
ATOM     18  O   UNL A   1      31.469  24.428  23.246  1.00  0.00    -0.475 OA
ATOM     19  C   UNL A   1      31.903  23.672  25.940  1.00  0.00     0.025 C 
ATOM     20  C   UNL A   1      32.157  23.183  23.537  1.00  0.00     0.314 C 
BRANCH  20  21
ATOM     21  C   UNL A   1      33.571  23.218  22.935  1.00  0.00     0.429 C 
ATOM     22  F   UNL A   1      33.504  23.109  21.583  1.00  0.00    -0.167 F 
ATOM     23  F   UNL A   1      34.234  24.364  23.209  1.00  0.00    -0.167 F 
ATOM     24  F   UNL A   1      34.351  22.202  23.370  1.00  0.00    -0.167 F 
ENDBRANCH  20  21
ENDBRANCH   5   8
ENDBRANCH   3   4
ENDBRANCH   2   3
ENDBRANCH   1   2
BRANCH   1  25
ATOM     25  C   UNL A   1      37.036  23.658  25.198  1.00  0.00     0.116 C 
BRANCH  25  26
ATOM     26  N   UNL A   1      38.116  22.722  25.468  1.00  0.00    -0.352 N 
ATOM     27  C   UNL A   1      39.277  22.943  26.166  1.00  0.00     0.251 C 
ATOM     28  H   UNL A   1      38.000  21.813  25.104  1.00  0.00     0.163 HD
ATOM     29  O   UNL A   1      40.141  22.077  26.242  1.00  0.00    -0.269 OA
BRANCH  27  30
ATOM     30  C   UNL A   1      39.485  24.260  26.795  1.00  0.00     0.039 A 
ATOM     31  C   UNL A   1      39.047  24.458  28.106  1.00  0.00     0.014 A 
ATOM     32  C   UNL A   1      40.162  25.268  26.105  1.00  0.00     0.014 A 
ATOM     33  C   UNL A   1      39.343  25.659  28.751  1.00  0.00     0.010 A 
ATOM     34  C   UNL A   1      40.518  26.433  26.772  1.00  0.00     0.010 A 
ATOM     35  C   UNL A   1      40.104  26.641  28.097  1.00  0.00    -0.014 A 
BRANCH  35  36
ATOM     36  C   UNL A   1      40.442  27.921  28.758  1.00  0.00     0.031 A 
ATOM     37  C   UNL A   1      41.806  28.101  29.357  1.00  0.00     0.074 A 
ATOM     38  C   UNL A   1      39.513  28.889  28.867  1.00  0.00     0.049 A 
ATOM     39  N   UNL A   1      42.274  29.100  30.061  1.00  0.00    -0.248 NA
ATOM     40  C   UNL A   1      42.765  27.000  29.159  1.00  0.00     0.031 C 
ATOM     41  C   UNL A   1      38.147  28.824  28.343  1.00  0.00     0.029 A 
ATOM     42  N   UNL A   1      39.583  30.123  29.462  1.00  0.00    -0.354 N 
ATOM     43  C   UNL A   1      43.569  28.738  30.406  1.00  0.00     0.074 A 
ATOM     44  C   UNL A   1      43.799  27.411  29.878  1.00  0.00     0.031 C 
ATOM     45  C   UNL A   1      37.520  29.981  28.611  1.00  0.00     0.029 A 
ATOM     46  C   UNL A   1      38.423  30.850  29.358  1.00  0.00     0.049 A 
ATOM     47  H   UNL A   1      40.389  30.456  29.920  1.00  0.00     0.167 HD
ATOM     48  C   UNL A   1      44.496  29.456  31.081  1.00  0.00     0.031 A 
ATOM     49  C   UNL A   1      38.124  32.080  29.817  1.00  0.00     0.031 A 
ATOM     50  C   UNL A   1      44.276  30.782  31.587  1.00  0.00     0.049 A 
ATOM     51  C   UNL A   1      39.164  32.851  30.581  1.00  0.00     0.074 A 
ATOM     52  C   UNL A   1      45.161  31.608  32.256  1.00  0.00     0.029 A 
ATOM     53  N   UNL A   1      43.084  31.478  31.470  1.00  0.00    -0.354 N 
ATOM     54  N   UNL A   1      40.392  32.504  30.881  1.00  0.00    -0.248 NA
ATOM     55  C   UNL A   1      38.776  34.183  31.066  1.00  0.00     0.031 C 
ATOM     56  C   UNL A   1      44.492  32.794  32.574  1.00  0.00     0.029 A 
ATOM     57  C   UNL A   1      43.205  32.722  32.065  1.00  0.00     0.049 A 
ATOM     58  H   UNL A   1      42.271  31.140  31.029  1.00  0.00     0.167 HD
ATOM     59  C   UNL A   1      40.928  33.580  31.577  1.00  0.00     0.074 A 
ATOM     60  C   UNL A   1      39.899  34.597  31.636  1.00  0.00     0.031 C 
ATOM     61  C   UNL A   1      42.163  33.713  32.120  1.00  0.00     0.031 A 
BRANCH  48  62
ATOM     62  C   UNL A   1      45.834  28.813  31.303  1.00  0.00    -0.014 A 
ATOM     63  C   UNL A   1      46.085  28.046  32.452  1.00  0.00     0.009 A 
ATOM     64  C   UNL A   1      46.850  28.957  30.346  1.00  0.00     0.009 A 
ATOM     65  C   UNL A   1      47.338  27.466  32.655  1.00  0.00     0.001 A 
ATOM     66  C   UNL A   1      48.094  28.352  30.539  1.00  0.00     0.001 A 
ATOM     67  C   UNL A   1      48.339  27.615  31.697  1.00  0.00     0.000 A 
ENDBRANCH  48  62
BRANCH  49  68
ATOM     68  C   UNL A   1      36.789  32.670  29.544  1.00  0.00    -0.014 A 
ATOM     69  C   UNL A   1      35.794  32.649  30.534  1.00  0.00     0.009 A 
ATOM     70  C   UNL A   1      36.501  33.259  28.303  1.00  0.00     0.009 A 
ATOM     71  C   UNL A   1      34.532  33.190  30.280  1.00  0.00     0.001 A 
ATOM     72  C   UNL A   1      35.246  33.820  28.060  1.00  0.00     0.001 A 
ATOM     73  C   UNL A   1      34.261  33.779  29.046  1.00  0.00     0.000 A 
ENDBRANCH  49  68
BRANCH  61  74
ATOM     74  C   UNL A   1      42.469  35.007  32.815  1.00  0.00    -0.014 A 
ATOM     75  C   UNL A   1      42.042  35.239  34.130  1.00  0.00     0.009 A 
ATOM     76  C   UNL A   1      43.241  35.983  32.164  1.00  0.00     0.009 A 
ATOM     77  C   UNL A   1      42.361  36.436  34.774  1.00  0.00     0.001 A 
ATOM     78  C   UNL A   1      43.579  37.168  32.818  1.00  0.00     0.001 A 
ATOM     79  C   UNL A   1      43.133  37.396  34.120  1.00  0.00     0.000 A 
ENDBRANCH  61  74
ENDBRANCH  35  36
ENDBRANCH  27  30
ENDBRANCH  25  26
ENDBRANCH   1  25
TORSDOF 12
ENDMDL
