MODEL 1
REMARK VINA RESULT:     -12.3      0.000      0.000
REMARK SMILES Cc1cc(C(=O)NCCCCNC(=O)c2ccc(-c3c4nc(c(-c5ccccc5)c5ccc([nH]5)c(-c5ccccc5)c5nc(c(-c6ccccc6)c6ccc3[nH]6)C=C5)C=C4)cc2)ccc1NS(=O)(=O)c1c(F)cccc1F
REMARK SMILES IDX 9 1 8 2 7 3 5 4 6 5 4 7 1 8 2 9 3 10 65 11 64 12 63 13 66 14
REMARK SMILES IDX 67 16 68 17 69 18 70 19 71 20 76 21 72 22 73 23 75 24 77 25
REMARK SMILES IDX 74 26 10 27 11 28 12 29 13 30 14 32 15 33 16 34 62 35 17 36
REMARK SMILES IDX 61 37 18 38 19 39 20 40 55 41 21 42 60 43 54 44 56 45 22 46
REMARK SMILES IDX 59 47 53 48 52 49 23 51 45 52 30 53 44 54 31 55 34 56 43 57
REMARK SMILES IDX 57 58 32 59 33 60 42 62 58 63 35 64 24 65 25 66 29 67 26 68
REMARK SMILES IDX 28 69 27 70 46 71 47 72 51 73 48 74 50 75 49 76 36 77 37 78
REMARK SMILES IDX 41 79 38 80 40 81 39 82
REMARK H PARENT 7 6 66 15 12 31 56 50 34 61
REMARK Flexibility Score: inf
ROOT
ATOM      1  C   UNL A   1      37.702  23.590  25.912  1.00  0.00     0.023 C 
ENDROOT
BRANCH   1   2
ATOM      2  C   UNL A   1      36.178  23.659  25.745  1.00  0.00     0.116 C 
BRANCH   2   3
ATOM      3  N   UNL A   1      35.435  22.744  26.603  1.00  0.00    -0.352 N 
ATOM      4  C   UNL A   1      34.122  22.335  26.647  1.00  0.00     0.251 C 
ATOM      5  O   UNL A   1      33.792  21.554  27.538  1.00  0.00    -0.269 OA
ATOM      6  H   UNL A   1      35.993  22.331  27.301  1.00  0.00     0.163 HD
BRANCH   4   7
ATOM      7  C   UNL A   1      33.073  22.858  25.730  1.00  0.00     0.040 A 
ATOM      8  C   UNL A   1      30.193  25.316  26.042  1.00  0.00     0.046 C 
ATOM      9  C   UNL A   1      31.259  24.462  25.410  1.00  0.00    -0.026 A 
ATOM     10  C   UNL A   1      32.155  23.780  26.251  1.00  0.00     0.019 A 
ATOM     11  C   UNL A   1      31.370  24.277  24.025  1.00  0.00     0.052 A 
ATOM     12  C   UNL A   1      32.061  23.160  23.555  1.00  0.00     0.028 A 
ATOM     13  C   UNL A   1      32.911  22.448  24.410  1.00  0.00     0.016 A 
BRANCH  11  14
ATOM     14  N   UNL A   1      30.896  25.321  23.177  1.00  0.00    -0.279 N 
ATOM     15  H   UNL A   1      29.973  25.230  22.848  1.00  0.00     0.180 HD
BRANCH  14  16
ATOM     16  S   UNL A   1      31.728  26.682  22.676  1.00  0.00     0.267 S 
ATOM     17  O   UNL A   1      32.941  26.191  22.035  1.00  0.00    -0.201 OA
ATOM     18  O   UNL A   1      30.771  27.479  21.956  1.00  0.00    -0.201 OA
BRANCH  16  19
ATOM     19  C   UNL A   1      32.217  27.620  24.074  1.00  0.00     0.158 A 
ATOM     20  C   UNL A   1      31.443  28.725  24.411  1.00  0.00     0.146 A 
ATOM     21  C   UNL A   1      33.390  27.381  24.773  1.00  0.00     0.146 A 
ATOM     22  F   UNL A   1      30.256  28.944  23.831  1.00  0.00    -0.205 F 
ATOM     23  C   UNL A   1      31.877  29.638  25.371  1.00  0.00     0.041 A 
ATOM     24  C   UNL A   1      33.848  28.303  25.718  1.00  0.00     0.041 A 
ATOM     25  F   UNL A   1      34.135  26.290  24.551  1.00  0.00    -0.205 F 
ATOM     26  C   UNL A   1      33.102  29.446  26.004  1.00  0.00     0.006 A 
ENDBRANCH  16  19
ENDBRANCH  14  16
ENDBRANCH  11  14
ENDBRANCH   4   7
ENDBRANCH   2   3
ENDBRANCH   1   2
BRANCH   1  27
ATOM     27  C   UNL A   1      38.332  22.204  25.752  1.00  0.00     0.023 C 
BRANCH  27  28
ATOM     28  C   UNL A   1      39.648  22.004  26.500  1.00  0.00     0.116 C 
BRANCH  28  29
ATOM     29  N   UNL A   1      40.478  20.895  26.036  1.00  0.00    -0.352 N 
ATOM     30  C   UNL A   1      41.856  20.749  26.061  1.00  0.00     0.251 C 
ATOM     31  H   UNL A   1      39.983  20.136  25.648  1.00  0.00     0.163 HD
ATOM     32  O   UNL A   1      42.372  19.764  25.536  1.00  0.00    -0.269 OA
BRANCH  30  33
ATOM     33  C   UNL A   1      42.702  21.683  26.852  1.00  0.00     0.039 A 
ATOM     34  C   UNL A   1      42.532  21.689  28.243  1.00  0.00     0.014 A 
ATOM     35  C   UNL A   1      43.425  22.701  26.242  1.00  0.00     0.014 A 
ATOM     36  C   UNL A   1      42.790  22.857  28.956  1.00  0.00     0.010 A 
ATOM     37  C   UNL A   1      43.568  23.897  26.915  1.00  0.00     0.010 A 
ATOM     38  C   UNL A   1      43.153  23.998  28.244  1.00  0.00    -0.014 A 
BRANCH  38  39
ATOM     39  C   UNL A   1      42.935  25.349  28.746  1.00  0.00     0.031 A 
ATOM     40  C   UNL A   1      41.770  26.141  28.288  1.00  0.00     0.074 A 
ATOM     41  C   UNL A   1      43.740  25.819  29.731  1.00  0.00     0.049 A 
ATOM     42  N   UNL A   1      41.691  27.429  28.356  1.00  0.00    -0.248 NA
ATOM     43  C   UNL A   1      40.600  25.533  27.659  1.00  0.00     0.031 C 
ATOM     44  C   UNL A   1      43.514  27.009  30.552  1.00  0.00     0.029 A 
ATOM     45  N   UNL A   1      45.026  25.420  30.116  1.00  0.00    -0.354 N 
ATOM     46  C   UNL A   1      40.379  27.772  28.118  1.00  0.00     0.074 A 
ATOM     47  C   UNL A   1      39.778  26.581  27.567  1.00  0.00     0.031 C 
ATOM     48  C   UNL A   1      44.691  27.412  31.058  1.00  0.00     0.029 A 
ATOM     49  C   UNL A   1      45.717  26.601  30.425  1.00  0.00     0.049 A 
ATOM     50  H   UNL A   1      45.372  24.501  30.161  1.00  0.00     0.167 HD
ATOM     51  C   UNL A   1      39.908  28.969  28.576  1.00  0.00     0.031 A 
ATOM     52  C   UNL A   1      46.761  27.108  29.698  1.00  0.00     0.031 A 
ATOM     53  C   UNL A   1      40.984  29.798  29.125  1.00  0.00     0.049 A 
ATOM     54  C   UNL A   1      46.513  28.524  29.192  1.00  0.00     0.074 A 
ATOM     55  C   UNL A   1      41.373  30.104  30.419  1.00  0.00     0.029 A 
ATOM     56  N   UNL A   1      42.022  30.209  28.295  1.00  0.00    -0.354 N 
ATOM     57  N   UNL A   1      45.328  29.069  29.127  1.00  0.00    -0.248 NA
ATOM     58  C   UNL A   1      47.551  29.411  28.667  1.00  0.00     0.031 C 
ATOM     59  C   UNL A   1      42.696  30.619  30.368  1.00  0.00     0.029 A 
ATOM     60  C   UNL A   1      43.093  30.657  29.043  1.00  0.00     0.049 A 
ATOM     61  H   UNL A   1      41.996  30.183  27.311  1.00  0.00     0.167 HD
ATOM     62  C   UNL A   1      45.418  30.321  28.583  1.00  0.00     0.074 A 
ATOM     63  C   UNL A   1      46.834  30.496  28.316  1.00  0.00     0.031 C 
ATOM     64  C   UNL A   1      44.315  31.101  28.384  1.00  0.00     0.031 A 
BRANCH  51  65
ATOM     65  C   UNL A   1      38.437  29.256  28.813  1.00  0.00    -0.014 A 
ATOM     66  C   UNL A   1      37.646  29.741  27.754  1.00  0.00     0.009 A 
ATOM     67  C   UNL A   1      37.785  29.155  30.053  1.00  0.00     0.009 A 
ATOM     68  C   UNL A   1      36.330  30.193  27.945  1.00  0.00     0.001 A 
ATOM     69  C   UNL A   1      36.482  29.629  30.263  1.00  0.00     0.001 A 
ATOM     70  C   UNL A   1      35.757  30.163  29.209  1.00  0.00     0.000 A 
ENDBRANCH  51  65
BRANCH  52  71
ATOM     71  C   UNL A   1      47.568  26.097  28.968  1.00  0.00    -0.014 A 
ATOM     72  C   UNL A   1      47.265  25.842  27.617  1.00  0.00     0.009 A 
ATOM     73  C   UNL A   1      48.801  25.661  29.472  1.00  0.00     0.009 A 
ATOM     74  C   UNL A   1      48.220  25.282  26.762  1.00  0.00     0.001 A 
ATOM     75  C   UNL A   1      49.751  25.091  28.615  1.00  0.00     0.001 A 
ATOM     76  C   UNL A   1      49.475  24.938  27.256  1.00  0.00     0.000 A 
ENDBRANCH  52  71
BRANCH  64  77
ATOM     77  C   UNL A   1      44.272  32.390  27.603  1.00  0.00    -0.014 A 
ATOM     78  C   UNL A   1      44.394  32.470  26.210  1.00  0.00     0.009 A 
ATOM     79  C   UNL A   1      43.943  33.587  28.282  1.00  0.00     0.009 A 
ATOM     80  C   UNL A   1      44.237  33.690  25.536  1.00  0.00     0.001 A 
ATOM     81  C   UNL A   1      43.742  34.794  27.610  1.00  0.00     0.001 A 
ATOM     82  C   UNL A   1      43.900  34.848  26.233  1.00  0.00     0.000 A 
ENDBRANCH  64  77
ENDBRANCH  38  39
ENDBRANCH  30  33
ENDBRANCH  28  29
ENDBRANCH  27  28
ENDBRANCH   1  27
TORSDOF 14
ENDMDL
MODEL 2
REMARK VINA RESULT:     -12.0      3.826      8.790
REMARK SMILES Cc1cc(C(=O)NCCCCNC(=O)c2ccc(-c3c4nc(c(-c5ccccc5)c5ccc([nH]5)c(-c5ccccc5)c5nc(c(-c6ccccc6)c6ccc3[nH]6)C=C5)C=C4)cc2)ccc1NS(=O)(=O)c1c(F)cccc1F
REMARK SMILES IDX 9 1 8 2 7 3 5 4 6 5 4 7 1 8 2 9 3 10 65 11 64 12 63 13 66 14
REMARK SMILES IDX 67 16 68 17 69 18 70 19 71 20 76 21 72 22 73 23 75 24 77 25
REMARK SMILES IDX 74 26 10 27 11 28 12 29 13 30 14 32 15 33 16 34 62 35 17 36
REMARK SMILES IDX 61 37 18 38 19 39 20 40 55 41 21 42 60 43 54 44 56 45 22 46
REMARK SMILES IDX 59 47 53 48 52 49 23 51 45 52 30 53 44 54 31 55 34 56 43 57
REMARK SMILES IDX 57 58 32 59 33 60 42 62 58 63 35 64 24 65 25 66 29 67 26 68
REMARK SMILES IDX 28 69 27 70 46 71 47 72 51 73 48 74 50 75 49 76 36 77 37 78
REMARK SMILES IDX 41 79 38 80 40 81 39 82
REMARK H PARENT 7 6 66 15 12 31 56 50 34 61
REMARK Flexibility Score: inf
ROOT
ATOM      1  C   UNL A   1      34.481  29.281  27.104  1.00  0.00     0.023 C 
ENDROOT
BRANCH   1   2
ATOM      2  C   UNL A   1      33.898  28.270  26.108  1.00  0.00     0.116 C 
BRANCH   2   3
ATOM      3  N   UNL A   1      34.073  28.636  24.707  1.00  0.00    -0.352 N 
ATOM      4  C   UNL A   1      33.633  28.094  23.521  1.00  0.00     0.251 C 
ATOM      5  O   UNL A   1      33.989  28.634  22.474  1.00  0.00    -0.269 OA
ATOM      6  H   UNL A   1      34.625  29.441  24.584  1.00  0.00     0.163 HD
BRANCH   4   7
ATOM      7  C   UNL A   1      32.828  26.845  23.441  1.00  0.00     0.040 A 
ATOM      8  C   UNL A   1      33.334  23.396  21.931  1.00  0.00     0.046 C 
ATOM      9  C   UNL A   1      32.779  24.487  22.808  1.00  0.00    -0.026 A 
ATOM     10  C   UNL A   1      33.386  25.754  22.763  1.00  0.00     0.019 A 
ATOM     11  C   UNL A   1      31.656  24.312  23.629  1.00  0.00     0.052 A 
ATOM     12  C   UNL A   1      30.952  25.443  24.044  1.00  0.00     0.028 A 
ATOM     13  C   UNL A   1      31.538  26.711  23.948  1.00  0.00     0.016 A 
BRANCH  11  14
ATOM     14  N   UNL A   1      31.387  22.998  24.112  1.00  0.00    -0.279 N 
ATOM     15  H   UNL A   1      30.719  22.478  23.609  1.00  0.00     0.180 HD
BRANCH  14  16
ATOM     16  S   UNL A   1      32.073  22.239  25.435  1.00  0.00     0.267 S 
ATOM     17  O   UNL A   1      31.596  22.971  26.602  1.00  0.00    -0.201 OA
ATOM     18  O   UNL A   1      31.796  20.838  25.265  1.00  0.00    -0.201 OA
BRANCH  16  19
ATOM     19  C   UNL A   1      33.815  22.421  25.378  1.00  0.00     0.158 A 
ATOM     20  C   UNL A   1      34.562  21.338  24.928  1.00  0.00     0.146 A 
ATOM     21  C   UNL A   1      34.476  23.537  25.868  1.00  0.00     0.146 A 
ATOM     22  F   UNL A   1      33.973  20.278  24.358  1.00  0.00    -0.205 F 
ATOM     23  C   UNL A   1      35.950  21.324  25.051  1.00  0.00     0.041 A 
ATOM     24  C   UNL A   1      35.865  23.524  26.021  1.00  0.00     0.041 A 
ATOM     25  F   UNL A   1      33.816  24.642  26.239  1.00  0.00    -0.205 F 
ATOM     26  C   UNL A   1      36.605  22.407  25.630  1.00  0.00     0.006 A 
ENDBRANCH  16  19
ENDBRANCH  14  16
ENDBRANCH  11  14
ENDBRANCH   4   7
ENDBRANCH   2   3
ENDBRANCH   1   2
BRANCH   1  27
ATOM     27  C   UNL A   1      33.698  30.587  27.270  1.00  0.00     0.023 C 
BRANCH  27  28
ATOM     28  C   UNL A   1      34.509  31.759  27.819  1.00  0.00     0.116 C 
BRANCH  28  29
ATOM     29  N   UNL A   1      33.730  32.880  28.338  1.00  0.00    -0.352 N 
ATOM     30  C   UNL A   1      34.039  33.782  29.346  1.00  0.00     0.251 C 
ATOM     31  H   UNL A   1      32.854  33.015  27.909  1.00  0.00     0.163 HD
ATOM     32  O   UNL A   1      33.201  34.609  29.696  1.00  0.00    -0.269 OA
BRANCH  30  33
ATOM     33  C   UNL A   1      35.421  33.864  29.890  1.00  0.00     0.039 A 
ATOM     34  C   UNL A   1      36.441  34.253  29.011  1.00  0.00     0.014 A 
ATOM     35  C   UNL A   1      35.747  33.318  31.125  1.00  0.00     0.014 A 
ATOM     36  C   UNL A   1      37.738  33.795  29.227  1.00  0.00     0.010 A 
ATOM     37  C   UNL A   1      36.999  32.760  31.284  1.00  0.00     0.010 A 
ATOM     38  C   UNL A   1      37.959  32.915  30.283  1.00  0.00    -0.014 A 
BRANCH  38  39
ATOM     39  C   UNL A   1      39.073  31.973  30.311  1.00  0.00     0.031 A 
ATOM     40  C   UNL A   1      38.875  30.567  29.891  1.00  0.00     0.074 A 
ATOM     41  C   UNL A   1      40.313  32.435  30.603  1.00  0.00     0.049 A 
ATOM     42  N   UNL A   1      39.649  29.589  30.229  1.00  0.00    -0.248 NA
ATOM     43  C   UNL A   1      37.737  30.136  29.082  1.00  0.00     0.031 C 
ATOM     44  C   UNL A   1      41.579  31.726  30.407  1.00  0.00     0.029 A 
ATOM     45  N   UNL A   1      40.711  33.589  31.288  1.00  0.00    -0.354 N 
ATOM     46  C   UNL A   1      39.327  28.516  29.430  1.00  0.00     0.074 A 
ATOM     47  C   UNL A   1      38.059  28.864  28.833  1.00  0.00     0.031 C 
ATOM     48  C   UNL A   1      42.504  32.268  31.216  1.00  0.00     0.029 A 
ATOM     49  C   UNL A   1      41.808  33.209  32.075  1.00  0.00     0.049 A 
ATOM     50  H   UNL A   1      40.305  34.484  31.228  1.00  0.00     0.167 HD
ATOM     51  C   UNL A   1      40.251  27.532  29.228  1.00  0.00     0.031 A 
ATOM     52  C   UNL A   1      41.802  33.144  33.443  1.00  0.00     0.031 A 
ATOM     53  C   UNL A   1      41.430  27.716  30.078  1.00  0.00     0.049 A 
ATOM     54  C   UNL A   1      42.161  31.765  33.984  1.00  0.00     0.074 A 
ATOM     55  C   UNL A   1      42.711  28.182  29.828  1.00  0.00     0.029 A 
ATOM     56  N   UNL A   1      41.287  27.681  31.461  1.00  0.00    -0.354 N 
ATOM     57  N   UNL A   1      42.122  30.676  33.264  1.00  0.00    -0.248 NA
ATOM     58  C   UNL A   1      42.530  31.489  35.373  1.00  0.00     0.031 C 
ATOM     59  C   UNL A   1      43.306  28.516  31.073  1.00  0.00     0.029 A 
ATOM     60  C   UNL A   1      42.401  28.220  32.077  1.00  0.00     0.049 A 
ATOM     61  H   UNL A   1      40.502  27.323  31.934  1.00  0.00     0.167 HD
ATOM     62  C   UNL A   1      42.444  29.594  34.037  1.00  0.00     0.074 A 
ATOM     63  C   UNL A   1      42.699  30.153  35.352  1.00  0.00     0.031 C 
ATOM     64  C   UNL A   1      42.457  28.326  33.530  1.00  0.00     0.031 A 
BRANCH  51  65
ATOM     65  C   UNL A   1      40.224  26.587  28.040  1.00  0.00    -0.014 A 
ATOM     66  C   UNL A   1      39.507  25.378  28.132  1.00  0.00     0.009 A 
ATOM     67  C   UNL A   1      40.939  26.774  26.845  1.00  0.00     0.009 A 
ATOM     68  C   UNL A   1      39.584  24.383  27.144  1.00  0.00     0.001 A 
ATOM     69  C   UNL A   1      41.046  25.776  25.865  1.00  0.00     0.001 A 
ATOM     70  C   UNL A   1      40.379  24.571  26.022  1.00  0.00     0.000 A 
ENDBRANCH  51  65
BRANCH  52  71
ATOM     71  C   UNL A   1      40.859  34.076  34.113  1.00  0.00    -0.014 A 
ATOM     72  C   UNL A   1      39.683  33.551  34.681  1.00  0.00     0.009 A 
ATOM     73  C   UNL A   1      41.265  35.365  34.485  1.00  0.00     0.009 A 
ATOM     74  C   UNL A   1      39.003  34.243  35.687  1.00  0.00     0.001 A 
ATOM     75  C   UNL A   1      40.575  36.060  35.487  1.00  0.00     0.001 A 
ATOM     76  C   UNL A   1      39.470  35.484  36.114  1.00  0.00     0.000 A 
ENDBRANCH  52  71
BRANCH  64  77
ATOM     77  C   UNL A   1      42.582  27.054  34.330  1.00  0.00    -0.014 A 
ATOM     78  C   UNL A   1      41.623  26.603  35.245  1.00  0.00     0.009 A 
ATOM     79  C   UNL A   1      43.653  26.175  34.047  1.00  0.00     0.009 A 
ATOM     80  C   UNL A   1      41.749  25.357  35.877  1.00  0.00     0.001 A 
ATOM     81  C   UNL A   1      43.759  24.915  34.641  1.00  0.00     0.001 A 
ATOM     82  C   UNL A   1      42.810  24.509  35.566  1.00  0.00     0.000 A 
ENDBRANCH  64  77
ENDBRANCH  38  39
ENDBRANCH  30  33
ENDBRANCH  28  29
ENDBRANCH  27  28
ENDBRANCH   1  27
TORSDOF 14
ENDMDL
MODEL 3
REMARK VINA RESULT:     -11.9      3.374      8.553
REMARK SMILES Cc1cc(C(=O)NCCCCNC(=O)c2ccc(-c3c4nc(c(-c5ccccc5)c5ccc([nH]5)c(-c5ccccc5)c5nc(c(-c6ccccc6)c6ccc3[nH]6)C=C5)C=C4)cc2)ccc1NS(=O)(=O)c1c(F)cccc1F
REMARK SMILES IDX 9 1 8 2 7 3 5 4 6 5 4 7 1 8 2 9 3 10 65 11 64 12 63 13 66 14
REMARK SMILES IDX 67 16 68 17 69 18 70 19 71 20 76 21 72 22 73 23 75 24 77 25
REMARK SMILES IDX 74 26 10 27 11 28 12 29 13 30 14 32 15 33 16 34 62 35 17 36
REMARK SMILES IDX 61 37 18 38 19 39 20 40 55 41 21 42 60 43 54 44 56 45 22 46
REMARK SMILES IDX 59 47 53 48 52 49 23 51 45 52 30 53 44 54 31 55 34 56 43 57
REMARK SMILES IDX 57 58 32 59 33 60 42 62 58 63 35 64 24 65 25 66 29 67 26 68
REMARK SMILES IDX 28 69 27 70 46 71 47 72 51 73 48 74 50 75 49 76 36 77 37 78
REMARK SMILES IDX 41 79 38 80 40 81 39 82
REMARK H PARENT 7 6 66 15 12 31 56 50 34 61
REMARK Flexibility Score: inf
ROOT
ATOM      1  C   UNL A   1      34.051  28.850  26.471  1.00  0.00     0.023 C 
ENDROOT
BRANCH   1   2
ATOM      2  C   UNL A   1      32.827  28.605  25.579  1.00  0.00     0.116 C 
BRANCH   2   3
ATOM      3  N   UNL A   1      31.828  27.714  26.157  1.00  0.00    -0.352 N 
ATOM      4  C   UNL A   1      31.623  26.354  26.105  1.00  0.00     0.251 C 
ATOM      5  O   UNL A   1      30.643  25.897  26.691  1.00  0.00    -0.269 OA
ATOM      6  H   UNL A   1      31.156  28.187  26.698  1.00  0.00     0.163 HD
BRANCH   4   7
ATOM      7  C   UNL A   1      32.473  25.429  25.308  1.00  0.00     0.040 A 
ATOM      8  C   UNL A   1      36.074  24.232  25.496  1.00  0.00     0.046 C 
ATOM      9  C   UNL A   1      34.613  24.263  25.136  1.00  0.00    -0.026 A 
ATOM     10  C   UNL A   1      33.804  25.257  25.713  1.00  0.00     0.019 A 
ATOM     11  C   UNL A   1      34.032  23.379  24.217  1.00  0.00     0.052 A 
ATOM     12  C   UNL A   1      32.828  23.742  23.612  1.00  0.00     0.028 A 
ATOM     13  C   UNL A   1      32.049  24.770  24.158  1.00  0.00     0.016 A 
BRANCH  11  14
ATOM     14  N   UNL A   1      34.631  22.094  24.064  1.00  0.00    -0.279 N 
ATOM     15  H   UNL A   1      35.012  21.894  23.178  1.00  0.00     0.180 HD
BRANCH  14  16
ATOM     16  S   UNL A   1      34.760  20.887  25.214  1.00  0.00     0.267 S 
ATOM     17  O   UNL A   1      36.188  20.666  25.397  1.00  0.00    -0.201 OA
ATOM     18  O   UNL A   1      33.921  21.301  26.306  1.00  0.00    -0.201 OA
BRANCH  16  19
ATOM     19  C   UNL A   1      34.076  19.401  24.585  1.00  0.00     0.158 A 
ATOM     20  C   UNL A   1      34.926  18.310  24.443  1.00  0.00     0.146 A 
ATOM     21  C   UNL A   1      32.773  19.304  24.118  1.00  0.00     0.146 A 
ATOM     22  F   UNL A   1      36.161  18.320  24.962  1.00  0.00    -0.205 F 
ATOM     23  C   UNL A   1      34.517  17.166  23.759  1.00  0.00     0.041 A 
ATOM     24  C   UNL A   1      32.361  18.174  23.408  1.00  0.00     0.041 A 
ATOM     25  F   UNL A   1      31.884  20.289  24.299  1.00  0.00    -0.205 F 
ATOM     26  C   UNL A   1      33.240  17.109  23.209  1.00  0.00     0.006 A 
ENDBRANCH  16  19
ENDBRANCH  14  16
ENDBRANCH  11  14
ENDBRANCH   4   7
ENDBRANCH   2   3
ENDBRANCH   1   2
BRANCH   1  27
ATOM     27  C   UNL A   1      33.843  29.809  27.647  1.00  0.00     0.023 C 
BRANCH  27  28
ATOM     28  C   UNL A   1      34.135  31.276  27.340  1.00  0.00     0.116 C 
BRANCH  28  29
ATOM     29  N   UNL A   1      34.904  31.994  28.352  1.00  0.00    -0.352 N 
ATOM     30  C   UNL A   1      35.981  31.566  29.114  1.00  0.00     0.251 C 
ATOM     31  H   UNL A   1      34.614  32.921  28.520  1.00  0.00     0.163 HD
ATOM     32  O   UNL A   1      36.439  32.303  29.985  1.00  0.00    -0.269 OA
BRANCH  30  33
ATOM     33  C   UNL A   1      36.688  30.300  28.781  1.00  0.00     0.039 A 
ATOM     34  C   UNL A   1      36.800  29.336  29.792  1.00  0.00     0.014 A 
ATOM     35  C   UNL A   1      37.447  30.176  27.623  1.00  0.00     0.014 A 
ATOM     36  C   UNL A   1      37.886  28.465  29.785  1.00  0.00     0.010 A 
ATOM     37  C   UNL A   1      38.588  29.403  27.669  1.00  0.00     0.010 A 
ATOM     38  C   UNL A   1      38.855  28.627  28.798  1.00  0.00    -0.014 A 
BRANCH  38  39
ATOM     39  C   UNL A   1      40.236  28.188  28.963  1.00  0.00     0.031 A 
ATOM     40  C   UNL A   1      40.673  26.873  28.439  1.00  0.00     0.074 A 
ATOM     41  C   UNL A   1      41.139  29.052  29.489  1.00  0.00     0.049 A 
ATOM     42  N   UNL A   1      41.718  26.235  28.849  1.00  0.00    -0.248 NA
ATOM     43  C   UNL A   1      39.921  26.138  27.424  1.00  0.00     0.031 C 
ATOM     44  C   UNL A   1      42.596  28.912  29.473  1.00  0.00     0.029 A 
ATOM     45  N   UNL A   1      40.948  30.181  30.294  1.00  0.00    -0.354 N 
ATOM     46  C   UNL A   1      41.962  25.223  27.948  1.00  0.00     0.074 A 
ATOM     47  C   UNL A   1      40.753  25.126  27.164  1.00  0.00     0.031 C 
ATOM     48  C   UNL A   1      43.111  29.667  30.457  1.00  0.00     0.029 A 
ATOM     49  C   UNL A   1      41.988  30.160  31.236  1.00  0.00     0.049 A 
ATOM     50  H   UNL A   1      40.232  30.851  30.216  1.00  0.00     0.167 HD
ATOM     51  C   UNL A   1      43.219  24.700  27.853  1.00  0.00     0.031 A 
ATOM     52  C   UNL A   1      41.824  29.936  32.576  1.00  0.00     0.031 A 
ATOM     53  C   UNL A   1      44.100  25.221  28.901  1.00  0.00     0.049 A 
ATOM     54  C   UNL A   1      42.624  28.747  33.093  1.00  0.00     0.074 A 
ATOM     55  C   UNL A   1      45.111  26.168  28.901  1.00  0.00     0.029 A 
ATOM     56  N   UNL A   1      43.797  24.970  30.236  1.00  0.00    -0.354 N 
ATOM     57  N   UNL A   1      43.119  27.820  32.318  1.00  0.00    -0.248 NA
ATOM     58  C   UNL A   1      42.881  28.471  34.507  1.00  0.00     0.031 C 
ATOM     59  C   UNL A   1      45.349  26.555  30.246  1.00  0.00     0.029 A 
ATOM     60  C   UNL A   1      44.510  25.818  31.062  1.00  0.00     0.049 A 
ATOM     61  H   UNL A   1      43.163  24.285  30.547  1.00  0.00     0.167 HD
ATOM     62  C   UNL A   1      43.737  26.861  33.074  1.00  0.00     0.074 A 
ATOM     63  C   UNL A   1      43.568  27.315  34.442  1.00  0.00     0.031 C 
ATOM     64  C   UNL A   1      44.322  25.765  32.507  1.00  0.00     0.031 A 
BRANCH  51  65
ATOM     65  C   UNL A   1      43.731  23.965  26.628  1.00  0.00    -0.014 A 
ATOM     66  C   UNL A   1      43.577  22.568  26.543  1.00  0.00     0.009 A 
ATOM     67  C   UNL A   1      44.441  24.558  25.571  1.00  0.00     0.009 A 
ATOM     68  C   UNL A   1      44.179  21.807  25.529  1.00  0.00     0.001 A 
ATOM     69  C   UNL A   1      45.071  23.805  24.569  1.00  0.00     0.001 A 
ATOM     70  C   UNL A   1      44.952  22.425  24.556  1.00  0.00     0.000 A 
ENDBRANCH  51  65
BRANCH  52  71
ATOM     71  C   UNL A   1      40.506  30.349  33.125  1.00  0.00    -0.014 A 
ATOM     72  C   UNL A   1      40.215  31.723  33.217  1.00  0.00     0.009 A 
ATOM     73  C   UNL A   1      39.449  29.433  33.223  1.00  0.00     0.009 A 
ATOM     74  C   UNL A   1      38.893  32.173  33.277  1.00  0.00     0.001 A 
ATOM     75  C   UNL A   1      38.126  29.887  33.293  1.00  0.00     0.001 A 
ATOM     76  C   UNL A   1      37.847  31.254  33.280  1.00  0.00     0.000 A 
ENDBRANCH  52  71
BRANCH  64  77
ATOM     77  C   UNL A   1      44.832  24.553  33.245  1.00  0.00    -0.014 A 
ATOM     78  C   UNL A   1      46.135  24.425  33.741  1.00  0.00     0.009 A 
ATOM     79  C   UNL A   1      43.915  23.534  33.595  1.00  0.00     0.009 A 
ATOM     80  C   UNL A   1      46.514  23.316  34.513  1.00  0.00     0.001 A 
ATOM     81  C   UNL A   1      44.277  22.451  34.400  1.00  0.00     0.001 A 
ATOM     82  C   UNL A   1      45.583  22.337  34.851  1.00  0.00     0.000 A 
ENDBRANCH  64  77
ENDBRANCH  38  39
ENDBRANCH  30  33
ENDBRANCH  28  29
ENDBRANCH  27  28
ENDBRANCH   1  27
TORSDOF 14
ENDMDL
