MODEL 1
REMARK VINA RESULT:     -11.7      0.000      0.000
REMARK SMILES C[C@H](NC(=O)c1ccc(C(C)(C)C)cc1)C(=O)N[C@@H](C(=O)NCCCCNC(=O)c1ccc(-c2c3nc(c(-c4ccccc4)c4ccc([nH]4)c(-c4ccccc4)c4nc(c(-c5ccccc5)c5ccc2[nH]5)C=C4)C=C3)cc1)[C@H](C)O
REMARK SMILES IDX 23 1 22 2 20 3 21 4 19 6 18 7 16 8 17 9 2 11 1 12 3 13 4 14
REMARK SMILES IDX 5 16 6 17 7 18 15 19 8 20 14 21 9 22 10 23 11 24 12 25 13 26
REMARK SMILES IDX 78 27 79 28 80 29 24 31 25 32 26 33 27 34 28 35 29 37 30 38
REMARK SMILES IDX 31 39 77 40 32 41 76 42 33 43 34 44 35 45 70 46 36 47 75 48
REMARK SMILES IDX 69 49 71 50 37 51 74 52 68 53 67 54 38 56 60 57 45 58 59 59
REMARK SMILES IDX 46 60 49 61 58 62 72 63 47 64 48 65 57 67 73 68 50 69 39 70
REMARK SMILES IDX 40 71 44 72 41 73 43 74 42 75 61 76 62 77 66 78 63 79 65 80
REMARK SMILES IDX 64 81 51 82 52 83 56 84 53 85 55 86 54 87
REMARK H PARENT 22 5 18 10 3 15 80 30 27 36 71 55 49 66
REMARK Flexibility Score: inf
ROOT
ATOM      1  C   UNL A   1      32.613  29.646  25.825  1.00  0.00     0.116 C 
ENDROOT
BRANCH   1   2
ATOM      2  N   UNL A   1      33.447  29.610  24.645  1.00  0.00    -0.354 N 
ATOM      3  C   UNL A   1      33.379  28.741  23.591  1.00  0.00     0.245 C 
ATOM      4  O   UNL A   1      34.118  28.961  22.627  1.00  0.00    -0.273 OA
ATOM      5  H   UNL A   1      34.152  30.295  24.595  1.00  0.00     0.163 HD
BRANCH   3   6
ATOM      6  C   UNL A   1      32.341  27.578  23.594  1.00  0.00     0.200 C 
BRANCH   6   7
ATOM      7  N   UNL A   1      32.930  26.407  22.923  1.00  0.00    -0.340 N 
ATOM      8  C   UNL A   1      33.728  25.401  23.374  1.00  0.00     0.243 C 
ATOM      9  O   UNL A   1      34.260  24.689  22.515  1.00  0.00    -0.273 OA
ATOM     10  H   UNL A   1      32.703  26.339  21.966  1.00  0.00     0.164 HD
BRANCH   8  11
ATOM     11  C   UNL A   1      34.061  25.194  24.868  1.00  0.00     0.168 C 
ATOM     12  C   UNL A   1      35.261  24.277  25.036  1.00  0.00     0.041 C 
BRANCH  11  13
ATOM     13  N   UNL A   1      32.810  24.927  25.595  1.00  0.00    -0.341 N 
ATOM     14  C   UNL A   1      31.910  23.897  25.568  1.00  0.00     0.251 C 
ATOM     15  H   UNL A   1      32.570  25.638  26.231  1.00  0.00     0.164 HD
ATOM     16  O   UNL A   1      30.735  24.095  25.871  1.00  0.00    -0.269 OA
BRANCH  14  17
ATOM     17  C   UNL A   1      32.361  22.546  25.216  1.00  0.00     0.039 A 
ATOM     18  C   UNL A   1      32.950  21.725  26.173  1.00  0.00     0.014 A 
ATOM     19  C   UNL A   1      32.171  22.095  23.912  1.00  0.00     0.014 A 
ATOM     20  C   UNL A   1      33.234  20.396  25.845  1.00  0.00     0.005 A 
ATOM     21  C   UNL A   1      32.451  20.766  23.595  1.00  0.00     0.005 A 
ATOM     22  C   UNL A   1      32.938  19.875  24.568  1.00  0.00    -0.043 A 
BRANCH  22  23
ATOM     23  C   UNL A   1      33.142  18.381  24.262  1.00  0.00    -0.013 C 
ATOM     24  C   UNL A   1      32.625  18.082  22.844  1.00  0.00     0.016 C 
ATOM     25  C   UNL A   1      34.641  18.010  24.352  1.00  0.00     0.016 C 
ATOM     26  C   UNL A   1      32.402  17.449  25.252  1.00  0.00     0.016 C 
ENDBRANCH  22  23
ENDBRANCH  14  17
ENDBRANCH  11  13
ENDBRANCH   8  11
ENDBRANCH   6   7
BRANCH   6  27
ATOM     27  C   UNL A   1      31.008  28.031  22.938  1.00  0.00     0.143 C 
ATOM     28  C   UNL A   1      29.751  27.518  23.638  1.00  0.00     0.041 C 
BRANCH  27  29
ATOM     29  O   UNL A   1      30.957  27.683  21.552  1.00  0.00    -0.391 OA
ATOM     30  H   UNL A   1      30.279  28.218  21.109  1.00  0.00     0.211 HD
ENDBRANCH  27  29
ENDBRANCH   6  27
ENDBRANCH   3   6
ENDBRANCH   1   2
BRANCH   1  31
ATOM     31  C   UNL A   1      31.496  30.677  25.708  1.00  0.00     0.023 C 
BRANCH  31  32
ATOM     32  C   UNL A   1      31.433  31.645  26.888  1.00  0.00     0.023 C 
BRANCH  32  33
ATOM     33  C   UNL A   1      32.681  32.502  27.080  1.00  0.00     0.116 C 
BRANCH  33  34
ATOM     34  N   UNL A   1      32.397  33.849  27.549  1.00  0.00    -0.352 N 
ATOM     35  C   UNL A   1      33.094  34.598  28.464  1.00  0.00     0.251 C 
ATOM     36  H   UNL A   1      31.601  34.278  27.161  1.00  0.00     0.163 HD
ATOM     37  O   UNL A   1      32.659  35.687  28.839  1.00  0.00    -0.269 OA
BRANCH  35  38
ATOM     38  C   UNL A   1      34.351  34.071  29.031  1.00  0.00     0.039 A 
ATOM     39  C   UNL A   1      34.288  33.250  30.158  1.00  0.00     0.014 A 
ATOM     40  C   UNL A   1      35.584  34.361  28.438  1.00  0.00     0.014 A 
ATOM     41  C   UNL A   1      35.455  32.670  30.655  1.00  0.00     0.010 A 
ATOM     42  C   UNL A   1      36.734  33.719  28.885  1.00  0.00     0.010 A 
ATOM     43  C   UNL A   1      36.684  32.873  30.002  1.00  0.00    -0.014 A 
BRANCH  43  44
ATOM     44  C   UNL A   1      37.919  32.212  30.488  1.00  0.00     0.031 A 
ATOM     45  C   UNL A   1      38.680  32.783  31.652  1.00  0.00     0.074 A 
ATOM     46  C   UNL A   1      38.379  31.114  29.857  1.00  0.00     0.049 A 
ATOM     47  N   UNL A   1      39.768  32.336  32.227  1.00  0.00    -0.248 NA
ATOM     48  C   UNL A   1      38.167  34.035  32.233  1.00  0.00     0.031 C 
ATOM     49  C   UNL A   1      37.766  30.491  28.681  1.00  0.00     0.029 A 
ATOM     50  N   UNL A   1      39.469  30.322  30.120  1.00  0.00    -0.354 N 
ATOM     51  C   UNL A   1      40.075  33.255  33.222  1.00  0.00     0.074 A 
ATOM     52  C   UNL A   1      39.094  34.314  33.137  1.00  0.00     0.031 C 
ATOM     53  C   UNL A   1      38.465  29.392  28.351  1.00  0.00     0.029 A 
ATOM     54  C   UNL A   1      39.589  29.249  29.271  1.00  0.00     0.049 A 
ATOM     55  H   UNL A   1      40.104  30.506  30.850  1.00  0.00     0.167 HD
ATOM     56  C   UNL A   1      41.068  33.211  34.141  1.00  0.00     0.031 A 
ATOM     57  C   UNL A   1      40.495  28.255  29.243  1.00  0.00     0.031 A 
ATOM     58  C   UNL A   1      42.037  32.152  34.236  1.00  0.00     0.049 A 
ATOM     59  C   UNL A   1      41.579  28.219  30.284  1.00  0.00     0.074 A 
ATOM     60  C   UNL A   1      43.049  31.988  35.165  1.00  0.00     0.029 A 
ATOM     61  N   UNL A   1      42.113  31.075  33.366  1.00  0.00    -0.354 N 
ATOM     62  N   UNL A   1      41.808  29.055  31.267  1.00  0.00    -0.248 NA
ATOM     63  C   UNL A   1      42.516  27.088  30.221  1.00  0.00     0.031 C 
ATOM     64  C   UNL A   1      43.765  30.834  34.833  1.00  0.00     0.029 A 
ATOM     65  C   UNL A   1      43.164  30.251  33.729  1.00  0.00     0.049 A 
ATOM     66  H   UNL A   1      41.509  30.920  32.604  1.00  0.00     0.167 HD
ATOM     67  C   UNL A   1      42.892  28.534  31.961  1.00  0.00     0.074 A 
ATOM     68  C   UNL A   1      43.265  27.304  31.293  1.00  0.00     0.031 C 
ATOM     69  C   UNL A   1      43.521  29.029  33.055  1.00  0.00     0.031 A 
BRANCH  56  70
ATOM     70  C   UNL A   1      41.151  34.348  35.121  1.00  0.00    -0.014 A 
ATOM     71  C   UNL A   1      40.474  34.298  36.351  1.00  0.00     0.009 A 
ATOM     72  C   UNL A   1      41.935  35.473  34.823  1.00  0.00     0.009 A 
ATOM     73  C   UNL A   1      40.550  35.368  37.245  1.00  0.00     0.001 A 
ATOM     74  C   UNL A   1      42.034  36.528  35.733  1.00  0.00     0.001 A 
ATOM     75  C   UNL A   1      41.334  36.479  36.937  1.00  0.00     0.000 A 
ENDBRANCH  56  70
BRANCH  57  76
ATOM     76  C   UNL A   1      40.394  27.184  28.217  1.00  0.00    -0.014 A 
ATOM     77  C   UNL A   1      41.031  27.330  26.974  1.00  0.00     0.009 A 
ATOM     78  C   UNL A   1      39.661  26.016  28.471  1.00  0.00     0.009 A 
ATOM     79  C   UNL A   1      40.909  26.339  25.996  1.00  0.00     0.001 A 
ATOM     80  C   UNL A   1      39.565  25.015  27.502  1.00  0.00     0.001 A 
ATOM     81  C   UNL A   1      40.180  25.182  26.262  1.00  0.00     0.000 A 
ENDBRANCH  57  76
BRANCH  69  82
ATOM     82  C   UNL A   1      44.647  28.214  33.625  1.00  0.00    -0.014 A 
ATOM     83  C   UNL A   1      45.982  28.458  33.265  1.00  0.00     0.009 A 
ATOM     84  C   UNL A   1      44.367  27.207  34.562  1.00  0.00     0.009 A 
ATOM     85  C   UNL A   1      47.010  27.681  33.803  1.00  0.00     0.001 A 
ATOM     86  C   UNL A   1      45.398  26.451  35.120  1.00  0.00     0.001 A 
ATOM     87  C   UNL A   1      46.718  26.682  34.732  1.00  0.00     0.000 A 
ENDBRANCH  69  82
ENDBRANCH  43  44
ENDBRANCH  35  38
ENDBRANCH  33  34
ENDBRANCH  32  33
ENDBRANCH  31  32
ENDBRANCH   1  31
TORSDOF 18
ENDMDL
MODEL 2
REMARK VINA RESULT:     -11.6      0.764      5.833
REMARK SMILES C[C@H](NC(=O)c1ccc(C(C)(C)C)cc1)C(=O)N[C@@H](C(=O)NCCCCNC(=O)c1ccc(-c2c3nc(c(-c4ccccc4)c4ccc([nH]4)c(-c4ccccc4)c4nc(c(-c5ccccc5)c5ccc2[nH]5)C=C4)C=C3)cc1)[C@H](C)O
REMARK SMILES IDX 23 1 22 2 20 3 21 4 19 6 18 7 16 8 17 9 2 11 1 12 3 13 4 14
REMARK SMILES IDX 5 16 6 17 7 18 15 19 8 20 14 21 9 22 10 23 11 24 12 25 13 26
REMARK SMILES IDX 78 27 79 28 80 29 24 31 25 32 26 33 27 34 28 35 29 37 30 38
REMARK SMILES IDX 31 39 77 40 32 41 76 42 33 43 34 44 35 45 70 46 36 47 75 48
REMARK SMILES IDX 69 49 71 50 37 51 74 52 68 53 67 54 38 56 60 57 45 58 59 59
REMARK SMILES IDX 46 60 49 61 58 62 72 63 47 64 48 65 57 67 73 68 50 69 39 70
REMARK SMILES IDX 40 71 44 72 41 73 43 74 42 75 61 76 62 77 66 78 63 79 65 80
REMARK SMILES IDX 64 81 51 82 52 83 56 84 53 85 55 86 54 87
REMARK H PARENT 22 5 18 10 3 15 80 30 27 36 71 55 49 66
REMARK Flexibility Score: inf
ROOT
ATOM      1  C   UNL A   1      33.033  29.198  25.600  1.00  0.00     0.116 C 
ENDROOT
BRANCH   1   2
ATOM      2  N   UNL A   1      33.769  29.208  24.357  1.00  0.00    -0.354 N 
ATOM      3  C   UNL A   1      33.608  28.388  23.274  1.00  0.00     0.245 C 
ATOM      4  O   UNL A   1      34.272  28.646  22.265  1.00  0.00    -0.273 OA
ATOM      5  H   UNL A   1      34.476  29.889  24.281  1.00  0.00     0.163 HD
BRANCH   3   6
ATOM      6  C   UNL A   1      32.561  27.235  23.309  1.00  0.00     0.200 C 
BRANCH   6   7
ATOM      7  N   UNL A   1      33.192  25.998  22.821  1.00  0.00    -0.340 N 
ATOM      8  C   UNL A   1      33.942  25.048  23.443  1.00  0.00     0.243 C 
ATOM      9  O   UNL A   1      34.537  24.246  22.714  1.00  0.00    -0.273 OA
ATOM     10  H   UNL A   1      33.044  25.824  21.862  1.00  0.00     0.164 HD
BRANCH   8  11
ATOM     11  C   UNL A   1      34.151  25.007  24.974  1.00  0.00     0.168 C 
ATOM     12  C   UNL A   1      35.376  24.183  25.334  1.00  0.00     0.041 C 
BRANCH  11  13
ATOM     13  N   UNL A   1      32.855  24.738  25.616  1.00  0.00    -0.341 N 
ATOM     14  C   UNL A   1      31.949  23.717  25.512  1.00  0.00     0.251 C 
ATOM     15  H   UNL A   1      32.583  25.438  26.251  1.00  0.00     0.164 HD
ATOM     16  O   UNL A   1      30.760  23.922  25.747  1.00  0.00    -0.269 OA
BRANCH  14  17
ATOM     17  C   UNL A   1      32.408  22.370  25.160  1.00  0.00     0.039 A 
ATOM     18  C   UNL A   1      33.058  21.576  26.100  1.00  0.00     0.014 A 
ATOM     19  C   UNL A   1      32.165  21.893  23.875  1.00  0.00     0.014 A 
ATOM     20  C   UNL A   1      33.352  20.247  25.781  1.00  0.00     0.005 A 
ATOM     21  C   UNL A   1      32.455  20.565  23.565  1.00  0.00     0.005 A 
ATOM     22  C   UNL A   1      33.005  19.699  24.527  1.00  0.00    -0.043 A 
BRANCH  22  23
ATOM     23  C   UNL A   1      33.223  18.204  24.236  1.00  0.00    -0.013 C 
ATOM     24  C   UNL A   1      32.456  17.372  25.279  1.00  0.00     0.016 C 
ATOM     25  C   UNL A   1      32.715  17.849  22.819  1.00  0.00     0.016 C 
ATOM     26  C   UNL A   1      34.712  17.785  24.284  1.00  0.00     0.016 C 
ENDBRANCH  22  23
ENDBRANCH  14  17
ENDBRANCH  11  13
ENDBRANCH   8  11
ENDBRANCH   6   7
BRANCH   6  27
ATOM     27  C   UNL A   1      31.295  27.618  22.492  1.00  0.00     0.143 C 
ATOM     28  C   UNL A   1      29.980  27.459  23.252  1.00  0.00     0.041 C 
BRANCH  27  29
ATOM     29  O   UNL A   1      31.225  26.898  21.260  1.00  0.00    -0.391 OA
ATOM     30  H   UNL A   1      30.345  27.014  20.867  1.00  0.00     0.211 HD
ENDBRANCH  27  29
ENDBRANCH   6  27
ENDBRANCH   3   6
ENDBRANCH   1   2
BRANCH   1  31
ATOM     31  C   UNL A   1      31.776  30.059  25.530  1.00  0.00     0.023 C 
BRANCH  31  32
ATOM     32  C   UNL A   1      31.629  31.020  26.709  1.00  0.00     0.023 C 
BRANCH  32  33
ATOM     33  C   UNL A   1      32.825  31.941  26.936  1.00  0.00     0.116 C 
BRANCH  33  34
ATOM     34  N   UNL A   1      32.457  33.272  27.392  1.00  0.00    -0.352 N 
ATOM     35  C   UNL A   1      33.119  34.084  28.278  1.00  0.00     0.251 C 
ATOM     36  H   UNL A   1      31.623  33.638  27.017  1.00  0.00     0.163 HD
ATOM     37  O   UNL A   1      32.617  35.145  28.648  1.00  0.00    -0.269 OA
BRANCH  35  38
ATOM     38  C   UNL A   1      34.423  33.656  28.824  1.00  0.00     0.039 A 
ATOM     39  C   UNL A   1      34.447  32.909  30.003  1.00  0.00     0.014 A 
ATOM     40  C   UNL A   1      35.615  33.964  28.160  1.00  0.00     0.014 A 
ATOM     41  C   UNL A   1      35.660  32.420  30.486  1.00  0.00     0.010 A 
ATOM     42  C   UNL A   1      36.813  33.408  28.597  1.00  0.00     0.010 A 
ATOM     43  C   UNL A   1      36.850  32.636  29.768  1.00  0.00    -0.014 A 
BRANCH  43  44
ATOM     44  C   UNL A   1      38.136  32.068  30.241  1.00  0.00     0.031 A 
ATOM     45  C   UNL A   1      38.637  30.761  29.693  1.00  0.00     0.074 A 
ATOM     46  C   UNL A   1      38.837  32.712  31.194  1.00  0.00     0.049 A 
ATOM     47  N   UNL A   1      39.744  30.119  29.973  1.00  0.00    -0.248 NA
ATOM     48  C   UNL A   1      37.772  30.071  28.722  1.00  0.00     0.031 C 
ATOM     49  C   UNL A   1      38.434  33.960  31.849  1.00  0.00     0.029 A 
ATOM     50  N   UNL A   1      40.043  32.409  31.775  1.00  0.00    -0.354 N 
ATOM     51  C   UNL A   1      39.700  28.949  29.226  1.00  0.00     0.074 A 
ATOM     52  C   UNL A   1      38.434  28.941  28.525  1.00  0.00     0.031 C 
ATOM     53  C   UNL A   1      39.394  34.335  32.710  1.00  0.00     0.029 A 
ATOM     54  C   UNL A   1      40.465  33.343  32.690  1.00  0.00     0.049 A 
ATOM     55  H   UNL A   1      40.558  31.598  31.556  1.00  0.00     0.167 HD
ATOM     56  C   UNL A   1      40.638  27.979  29.111  1.00  0.00     0.031 A 
ATOM     57  C   UNL A   1      41.592  33.400  33.423  1.00  0.00     0.031 A 
ATOM     58  C   UNL A   1      41.903  27.992  29.796  1.00  0.00     0.049 A 
ATOM     59  C   UNL A   1      42.626  32.320  33.266  1.00  0.00     0.074 A 
ATOM     60  C   UNL A   1      42.943  27.084  29.704  1.00  0.00     0.029 A 
ATOM     61  N   UNL A   1      42.297  28.965  30.701  1.00  0.00    -0.354 N 
ATOM     62  N   UNL A   1      42.603  31.260  32.496  1.00  0.00    -0.248 NA
ATOM     63  C   UNL A   1      43.851  32.459  34.066  1.00  0.00     0.031 C 
ATOM     64  C   UNL A   1      43.951  27.485  30.587  1.00  0.00     0.029 A 
ATOM     65  C   UNL A   1      43.560  28.671  31.186  1.00  0.00     0.049 A 
ATOM     66  H   UNL A   1      41.759  29.749  30.960  1.00  0.00     0.167 HD
ATOM     67  C   UNL A   1      43.822  30.624  32.691  1.00  0.00     0.074 A 
ATOM     68  C   UNL A   1      44.564  31.425  33.643  1.00  0.00     0.031 C 
ATOM     69  C   UNL A   1      44.286  29.481  32.131  1.00  0.00     0.031 A 
BRANCH  56  70
ATOM     70  C   UNL A   1      40.325  26.821  28.205  1.00  0.00    -0.014 A 
ATOM     71  C   UNL A   1      40.771  26.799  26.874  1.00  0.00     0.009 A 
ATOM     72  C   UNL A   1      39.596  25.726  28.695  1.00  0.00     0.009 A 
ATOM     73  C   UNL A   1      40.460  25.722  26.040  1.00  0.00     0.001 A 
ATOM     74  C   UNL A   1      39.315  24.636  27.868  1.00  0.00     0.001 A 
ATOM     75  C   UNL A   1      39.738  24.640  26.540  1.00  0.00     0.000 A 
ENDBRANCH  56  70
BRANCH  57  76
ATOM     76  C   UNL A   1      41.825  34.544  34.342  1.00  0.00    -0.014 A 
ATOM     77  C   UNL A   1      41.418  34.470  35.684  1.00  0.00     0.009 A 
ATOM     78  C   UNL A   1      42.450  35.714  33.887  1.00  0.00     0.009 A 
ATOM     79  C   UNL A   1      41.606  35.557  36.541  1.00  0.00     0.001 A 
ATOM     80  C   UNL A   1      42.662  36.788  34.753  1.00  0.00     0.001 A 
ATOM     81  C   UNL A   1      42.230  36.713  36.076  1.00  0.00     0.000 A 
ENDBRANCH  57  76
BRANCH  69  82
ATOM     82  C   UNL A   1      45.679  29.054  32.499  1.00  0.00    -0.014 A 
ATOM     83  C   UNL A   1      45.920  28.194  33.582  1.00  0.00     0.009 A 
ATOM     84  C   UNL A   1      46.764  29.497  31.726  1.00  0.00     0.009 A 
ATOM     85  C   UNL A   1      47.225  27.819  33.907  1.00  0.00     0.001 A 
ATOM     86  C   UNL A   1      48.065  29.098  32.035  1.00  0.00     0.001 A 
ATOM     87  C   UNL A   1      48.295  28.268  33.132  1.00  0.00     0.000 A 
ENDBRANCH  69  82
ENDBRANCH  43  44
ENDBRANCH  35  38
ENDBRANCH  33  34
ENDBRANCH  32  33
ENDBRANCH  31  32
ENDBRANCH   1  31
TORSDOF 18
ENDMDL
MODEL 3
REMARK VINA RESULT:     -11.3      0.689      5.725
REMARK SMILES C[C@H](NC(=O)c1ccc(C(C)(C)C)cc1)C(=O)N[C@@H](C(=O)NCCCCNC(=O)c1ccc(-c2c3nc(c(-c4ccccc4)c4ccc([nH]4)c(-c4ccccc4)c4nc(c(-c5ccccc5)c5ccc2[nH]5)C=C4)C=C3)cc1)[C@H](C)O
REMARK SMILES IDX 23 1 22 2 20 3 21 4 19 6 18 7 16 8 17 9 2 11 1 12 3 13 4 14
REMARK SMILES IDX 5 16 6 17 7 18 15 19 8 20 14 21 9 22 10 23 11 24 12 25 13 26
REMARK SMILES IDX 78 27 79 28 80 29 24 31 25 32 26 33 27 34 28 35 29 37 30 38
REMARK SMILES IDX 31 39 77 40 32 41 76 42 33 43 34 44 35 45 70 46 36 47 75 48
REMARK SMILES IDX 69 49 71 50 37 51 74 52 68 53 67 54 38 56 60 57 45 58 59 59
REMARK SMILES IDX 46 60 49 61 58 62 72 63 47 64 48 65 57 67 73 68 50 69 39 70
REMARK SMILES IDX 40 71 44 72 41 73 43 74 42 75 61 76 62 77 66 78 63 79 65 80
REMARK SMILES IDX 64 81 51 82 52 83 56 84 53 85 55 86 54 87
REMARK H PARENT 22 5 18 10 3 15 80 30 27 36 71 55 49 66
REMARK Flexibility Score: inf
ROOT
ATOM      1  C   UNL A   1      32.354  29.745  25.705  1.00  0.00     0.116 C 
ENDROOT
BRANCH   1   2
ATOM      2  N   UNL A   1      33.112  29.689  24.476  1.00  0.00    -0.354 N 
ATOM      3  C   UNL A   1      33.099  28.710  23.521  1.00  0.00     0.245 C 
ATOM      4  O   UNL A   1      33.743  28.918  22.488  1.00  0.00    -0.273 OA
ATOM      5  H   UNL A   1      33.713  30.450  24.306  1.00  0.00     0.163 HD
BRANCH   3   6
ATOM      6  C   UNL A   1      32.231  27.431  23.716  1.00  0.00     0.200 C 
BRANCH   6   7
ATOM      7  N   UNL A   1      32.865  26.307  23.006  1.00  0.00    -0.340 N 
ATOM      8  C   UNL A   1      33.713  25.327  23.419  1.00  0.00     0.243 C 
ATOM      9  O   UNL A   1      34.267  24.665  22.535  1.00  0.00    -0.273 OA
ATOM     10  H   UNL A   1      32.630  26.255  22.050  1.00  0.00     0.164 HD
BRANCH   8  11
ATOM     11  C   UNL A   1      34.074  25.094  24.904  1.00  0.00     0.168 C 
ATOM     12  C   UNL A   1      35.277  24.175  25.034  1.00  0.00     0.041 C 
BRANCH  11  13
ATOM     13  N   UNL A   1      32.836  24.815  25.648  1.00  0.00    -0.341 N 
ATOM     14  C   UNL A   1      31.936  23.785  25.619  1.00  0.00     0.251 C 
ATOM     15  H   UNL A   1      32.608  25.514  26.301  1.00  0.00     0.164 HD
ATOM     16  O   UNL A   1      30.767  23.978  25.948  1.00  0.00    -0.269 OA
BRANCH  14  17
ATOM     17  C   UNL A   1      32.379  22.441  25.236  1.00  0.00     0.039 A 
ATOM     18  C   UNL A   1      32.994  21.607  26.164  1.00  0.00     0.014 A 
ATOM     19  C   UNL A   1      32.156  22.008  23.931  1.00  0.00     0.014 A 
ATOM     20  C   UNL A   1      33.272  20.284  25.810  1.00  0.00     0.005 A 
ATOM     21  C   UNL A   1      32.430  20.686  23.586  1.00  0.00     0.005 A 
ATOM     22  C   UNL A   1      32.943  19.781  24.532  1.00  0.00    -0.043 A 
BRANCH  22  23
ATOM     23  C   UNL A   1      33.142  18.292  24.199  1.00  0.00    -0.013 C 
ATOM     24  C   UNL A   1      32.601  18.017  22.785  1.00  0.00     0.016 C 
ATOM     25  C   UNL A   1      34.642  17.919  24.258  1.00  0.00     0.016 C 
ATOM     26  C   UNL A   1      32.418  17.344  25.185  1.00  0.00     0.016 C 
ENDBRANCH  22  23
ENDBRANCH  14  17
ENDBRANCH  11  13
ENDBRANCH   8  11
ENDBRANCH   6   7
BRANCH   6  27
ATOM     27  C   UNL A   1      30.771  27.682  23.248  1.00  0.00     0.143 C 
ATOM     28  C   UNL A   1      29.809  26.528  23.526  1.00  0.00     0.041 C 
BRANCH  27  29
ATOM     29  O   UNL A   1      30.713  28.026  21.861  1.00  0.00    -0.391 OA
ATOM     30  H   UNL A   1      30.959  28.958  21.749  1.00  0.00     0.211 HD
ENDBRANCH  27  29
ENDBRANCH   6  27
ENDBRANCH   3   6
ENDBRANCH   1   2
BRANCH   1  31
ATOM     31  C   UNL A   1      31.420  30.950  25.749  1.00  0.00     0.023 C 
BRANCH  31  32
ATOM     32  C   UNL A   1      31.511  31.744  27.050  1.00  0.00     0.023 C 
BRANCH  32  33
ATOM     33  C   UNL A   1      32.738  32.644  27.166  1.00  0.00     0.116 C 
BRANCH  33  34
ATOM     34  N   UNL A   1      32.423  34.013  27.543  1.00  0.00    -0.352 N 
ATOM     35  C   UNL A   1      33.048  34.806  28.473  1.00  0.00     0.251 C 
ATOM     36  H   UNL A   1      31.664  34.423  27.071  1.00  0.00     0.163 HD
ATOM     37  O   UNL A   1      32.589  35.913  28.757  1.00  0.00    -0.269 OA
BRANCH  35  38
ATOM     38  C   UNL A   1      34.252  34.307  29.167  1.00  0.00     0.039 A 
ATOM     39  C   UNL A   1      34.095  33.585  30.352  1.00  0.00     0.014 A 
ATOM     40  C   UNL A   1      35.527  34.522  28.636  1.00  0.00     0.014 A 
ATOM     41  C   UNL A   1      35.212  33.029  30.974  1.00  0.00     0.010 A 
ATOM     42  C   UNL A   1      36.630  33.900  29.212  1.00  0.00     0.010 A 
ATOM     43  C   UNL A   1      36.486  33.153  30.391  1.00  0.00    -0.014 A 
BRANCH  43  44
ATOM     44  C   UNL A   1      37.671  32.513  31.013  1.00  0.00     0.031 A 
ATOM     45  C   UNL A   1      38.279  31.282  30.400  1.00  0.00     0.074 A 
ATOM     46  C   UNL A   1      38.180  33.020  32.152  1.00  0.00     0.049 A 
ATOM     47  N   UNL A   1      39.324  30.596  30.791  1.00  0.00    -0.248 NA
ATOM     48  C   UNL A   1      37.613  30.733  29.207  1.00  0.00     0.031 C 
ATOM     49  C   UNL A   1      37.649  34.177  32.879  1.00  0.00     0.029 A 
ATOM     50  N   UNL A   1      39.263  32.630  32.899  1.00  0.00    -0.354 N 
ATOM     51  C   UNL A   1      39.430  29.533  29.904  1.00  0.00     0.074 A 
ATOM     52  C   UNL A   1      38.314  29.630  28.990  1.00  0.00     0.031 C 
ATOM     53  C   UNL A   1      38.432  34.426  33.941  1.00  0.00     0.029 A 
ATOM     54  C   UNL A   1      39.500  33.432  33.988  1.00  0.00     0.049 A 
ATOM     55  H   UNL A   1      39.818  31.848  32.674  1.00  0.00     0.167 HD
ATOM     56  C   UNL A   1      40.385  28.575  29.837  1.00  0.00     0.031 A 
ATOM     57  C   UNL A   1      40.474  33.381  34.915  1.00  0.00     0.031 A 
ATOM     58  C   UNL A   1      41.504  28.484  30.737  1.00  0.00     0.049 A 
ATOM     59  C   UNL A   1      41.532  32.318  34.811  1.00  0.00     0.074 A 
ATOM     60  C   UNL A   1      42.554  27.583  30.719  1.00  0.00     0.029 A 
ATOM     61  N   UNL A   1      41.716  29.327  31.816  1.00  0.00    -0.354 N 
ATOM     62  N   UNL A   1      41.662  31.367  33.918  1.00  0.00    -0.248 NA
ATOM     63  C   UNL A   1      42.589  32.337  35.831  1.00  0.00     0.031 C 
ATOM     64  C   UNL A   1      43.380  27.854  31.815  1.00  0.00     0.029 A 
ATOM     65  C   UNL A   1      42.872  28.958  32.482  1.00  0.00     0.049 A 
ATOM     66  H   UNL A   1      41.130  30.077  32.072  1.00  0.00     0.167 HD
ATOM     67  C   UNL A   1      42.833  30.696  34.248  1.00  0.00     0.074 A 
ATOM     68  C   UNL A   1      43.380  31.359  35.415  1.00  0.00     0.031 C 
ATOM     69  C   UNL A   1      43.405  29.629  33.639  1.00  0.00     0.031 A 
BRANCH  56  70
ATOM     70  C   UNL A   1      40.256  27.547  28.748  1.00  0.00    -0.014 A 
ATOM     71  C   UNL A   1      39.537  26.358  28.953  1.00  0.00     0.009 A 
ATOM     72  C   UNL A   1      40.838  27.780  27.493  1.00  0.00     0.009 A 
ATOM     73  C   UNL A   1      39.438  25.406  27.935  1.00  0.00     0.001 A 
ATOM     74  C   UNL A   1      40.710  26.841  26.467  1.00  0.00     0.001 A 
ATOM     75  C   UNL A   1      40.019  25.652  26.692  1.00  0.00     0.000 A 
ENDBRANCH  56  70
BRANCH  57  76
ATOM     76  C   UNL A   1      40.522  34.393  36.001  1.00  0.00    -0.014 A 
ATOM     77  C   UNL A   1      41.214  35.600  35.817  1.00  0.00     0.009 A 
ATOM     78  C   UNL A   1      39.883  34.159  37.228  1.00  0.00     0.009 A 
ATOM     79  C   UNL A   1      41.289  36.539  36.849  1.00  0.00     0.001 A 
ATOM     80  C   UNL A   1      39.935  35.111  38.248  1.00  0.00     0.001 A 
ATOM     81  C   UNL A   1      40.646  36.295  38.062  1.00  0.00     0.000 A 
ENDBRANCH  57  76
BRANCH  69  82
ATOM     82  C   UNL A   1      44.713  29.142  34.196  1.00  0.00    -0.014 A 
ATOM     83  C   UNL A   1      45.937  29.668  33.756  1.00  0.00     0.009 A 
ATOM     84  C   UNL A   1      44.714  28.163  35.202  1.00  0.00     0.009 A 
ATOM     85  C   UNL A   1      47.139  29.192  34.284  1.00  0.00     0.001 A 
ATOM     86  C   UNL A   1      45.915  27.710  35.749  1.00  0.00     0.001 A 
ATOM     87  C   UNL A   1      47.126  28.217  35.281  1.00  0.00     0.000 A 
ENDBRANCH  69  82
ENDBRANCH  43  44
ENDBRANCH  35  38
ENDBRANCH  33  34
ENDBRANCH  32  33
ENDBRANCH  31  32
ENDBRANCH   1  31
TORSDOF 18
ENDMDL
