MODEL 1
REMARK VINA RESULT:     -12.8      0.000      0.000
REMARK SMILES [NH2+]=C1S[C@@H](C(=O)Nc2ccc(C(=O)NCCCCNC(=O)c3ccc(-c4c5nc(c(-c6ccccc6)c6ccc([nH]6)c(-c6ccccc6)c6nc(c(-c7ccccc7)c7ccc4[nH]7)C=C6)C=C5)cc3)cc2)CC(=O)N1/N=C/c1ccc(Cl)cc1
REMARK SMILES IDX 15 1 14 2 12 3 13 4 11 6 8 7 9 8 71 9 10 10 70 11 7 12 5 13
REMARK SMILES IDX 6 14 4 16 1 17 2 18 3 21 75 22 73 23 72 24 74 25 76 26 77 27
REMARK SMILES IDX 78 28 79 29 84 30 80 31 83 32 81 33 82 34 16 35 17 36 18 37
REMARK SMILES IDX 19 38 20 39 21 41 22 42 23 43 69 44 24 45 68 46 25 47 26 48
REMARK SMILES IDX 27 49 62 50 28 51 67 52 61 53 63 54 29 55 66 56 60 57 59 58
REMARK SMILES IDX 30 60 52 61 37 62 51 63 38 64 41 65 50 66 64 67 39 68 40 69
REMARK SMILES IDX 49 71 65 72 42 73 31 74 32 75 36 76 33 77 35 78 34 79 53 80
REMARK SMILES IDX 54 81 58 82 55 83 57 84 56 85 43 86 44 87 48 88 45 89 47 90
REMARK SMILES IDX 46 91
REMARK H PARENT 14 5 7 15 1 19 1 20 19 40 63 59 41 70
REMARK Flexibility Score: inf
ROOT
ATOM      1  C   UNL A   1      36.214  21.848  25.569  1.00  0.00     0.116 C 
ENDROOT
BRANCH   1   2
ATOM      2  N   UNL A   1      35.333  21.459  26.663  1.00  0.00    -0.352 N 
ATOM      3  C   UNL A   1      34.212  22.077  27.159  1.00  0.00     0.251 C 
ATOM      4  O   UNL A   1      33.481  21.462  27.932  1.00  0.00    -0.269 OA
ATOM      5  H   UNL A   1      35.580  20.621  27.117  1.00  0.00     0.163 HD
BRANCH   3   6
ATOM      6  C   UNL A   1      33.822  23.434  26.714  1.00  0.00     0.039 A 
ATOM      7  C   UNL A   1      32.950  25.861  25.668  1.00  0.00     0.041 A 
ATOM      8  C   UNL A   1      32.054  25.050  26.361  1.00  0.00     0.027 A 
ATOM      9  C   UNL A   1      34.306  25.542  25.641  1.00  0.00     0.027 A 
ATOM     10  C   UNL A   1      32.483  23.817  26.855  1.00  0.00     0.016 A 
ATOM     11  C   UNL A   1      34.746  24.335  26.184  1.00  0.00     0.016 A 
BRANCH   7  12
ATOM     12  N   UNL A   1      32.477  27.036  25.093  1.00  0.00    -0.325 N 
ATOM     13  C   UNL A   1      32.636  27.528  23.833  1.00  0.00     0.238 C 
ATOM     14  O   UNL A   1      32.467  28.746  23.685  1.00  0.00    -0.273 OA
ATOM     15  H   UNL A   1      31.940  27.602  25.694  1.00  0.00     0.169 HD
BRANCH  13  16
ATOM     16  C   UNL A   1      32.781  26.633  22.587  1.00  0.00     0.160 C 
ATOM     17  N   UNL A   1      30.149  24.219  23.740  1.00  0.00    -0.279 N 
ATOM     18  C   UNL A   1      31.242  24.492  23.114  1.00  0.00     0.338 C 
ATOM     19  H   UNL A   1      29.374  24.820  23.662  1.00  0.00     0.302 HD
ATOM     20  H   UNL A   1      30.091  23.409  24.297  1.00  0.00     0.302 HD
ATOM     21  S   UNL A   1      31.192  25.916  22.129  1.00  0.00    -0.022 SA
ATOM     22  N   UNL A   1      32.411  23.729  23.137  1.00  0.00    -0.057 N 
ATOM     23  C   UNL A   1      33.664  24.170  22.684  1.00  0.00     0.337 C 
ATOM     24  C   UNL A   1      33.902  25.648  22.421  1.00  0.00     0.155 C 
ATOM     25  O   UNL A   1      34.622  23.410  22.475  1.00  0.00    -0.244 OA
BRANCH  22  26
ATOM     26  N   UNL A   1      32.446  22.391  23.594  1.00  0.00    -0.082 NA
ATOM     27  C   UNL A   1      32.197  21.396  22.810  1.00  0.00     0.167 C 
BRANCH  27  28
ATOM     28  C   UNL A   1      32.390  20.007  23.273  1.00  0.00    -0.003 A 
ATOM     29  C   UNL A   1      32.593  19.811  24.642  1.00  0.00     0.011 A 
ATOM     30  C   UNL A   1      32.392  18.923  22.395  1.00  0.00     0.011 A 
ATOM     31  C   UNL A   1      32.771  18.517  25.138  1.00  0.00     0.021 A 
ATOM     32  C   UNL A   1      32.568  17.628  22.894  1.00  0.00     0.021 A 
ATOM     33  C   UNL A   1      32.754  17.431  24.264  1.00  0.00     0.041 A 
ATOM     34  Cl  UNL A   1      32.967  15.839  24.880  1.00  0.00    -0.084 Cl
ENDBRANCH  27  28
ENDBRANCH  22  26
ENDBRANCH  13  16
ENDBRANCH   7  12
ENDBRANCH   3   6
ENDBRANCH   1   2
BRANCH   1  35
ATOM     35  C   UNL A   1      36.360  20.713  24.560  1.00  0.00     0.023 C 
BRANCH  35  36
ATOM     36  C   UNL A   1      37.450  19.708  24.943  1.00  0.00     0.023 C 
BRANCH  36  37
ATOM     37  C   UNL A   1      38.681  20.343  25.589  1.00  0.00     0.116 C 
BRANCH  37  38
ATOM     38  N   UNL A   1      39.787  19.402  25.713  1.00  0.00    -0.352 N 
ATOM     39  C   UNL A   1      41.095  19.621  26.057  1.00  0.00     0.251 C 
ATOM     40  H   UNL A   1      39.558  18.464  25.520  1.00  0.00     0.163 HD
ATOM     41  O   UNL A   1      41.931  18.727  25.902  1.00  0.00    -0.269 OA
BRANCH  39  42
ATOM     42  C   UNL A   1      41.521  20.927  26.599  1.00  0.00     0.039 A 
ATOM     43  C   UNL A   1      42.052  21.883  25.728  1.00  0.00     0.014 A 
ATOM     44  C   UNL A   1      41.424  21.205  27.965  1.00  0.00     0.014 A 
ATOM     45  C   UNL A   1      42.418  23.140  26.216  1.00  0.00     0.010 A 
ATOM     46  C   UNL A   1      41.717  22.482  28.436  1.00  0.00     0.010 A 
ATOM     47  C   UNL A   1      42.216  23.464  27.567  1.00  0.00    -0.014 A 
BRANCH  47  48
ATOM     48  C   UNL A   1      42.516  24.822  28.088  1.00  0.00     0.031 A 
ATOM     49  C   UNL A   1      43.914  25.180  28.517  1.00  0.00     0.074 A 
ATOM     50  C   UNL A   1      41.520  25.718  28.229  1.00  0.00     0.049 A 
ATOM     51  N   UNL A   1      44.353  26.290  29.057  1.00  0.00    -0.248 NA
ATOM     52  C   UNL A   1      44.949  24.151  28.334  1.00  0.00     0.031 C 
ATOM     53  C   UNL A   1      40.116  25.490  27.876  1.00  0.00     0.029 A 
ATOM     54  N   UNL A   1      41.535  27.003  28.715  1.00  0.00    -0.354 N 
ATOM     55  C   UNL A   1      45.709  26.089  29.284  1.00  0.00     0.074 A 
ATOM     56  C   UNL A   1      46.009  24.734  28.875  1.00  0.00     0.031 C 
ATOM     57  C   UNL A   1      39.413  26.607  28.127  1.00  0.00     0.029 A 
ATOM     58  C   UNL A   1      40.302  27.611  28.702  1.00  0.00     0.049 A 
ATOM     59  H   UNL A   1      42.351  27.446  29.041  1.00  0.00     0.167 HD
ATOM     60  C   UNL A   1      46.627  26.959  29.768  1.00  0.00     0.031 A 
ATOM     61  C   UNL A   1      39.929  28.837  29.115  1.00  0.00     0.031 A 
ATOM     62  C   UNL A   1      46.333  28.307  30.177  1.00  0.00     0.049 A 
ATOM     63  C   UNL A   1      40.960  29.765  29.695  1.00  0.00     0.074 A 
ATOM     64  C   UNL A   1      47.203  29.273  30.651  1.00  0.00     0.029 A 
ATOM     65  N   UNL A   1      45.070  28.878  30.158  1.00  0.00    -0.354 N 
ATOM     66  N   UNL A   1      42.248  29.576  29.853  1.00  0.00    -0.248 NA
ATOM     67  C   UNL A   1      40.485  31.081  30.144  1.00  0.00     0.031 C 
ATOM     68  C   UNL A   1      46.458  30.415  30.966  1.00  0.00     0.029 A 
ATOM     69  C   UNL A   1      45.135  30.178  30.632  1.00  0.00     0.049 A 
ATOM     70  H   UNL A   1      44.250  28.428  29.854  1.00  0.00     0.167 HD
ATOM     71  C   UNL A   1      42.740  30.760  30.387  1.00  0.00     0.074 A 
ATOM     72  C   UNL A   1      41.617  31.665  30.511  1.00  0.00     0.031 C 
ATOM     73  C   UNL A   1      44.010  31.070  30.741  1.00  0.00     0.031 A 
BRANCH  60  74
ATOM     74  C   UNL A   1      48.047  26.475  29.881  1.00  0.00    -0.014 A 
ATOM     75  C   UNL A   1      48.502  25.835  31.045  1.00  0.00     0.009 A 
ATOM     76  C   UNL A   1      48.928  26.622  28.798  1.00  0.00     0.009 A 
ATOM     77  C   UNL A   1      49.821  25.383  31.135  1.00  0.00     0.001 A 
ATOM     78  C   UNL A   1      50.236  26.143  28.881  1.00  0.00     0.001 A 
ATOM     79  C   UNL A   1      50.685  25.533  30.052  1.00  0.00     0.000 A 
ENDBRANCH  60  74
BRANCH  61  80
ATOM     80  C   UNL A   1      38.512  29.273  28.991  1.00  0.00    -0.014 A 
ATOM     81  C   UNL A   1      38.032  29.788  27.776  1.00  0.00     0.009 A 
ATOM     82  C   UNL A   1      37.643  29.208  30.090  1.00  0.00     0.009 A 
ATOM     83  C   UNL A   1      36.721  30.261  27.676  1.00  0.00     0.001 A 
ATOM     84  C   UNL A   1      36.324  29.653  29.978  1.00  0.00     0.001 A 
ATOM     85  C   UNL A   1      35.868  30.191  28.776  1.00  0.00     0.000 A 
ENDBRANCH  61  80
BRANCH  73  86
ATOM     86  C   UNL A   1      44.262  32.462  31.251  1.00  0.00    -0.014 A 
ATOM     87  C   UNL A   1      44.564  33.518  30.377  1.00  0.00     0.009 A 
ATOM     88  C   UNL A   1      44.162  32.725  32.626  1.00  0.00     0.009 A 
ATOM     89  C   UNL A   1      44.794  34.802  30.875  1.00  0.00     0.001 A 
ATOM     90  C   UNL A   1      44.361  34.014  33.118  1.00  0.00     0.001 A 
ATOM     91  C   UNL A   1      44.687  35.050  32.243  1.00  0.00     0.000 A 
ENDBRANCH  73  86
ENDBRANCH  47  48
ENDBRANCH  39  42
ENDBRANCH  37  38
ENDBRANCH  36  37
ENDBRANCH  35  36
ENDBRANCH   1  35
TORSDOF 15
ENDMDL
MODEL 2
REMARK VINA RESULT:     -12.6      0.395      5.659
REMARK SMILES [NH2+]=C1S[C@@H](C(=O)Nc2ccc(C(=O)NCCCCNC(=O)c3ccc(-c4c5nc(c(-c6ccccc6)c6ccc([nH]6)c(-c6ccccc6)c6nc(c(-c7ccccc7)c7ccc4[nH]7)C=C6)C=C5)cc3)cc2)CC(=O)N1/N=C/c1ccc(Cl)cc1
REMARK SMILES IDX 15 1 14 2 12 3 13 4 11 6 8 7 9 8 71 9 10 10 70 11 7 12 5 13
REMARK SMILES IDX 6 14 4 16 1 17 2 18 3 21 75 22 73 23 72 24 74 25 76 26 77 27
REMARK SMILES IDX 78 28 79 29 84 30 80 31 83 32 81 33 82 34 16 35 17 36 18 37
REMARK SMILES IDX 19 38 20 39 21 41 22 42 23 43 69 44 24 45 68 46 25 47 26 48
REMARK SMILES IDX 27 49 62 50 28 51 67 52 61 53 63 54 29 55 66 56 60 57 59 58
REMARK SMILES IDX 30 60 52 61 37 62 51 63 38 64 41 65 50 66 64 67 39 68 40 69
REMARK SMILES IDX 49 71 65 72 42 73 31 74 32 75 36 76 33 77 35 78 34 79 53 80
REMARK SMILES IDX 54 81 58 82 55 83 57 84 56 85 43 86 44 87 48 88 45 89 47 90
REMARK SMILES IDX 46 91
REMARK H PARENT 14 5 7 15 1 19 1 20 19 40 63 59 41 70
REMARK Flexibility Score: inf
ROOT
ATOM      1  C   UNL A   1      35.696  21.849  25.631  1.00  0.00     0.116 C 
ENDROOT
BRANCH   1   2
ATOM      2  N   UNL A   1      34.899  21.622  26.830  1.00  0.00    -0.352 N 
ATOM      3  C   UNL A   1      33.859  22.351  27.351  1.00  0.00     0.251 C 
ATOM      4  O   UNL A   1      33.171  21.859  28.243  1.00  0.00    -0.269 OA
ATOM      5  H   UNL A   1      35.144  20.820  27.346  1.00  0.00     0.163 HD
BRANCH   3   6
ATOM      6  C   UNL A   1      33.497  23.677  26.803  1.00  0.00     0.039 A 
ATOM      7  C   UNL A   1      32.699  26.035  25.558  1.00  0.00     0.041 A 
ATOM      8  C   UNL A   1      31.754  25.252  26.219  1.00  0.00     0.027 A 
ATOM      9  C   UNL A   1      34.054  25.729  25.659  1.00  0.00     0.027 A 
ATOM     10  C   UNL A   1      32.149  24.053  26.813  1.00  0.00     0.016 A 
ATOM     11  C   UNL A   1      34.456  24.559  26.301  1.00  0.00     0.016 A 
BRANCH   7  12
ATOM     12  N   UNL A   1      32.266  27.171  24.883  1.00  0.00    -0.325 N 
ATOM     13  C   UNL A   1      32.545  27.609  23.623  1.00  0.00     0.238 C 
ATOM     14  O   UNL A   1      32.371  28.815  23.400  1.00  0.00    -0.273 OA
ATOM     15  H   UNL A   1      31.661  27.752  25.398  1.00  0.00     0.169 HD
BRANCH  13  16
ATOM     16  C   UNL A   1      32.831  26.661  22.442  1.00  0.00     0.160 C 
ATOM     17  N   UNL A   1      30.188  24.208  23.479  1.00  0.00    -0.279 N 
ATOM     18  C   UNL A   1      31.323  24.491  22.939  1.00  0.00     0.338 C 
ATOM     19  H   UNL A   1      29.404  24.774  23.301  1.00  0.00     0.302 HD
ATOM     20  H   UNL A   1      30.106  23.424  24.069  1.00  0.00     0.302 HD
ATOM     21  S   UNL A   1      31.315  25.864  21.882  1.00  0.00    -0.022 SA
ATOM     22  N   UNL A   1      32.511  23.774  23.104  1.00  0.00    -0.057 N 
ATOM     23  C   UNL A   1      33.784  24.241  22.742  1.00  0.00     0.337 C 
ATOM     24  C   UNL A   1      33.995  25.712  22.427  1.00  0.00     0.155 C 
ATOM     25  O   UNL A   1      34.781  23.508  22.659  1.00  0.00    -0.244 OA
BRANCH  22  26
ATOM     26  N   UNL A   1      32.548  22.463  23.631  1.00  0.00    -0.082 NA
ATOM     27  C   UNL A   1      32.189  21.438  22.932  1.00  0.00     0.167 C 
BRANCH  27  28
ATOM     28  C   UNL A   1      32.383  20.069  23.452  1.00  0.00    -0.003 A 
ATOM     29  C   UNL A   1      32.430  19.030  22.517  1.00  0.00     0.011 A 
ATOM     30  C   UNL A   1      32.498  19.799  24.815  1.00  0.00     0.011 A 
ATOM     31  C   UNL A   1      32.620  17.716  22.950  1.00  0.00     0.021 A 
ATOM     32  C   UNL A   1      32.692  18.482  25.246  1.00  0.00     0.021 A 
ATOM     33  C   UNL A   1      32.756  17.447  24.311  1.00  0.00     0.041 A 
ATOM     34  Cl  UNL A   1      32.998  15.828  24.839  1.00  0.00    -0.084 Cl
ENDBRANCH  27  28
ENDBRANCH  22  26
ENDBRANCH  13  16
ENDBRANCH   7  12
ENDBRANCH   3   6
ENDBRANCH   1   2
BRANCH   1  35
ATOM     35  C   UNL A   1      36.042  20.527  24.951  1.00  0.00     0.023 C 
BRANCH  35  36
ATOM     36  C   UNL A   1      37.514  20.432  24.540  1.00  0.00     0.023 C 
BRANCH  36  37
ATOM     37  C   UNL A   1      38.496  20.661  25.689  1.00  0.00     0.116 C 
BRANCH  37  38
ATOM     38  N   UNL A   1      39.552  19.658  25.721  1.00  0.00    -0.352 N 
ATOM     39  C   UNL A   1      40.885  19.792  26.010  1.00  0.00     0.251 C 
ATOM     40  H   UNL A   1      39.262  18.743  25.502  1.00  0.00     0.163 HD
ATOM     41  O   UNL A   1      41.662  18.862  25.778  1.00  0.00    -0.269 OA
BRANCH  39  42
ATOM     42  C   UNL A   1      41.407  21.048  26.583  1.00  0.00     0.039 A 
ATOM     43  C   UNL A   1      41.920  22.025  25.724  1.00  0.00     0.014 A 
ATOM     44  C   UNL A   1      41.418  21.259  27.964  1.00  0.00     0.014 A 
ATOM     45  C   UNL A   1      42.377  23.238  26.245  1.00  0.00     0.010 A 
ATOM     46  C   UNL A   1      41.803  22.496  28.475  1.00  0.00     0.010 A 
ATOM     47  C   UNL A   1      42.285  23.499  27.622  1.00  0.00    -0.014 A 
BRANCH  47  48
ATOM     48  C   UNL A   1      42.683  24.815  28.186  1.00  0.00     0.031 A 
ATOM     49  C   UNL A   1      41.657  25.898  28.384  1.00  0.00     0.074 A 
ATOM     50  C   UNL A   1      43.977  25.056  28.468  1.00  0.00     0.049 A 
ATOM     51  N   UNL A   1      41.825  27.129  28.800  1.00  0.00    -0.248 NA
ATOM     52  C   UNL A   1      40.263  25.562  28.053  1.00  0.00     0.031 C 
ATOM     53  C   UNL A   1      45.076  24.102  28.299  1.00  0.00     0.029 A 
ATOM     54  N   UNL A   1      44.592  26.185  28.953  1.00  0.00    -0.354 N 
ATOM     55  C   UNL A   1      40.564  27.712  28.773  1.00  0.00     0.074 A 
ATOM     56  C   UNL A   1      39.651  26.721  28.249  1.00  0.00     0.031 C 
ATOM     57  C   UNL A   1      46.222  24.675  28.703  1.00  0.00     0.029 A 
ATOM     58  C   UNL A   1      45.949  26.048  29.114  1.00  0.00     0.049 A 
ATOM     59  H   UNL A   1      44.105  27.014  29.166  1.00  0.00     0.167 HD
ATOM     60  C   UNL A   1      40.195  28.954  29.169  1.00  0.00     0.031 A 
ATOM     61  C   UNL A   1      46.873  26.932  29.536  1.00  0.00     0.031 A 
ATOM     62  C   UNL A   1      41.100  29.944  29.690  1.00  0.00     0.049 A 
ATOM     63  C   UNL A   1      46.441  28.320  29.922  1.00  0.00     0.074 A 
ATOM     64  C   UNL A   1      40.814  31.219  30.145  1.00  0.00     0.029 A 
ATOM     65  N   UNL A   1      42.468  29.768  29.824  1.00  0.00    -0.354 N 
ATOM     66  N   UNL A   1      45.238  28.837  29.940  1.00  0.00    -0.248 NA
ATOM     67  C   UNL A   1      47.500  29.242  30.357  1.00  0.00     0.031 C 
ATOM     68  C   UNL A   1      42.017  31.833  30.511  1.00  0.00     0.029 A 
ATOM     69  C   UNL A   1      43.043  30.919  30.338  1.00  0.00     0.049 A 
ATOM     70  H   UNL A   1      42.959  28.947  29.590  1.00  0.00     0.167 HD
ATOM     71  C   UNL A   1      45.390  30.132  30.419  1.00  0.00     0.074 A 
ATOM     72  C   UNL A   1      46.799  30.315  30.695  1.00  0.00     0.031 C 
ATOM     73  C   UNL A   1      44.446  31.083  30.615  1.00  0.00     0.031 A 
BRANCH  60  74
ATOM     74  C   UNL A   1      38.739  29.312  29.053  1.00  0.00    -0.014 A 
ATOM     75  C   UNL A   1      38.207  29.799  27.848  1.00  0.00     0.009 A 
ATOM     76  C   UNL A   1      37.879  29.122  30.147  1.00  0.00     0.009 A 
ATOM     77  C   UNL A   1      36.852  30.121  27.751  1.00  0.00     0.001 A 
ATOM     78  C   UNL A   1      36.519  29.417  30.037  1.00  0.00     0.001 A 
ATOM     79  C   UNL A   1      36.008  29.925  28.843  1.00  0.00     0.000 A 
ENDBRANCH  60  74
BRANCH  61  80
ATOM     80  C   UNL A   1      48.305  26.538  29.629  1.00  0.00    -0.014 A 
ATOM     81  C   UNL A   1      48.805  25.954  30.804  1.00  0.00     0.009 A 
ATOM     82  C   UNL A   1      49.183  26.772  28.561  1.00  0.00     0.009 A 
ATOM     83  C   UNL A   1      50.163  25.646  30.919  1.00  0.00     0.001 A 
ATOM     84  C   UNL A   1      50.534  26.433  28.667  1.00  0.00     0.001 A 
ATOM     85  C   UNL A   1      51.025  25.883  29.850  1.00  0.00     0.000 A 
ENDBRANCH  61  80
BRANCH  73  86
ATOM     86  C   UNL A   1      44.899  32.393  31.200  1.00  0.00    -0.014 A 
ATOM     87  C   UNL A   1      44.909  32.611  32.586  1.00  0.00     0.009 A 
ATOM     88  C   UNL A   1      45.355  33.411  30.348  1.00  0.00     0.009 A 
ATOM     89  C   UNL A   1      45.335  33.836  33.104  1.00  0.00     0.001 A 
ATOM     90  C   UNL A   1      45.808  34.622  30.869  1.00  0.00     0.001 A 
ATOM     91  C   UNL A   1      45.788  34.837  32.247  1.00  0.00     0.000 A 
ENDBRANCH  73  86
ENDBRANCH  47  48
ENDBRANCH  39  42
ENDBRANCH  37  38
ENDBRANCH  36  37
ENDBRANCH  35  36
ENDBRANCH   1  35
TORSDOF 15
ENDMDL
MODEL 3
REMARK VINA RESULT:     -11.9      2.895      7.572
REMARK SMILES [NH2+]=C1S[C@@H](C(=O)Nc2ccc(C(=O)NCCCCNC(=O)c3ccc(-c4c5nc(c(-c6ccccc6)c6ccc([nH]6)c(-c6ccccc6)c6nc(c(-c7ccccc7)c7ccc4[nH]7)C=C6)C=C5)cc3)cc2)CC(=O)N1/N=C/c1ccc(Cl)cc1
REMARK SMILES IDX 15 1 14 2 12 3 13 4 11 6 8 7 9 8 71 9 10 10 70 11 7 12 5 13
REMARK SMILES IDX 6 14 4 16 1 17 2 18 3 21 75 22 73 23 72 24 74 25 76 26 77 27
REMARK SMILES IDX 78 28 79 29 84 30 80 31 83 32 81 33 82 34 16 35 17 36 18 37
REMARK SMILES IDX 19 38 20 39 21 41 22 42 23 43 69 44 24 45 68 46 25 47 26 48
REMARK SMILES IDX 27 49 62 50 28 51 67 52 61 53 63 54 29 55 66 56 60 57 59 58
REMARK SMILES IDX 30 60 52 61 37 62 51 63 38 64 41 65 50 66 64 67 39 68 40 69
REMARK SMILES IDX 49 71 65 72 42 73 31 74 32 75 36 76 33 77 35 78 34 79 53 80
REMARK SMILES IDX 54 81 58 82 55 83 57 84 56 85 43 86 44 87 48 88 45 89 47 90
REMARK SMILES IDX 46 91
REMARK H PARENT 14 5 7 15 1 19 1 20 19 40 63 59 41 70
REMARK Flexibility Score: inf
ROOT
ATOM      1  C   UNL A   1      35.699  20.262  25.007  1.00  0.00     0.116 C 
ENDROOT
BRANCH   1   2
ATOM      2  N   UNL A   1      34.435  19.577  25.247  1.00  0.00    -0.352 N 
ATOM      3  C   UNL A   1      33.161  19.910  24.858  1.00  0.00     0.251 C 
ATOM      4  O   UNL A   1      32.266  19.075  24.963  1.00  0.00    -0.269 OA
ATOM      5  H   UNL A   1      34.506  18.745  25.768  1.00  0.00     0.163 HD
BRANCH   3   6
ATOM      6  C   UNL A   1      32.864  21.220  24.237  1.00  0.00     0.039 A 
ATOM      7  C   UNL A   1      32.491  23.617  22.872  1.00  0.00     0.041 A 
ATOM      8  C   UNL A   1      31.944  22.442  22.360  1.00  0.00     0.027 A 
ATOM      9  C   UNL A   1      33.076  23.623  24.137  1.00  0.00     0.027 A 
ATOM     10  C   UNL A   1      32.161  21.235  23.027  1.00  0.00     0.016 A 
ATOM     11  C   UNL A   1      33.244  22.426  24.830  1.00  0.00     0.016 A 
BRANCH   7  12
ATOM     12  N   UNL A   1      32.353  24.790  22.138  1.00  0.00    -0.325 N 
ATOM     13  C   UNL A   1      31.391  25.754  22.185  1.00  0.00     0.238 C 
ATOM     14  O   UNL A   1      31.273  26.473  21.183  1.00  0.00    -0.273 OA
ATOM     15  H   UNL A   1      33.066  24.949  21.477  1.00  0.00     0.169 HD
BRANCH  13  16
ATOM     16  C   UNL A   1      30.631  26.127  23.472  1.00  0.00     0.160 C 
ATOM     17  N   UNL A   1      30.859  29.813  22.803  1.00  0.00    -0.279 N 
ATOM     18  C   UNL A   1      30.812  28.807  23.608  1.00  0.00     0.338 C 
ATOM     19  H   UNL A   1      30.269  29.842  22.017  1.00  0.00     0.302 HD
ATOM     20  H   UNL A   1      31.486  30.552  22.977  1.00  0.00     0.302 HD
ATOM     21  S   UNL A   1      29.629  27.604  23.215  1.00  0.00    -0.022 SA
ATOM     22  N   UNL A   1      31.590  28.639  24.755  1.00  0.00    -0.057 N 
ATOM     23  C   UNL A   1      31.728  27.433  25.459  1.00  0.00     0.337 C 
ATOM     24  C   UNL A   1      31.280  26.126  24.827  1.00  0.00     0.155 C 
ATOM     25  O   UNL A   1      32.206  27.359  26.601  1.00  0.00    -0.244 OA
BRANCH  22  26
ATOM     26  N   UNL A   1      32.304  29.699  25.360  1.00  0.00    -0.082 NA
ATOM     27  C   UNL A   1      31.800  30.399  26.321  1.00  0.00     0.167 C 
BRANCH  27  28
ATOM     28  C   UNL A   1      32.622  31.396  27.037  1.00  0.00    -0.003 A 
ATOM     29  C   UNL A   1      32.104  32.689  27.151  1.00  0.00     0.011 A 
ATOM     30  C   UNL A   1      33.874  31.086  27.568  1.00  0.00     0.011 A 
ATOM     31  C   UNL A   1      32.833  33.671  27.825  1.00  0.00     0.021 A 
ATOM     32  C   UNL A   1      34.601  32.070  28.246  1.00  0.00     0.021 A 
ATOM     33  C   UNL A   1      34.076  33.357  28.374  1.00  0.00     0.041 A 
ATOM     34  Cl  UNL A   1      34.967  34.568  29.211  1.00  0.00    -0.084 Cl
ENDBRANCH  27  28
ENDBRANCH  22  26
ENDBRANCH  13  16
ENDBRANCH   7  12
ENDBRANCH   3   6
ENDBRANCH   1   2
BRANCH   1  35
ATOM     35  C   UNL A   1      36.861  19.274  25.014  1.00  0.00     0.023 C 
BRANCH  35  36
ATOM     36  C   UNL A   1      38.204  19.926  24.673  1.00  0.00     0.023 C 
BRANCH  36  37
ATOM     37  C   UNL A   1      39.117  20.138  25.880  1.00  0.00     0.116 C 
BRANCH  37  38
ATOM     38  N   UNL A   1      40.169  19.132  25.960  1.00  0.00    -0.352 N 
ATOM     39  C   UNL A   1      41.518  19.281  26.148  1.00  0.00     0.251 C 
ATOM     40  H   UNL A   1      39.861  18.201  25.864  1.00  0.00     0.163 HD
ATOM     41  O   UNL A   1      42.274  18.322  25.976  1.00  0.00    -0.269 OA
BRANCH  39  42
ATOM     42  C   UNL A   1      42.081  20.588  26.541  1.00  0.00     0.039 A 
ATOM     43  C   UNL A   1      42.549  21.453  25.547  1.00  0.00     0.014 A 
ATOM     44  C   UNL A   1      42.174  20.956  27.886  1.00  0.00     0.014 A 
ATOM     45  C   UNL A   1      43.044  22.712  25.897  1.00  0.00     0.010 A 
ATOM     46  C   UNL A   1      42.596  22.239  28.227  1.00  0.00     0.010 A 
ATOM     47  C   UNL A   1      43.035  23.131  27.238  1.00  0.00    -0.014 A 
BRANCH  47  48
ATOM     48  C   UNL A   1      43.473  24.497  27.622  1.00  0.00     0.031 A 
ATOM     49  C   UNL A   1      42.458  25.548  27.982  1.00  0.00     0.074 A 
ATOM     50  C   UNL A   1      44.783  24.810  27.593  1.00  0.00     0.049 A 
ATOM     51  N   UNL A   1      42.646  26.810  28.278  1.00  0.00    -0.248 NA
ATOM     52  C   UNL A   1      41.046  25.133  27.991  1.00  0.00     0.031 C 
ATOM     53  C   UNL A   1      45.869  23.893  27.237  1.00  0.00     0.029 A 
ATOM     54  N   UNL A   1      45.426  25.994  27.863  1.00  0.00    -0.354 N 
ATOM     55  C   UNL A   1      41.379  27.338  28.500  1.00  0.00     0.074 A 
ATOM     56  C   UNL A   1      40.430  26.276  28.251  1.00  0.00     0.031 C 
ATOM     57  C   UNL A   1      47.041  24.538  27.341  1.00  0.00     0.029 A 
ATOM     58  C   UNL A   1      46.791  25.924  27.723  1.00  0.00     0.049 A 
ATOM     59  H   UNL A   1      44.952  26.814  28.131  1.00  0.00     0.167 HD
ATOM     60  C   UNL A   1      41.039  28.588  28.897  1.00  0.00     0.031 A 
ATOM     61  C   UNL A   1      47.735  26.872  27.877  1.00  0.00     0.031 A 
ATOM     62  C   UNL A   1      41.979  29.647  29.145  1.00  0.00     0.049 A 
ATOM     63  C   UNL A   1      47.322  28.264  28.270  1.00  0.00     0.074 A 
ATOM     64  C   UNL A   1      41.731  30.937  29.579  1.00  0.00     0.029 A 
ATOM     65  N   UNL A   1      43.351  29.537  28.979  1.00  0.00    -0.354 N 
ATOM     66  N   UNL A   1      46.125  28.732  28.526  1.00  0.00    -0.248 NA
ATOM     67  C   UNL A   1      48.398  29.257  28.402  1.00  0.00     0.031 C 
ATOM     68  C   UNL A   1      42.949  31.624  29.630  1.00  0.00     0.029 A 
ATOM     69  C   UNL A   1      43.961  30.743  29.284  1.00  0.00     0.049 A 
ATOM     70  H   UNL A   1      43.823  28.723  28.689  1.00  0.00     0.167 HD
ATOM     71  C   UNL A   1      46.307  30.061  28.884  1.00  0.00     0.074 A 
ATOM     72  C   UNL A   1      47.730  30.321  28.826  1.00  0.00     0.031 C 
ATOM     73  C   UNL A   1      45.379  30.984  29.231  1.00  0.00     0.031 A 
BRANCH  60  74
ATOM     74  C   UNL A   1      39.575  28.876  29.090  1.00  0.00    -0.014 A 
ATOM     75  C   UNL A   1      38.784  29.345  28.028  1.00  0.00     0.009 A 
ATOM     76  C   UNL A   1      38.969  28.639  30.333  1.00  0.00     0.009 A 
ATOM     77  C   UNL A   1      37.425  29.603  28.217  1.00  0.00     0.001 A 
ATOM     78  C   UNL A   1      37.604  28.870  30.511  1.00  0.00     0.001 A 
ATOM     79  C   UNL A   1      36.835  29.360  29.457  1.00  0.00     0.000 A 
ENDBRANCH  60  74
BRANCH  61  80
ATOM     80  C   UNL A   1      49.171  26.545  27.670  1.00  0.00    -0.014 A 
ATOM     81  C   UNL A   1      49.994  26.239  28.765  1.00  0.00     0.009 A 
ATOM     82  C   UNL A   1      49.733  26.568  26.384  1.00  0.00     0.009 A 
ATOM     83  C   UNL A   1      51.358  25.998  28.581  1.00  0.00     0.001 A 
ATOM     84  C   UNL A   1      51.091  26.296  26.200  1.00  0.00     0.001 A 
ATOM     85  C   UNL A   1      51.904  26.024  27.299  1.00  0.00     0.000 A 
ENDBRANCH  61  80
BRANCH  73  86
ATOM     86  C   UNL A   1      45.876  32.348  29.624  1.00  0.00    -0.014 A 
ATOM     87  C   UNL A   1      45.999  33.381  28.682  1.00  0.00     0.009 A 
ATOM     88  C   UNL A   1      46.194  32.609  30.965  1.00  0.00     0.009 A 
ATOM     89  C   UNL A   1      46.463  34.639  29.072  1.00  0.00     0.001 A 
ATOM     90  C   UNL A   1      46.628  33.875  31.358  1.00  0.00     0.001 A 
ATOM     91  C   UNL A   1      46.772  34.886  30.409  1.00  0.00     0.000 A 
ENDBRANCH  73  86
ENDBRANCH  47  48
ENDBRANCH  39  42
ENDBRANCH  37  38
ENDBRANCH  36  37
ENDBRANCH  35  36
ENDBRANCH   1  35
TORSDOF 15
ENDMDL
