MODEL 1
REMARK VINA RESULT:     -10.2      0.000      0.000
REMARK SMILES CCOC(=O)c1noc(C)c1C(=O)NCCCCNC(=O)c1ccc(-c2c3nc(c(-c4ccccc4)c4ccc([nH]4)c(-c4ccccc4)c4nc(c(-c5ccccc5)c5ccc2[nH]5)C=C4)C=C3)cc1
REMARK SMILES IDX 16 1 15 2 14 3 12 4 13 5 11 7 6 8 7 9 8 10 9 11 10 12 4 13
REMARK SMILES IDX 5 14 3 15 2 16 1 17 17 18 18 19 19 20 20 21 21 23 22 24
REMARK SMILES IDX 23 25 69 26 24 27 68 28 25 29 26 30 27 31 62 32 28 33 67 34
REMARK SMILES IDX 61 35 63 36 29 37 66 38 60 39 59 40 30 42 52 43 37 44 51 45
REMARK SMILES IDX 38 46 41 47 50 48 64 49 39 50 40 51 49 53 65 54 42 55 31 56
REMARK SMILES IDX 32 57 36 58 33 59 35 60 34 61 53 62 54 63 58 64 55 65 57 66
REMARK SMILES IDX 56 67 43 68 44 69 48 70 45 71 47 72 46 73
REMARK H PARENT 14 6 19 22 63 41 41 52
REMARK Flexibility Score: inf
ROOT
ATOM      1  C   UNL A   1      37.018  21.321  24.471  1.00  0.00     0.023 C 
ENDROOT
BRANCH   1   2
ATOM      2  C   UNL A   1      36.764  22.426  25.496  1.00  0.00     0.116 C 
BRANCH   2   3
ATOM      3  N   UNL A   1      35.808  22.000  26.488  1.00  0.00    -0.352 N 
ATOM      4  C   UNL A   1      34.463  21.764  26.480  1.00  0.00     0.257 C 
ATOM      5  O   UNL A   1      34.042  21.286  27.536  1.00  0.00    -0.269 OA
ATOM      6  H   UNL A   1      36.218  21.845  27.370  1.00  0.00     0.163 HD
BRANCH   4   7
ATOM      7  C   UNL A   1      33.559  21.980  25.357  1.00  0.00     0.117 A 
ATOM      8  C   UNL A   1      32.945  20.883  24.639  1.00  0.00     0.204 A 
ATOM      9  N   UNL A   1      32.201  21.318  23.614  1.00  0.00    -0.072 NA
ATOM     10  O   UNL A   1      32.254  22.680  23.670  1.00  0.00    -0.360 OA
ATOM     11  C   UNL A   1      33.035  23.089  24.708  1.00  0.00     0.147 A 
ATOM     12  C   UNL A   1      33.059  24.561  24.811  1.00  0.00     0.092 C 
BRANCH   8  13
ATOM     13  C   UNL A   1      33.058  19.452  24.887  1.00  0.00     0.361 C 
ATOM     14  O   UNL A   1      32.299  18.834  25.633  1.00  0.00    -0.244 OA
BRANCH  13  15
ATOM     15  O   UNL A   1      34.126  18.901  24.240  1.00  0.00    -0.461 OA
BRANCH  15  16
ATOM     16  C   UNL A   1      34.287  17.486  24.404  1.00  0.00     0.230 C 
ATOM     17  C   UNL A   1      34.176  16.793  23.060  1.00  0.00     0.049 C 
ENDBRANCH  15  16
ENDBRANCH  13  15
ENDBRANCH   8  13
ENDBRANCH   4   7
ENDBRANCH   2   3
ENDBRANCH   1   2
BRANCH   1  18
ATOM     18  C   UNL A   1      37.800  20.114  24.999  1.00  0.00     0.023 C 
BRANCH  18  19
ATOM     19  C   UNL A   1      39.012  20.447  25.864  1.00  0.00     0.116 C 
BRANCH  19  20
ATOM     20  N   UNL A   1      40.075  19.458  25.789  1.00  0.00    -0.352 N 
ATOM     21  C   UNL A   1      41.406  19.602  26.096  1.00  0.00     0.251 C 
ATOM     22  H   UNL A   1      39.804  18.564  25.477  1.00  0.00     0.163 HD
ATOM     23  O   UNL A   1      42.190  18.680  25.898  1.00  0.00    -0.269 OA
BRANCH  21  24
ATOM     24  C   UNL A   1      41.897  20.894  26.619  1.00  0.00     0.039 A 
ATOM     25  C   UNL A   1      42.340  21.857  25.710  1.00  0.00     0.014 A 
ATOM     26  C   UNL A   1      41.892  21.164  27.990  1.00  0.00     0.014 A 
ATOM     27  C   UNL A   1      42.707  23.122  26.171  1.00  0.00     0.010 A 
ATOM     28  C   UNL A   1      42.196  22.445  28.441  1.00  0.00     0.010 A 
ATOM     29  C   UNL A   1      42.600  23.436  27.535  1.00  0.00    -0.014 A 
BRANCH  29  30
ATOM     30  C   UNL A   1      42.880  24.806  28.026  1.00  0.00     0.031 A 
ATOM     31  C   UNL A   1      44.275  25.208  28.406  1.00  0.00     0.074 A 
ATOM     32  C   UNL A   1      41.858  25.666  28.203  1.00  0.00     0.049 A 
ATOM     33  N   UNL A   1      44.702  26.349  28.887  1.00  0.00    -0.248 NA
ATOM     34  C   UNL A   1      45.324  24.188  28.253  1.00  0.00     0.031 C 
ATOM     35  C   UNL A   1      40.449  25.375  27.932  1.00  0.00     0.029 A 
ATOM     36  N   UNL A   1      41.850  26.958  28.663  1.00  0.00    -0.354 N 
ATOM     37  C   UNL A   1      46.061  26.176  29.114  1.00  0.00     0.074 A 
ATOM     38  C   UNL A   1      46.379  24.810  28.760  1.00  0.00     0.031 C 
ATOM     39  C   UNL A   1      39.715  26.465  28.209  1.00  0.00     0.029 A 
ATOM     40  C   UNL A   1      40.597  27.519  28.699  1.00  0.00     0.049 A 
ATOM     41  H   UNL A   1      42.664  27.438  28.939  1.00  0.00     0.167 HD
ATOM     42  C   UNL A   1      46.967  27.077  29.563  1.00  0.00     0.031 A 
ATOM     43  C   UNL A   1      40.201  28.747  29.083  1.00  0.00     0.031 A 
ATOM     44  C   UNL A   1      46.655  28.441  29.899  1.00  0.00     0.049 A 
ATOM     45  C   UNL A   1      41.226  29.738  29.548  1.00  0.00     0.074 A 
ATOM     46  C   UNL A   1      47.517  29.453  30.282  1.00  0.00     0.029 A 
ATOM     47  N   UNL A   1      45.378  28.980  29.895  1.00  0.00    -0.354 N 
ATOM     48  N   UNL A   1      42.522  29.589  29.673  1.00  0.00    -0.248 NA
ATOM     49  C   UNL A   1      40.735  31.075  29.911  1.00  0.00     0.031 C 
ATOM     50  C   UNL A   1      46.755  30.596  30.551  1.00  0.00     0.029 A 
ATOM     51  C   UNL A   1      45.425  30.306  30.293  1.00  0.00     0.049 A 
ATOM     52  H   UNL A   1      44.560  28.494  29.647  1.00  0.00     0.167 HD
ATOM     53  C   UNL A   1      43.005  30.814  30.112  1.00  0.00     0.074 A 
ATOM     54  C   UNL A   1      41.864  31.701  30.215  1.00  0.00     0.031 C 
ATOM     55  C   UNL A   1      44.279  31.172  30.403  1.00  0.00     0.031 A 
BRANCH  42  56
ATOM     56  C   UNL A   1      48.383  26.604  29.723  1.00  0.00    -0.014 A 
ATOM     57  C   UNL A   1      48.820  26.005  30.916  1.00  0.00     0.009 A 
ATOM     58  C   UNL A   1      49.290  26.747  28.663  1.00  0.00     0.009 A 
ATOM     59  C   UNL A   1      50.149  25.600  31.059  1.00  0.00     0.001 A 
ATOM     60  C   UNL A   1      50.611  26.316  28.799  1.00  0.00     0.001 A 
ATOM     61  C   UNL A   1      51.042  25.754  29.999  1.00  0.00     0.000 A 
ENDBRANCH  42  56
BRANCH  43  62
ATOM     62  C   UNL A   1      38.764  29.112  29.012  1.00  0.00    -0.014 A 
ATOM     63  C   UNL A   1      37.948  28.996  30.147  1.00  0.00     0.009 A 
ATOM     64  C   UNL A   1      38.208  29.596  27.818  1.00  0.00     0.009 A 
ATOM     65  C   UNL A   1      36.597  29.343  30.083  1.00  0.00     0.001 A 
ATOM     66  C   UNL A   1      36.862  29.962  27.763  1.00  0.00     0.001 A 
ATOM     67  C   UNL A   1      36.056  29.830  28.893  1.00  0.00     0.000 A 
ENDBRANCH  43  62
BRANCH  55  68
ATOM     68  C   UNL A   1      44.506  32.587  30.847  1.00  0.00    -0.014 A 
ATOM     69  C   UNL A   1      44.482  32.932  32.206  1.00  0.00     0.009 A 
ATOM     70  C   UNL A   1      44.779  33.581  29.895  1.00  0.00     0.009 A 
ATOM     71  C   UNL A   1      44.698  34.253  32.602  1.00  0.00     0.001 A 
ATOM     72  C   UNL A   1      45.018  34.896  30.294  1.00  0.00     0.001 A 
ATOM     73  C   UNL A   1      44.970  35.233  31.647  1.00  0.00     0.000 A 
ENDBRANCH  55  68
ENDBRANCH  29  30
ENDBRANCH  21  24
ENDBRANCH  19  20
ENDBRANCH  18  19
ENDBRANCH   1  18
TORSDOF 14
ENDMDL
MODEL 2
REMARK VINA RESULT:     -10.0      5.421     10.382
REMARK SMILES CCOC(=O)c1noc(C)c1C(=O)NCCCCNC(=O)c1ccc(-c2c3nc(c(-c4ccccc4)c4ccc([nH]4)c(-c4ccccc4)c4nc(c(-c5ccccc5)c5ccc2[nH]5)C=C4)C=C3)cc1
REMARK SMILES IDX 16 1 15 2 14 3 12 4 13 5 11 7 6 8 7 9 8 10 9 11 10 12 4 13
REMARK SMILES IDX 5 14 3 15 2 16 1 17 17 18 18 19 19 20 20 21 21 23 22 24
REMARK SMILES IDX 23 25 69 26 24 27 68 28 25 29 26 30 27 31 62 32 28 33 67 34
REMARK SMILES IDX 61 35 63 36 29 37 66 38 60 39 59 40 30 42 52 43 37 44 51 45
REMARK SMILES IDX 38 46 41 47 50 48 64 49 39 50 40 51 49 53 65 54 42 55 31 56
REMARK SMILES IDX 32 57 36 58 33 59 35 60 34 61 53 62 54 63 58 64 55 65 57 66
REMARK SMILES IDX 56 67 43 68 44 69 48 70 45 71 47 72 46 73
REMARK H PARENT 14 6 19 22 63 41 41 52
REMARK Flexibility Score: inf
ROOT
ATOM      1  C   UNL A   1      31.400  30.955  26.006  1.00  0.00     0.023 C 
ENDROOT
BRANCH   1   2
ATOM      2  C   UNL A   1      32.545  29.944  25.950  1.00  0.00     0.116 C 
BRANCH   2   3
ATOM      3  N   UNL A   1      32.903  29.647  24.585  1.00  0.00    -0.352 N 
ATOM      4  C   UNL A   1      32.349  28.887  23.596  1.00  0.00     0.257 C 
ATOM      5  O   UNL A   1      32.923  29.001  22.510  1.00  0.00    -0.269 OA
ATOM      6  H   UNL A   1      33.736  30.092  24.305  1.00  0.00     0.163 HD
BRANCH   4   7
ATOM      7  C   UNL A   1      31.167  28.043  23.719  1.00  0.00     0.117 A 
ATOM      8  C   UNL A   1      29.869  28.455  23.227  1.00  0.00     0.204 A 
ATOM      9  N   UNL A   1      28.925  27.547  23.500  1.00  0.00    -0.072 NA
ATOM     10  O   UNL A   1      29.572  26.511  24.108  1.00  0.00    -0.360 OA
ATOM     11  C   UNL A   1      30.903  26.778  24.225  1.00  0.00     0.147 A 
ATOM     12  C   UNL A   1      31.624  25.644  24.834  1.00  0.00     0.092 C 
BRANCH   8  13
ATOM     13  C   UNL A   1      29.505  29.680  22.528  1.00  0.00     0.361 C 
ATOM     14  O   UNL A   1      29.285  29.728  21.318  1.00  0.00    -0.244 OA
BRANCH  13  15
ATOM     15  O   UNL A   1      29.490  30.763  23.360  1.00  0.00    -0.461 OA
BRANCH  15  16
ATOM     16  C   UNL A   1      28.310  31.573  23.301  1.00  0.00     0.230 C 
ATOM     17  C   UNL A   1      28.647  32.940  22.738  1.00  0.00     0.049 C 
ENDBRANCH  15  16
ENDBRANCH  13  15
ENDBRANCH   8  13
ENDBRANCH   4   7
ENDBRANCH   2   3
ENDBRANCH   1   2
BRANCH   1  18
ATOM     18  C   UNL A   1      31.447  31.923  27.193  1.00  0.00     0.023 C 
BRANCH  18  19
ATOM     19  C   UNL A   1      32.658  32.849  27.234  1.00  0.00     0.116 C 
BRANCH  19  20
ATOM     20  N   UNL A   1      32.343  34.208  27.646  1.00  0.00    -0.352 N 
ATOM     21  C   UNL A   1      32.975  34.990  28.581  1.00  0.00     0.251 C 
ATOM     22  H   UNL A   1      31.573  34.622  27.194  1.00  0.00     0.163 HD
ATOM     23  O   UNL A   1      32.527  36.095  28.868  1.00  0.00    -0.269 OA
BRANCH  21  24
ATOM     24  C   UNL A   1      34.171  34.472  29.277  1.00  0.00     0.039 A 
ATOM     25  C   UNL A   1      34.005  33.850  30.517  1.00  0.00     0.014 A 
ATOM     26  C   UNL A   1      35.439  34.570  28.699  1.00  0.00     0.014 A 
ATOM     27  C   UNL A   1      35.102  33.257  31.143  1.00  0.00     0.010 A 
ATOM     28  C   UNL A   1      36.519  33.923  29.293  1.00  0.00     0.010 A 
ATOM     29  C   UNL A   1      36.358  33.256  30.516  1.00  0.00    -0.014 A 
BRANCH  29  30
ATOM     30  C   UNL A   1      37.509  32.537  31.115  1.00  0.00     0.031 A 
ATOM     31  C   UNL A   1      38.118  33.014  32.400  1.00  0.00     0.074 A 
ATOM     32  C   UNL A   1      38.053  31.497  30.454  1.00  0.00     0.049 A 
ATOM     33  N   UNL A   1      39.148  32.534  33.052  1.00  0.00    -0.248 NA
ATOM     34  C   UNL A   1      37.512  34.201  33.021  1.00  0.00     0.031 C 
ATOM     35  C   UNL A   1      37.592  30.977  29.164  1.00  0.00     0.029 A 
ATOM     36  N   UNL A   1      39.119  30.697  30.775  1.00  0.00    -0.354 N 
ATOM     37  C   UNL A   1      39.325  33.372  34.145  1.00  0.00     0.074 A 
ATOM     38  C   UNL A   1      38.326  34.413  34.045  1.00  0.00     0.031 C 
ATOM     39  C   UNL A   1      38.358  29.930  28.816  1.00  0.00     0.029 A 
ATOM     40  C   UNL A   1      39.375  29.723  29.842  1.00  0.00     0.049 A 
ATOM     41  H   UNL A   1      39.650  30.809  31.597  1.00  0.00     0.167 HD
ATOM     42  C   UNL A   1      40.228  33.275  35.149  1.00  0.00     0.031 A 
ATOM     43  C   UNL A   1      40.322  28.767  29.814  1.00  0.00     0.031 A 
ATOM     44  C   UNL A   1      41.210  32.229  35.258  1.00  0.00     0.049 A 
ATOM     45  C   UNL A   1      41.293  28.660  30.953  1.00  0.00     0.074 A 
ATOM     46  C   UNL A   1      42.113  31.997  36.280  1.00  0.00     0.029 A 
ATOM     47  N   UNL A   1      41.419  31.243  34.306  1.00  0.00    -0.354 N 
ATOM     48  N   UNL A   1      41.392  29.407  32.026  1.00  0.00    -0.248 NA
ATOM     49  C   UNL A   1      42.274  27.568  30.884  1.00  0.00     0.031 C 
ATOM     50  C   UNL A   1      42.897  30.893  35.927  1.00  0.00     0.029 A 
ATOM     51  C   UNL A   1      42.453  30.414  34.706  1.00  0.00     0.049 A 
ATOM     52  H   UNL A   1      40.908  31.147  33.471  1.00  0.00     0.167 HD
ATOM     53  C   UNL A   1      42.432  28.866  32.769  1.00  0.00     0.074 A 
ATOM     54  C   UNL A   1      42.922  27.719  32.031  1.00  0.00     0.031 C 
ATOM     55  C   UNL A   1      42.937  29.284  33.955  1.00  0.00     0.031 A 
BRANCH  42  56
ATOM     56  C   UNL A   1      40.194  34.341  36.206  1.00  0.00    -0.014 A 
ATOM     57  C   UNL A   1      41.015  35.478  36.120  1.00  0.00     0.009 A 
ATOM     58  C   UNL A   1      39.321  34.214  37.297  1.00  0.00     0.009 A 
ATOM     59  C   UNL A   1      40.994  36.443  37.129  1.00  0.00     0.001 A 
ATOM     60  C   UNL A   1      39.282  35.195  38.290  1.00  0.00     0.001 A 
ATOM     61  C   UNL A   1      40.126  36.303  38.211  1.00  0.00     0.000 A 
ENDBRANCH  42  56
BRANCH  43  62
ATOM     62  C   UNL A   1      40.374  27.816  28.676  1.00  0.00    -0.014 A 
ATOM     63  C   UNL A   1      41.176  28.091  27.559  1.00  0.00     0.009 A 
ATOM     64  C   UNL A   1      39.639  26.620  28.710  1.00  0.00     0.009 A 
ATOM     65  C   UNL A   1      41.230  27.195  26.489  1.00  0.00     0.001 A 
ATOM     66  C   UNL A   1      39.710  25.717  27.648  1.00  0.00     0.001 A 
ATOM     67  C   UNL A   1      40.501  26.007  26.537  1.00  0.00     0.000 A 
ENDBRANCH  43  62
BRANCH  55  68
ATOM     68  C   UNL A   1      44.067  28.485  34.534  1.00  0.00    -0.014 A 
ATOM     69  C   UNL A   1      43.824  27.379  35.362  1.00  0.00     0.009 A 
ATOM     70  C   UNL A   1      45.393  28.825  34.221  1.00  0.00     0.009 A 
ATOM     71  C   UNL A   1      44.888  26.646  35.890  1.00  0.00     0.001 A 
ATOM     72  C   UNL A   1      46.454  28.076  34.730  1.00  0.00     0.001 A 
ATOM     73  C   UNL A   1      46.201  26.992  35.571  1.00  0.00     0.000 A 
ENDBRANCH  55  68
ENDBRANCH  29  30
ENDBRANCH  21  24
ENDBRANCH  19  20
ENDBRANCH  18  19
ENDBRANCH   1  18
TORSDOF 14
ENDMDL
MODEL 3
REMARK VINA RESULT:      -9.9      5.018      9.770
REMARK SMILES CCOC(=O)c1noc(C)c1C(=O)NCCCCNC(=O)c1ccc(-c2c3nc(c(-c4ccccc4)c4ccc([nH]4)c(-c4ccccc4)c4nc(c(-c5ccccc5)c5ccc2[nH]5)C=C4)C=C3)cc1
REMARK SMILES IDX 16 1 15 2 14 3 12 4 13 5 11 7 6 8 7 9 8 10 9 11 10 12 4 13
REMARK SMILES IDX 5 14 3 15 2 16 1 17 17 18 18 19 19 20 20 21 21 23 22 24
REMARK SMILES IDX 23 25 69 26 24 27 68 28 25 29 26 30 27 31 62 32 28 33 67 34
REMARK SMILES IDX 61 35 63 36 29 37 66 38 60 39 59 40 30 42 52 43 37 44 51 45
REMARK SMILES IDX 38 46 41 47 50 48 64 49 39 50 40 51 49 53 65 54 42 55 31 56
REMARK SMILES IDX 32 57 36 58 33 59 35 60 34 61 53 62 54 63 58 64 55 65 57 66
REMARK SMILES IDX 56 67 43 68 44 69 48 70 45 71 47 72 46 73
REMARK H PARENT 14 6 19 22 63 41 41 52
REMARK Flexibility Score: inf
ROOT
ATOM      1  C   UNL A   1      31.901  30.095  26.924  1.00  0.00     0.023 C 
ENDROOT
BRANCH   1   2
ATOM      2  C   UNL A   1      33.296  29.540  26.635  1.00  0.00     0.116 C 
BRANCH   2   3
ATOM      3  N   UNL A   1      33.572  29.550  25.220  1.00  0.00    -0.352 N 
ATOM      4  C   UNL A   1      33.091  28.854  24.148  1.00  0.00     0.257 C 
ATOM      5  O   UNL A   1      33.520  29.262  23.066  1.00  0.00    -0.269 OA
ATOM      6  H   UNL A   1      34.263  30.205  24.971  1.00  0.00     0.163 HD
BRANCH   4   7
ATOM      7  C   UNL A   1      32.126  27.762  24.194  1.00  0.00     0.117 A 
ATOM      8  C   UNL A   1      30.735  27.947  23.841  1.00  0.00     0.204 A 
ATOM      9  N   UNL A   1      30.028  26.823  24.012  1.00  0.00    -0.072 NA
ATOM     10  O   UNL A   1      30.926  25.877  24.411  1.00  0.00    -0.360 OA
ATOM     11  C   UNL A   1      32.176  26.410  24.503  1.00  0.00     0.147 A 
ATOM     12  C   UNL A   1      33.167  25.385  24.885  1.00  0.00     0.092 C 
BRANCH   8  13
ATOM     13  C   UNL A   1      30.065  29.150  23.366  1.00  0.00     0.361 C 
ATOM     14  O   UNL A   1      30.070  30.215  23.984  1.00  0.00    -0.244 OA
BRANCH  13  15
ATOM     15  O   UNL A   1      29.394  28.938  22.196  1.00  0.00    -0.461 OA
BRANCH  15  16
ATOM     16  C   UNL A   1      28.094  29.535  22.110  1.00  0.00     0.230 C 
ATOM     17  C   UNL A   1      27.142  28.842  23.065  1.00  0.00     0.049 C 
ENDBRANCH  15  16
ENDBRANCH  13  15
ENDBRANCH   8  13
ENDBRANCH   4   7
ENDBRANCH   2   3
ENDBRANCH   1   2
BRANCH   1  18
ATOM     18  C   UNL A   1      31.749  31.606  26.724  1.00  0.00     0.023 C 
BRANCH  18  19
ATOM     19  C   UNL A   1      32.899  32.455  27.256  1.00  0.00     0.116 C 
BRANCH  19  20
ATOM     20  N   UNL A   1      32.503  33.800  27.644  1.00  0.00    -0.352 N 
ATOM     21  C   UNL A   1      33.102  34.645  28.546  1.00  0.00     0.251 C 
ATOM     22  H   UNL A   1      31.697  34.151  27.201  1.00  0.00     0.163 HD
ATOM     23  O   UNL A   1      32.589  35.725  28.817  1.00  0.00    -0.269 OA
BRANCH  21  24
ATOM     24  C   UNL A   1      34.345  34.224  29.225  1.00  0.00     0.039 A 
ATOM     25  C   UNL A   1      34.243  33.547  30.442  1.00  0.00     0.014 A 
ATOM     26  C   UNL A   1      35.596  34.466  28.652  1.00  0.00     0.014 A 
ATOM     27  C   UNL A   1      35.395  33.044  31.050  1.00  0.00     0.010 A 
ATOM     28  C   UNL A   1      36.736  33.909  29.225  1.00  0.00     0.010 A 
ATOM     29  C   UNL A   1      36.644  33.189  30.425  1.00  0.00    -0.014 A 
BRANCH  29  30
ATOM     30  C   UNL A   1      37.861  32.567  31.001  1.00  0.00     0.031 A 
ATOM     31  C   UNL A   1      38.453  31.336  30.379  1.00  0.00     0.074 A 
ATOM     32  C   UNL A   1      38.386  33.071  32.134  1.00  0.00     0.049 A 
ATOM     33  N   UNL A   1      39.491  30.636  30.765  1.00  0.00    -0.248 NA
ATOM     34  C   UNL A   1      37.777  30.805  29.186  1.00  0.00     0.031 C 
ATOM     35  C   UNL A   1      37.864  34.225  32.870  1.00  0.00     0.029 A 
ATOM     36  N   UNL A   1      39.472  32.669  32.869  1.00  0.00    -0.354 N 
ATOM     37  C   UNL A   1      39.578  29.573  29.877  1.00  0.00     0.074 A 
ATOM     38  C   UNL A   1      38.465  29.694  28.961  1.00  0.00     0.031 C 
ATOM     39  C   UNL A   1      38.645  34.452  33.940  1.00  0.00     0.029 A 
ATOM     40  C   UNL A   1      39.702  33.446  33.977  1.00  0.00     0.049 A 
ATOM     41  H   UNL A   1      40.033  31.898  32.625  1.00  0.00     0.167 HD
ATOM     42  C   UNL A   1      40.508  28.591  29.820  1.00  0.00     0.031 A 
ATOM     43  C   UNL A   1      40.660  33.362  34.919  1.00  0.00     0.031 A 
ATOM     44  C   UNL A   1      41.625  28.479  30.720  1.00  0.00     0.049 A 
ATOM     45  C   UNL A   1      41.698  32.284  34.818  1.00  0.00     0.074 A 
ATOM     46  C   UNL A   1      42.668  27.570  30.691  1.00  0.00     0.029 A 
ATOM     47  N   UNL A   1      41.841  29.304  31.813  1.00  0.00    -0.354 N 
ATOM     48  N   UNL A   1      41.820  31.337  33.920  1.00  0.00    -0.248 NA
ATOM     49  C   UNL A   1      42.742  32.272  35.853  1.00  0.00     0.031 C 
ATOM     50  C   UNL A   1      43.493  27.819  31.794  1.00  0.00     0.029 A 
ATOM     51  C   UNL A   1      42.988  28.909  32.482  1.00  0.00     0.049 A 
ATOM     52  H   UNL A   1      41.265  30.057  32.074  1.00  0.00     0.167 HD
ATOM     53  C   UNL A   1      42.960  30.627  34.269  1.00  0.00     0.074 A 
ATOM     54  C   UNL A   1      43.504  31.264  35.452  1.00  0.00     0.031 C 
ATOM     55  C   UNL A   1      43.508  29.545  33.664  1.00  0.00     0.031 A 
BRANCH  42  56
ATOM     56  C   UNL A   1      40.345  27.554  28.745  1.00  0.00    -0.014 A 
ATOM     57  C   UNL A   1      40.931  27.719  27.480  1.00  0.00     0.009 A 
ATOM     58  C   UNL A   1      39.607  26.390  29.006  1.00  0.00     0.009 A 
ATOM     59  C   UNL A   1      40.742  26.760  26.482  1.00  0.00     0.001 A 
ATOM     60  C   UNL A   1      39.443  25.419  28.015  1.00  0.00     0.001 A 
ATOM     61  C   UNL A   1      40.001  25.610  26.752  1.00  0.00     0.000 A 
ENDBRANCH  42  56
BRANCH  43  62
ATOM     62  C   UNL A   1      40.693  34.351  36.024  1.00  0.00    -0.014 A 
ATOM     63  C   UNL A   1      41.401  35.554  35.878  1.00  0.00     0.009 A 
ATOM     64  C   UNL A   1      40.002  34.109  37.222  1.00  0.00     0.009 A 
ATOM     65  C   UNL A   1      41.430  36.487  36.916  1.00  0.00     0.001 A 
ATOM     66  C   UNL A   1      40.015  35.053  38.250  1.00  0.00     0.001 A 
ATOM     67  C   UNL A   1      40.733  36.239  38.098  1.00  0.00     0.000 A 
ENDBRANCH  43  62
BRANCH  55  68
ATOM     68  C   UNL A   1      44.767  28.993  34.265  1.00  0.00    -0.014 A 
ATOM     69  C   UNL A   1      46.025  29.490  33.896  1.00  0.00     0.009 A 
ATOM     70  C   UNL A   1      44.690  27.983  35.237  1.00  0.00     0.009 A 
ATOM     71  C   UNL A   1      47.186  28.966  34.467  1.00  0.00     0.001 A 
ATOM     72  C   UNL A   1      45.851  27.477  35.824  1.00  0.00     0.001 A 
ATOM     73  C   UNL A   1      47.098  27.963  35.433  1.00  0.00     0.000 A 
ENDBRANCH  55  68
ENDBRANCH  29  30
ENDBRANCH  21  24
ENDBRANCH  19  20
ENDBRANCH  18  19
ENDBRANCH   1  18
TORSDOF 14
ENDMDL
