MODEL 1
REMARK VINA RESULT:     -11.7      0.000      0.000
REMARK SMILES O=C(Cc1cncnc1N1CCC2(CC1)OCCC[C@@H]2O)NCCCCNC(=O)c1ccc(-c2c3nc(c(-c4ccccc4)c4ccc([nH]4)c(-c4ccccc4)c4nc(c(-c5ccccc5)c5ccc2[nH]5)C=C4)C=C3)cc1
REMARK SMILES IDX 24 1 23 2 22 3 1 4 2 5 3 7 4 8 5 9 9 10 6 11 8 12 7 13 10 14
REMARK SMILES IDX 11 15 15 16 12 17 14 18 13 19 16 20 20 21 17 22 19 23 18 24
REMARK SMILES IDX 21 25 25 27 26 28 27 29 28 30 29 32 30 33 31 34 77 35 32 36
REMARK SMILES IDX 76 37 33 38 34 39 35 40 70 41 36 42 75 43 69 44 71 45 37 46
REMARK SMILES IDX 74 47 68 48 67 49 38 51 60 52 45 53 59 54 46 55 49 56 58 57
REMARK SMILES IDX 72 58 47 59 48 60 57 62 73 63 50 64 39 65 40 66 44 67 41 68
REMARK SMILES IDX 43 69 42 70 61 71 62 72 66 73 63 74 65 75 64 76 51 77 52 78
REMARK SMILES IDX 56 79 53 80 55 81 54 82
REMARK H PARENT 22 6 21 26 27 31 71 50 49 61
REMARK Flexibility Score: inf
ROOT
ATOM      1  C   UNL A   1      31.789  30.700  26.083  1.00  0.00     0.023 C 
ENDROOT
BRANCH   1   2
ATOM      2  C   UNL A   1      33.216  30.200  26.304  1.00  0.00     0.116 C 
BRANCH   2   3
ATOM      3  N   UNL A   1      33.539  29.081  25.443  1.00  0.00    -0.356 N 
ATOM      4  O   UNL A   1      33.314  27.469  27.054  1.00  0.00    -0.275 OA
ATOM      5  C   UNL A   1      33.556  27.776  25.890  1.00  0.00     0.224 C 
ATOM      6  H   UNL A   1      33.755  29.259  24.499  1.00  0.00     0.163 HD
BRANCH   5   7
ATOM      7  C   UNL A   1      34.000  26.750  24.860  1.00  0.00     0.141 C 
BRANCH   7   8
ATOM      8  C   UNL A   1      33.417  25.378  25.055  1.00  0.00     0.022 A 
ATOM      9  C   UNL A   1      34.120  24.422  25.770  1.00  0.00     0.121 A 
ATOM     10  C   UNL A   1      32.149  24.999  24.623  1.00  0.00     0.135 A 
ATOM     11  N   UNL A   1      33.674  23.183  26.022  1.00  0.00    -0.244 NA
ATOM     12  N   UNL A   1      31.661  23.772  24.886  1.00  0.00    -0.219 NA
ATOM     13  C   UNL A   1      32.448  22.922  25.558  1.00  0.00     0.224 A 
BRANCH  10  14
ATOM     14  N   UNL A   1      31.299  25.919  24.055  1.00  0.00    -0.356 N 
ATOM     15  C   UNL A   1      30.245  26.482  24.880  1.00  0.00     0.121 C 
ATOM     16  C   UNL A   1      31.008  25.916  22.627  1.00  0.00     0.121 C 
ATOM     17  C   UNL A   1      30.195  27.970  24.545  1.00  0.00     0.060 C 
ATOM     18  C   UNL A   1      30.910  27.371  22.167  1.00  0.00     0.060 C 
ATOM     19  C   UNL A   1      29.940  28.217  23.034  1.00  0.00     0.097 C 
ATOM     20  O   UNL A   1      28.607  27.795  22.673  1.00  0.00    -0.372 OA
ATOM     21  C   UNL A   1      30.150  29.728  22.709  1.00  0.00     0.146 C 
ATOM     22  C   UNL A   1      27.542  28.571  23.214  1.00  0.00     0.161 C 
ATOM     23  C   UNL A   1      29.037  30.592  23.299  1.00  0.00     0.037 C 
ATOM     24  C   UNL A   1      27.673  30.051  22.887  1.00  0.00     0.031 C 
BRANCH  21  25
ATOM     25  O   UNL A   1      30.179  29.948  21.295  1.00  0.00    -0.390 OA
ATOM     26  H   UNL A   1      30.230  29.094  20.836  1.00  0.00     0.211 HD
ENDBRANCH  21  25
ENDBRANCH  10  14
ENDBRANCH   7   8
ENDBRANCH   5   7
ENDBRANCH   2   3
ENDBRANCH   1   2
BRANCH   1  27
ATOM     27  C   UNL A   1      31.502  32.102  26.633  1.00  0.00     0.023 C 
BRANCH  27  28
ATOM     28  C   UNL A   1      32.692  32.819  27.262  1.00  0.00     0.116 C 
BRANCH  28  29
ATOM     29  N   UNL A   1      32.393  34.189  27.642  1.00  0.00    -0.352 N 
ATOM     30  C   UNL A   1      32.978  34.978  28.603  1.00  0.00     0.251 C 
ATOM     31  H   UNL A   1      31.663  34.616  27.137  1.00  0.00     0.163 HD
ATOM     32  O   UNL A   1      32.490  36.071  28.879  1.00  0.00    -0.269 OA
BRANCH  30  33
ATOM     33  C   UNL A   1      34.175  34.506  29.335  1.00  0.00     0.039 A 
ATOM     34  C   UNL A   1      34.007  33.927  30.596  1.00  0.00     0.014 A 
ATOM     35  C   UNL A   1      35.456  34.636  28.793  1.00  0.00     0.014 A 
ATOM     36  C   UNL A   1      35.112  33.415  31.279  1.00  0.00     0.010 A 
ATOM     37  C   UNL A   1      36.546  34.056  29.440  1.00  0.00     0.010 A 
ATOM     38  C   UNL A   1      36.386  33.436  30.689  1.00  0.00    -0.014 A 
BRANCH  38  39
ATOM     39  C   UNL A   1      37.556  32.807  31.359  1.00  0.00     0.031 A 
ATOM     40  C   UNL A   1      38.219  31.596  30.761  1.00  0.00     0.074 A 
ATOM     41  C   UNL A   1      37.988  33.291  32.541  1.00  0.00     0.049 A 
ATOM     42  N   UNL A   1      39.213  30.883  31.229  1.00  0.00    -0.248 NA
ATOM     43  C   UNL A   1      37.682  31.109  29.480  1.00  0.00     0.031 C 
ATOM     44  C   UNL A   1      37.414  34.437  33.249  1.00  0.00     0.029 A 
ATOM     45  N   UNL A   1      39.009  32.873  33.359  1.00  0.00    -0.354 N 
ATOM     46  C   UNL A   1      39.411  29.860  30.309  1.00  0.00     0.074 A 
ATOM     47  C   UNL A   1      38.399  30.014  29.286  1.00  0.00     0.031 C 
ATOM     48  C   UNL A   1      38.105  34.646  34.380  1.00  0.00     0.029 A 
ATOM     49  C   UNL A   1      39.140  33.624  34.502  1.00  0.00     0.049 A 
ATOM     50  H   UNL A   1      39.590  32.108  33.147  1.00  0.00     0.167 HD
ATOM     51  C   UNL A   1      40.358  28.892  30.305  1.00  0.00     0.031 A 
ATOM     52  C   UNL A   1      39.991  33.501  35.540  1.00  0.00     0.031 A 
ATOM     53  C   UNL A   1      41.363  28.735  31.323  1.00  0.00     0.049 A 
ATOM     54  C   UNL A   1      41.013  32.398  35.527  1.00  0.00     0.074 A 
ATOM     55  C   UNL A   1      42.394  27.813  31.382  1.00  0.00     0.029 A 
ATOM     56  N   UNL A   1      41.460  29.516  32.464  1.00  0.00    -0.354 N 
ATOM     57  N   UNL A   1      41.227  31.480  34.617  1.00  0.00    -0.248 NA
ATOM     58  C   UNL A   1      41.919  32.324  36.682  1.00  0.00     0.031 C 
ATOM     59  C   UNL A   1      43.077  27.997  32.588  1.00  0.00     0.029 A 
ATOM     60  C   UNL A   1      42.516  29.078  33.247  1.00  0.00     0.049 A 
ATOM     61  H   UNL A   1      40.867  30.269  32.686  1.00  0.00     0.167 HD
ATOM     62  C   UNL A   1      42.309  30.738  35.075  1.00  0.00     0.074 A 
ATOM     63  C   UNL A   1      42.717  31.325  36.334  1.00  0.00     0.031 C 
ATOM     64  C   UNL A   1      42.911  29.668  34.501  1.00  0.00     0.031 A 
BRANCH  51  65
ATOM     65  C   UNL A   1      40.344  27.916  29.159  1.00  0.00    -0.014 A 
ATOM     66  C   UNL A   1      39.581  26.737  29.214  1.00  0.00     0.009 A 
ATOM     67  C   UNL A   1      41.077  28.193  27.995  1.00  0.00     0.009 A 
ATOM     68  C   UNL A   1      39.586  25.840  28.145  1.00  0.00     0.001 A 
ATOM     69  C   UNL A   1      41.054  27.310  26.914  1.00  0.00     0.001 A 
ATOM     70  C   UNL A   1      40.318  26.128  26.995  1.00  0.00     0.000 A 
ENDBRANCH  51  65
BRANCH  52  71
ATOM     71  C   UNL A   1      39.916  34.452  36.681  1.00  0.00    -0.014 A 
ATOM     72  C   UNL A   1      40.625  35.664  36.650  1.00  0.00     0.009 A 
ATOM     73  C   UNL A   1      39.141  34.151  37.811  1.00  0.00     0.009 A 
ATOM     74  C   UNL A   1      40.584  36.537  37.739  1.00  0.00     0.001 A 
ATOM     75  C   UNL A   1      39.075  35.041  38.885  1.00  0.00     0.001 A 
ATOM     76  C   UNL A   1      39.805  36.228  38.852  1.00  0.00     0.000 A 
ENDBRANCH  52  71
BRANCH  64  77
ATOM     77  C   UNL A   1      44.101  29.082  35.212  1.00  0.00    -0.014 A 
ATOM     78  C   UNL A   1      43.959  28.049  36.152  1.00  0.00     0.009 A 
ATOM     79  C   UNL A   1      45.389  29.549  34.905  1.00  0.00     0.009 A 
ATOM     80  C   UNL A   1      45.081  27.521  36.794  1.00  0.00     0.001 A 
ATOM     81  C   UNL A   1      46.511  28.996  35.524  1.00  0.00     0.001 A 
ATOM     82  C   UNL A   1      46.355  27.990  36.475  1.00  0.00     0.000 A 
ENDBRANCH  64  77
ENDBRANCH  38  39
ENDBRANCH  30  33
ENDBRANCH  28  29
ENDBRANCH  27  28
ENDBRANCH   1  27
TORSDOF 14
ENDMDL
MODEL 2
REMARK VINA RESULT:     -11.6      0.964      5.915
REMARK SMILES O=C(Cc1cncnc1N1CCC2(CC1)OCCC[C@@H]2O)NCCCCNC(=O)c1ccc(-c2c3nc(c(-c4ccccc4)c4ccc([nH]4)c(-c4ccccc4)c4nc(c(-c5ccccc5)c5ccc2[nH]5)C=C4)C=C3)cc1
REMARK SMILES IDX 24 1 23 2 22 3 1 4 2 5 3 7 4 8 5 9 9 10 6 11 8 12 7 13 10 14
REMARK SMILES IDX 11 15 15 16 12 17 14 18 13 19 16 20 20 21 17 22 19 23 18 24
REMARK SMILES IDX 21 25 25 27 26 28 27 29 28 30 29 32 30 33 31 34 77 35 32 36
REMARK SMILES IDX 76 37 33 38 34 39 35 40 70 41 36 42 75 43 69 44 71 45 37 46
REMARK SMILES IDX 74 47 68 48 67 49 38 51 60 52 45 53 59 54 46 55 49 56 58 57
REMARK SMILES IDX 72 58 47 59 48 60 57 62 73 63 50 64 39 65 40 66 44 67 41 68
REMARK SMILES IDX 43 69 42 70 61 71 62 72 66 73 63 74 65 75 64 76 51 77 52 78
REMARK SMILES IDX 56 79 53 80 55 81 54 82
REMARK H PARENT 22 6 21 26 27 31 71 50 49 61
REMARK Flexibility Score: inf
ROOT
ATOM      1  C   UNL A   1      31.761  30.611  26.508  1.00  0.00     0.023 C 
ENDROOT
BRANCH   1   2
ATOM      2  C   UNL A   1      33.181  30.118  26.781  1.00  0.00     0.116 C 
BRANCH   2   3
ATOM      3  N   UNL A   1      33.565  29.044  25.887  1.00  0.00    -0.356 N 
ATOM      4  O   UNL A   1      32.818  27.343  27.226  1.00  0.00    -0.275 OA
ATOM      5  C   UNL A   1      33.343  27.715  26.180  1.00  0.00     0.224 C 
ATOM      6  H   UNL A   1      34.002  29.274  25.035  1.00  0.00     0.163 HD
BRANCH   5   7
ATOM      7  C   UNL A   1      33.891  26.732  25.158  1.00  0.00     0.141 C 
BRANCH   7   8
ATOM      8  C   UNL A   1      33.321  25.344  25.260  1.00  0.00     0.022 A 
ATOM      9  C   UNL A   1      33.992  24.372  25.985  1.00  0.00     0.121 A 
ATOM     10  C   UNL A   1      32.094  24.962  24.727  1.00  0.00     0.135 A 
ATOM     11  N   UNL A   1      33.553  23.118  26.158  1.00  0.00    -0.244 NA
ATOM     12  N   UNL A   1      31.611  23.718  24.909  1.00  0.00    -0.219 NA
ATOM     13  C   UNL A   1      32.367  22.855  25.601  1.00  0.00     0.224 A 
BRANCH  10  14
ATOM     14  N   UNL A   1      31.268  25.889  24.136  1.00  0.00    -0.356 N 
ATOM     15  C   UNL A   1      30.204  26.471  24.935  1.00  0.00     0.121 C 
ATOM     16  C   UNL A   1      31.007  25.882  22.703  1.00  0.00     0.121 C 
ATOM     17  C   UNL A   1      30.181  27.957  24.592  1.00  0.00     0.060 C 
ATOM     18  C   UNL A   1      30.937  27.336  22.232  1.00  0.00     0.060 C 
ATOM     19  C   UNL A   1      29.961  28.199  23.075  1.00  0.00     0.097 C 
ATOM     20  O   UNL A   1      28.630  27.792  22.688  1.00  0.00    -0.372 OA
ATOM     21  C   UNL A   1      30.197  29.705  22.746  1.00  0.00     0.146 C 
ATOM     22  C   UNL A   1      27.564  28.585  23.202  1.00  0.00     0.161 C 
ATOM     23  C   UNL A   1      29.084  30.587  23.308  1.00  0.00     0.037 C 
ATOM     24  C   UNL A   1      27.722  30.062  22.871  1.00  0.00     0.031 C 
BRANCH  21  25
ATOM     25  O   UNL A   1      30.258  29.916  21.331  1.00  0.00    -0.390 OA
ATOM     26  H   UNL A   1      30.785  29.212  20.921  1.00  0.00     0.211 HD
ENDBRANCH  21  25
ENDBRANCH  10  14
ENDBRANCH   7   8
ENDBRANCH   5   7
ENDBRANCH   2   3
ENDBRANCH   1   2
BRANCH   1  27
ATOM     27  C   UNL A   1      31.513  32.087  26.838  1.00  0.00     0.023 C 
BRANCH  27  28
ATOM     28  C   UNL A   1      32.762  32.919  27.112  1.00  0.00     0.116 C 
BRANCH  28  29
ATOM     29  N   UNL A   1      32.466  34.201  27.728  1.00  0.00    -0.352 N 
ATOM     30  C   UNL A   1      33.095  34.837  28.769  1.00  0.00     0.251 C 
ATOM     31  H   UNL A   1      31.701  34.687  27.341  1.00  0.00     0.163 HD
ATOM     32  O   UNL A   1      32.609  35.859  29.248  1.00  0.00    -0.269 OA
BRANCH  30  33
ATOM     33  C   UNL A   1      34.341  34.282  29.346  1.00  0.00     0.039 A 
ATOM     34  C   UNL A   1      34.261  33.534  30.524  1.00  0.00     0.014 A 
ATOM     35  C   UNL A   1      35.581  34.498  28.740  1.00  0.00     0.014 A 
ATOM     36  C   UNL A   1      35.412  32.944  31.052  1.00  0.00     0.010 A 
ATOM     37  C   UNL A   1      36.714  33.846  29.225  1.00  0.00     0.010 A 
ATOM     38  C   UNL A   1      36.642  33.060  30.385  1.00  0.00    -0.014 A 
BRANCH  38  39
ATOM     39  C   UNL A   1      37.856  32.356  30.880  1.00  0.00     0.031 A 
ATOM     40  C   UNL A   1      38.650  32.918  32.027  1.00  0.00     0.074 A 
ATOM     41  C   UNL A   1      38.280  31.239  30.255  1.00  0.00     0.049 A 
ATOM     42  N   UNL A   1      39.762  32.473  32.558  1.00  0.00    -0.248 NA
ATOM     43  C   UNL A   1      38.141  34.152  32.647  1.00  0.00     0.031 C 
ATOM     44  C   UNL A   1      37.625  30.608  29.108  1.00  0.00     0.029 A 
ATOM     45  N   UNL A   1      39.371  30.440  30.496  1.00  0.00    -0.354 N 
ATOM     46  C   UNL A   1      40.090  33.377  33.562  1.00  0.00     0.074 A 
ATOM     47  C   UNL A   1      39.090  34.422  33.529  1.00  0.00     0.031 C 
ATOM     48  C   UNL A   1      38.310  29.507  28.762  1.00  0.00     0.029 A 
ATOM     49  C   UNL A   1      39.477  29.379  29.629  1.00  0.00     0.049 A 
ATOM     50  H   UNL A   1      40.015  30.611  31.219  1.00  0.00     0.167 HD
ATOM     51  C   UNL A   1      41.118  33.333  34.443  1.00  0.00     0.031 A 
ATOM     52  C   UNL A   1      40.413  28.415  29.534  1.00  0.00     0.031 A 
ATOM     53  C   UNL A   1      42.115  32.295  34.475  1.00  0.00     0.049 A 
ATOM     54  C   UNL A   1      41.562  28.405  30.504  1.00  0.00     0.074 A 
ATOM     55  C   UNL A   1      43.169  32.140  35.360  1.00  0.00     0.029 A 
ATOM     56  N   UNL A   1      42.187  31.240  33.579  1.00  0.00    -0.354 N 
ATOM     57  N   UNL A   1      41.820  29.231  31.487  1.00  0.00    -0.248 NA
ATOM     58  C   UNL A   1      42.543  27.321  30.354  1.00  0.00     0.031 C 
ATOM     59  C   UNL A   1      43.913  31.024  34.962  1.00  0.00     0.029 A 
ATOM     60  C   UNL A   1      43.284  30.446  33.872  1.00  0.00     0.049 A 
ATOM     61  H   UNL A   1      41.554  31.080  32.843  1.00  0.00     0.167 HD
ATOM     62  C   UNL A   1      42.975  28.751  32.092  1.00  0.00     0.074 A 
ATOM     63  C   UNL A   1      43.356  27.552  31.375  1.00  0.00     0.031 C 
ATOM     64  C   UNL A   1      43.656  29.256  33.149  1.00  0.00     0.031 A 
BRANCH  51  65
ATOM     65  C   UNL A   1      41.219  34.451  35.445  1.00  0.00    -0.014 A 
ATOM     66  C   UNL A   1      42.020  35.579  35.200  1.00  0.00     0.009 A 
ATOM     67  C   UNL A   1      40.477  34.394  36.635  1.00  0.00     0.009 A 
ATOM     68  C   UNL A   1      42.108  36.604  36.144  1.00  0.00     0.001 A 
ATOM     69  C   UNL A   1      40.541  35.435  37.562  1.00  0.00     0.001 A 
ATOM     70  C   UNL A   1      41.365  36.534  37.321  1.00  0.00     0.000 A 
ENDBRANCH  51  65
BRANCH  52  71
ATOM     71  C   UNL A   1      40.302  27.371  28.480  1.00  0.00    -0.014 A 
ATOM     72  C   UNL A   1      40.894  27.558  27.221  1.00  0.00     0.009 A 
ATOM     73  C   UNL A   1      39.596  26.182  28.725  1.00  0.00     0.009 A 
ATOM     74  C   UNL A   1      40.754  26.593  26.221  1.00  0.00     0.001 A 
ATOM     75  C   UNL A   1      39.486  25.204  27.735  1.00  0.00     0.001 A 
ATOM     76  C   UNL A   1      40.057  25.415  26.480  1.00  0.00     0.000 A 
ENDBRANCH  52  71
BRANCH  64  77
ATOM     77  C   UNL A   1      44.866  28.495  33.619  1.00  0.00    -0.014 A 
ATOM     78  C   UNL A   1      46.150  28.788  33.135  1.00  0.00     0.009 A 
ATOM     79  C   UNL A   1      44.718  27.493  34.592  1.00  0.00     0.009 A 
ATOM     80  C   UNL A   1      47.257  28.068  33.591  1.00  0.00     0.001 A 
ATOM     81  C   UNL A   1      45.830  26.798  35.070  1.00  0.00     0.001 A 
ATOM     82  C   UNL A   1      47.097  27.080  34.562  1.00  0.00     0.000 A 
ENDBRANCH  64  77
ENDBRANCH  38  39
ENDBRANCH  30  33
ENDBRANCH  28  29
ENDBRANCH  27  28
ENDBRANCH   1  27
TORSDOF 14
ENDMDL
MODEL 3
REMARK VINA RESULT:     -11.5      5.410     10.452
REMARK SMILES O=C(Cc1cncnc1N1CCC2(CC1)OCCC[C@@H]2O)NCCCCNC(=O)c1ccc(-c2c3nc(c(-c4ccccc4)c4ccc([nH]4)c(-c4ccccc4)c4nc(c(-c5ccccc5)c5ccc2[nH]5)C=C4)C=C3)cc1
REMARK SMILES IDX 24 1 23 2 22 3 1 4 2 5 3 7 4 8 5 9 9 10 6 11 8 12 7 13 10 14
REMARK SMILES IDX 11 15 15 16 12 17 14 18 13 19 16 20 20 21 17 22 19 23 18 24
REMARK SMILES IDX 21 25 25 27 26 28 27 29 28 30 29 32 30 33 31 34 77 35 32 36
REMARK SMILES IDX 76 37 33 38 34 39 35 40 70 41 36 42 75 43 69 44 71 45 37 46
REMARK SMILES IDX 74 47 68 48 67 49 38 51 60 52 45 53 59 54 46 55 49 56 58 57
REMARK SMILES IDX 72 58 47 59 48 60 57 62 73 63 50 64 39 65 40 66 44 67 41 68
REMARK SMILES IDX 43 69 42 70 61 71 62 72 66 73 63 74 65 75 64 76 51 77 52 78
REMARK SMILES IDX 56 79 53 80 55 81 54 82
REMARK H PARENT 22 6 21 26 27 31 71 50 49 61
REMARK Flexibility Score: inf
ROOT
ATOM      1  C   UNL A   1      37.174  21.061  24.794  1.00  0.00     0.023 C 
ENDROOT
BRANCH   1   2
ATOM      2  C   UNL A   1      37.476  22.297  25.641  1.00  0.00     0.116 C 
BRANCH   2   3
ATOM      3  N   UNL A   1      36.267  22.950  26.098  1.00  0.00    -0.356 N 
ATOM      4  O   UNL A   1      35.884  24.119  24.166  1.00  0.00    -0.275 OA
ATOM      5  C   UNL A   1      35.546  23.821  25.309  1.00  0.00     0.224 C 
ATOM      6  H   UNL A   1      35.946  22.764  27.010  1.00  0.00     0.163 HD
BRANCH   5   7
ATOM      7  C   UNL A   1      34.355  24.472  25.992  1.00  0.00     0.141 C 
BRANCH   7   8
ATOM      8  C   UNL A   1      33.376  25.124  25.054  1.00  0.00     0.022 A 
ATOM      9  C   UNL A   1      33.438  26.490  24.830  1.00  0.00     0.121 A 
ATOM     10  C   UNL A   1      32.427  24.431  24.309  1.00  0.00     0.135 A 
ATOM     11  N   UNL A   1      32.632  27.158  23.993  1.00  0.00    -0.244 NA
ATOM     12  N   UNL A   1      31.622  25.069  23.438  1.00  0.00    -0.219 NA
ATOM     13  C   UNL A   1      31.754  26.399  23.332  1.00  0.00     0.224 A 
BRANCH  10  14
ATOM     14  N   UNL A   1      32.391  23.057  24.325  1.00  0.00    -0.356 N 
ATOM     15  C   UNL A   1      32.917  22.342  23.175  1.00  0.00     0.121 C 
ATOM     16  C   UNL A   1      31.382  22.323  25.078  1.00  0.00     0.121 C 
ATOM     17  C   UNL A   1      33.708  21.163  23.735  1.00  0.00     0.060 C 
ATOM     18  C   UNL A   1      32.054  21.088  25.680  1.00  0.00     0.060 C 
ATOM     19  C   UNL A   1      32.832  20.249  24.632  1.00  0.00     0.097 C 
ATOM     20  O   UNL A   1      31.832  19.574  23.837  1.00  0.00    -0.372 OA
ATOM     21  C   UNL A   1      33.739  19.219  25.372  1.00  0.00     0.146 C 
ATOM     22  C   UNL A   1      32.320  18.597  22.923  1.00  0.00     0.161 C 
ATOM     23  C   UNL A   1      34.302  18.171  24.414  1.00  0.00     0.037 C 
ATOM     24  C   UNL A   1      33.177  17.539  23.602  1.00  0.00     0.031 C 
BRANCH  21  25
ATOM     25  O   UNL A   1      33.007  18.536  26.396  1.00  0.00    -0.390 OA
ATOM     26  H   UNL A   1      32.445  19.170  26.869  1.00  0.00     0.211 HD
ENDBRANCH  21  25
ENDBRANCH  10  14
ENDBRANCH   7   8
ENDBRANCH   5   7
ENDBRANCH   2   3
ENDBRANCH   1   2
BRANCH   1  27
ATOM     27  C   UNL A   1      38.134  19.884  25.000  1.00  0.00     0.023 C 
BRANCH  27  28
ATOM     28  C   UNL A   1      39.238  20.108  26.028  1.00  0.00     0.116 C 
BRANCH  28  29
ATOM     29  N   UNL A   1      40.297  19.115  25.951  1.00  0.00    -0.352 N 
ATOM     30  C   UNL A   1      41.653  19.269  26.100  1.00  0.00     0.251 C 
ATOM     31  H   UNL A   1      39.997  18.196  25.763  1.00  0.00     0.163 HD
ATOM     32  O   UNL A   1      42.407  18.330  25.855  1.00  0.00    -0.269 OA
BRANCH  30  33
ATOM     33  C   UNL A   1      42.220  20.570  26.523  1.00  0.00     0.039 A 
ATOM     34  C   UNL A   1      42.768  21.411  25.550  1.00  0.00     0.014 A 
ATOM     35  C   UNL A   1      42.219  20.962  27.863  1.00  0.00     0.014 A 
ATOM     36  C   UNL A   1      43.249  22.672  25.912  1.00  0.00     0.010 A 
ATOM     37  C   UNL A   1      42.629  22.249  28.211  1.00  0.00     0.010 A 
ATOM     38  C   UNL A   1      43.146  23.119  27.239  1.00  0.00    -0.014 A 
BRANCH  38  39
ATOM     39  C   UNL A   1      43.562  24.495  27.623  1.00  0.00     0.031 A 
ATOM     40  C   UNL A   1      42.532  25.539  27.957  1.00  0.00     0.074 A 
ATOM     41  C   UNL A   1      44.869  24.823  27.613  1.00  0.00     0.049 A 
ATOM     42  N   UNL A   1      42.705  26.802  28.261  1.00  0.00    -0.248 NA
ATOM     43  C   UNL A   1      41.123  25.117  27.927  1.00  0.00     0.031 C 
ATOM     44  C   UNL A   1      45.969  23.917  27.274  1.00  0.00     0.029 A 
ATOM     45  N   UNL A   1      45.494  26.014  27.892  1.00  0.00    -0.354 N 
ATOM     46  C   UNL A   1      41.430  27.324  28.445  1.00  0.00     0.074 A 
ATOM     47  C   UNL A   1      40.494  26.257  28.165  1.00  0.00     0.031 C 
ATOM     48  C   UNL A   1      47.133  24.577  27.389  1.00  0.00     0.029 A 
ATOM     49  C   UNL A   1      46.861  25.961  27.764  1.00  0.00     0.049 A 
ATOM     50  H   UNL A   1      45.009  26.828  28.157  1.00  0.00     0.167 HD
ATOM     51  C   UNL A   1      41.070  28.572  28.829  1.00  0.00     0.031 A 
ATOM     52  C   UNL A   1      47.795  26.920  27.920  1.00  0.00     0.031 A 
ATOM     53  C   UNL A   1      41.999  29.636  29.105  1.00  0.00     0.049 A 
ATOM     54  C   UNL A   1      47.368  28.306  28.316  1.00  0.00     0.074 A 
ATOM     55  C   UNL A   1      41.732  30.922  29.544  1.00  0.00     0.029 A 
ATOM     56  N   UNL A   1      43.375  29.541  28.961  1.00  0.00    -0.354 N 
ATOM     57  N   UNL A   1      46.163  28.764  28.548  1.00  0.00    -0.248 NA
ATOM     58  C   UNL A   1      48.435  29.303  28.481  1.00  0.00     0.031 C 
ATOM     59  C   UNL A   1      42.941  31.622  29.609  1.00  0.00     0.029 A 
ATOM     60  C   UNL A   1      43.967  30.754  29.276  1.00  0.00     0.049 A 
ATOM     61  H   UNL A   1      43.859  28.733  28.677  1.00  0.00     0.167 HD
ATOM     62  C   UNL A   1      46.328  30.094  28.915  1.00  0.00     0.074 A 
ATOM     63  C   UNL A   1      47.751  30.362  28.892  1.00  0.00     0.031 C 
ATOM     64  C   UNL A   1      45.385  31.009  29.246  1.00  0.00     0.031 A 
BRANCH  51  65
ATOM     65  C   UNL A   1      39.598  28.857  28.965  1.00  0.00    -0.014 A 
ATOM     66  C   UNL A   1      38.919  28.622  30.172  1.00  0.00     0.009 A 
ATOM     67  C   UNL A   1      38.887  29.399  27.883  1.00  0.00     0.009 A 
ATOM     68  C   UNL A   1      37.552  28.884  30.278  1.00  0.00     0.001 A 
ATOM     69  C   UNL A   1      37.528  29.691  28.003  1.00  0.00     0.001 A 
ATOM     70  C   UNL A   1      36.859  29.423  29.196  1.00  0.00     0.000 A 
ENDBRANCH  51  65
BRANCH  52  71
ATOM     71  C   UNL A   1      49.232  26.601  27.706  1.00  0.00    -0.014 A 
ATOM     72  C   UNL A   1      49.795  26.663  26.422  1.00  0.00     0.009 A 
ATOM     73  C   UNL A   1      50.048  26.226  28.785  1.00  0.00     0.009 A 
ATOM     74  C   UNL A   1      51.136  26.326  26.219  1.00  0.00     0.001 A 
ATOM     75  C   UNL A   1      51.396  25.922  28.584  1.00  0.00     0.001 A 
ATOM     76  C   UNL A   1      51.936  25.962  27.299  1.00  0.00     0.000 A 
ENDBRANCH  52  71
BRANCH  64  77
ATOM     77  C   UNL A   1      45.862  32.380  29.644  1.00  0.00    -0.014 A 
ATOM     78  C   UNL A   1      46.201  32.682  30.971  1.00  0.00     0.009 A 
ATOM     79  C   UNL A   1      46.009  33.374  28.662  1.00  0.00     0.009 A 
ATOM     80  C   UNL A   1      46.645  33.961  31.313  1.00  0.00     0.001 A 
ATOM     81  C   UNL A   1      46.485  34.641  29.000  1.00  0.00     0.001 A 
ATOM     82  C   UNL A   1      46.792  34.937  30.327  1.00  0.00     0.000 A 
ENDBRANCH  64  77
ENDBRANCH  38  39
ENDBRANCH  30  33
ENDBRANCH  28  29
ENDBRANCH  27  28
ENDBRANCH   1  27
TORSDOF 14
ENDMDL
