MODEL 1
REMARK VINA RESULT:     -10.7      0.000      0.000
REMARK SMILES C[C@@H](O)[C@@H](NC(=O)CN(C)C(=O)c1cccs1)C(=O)NCCCCNC(=O)c1ccc(-c2c3nc(c(-c4ccccc4)c4ccc([nH]4)c(-c4ccccc4)c4nc(c(-c5ccccc5)c5ccc2[nH]5)C=C4)C=C3)cc1
REMARK SMILES IDX 21 1 20 2 18 3 19 4 4 6 2 7 1 8 3 9 5 11 6 12 7 14 8 15 9 16
REMARK SMILES IDX 10 17 11 18 12 19 13 20 14 21 17 22 15 23 16 24 22 25 23 26
REMARK SMILES IDX 24 27 25 28 26 29 27 31 28 32 29 33 75 34 30 35 74 36 31 37
REMARK SMILES IDX 32 38 33 39 68 40 34 41 73 42 67 43 69 44 35 45 72 46 66 47
REMARK SMILES IDX 65 48 36 50 58 51 43 52 57 53 44 54 47 55 56 56 70 57 45 58
REMARK SMILES IDX 46 59 55 61 71 62 48 63 37 64 38 65 42 66 39 67 41 68 40 69
REMARK SMILES IDX 59 70 60 71 64 72 61 73 63 74 62 75 49 76 50 77 54 78 51 79
REMARK SMILES IDX 53 80 52 81
REMARK H PARENT 20 5 3 10 5 13 25 30 69 49 47 60
REMARK Flexibility Score: inf
ROOT
ATOM      1  C   UNL A   1      31.937  27.939  25.438  1.00  0.00     0.116 C 
ENDROOT
BRANCH   1   2
ATOM      2  N   UNL A   1      30.595  27.500  25.113  1.00  0.00    -0.354 N 
ATOM      3  C   UNL A   1      29.990  27.313  23.890  1.00  0.00     0.245 C 
ATOM      4  O   UNL A   1      28.956  26.629  23.915  1.00  0.00    -0.273 OA
ATOM      5  H   UNL A   1      30.024  27.304  25.891  1.00  0.00     0.163 HD
BRANCH   3   6
ATOM      6  C   UNL A   1      30.542  27.827  22.513  1.00  0.00     0.200 C 
BRANCH   6   7
ATOM      7  C   UNL A   1      30.090  29.247  22.070  1.00  0.00     0.143 C 
ATOM      8  C   UNL A   1      29.448  30.061  23.206  1.00  0.00     0.041 C 
BRANCH   7   9
ATOM      9  O   UNL A   1      31.235  30.021  21.682  1.00  0.00    -0.391 OA
ATOM     10  H   UNL A   1      31.909  29.971  22.377  1.00  0.00     0.211 HD
ENDBRANCH   7   9
ENDBRANCH   6   7
BRANCH   6  11
ATOM     11  N   UNL A   1      31.835  27.391  21.927  1.00  0.00    -0.341 N 
ATOM     12  C   UNL A   1      32.803  26.463  22.102  1.00  0.00     0.240 C 
ATOM     13  H   UNL A   1      32.060  27.963  21.158  1.00  0.00     0.164 HD
ATOM     14  O   UNL A   1      33.781  26.574  21.351  1.00  0.00    -0.273 OA
BRANCH  12  15
ATOM     15  C   UNL A   1      32.629  25.190  22.901  1.00  0.00     0.219 C 
BRANCH  15  16
ATOM     16  N   UNL A   1      33.824  24.673  23.549  1.00  0.00    -0.332 N 
ATOM     17  C   UNL A   1      34.109  25.493  24.729  1.00  0.00     0.147 C 
BRANCH  16  18
ATOM     18  C   UNL A   1      34.129  23.295  23.186  1.00  0.00     0.264 C 
ATOM     19  O   UNL A   1      35.100  23.151  22.435  1.00  0.00    -0.268 OA
BRANCH  18  20
ATOM     20  C   UNL A   1      33.530  22.044  23.758  1.00  0.00     0.092 A 
ATOM     21  C   UNL A   1      32.482  21.180  23.455  1.00  0.00     0.025 A 
ATOM     22  S   UNL A   1      34.514  21.236  24.962  1.00  0.00    -0.139 S 
ATOM     23  C   UNL A   1      32.436  19.959  24.193  1.00  0.00     0.012 A 
ATOM     24  C   UNL A   1      33.501  19.860  25.041  1.00  0.00     0.065 A 
ENDBRANCH  18  20
ENDBRANCH  16  18
ENDBRANCH  15  16
ENDBRANCH  12  15
ENDBRANCH   6  11
ENDBRANCH   3   6
ENDBRANCH   1   2
BRANCH   1  25
ATOM     25  C   UNL A   1      32.229  29.480  25.569  1.00  0.00     0.023 C 
BRANCH  25  26
ATOM     26  C   UNL A   1      32.249  30.524  26.776  1.00  0.00     0.023 C 
BRANCH  26  27
ATOM     27  C   UNL A   1      33.169  31.689  27.393  1.00  0.00     0.116 C 
BRANCH  27  28
ATOM     28  N   UNL A   1      32.797  33.101  27.563  1.00  0.00    -0.352 N 
ATOM     29  C   UNL A   1      33.214  34.052  28.483  1.00  0.00     0.251 C 
ATOM     30  H   UNL A   1      32.137  33.429  26.911  1.00  0.00     0.163 HD
ATOM     31  O   UNL A   1      32.635  35.113  28.632  1.00  0.00    -0.269 OA
BRANCH  29  32
ATOM     32  C   UNL A   1      34.425  33.770  29.239  1.00  0.00     0.039 A 
ATOM     33  C   UNL A   1      34.430  32.947  30.368  1.00  0.00     0.014 A 
ATOM     34  C   UNL A   1      35.583  34.327  28.711  1.00  0.00     0.014 A 
ATOM     35  C   UNL A   1      35.659  32.590  30.919  1.00  0.00     0.010 A 
ATOM     36  C   UNL A   1      36.792  33.919  29.212  1.00  0.00     0.010 A 
ATOM     37  C   UNL A   1      36.839  33.038  30.306  1.00  0.00    -0.014 A 
BRANCH  37  38
ATOM     38  C   UNL A   1      38.192  32.610  30.708  1.00  0.00     0.031 A 
ATOM     39  C   UNL A   1      38.750  31.365  30.090  1.00  0.00     0.074 A 
ATOM     40  C   UNL A   1      38.746  33.175  31.796  1.00  0.00     0.049 A 
ATOM     41  N   UNL A   1      39.713  30.593  30.514  1.00  0.00    -0.248 NA
ATOM     42  C   UNL A   1      38.074  30.882  28.872  1.00  0.00     0.031 C 
ATOM     43  C   UNL A   1      38.227  34.348  32.507  1.00  0.00     0.029 A 
ATOM     44  N   UNL A   1      39.837  32.797  32.530  1.00  0.00    -0.354 N 
ATOM     45  C   UNL A   1      39.728  29.512  29.643  1.00  0.00     0.074 A 
ATOM     46  C   UNL A   1      38.648  29.702  28.701  1.00  0.00     0.031 C 
ATOM     47  C   UNL A   1      39.001  34.590  33.575  1.00  0.00     0.029 A 
ATOM     48  C   UNL A   1      40.032  33.564  33.652  1.00  0.00     0.049 A 
ATOM     49  H   UNL A   1      40.425  32.049  32.277  1.00  0.00     0.167 HD
ATOM     50  C   UNL A   1      40.580  28.461  29.630  1.00  0.00     0.031 A 
ATOM     51  C   UNL A   1      40.929  33.429  34.645  1.00  0.00     0.031 A 
ATOM     52  C   UNL A   1      41.654  28.309  30.572  1.00  0.00     0.049 A 
ATOM     53  C   UNL A   1      41.884  32.271  34.592  1.00  0.00     0.074 A 
ATOM     54  C   UNL A   1      42.645  27.345  30.606  1.00  0.00     0.029 A 
ATOM     55  N   UNL A   1      41.875  29.155  31.650  1.00  0.00    -0.354 N 
ATOM     56  N   UNL A   1      41.953  31.299  33.714  1.00  0.00    -0.248 NA
ATOM     57  C   UNL A   1      42.888  32.194  35.661  1.00  0.00     0.031 C 
ATOM     58  C   UNL A   1      43.438  27.582  31.734  1.00  0.00     0.029 A 
ATOM     59  C   UNL A   1      42.972  28.722  32.372  1.00  0.00     0.049 A 
ATOM     60  H   UNL A   1      41.331  29.946  31.868  1.00  0.00     0.167 HD
ATOM     61  C   UNL A   1      43.017  30.502  34.113  1.00  0.00     0.074 A 
ATOM     62  C   UNL A   1      43.576  31.121  35.300  1.00  0.00     0.031 C 
ATOM     63  C   UNL A   1      43.490  29.360  33.555  1.00  0.00     0.031 A 
BRANCH  50  64
ATOM     64  C   UNL A   1      40.377  27.415  28.569  1.00  0.00    -0.014 A 
ATOM     65  C   UNL A   1      39.596  26.272  28.813  1.00  0.00     0.009 A 
ATOM     66  C   UNL A   1      40.960  27.575  27.303  1.00  0.00     0.009 A 
ATOM     67  C   UNL A   1      39.444  25.292  27.831  1.00  0.00     0.001 A 
ATOM     68  C   UNL A   1      40.779  26.609  26.311  1.00  0.00     0.001 A 
ATOM     69  C   UNL A   1      40.031  25.464  26.578  1.00  0.00     0.000 A 
ENDBRANCH  50  64
BRANCH  51  70
ATOM     70  C   UNL A   1      40.979  34.428  35.744  1.00  0.00    -0.014 A 
ATOM     71  C   UNL A   1      41.726  35.606  35.584  1.00  0.00     0.009 A 
ATOM     72  C   UNL A   1      40.268  34.233  36.938  1.00  0.00     0.009 A 
ATOM     73  C   UNL A   1      41.776  36.558  36.605  1.00  0.00     0.001 A 
ATOM     74  C   UNL A   1      40.299  35.201  37.947  1.00  0.00     0.001 A 
ATOM     75  C   UNL A   1      41.059  36.357  37.782  1.00  0.00     0.000 A 
ENDBRANCH  51  70
BRANCH  63  76
ATOM     76  C   UNL A   1      44.674  28.724  34.222  1.00  0.00    -0.014 A 
ATOM     77  C   UNL A   1      44.506  27.734  35.200  1.00  0.00     0.009 A 
ATOM     78  C   UNL A   1      45.972  29.088  33.830  1.00  0.00     0.009 A 
ATOM     79  C   UNL A   1      45.618  27.139  35.796  1.00  0.00     0.001 A 
ATOM     80  C   UNL A   1      47.081  28.470  34.405  1.00  0.00     0.001 A 
ATOM     81  C   UNL A   1      46.904  27.502  35.393  1.00  0.00     0.000 A 
ENDBRANCH  63  76
ENDBRANCH  37  38
ENDBRANCH  29  32
ENDBRANCH  27  28
ENDBRANCH  26  27
ENDBRANCH  25  26
ENDBRANCH   1  25
TORSDOF 18
ENDMDL
MODEL 2
REMARK VINA RESULT:     -10.5      3.503      7.568
REMARK SMILES C[C@@H](O)[C@@H](NC(=O)CN(C)C(=O)c1cccs1)C(=O)NCCCCNC(=O)c1ccc(-c2c3nc(c(-c4ccccc4)c4ccc([nH]4)c(-c4ccccc4)c4nc(c(-c5ccccc5)c5ccc2[nH]5)C=C4)C=C3)cc1
REMARK SMILES IDX 21 1 20 2 18 3 19 4 4 6 2 7 1 8 3 9 5 11 6 12 7 14 8 15 9 16
REMARK SMILES IDX 10 17 11 18 12 19 13 20 14 21 17 22 15 23 16 24 22 25 23 26
REMARK SMILES IDX 24 27 25 28 26 29 27 31 28 32 29 33 75 34 30 35 74 36 31 37
REMARK SMILES IDX 32 38 33 39 68 40 34 41 73 42 67 43 69 44 35 45 72 46 66 47
REMARK SMILES IDX 65 48 36 50 58 51 43 52 57 53 44 54 47 55 56 56 70 57 45 58
REMARK SMILES IDX 46 59 55 61 71 62 48 63 37 64 38 65 42 66 39 67 41 68 40 69
REMARK SMILES IDX 59 70 60 71 64 72 61 73 63 74 62 75 49 76 50 77 54 78 51 79
REMARK SMILES IDX 53 80 52 81
REMARK H PARENT 20 5 3 10 5 13 25 30 69 49 47 60
REMARK Flexibility Score: inf
ROOT
ATOM      1  C   UNL A   1      33.939  26.904  23.576  1.00  0.00     0.116 C 
ENDROOT
BRANCH   1   2
ATOM      2  N   UNL A   1      33.136  26.743  22.381  1.00  0.00    -0.354 N 
ATOM      3  C   UNL A   1      31.991  26.007  22.169  1.00  0.00     0.245 C 
ATOM      4  O   UNL A   1      31.351  26.313  21.153  1.00  0.00    -0.273 OA
ATOM      5  H   UNL A   1      33.460  27.238  21.594  1.00  0.00     0.163 HD
BRANCH   3   6
ATOM      6  C   UNL A   1      31.429  24.900  23.130  1.00  0.00     0.200 C 
BRANCH   6   7
ATOM      7  C   UNL A   1      30.309  25.338  24.116  1.00  0.00     0.143 C 
ATOM      8  C   UNL A   1      30.828  25.626  25.534  1.00  0.00     0.041 C 
BRANCH   7   9
ATOM      9  O   UNL A   1      29.744  26.585  23.684  1.00  0.00    -0.391 OA
ATOM     10  H   UNL A   1      29.039  26.849  24.296  1.00  0.00     0.211 HD
ENDBRANCH   7   9
ENDBRANCH   6   7
BRANCH   6  11
ATOM     11  N   UNL A   1      31.418  23.451  22.804  1.00  0.00    -0.341 N 
ATOM     12  C   UNL A   1      32.233  22.371  22.807  1.00  0.00     0.240 C 
ATOM     13  H   UNL A   1      30.526  23.191  22.479  1.00  0.00     0.164 HD
ATOM     14  O   UNL A   1      31.740  21.338  22.336  1.00  0.00    -0.273 OA
BRANCH  12  15
ATOM     15  C   UNL A   1      33.523  22.280  23.594  1.00  0.00     0.219 C 
BRANCH  15  16
ATOM     16  N   UNL A   1      33.431  22.594  25.011  1.00  0.00    -0.332 N 
ATOM     17  C   UNL A   1      32.578  21.594  25.657  1.00  0.00     0.147 C 
BRANCH  16  18
ATOM     18  C   UNL A   1      34.509  23.451  25.485  1.00  0.00     0.264 C 
ATOM     19  O   UNL A   1      34.147  24.485  26.057  1.00  0.00    -0.268 OA
BRANCH  18  20
ATOM     20  C   UNL A   1      35.976  23.138  25.528  1.00  0.00     0.092 A 
ATOM     21  C   UNL A   1      37.148  23.777  25.922  1.00  0.00     0.025 A 
ATOM     22  S   UNL A   1      36.380  21.448  25.300  1.00  0.00    -0.139 S 
ATOM     23  C   UNL A   1      38.322  22.967  25.980  1.00  0.00     0.012 A 
ATOM     24  C   UNL A   1      38.034  21.667  25.677  1.00  0.00     0.065 A 
ENDBRANCH  18  20
ENDBRANCH  16  18
ENDBRANCH  15  16
ENDBRANCH  12  15
ENDBRANCH   6  11
ENDBRANCH   3   6
ENDBRANCH   1   2
BRANCH   1  25
ATOM     25  C   UNL A   1      33.570  28.040  24.600  1.00  0.00     0.023 C 
BRANCH  25  26
ATOM     26  C   UNL A   1      34.121  28.493  26.028  1.00  0.00     0.023 C 
BRANCH  26  27
ATOM     27  C   UNL A   1      33.601  29.103  27.421  1.00  0.00     0.116 C 
BRANCH  27  28
ATOM     28  N   UNL A   1      33.842  30.462  27.927  1.00  0.00    -0.352 N 
ATOM     29  C   UNL A   1      34.915  31.003  28.620  1.00  0.00     0.251 C 
ATOM     30  H   UNL A   1      33.116  31.100  27.741  1.00  0.00     0.163 HD
ATOM     31  O   UNL A   1      34.856  32.089  29.169  1.00  0.00    -0.269 OA
BRANCH  29  32
ATOM     32  C   UNL A   1      36.160  30.251  28.624  1.00  0.00     0.039 A 
ATOM     33  C   UNL A   1      37.040  30.250  27.538  1.00  0.00     0.014 A 
ATOM     34  C   UNL A   1      36.437  29.590  29.814  1.00  0.00     0.014 A 
ATOM     35  C   UNL A   1      38.286  29.648  27.699  1.00  0.00     0.010 A 
ATOM     36  C   UNL A   1      37.688  29.062  29.993  1.00  0.00     0.010 A 
ATOM     37  C   UNL A   1      38.625  29.100  28.946  1.00  0.00    -0.014 A 
BRANCH  37  38
ATOM     38  C   UNL A   1      39.960  28.570  29.280  1.00  0.00     0.031 A 
ATOM     39  C   UNL A   1      41.019  29.542  29.703  1.00  0.00     0.074 A 
ATOM     40  C   UNL A   1      40.254  27.306  28.927  1.00  0.00     0.049 A 
ATOM     41  N   UNL A   1      42.316  29.404  29.696  1.00  0.00    -0.248 NA
ATOM     42  C   UNL A   1      40.550  30.880  30.111  1.00  0.00     0.031 C 
ATOM     43  C   UNL A   1      39.296  26.312  28.434  1.00  0.00     0.029 A 
ATOM     44  N   UNL A   1      41.460  26.662  28.872  1.00  0.00    -0.354 N 
ATOM     45  C   UNL A   1      42.820  30.648  30.053  1.00  0.00     0.074 A 
ATOM     46  C   UNL A   1      41.693  31.539  30.218  1.00  0.00     0.031 C 
ATOM     47  C   UNL A   1      39.954  25.184  28.125  1.00  0.00     0.029 A 
ATOM     48  C   UNL A   1      41.378  25.394  28.348  1.00  0.00     0.049 A 
ATOM     49  H   UNL A   1      42.303  27.066  29.178  1.00  0.00     0.167 HD
ATOM     50  C   UNL A   1      44.112  31.005  30.236  1.00  0.00     0.031 A 
ATOM     51  C   UNL A   1      42.353  24.515  28.056  1.00  0.00     0.031 A 
ATOM     52  C   UNL A   1      45.209  30.091  30.078  1.00  0.00     0.049 A 
ATOM     53  C   UNL A   1      43.778  24.925  28.296  1.00  0.00     0.074 A 
ATOM     54  C   UNL A   1      46.553  30.301  30.330  1.00  0.00     0.029 A 
ATOM     55  N   UNL A   1      45.081  28.785  29.627  1.00  0.00    -0.354 N 
ATOM     56  N   UNL A   1      44.245  26.075  28.722  1.00  0.00    -0.248 NA
ATOM     57  C   UNL A   1      44.809  23.916  28.023  1.00  0.00     0.031 C 
ATOM     58  C   UNL A   1      47.243  29.134  29.985  1.00  0.00     0.029 A 
ATOM     59  C   UNL A   1      46.324  28.182  29.568  1.00  0.00     0.049 A 
ATOM     60  H   UNL A   1      44.231  28.352  29.384  1.00  0.00     0.167 HD
ATOM     61  C   UNL A   1      45.623  25.925  28.784  1.00  0.00     0.074 A 
ATOM     62  C   UNL A   1      45.911  24.564  28.374  1.00  0.00     0.031 C 
ATOM     63  C   UNL A   1      46.569  26.828  29.143  1.00  0.00     0.031 A 
BRANCH  50  64
ATOM     64  C   UNL A   1      44.390  32.431  30.625  1.00  0.00    -0.014 A 
ATOM     65  C   UNL A   1      44.603  33.423  29.652  1.00  0.00     0.009 A 
ATOM     66  C   UNL A   1      44.429  32.795  31.979  1.00  0.00     0.009 A 
ATOM     67  C   UNL A   1      44.895  34.735  30.028  1.00  0.00     0.001 A 
ATOM     68  C   UNL A   1      44.688  34.116  32.352  1.00  0.00     0.001 A 
ATOM     69  C   UNL A   1      44.932  35.082  31.378  1.00  0.00     0.000 A 
ENDBRANCH  50  64
BRANCH  51  70
ATOM     70  C   UNL A   1      42.009  23.167  27.537  1.00  0.00    -0.014 A 
ATOM     71  C   UNL A   1      42.178  22.878  26.174  1.00  0.00     0.009 A 
ATOM     72  C   UNL A   1      41.543  22.155  28.391  1.00  0.00     0.009 A 
ATOM     73  C   UNL A   1      41.866  21.612  25.673  1.00  0.00     0.001 A 
ATOM     74  C   UNL A   1      41.258  20.881  27.891  1.00  0.00     0.001 A 
ATOM     75  C   UNL A   1      41.412  20.614  26.532  1.00  0.00     0.000 A 
ENDBRANCH  51  70
BRANCH  63  76
ATOM     76  C   UNL A   1      47.994  26.358  29.116  1.00  0.00    -0.014 A 
ATOM     77  C   UNL A   1      48.723  26.330  27.918  1.00  0.00     0.009 A 
ATOM     78  C   UNL A   1      48.627  25.987  30.313  1.00  0.00     0.009 A 
ATOM     79  C   UNL A   1      50.053  25.910  27.914  1.00  0.00     0.001 A 
ATOM     80  C   UNL A   1      49.966  25.596  30.310  1.00  0.00     0.001 A 
ATOM     81  C   UNL A   1      50.674  25.550  29.110  1.00  0.00     0.000 A 
ENDBRANCH  63  76
ENDBRANCH  37  38
ENDBRANCH  29  32
ENDBRANCH  27  28
ENDBRANCH  26  27
ENDBRANCH  25  26
ENDBRANCH   1  25
TORSDOF 18
ENDMDL
MODEL 3
REMARK VINA RESULT:     -10.4      1.240      1.970
REMARK SMILES C[C@@H](O)[C@@H](NC(=O)CN(C)C(=O)c1cccs1)C(=O)NCCCCNC(=O)c1ccc(-c2c3nc(c(-c4ccccc4)c4ccc([nH]4)c(-c4ccccc4)c4nc(c(-c5ccccc5)c5ccc2[nH]5)C=C4)C=C3)cc1
REMARK SMILES IDX 21 1 20 2 18 3 19 4 4 6 2 7 1 8 3 9 5 11 6 12 7 14 8 15 9 16
REMARK SMILES IDX 10 17 11 18 12 19 13 20 14 21 17 22 15 23 16 24 22 25 23 26
REMARK SMILES IDX 24 27 25 28 26 29 27 31 28 32 29 33 75 34 30 35 74 36 31 37
REMARK SMILES IDX 32 38 33 39 68 40 34 41 73 42 67 43 69 44 35 45 72 46 66 47
REMARK SMILES IDX 65 48 36 50 58 51 43 52 57 53 44 54 47 55 56 56 70 57 45 58
REMARK SMILES IDX 46 59 55 61 71 62 48 63 37 64 38 65 42 66 39 67 41 68 40 69
REMARK SMILES IDX 59 70 60 71 64 72 61 73 63 74 62 75 49 76 50 77 54 78 51 79
REMARK SMILES IDX 53 80 52 81
REMARK H PARENT 20 5 3 10 5 13 25 30 69 49 47 60
REMARK Flexibility Score: inf
ROOT
ATOM      1  C   UNL A   1      32.909  29.322  23.856  1.00  0.00     0.116 C 
ENDROOT
BRANCH   1   2
ATOM      2  N   UNL A   1      31.778  29.330  22.949  1.00  0.00    -0.354 N 
ATOM      3  C   UNL A   1      30.920  28.316  22.586  1.00  0.00     0.245 C 
ATOM      4  O   UNL A   1      29.865  28.688  22.053  1.00  0.00    -0.273 OA
ATOM      5  H   UNL A   1      31.594  30.199  22.525  1.00  0.00     0.163 HD
BRANCH   3   6
ATOM      6  C   UNL A   1      31.150  26.787  22.859  1.00  0.00     0.200 C 
BRANCH   6   7
ATOM      7  C   UNL A   1      30.083  26.068  23.731  1.00  0.00     0.143 C 
ATOM      8  C   UNL A   1      30.457  26.010  25.221  1.00  0.00     0.041 C 
BRANCH   7   9
ATOM      9  O   UNL A   1      28.854  26.809  23.702  1.00  0.00    -0.391 OA
ATOM     10  H   UNL A   1      28.576  26.939  22.782  1.00  0.00     0.211 HD
ENDBRANCH   7   9
ENDBRANCH   6   7
BRANCH   6  11
ATOM     11  N   UNL A   1      31.889  25.886  21.937  1.00  0.00    -0.341 N 
ATOM     12  C   UNL A   1      32.819  24.905  21.955  1.00  0.00     0.240 C 
ATOM     13  H   UNL A   1      31.608  26.059  21.009  1.00  0.00     0.164 HD
ATOM     14  O   UNL A   1      33.183  24.503  20.842  1.00  0.00    -0.273 OA
BRANCH  12  15
ATOM     15  C   UNL A   1      33.188  24.103  23.185  1.00  0.00     0.219 C 
BRANCH  15  16
ATOM     16  N   UNL A   1      34.443  24.457  23.827  1.00  0.00    -0.332 N 
ATOM     17  C   UNL A   1      34.163  25.390  24.920  1.00  0.00     0.147 C 
BRANCH  16  18
ATOM     18  C   UNL A   1      35.513  23.502  23.571  1.00  0.00     0.264 C 
ATOM     19  O   UNL A   1      35.540  23.034  22.427  1.00  0.00    -0.268 OA
BRANCH  18  20
ATOM     20  C   UNL A   1      36.677  23.172  24.459  1.00  0.00     0.092 A 
ATOM     21  C   UNL A   1      37.395  23.791  25.478  1.00  0.00     0.025 A 
ATOM     22  S   UNL A   1      37.138  21.481  24.477  1.00  0.00    -0.139 S 
ATOM     23  C   UNL A   1      38.313  22.967  26.196  1.00  0.00     0.012 A 
ATOM     24  C   UNL A   1      38.257  21.676  25.756  1.00  0.00     0.065 A 
ENDBRANCH  18  20
ENDBRANCH  16  18
ENDBRANCH  15  16
ENDBRANCH  12  15
ENDBRANCH   6  11
ENDBRANCH   3   6
ENDBRANCH   1   2
BRANCH   1  25
ATOM     25  C   UNL A   1      32.647  29.257  25.406  1.00  0.00     0.023 C 
BRANCH  25  26
ATOM     26  C   UNL A   1      32.399  30.338  26.554  1.00  0.00     0.023 C 
BRANCH  26  27
ATOM     27  C   UNL A   1      33.166  31.513  27.338  1.00  0.00     0.116 C 
BRANCH  27  28
ATOM     28  N   UNL A   1      32.751  32.921  27.429  1.00  0.00    -0.352 N 
ATOM     29  C   UNL A   1      33.094  33.919  28.331  1.00  0.00     0.251 C 
ATOM     30  H   UNL A   1      32.120  33.205  26.730  1.00  0.00     0.163 HD
ATOM     31  O   UNL A   1      32.482  34.969  28.404  1.00  0.00    -0.269 OA
BRANCH  29  32
ATOM     32  C   UNL A   1      34.267  33.698  29.162  1.00  0.00     0.039 A 
ATOM     33  C   UNL A   1      34.232  32.910  30.316  1.00  0.00     0.014 A 
ATOM     34  C   UNL A   1      35.437  34.275  28.682  1.00  0.00     0.014 A 
ATOM     35  C   UNL A   1      35.438  32.611  30.946  1.00  0.00     0.010 A 
ATOM     36  C   UNL A   1      36.626  33.921  29.263  1.00  0.00     0.010 A 
ATOM     37  C   UNL A   1      36.638  33.077  30.386  1.00  0.00    -0.014 A 
BRANCH  37  38
ATOM     38  C   UNL A   1      37.978  32.705  30.877  1.00  0.00     0.031 A 
ATOM     39  C   UNL A   1      38.659  31.530  30.245  1.00  0.00     0.074 A 
ATOM     40  C   UNL A   1      38.407  33.239  32.035  1.00  0.00     0.049 A 
ATOM     41  N   UNL A   1      39.630  30.792  30.708  1.00  0.00    -0.248 NA
ATOM     42  C   UNL A   1      38.113  31.078  28.952  1.00  0.00     0.031 C 
ATOM     43  C   UNL A   1      37.762  34.339  32.759  1.00  0.00     0.029 A 
ATOM     44  N   UNL A   1      39.457  32.883  32.837  1.00  0.00    -0.354 N 
ATOM     45  C   UNL A   1      39.781  29.763  29.787  1.00  0.00     0.074 A 
ATOM     46  C   UNL A   1      38.770  29.944  28.769  1.00  0.00     0.031 C 
ATOM     47  C   UNL A   1      38.431  34.565  33.899  1.00  0.00     0.029 A 
ATOM     48  C   UNL A   1      39.514  33.596  34.009  1.00  0.00     0.049 A 
ATOM     49  H   UNL A   1      40.108  32.185  32.596  1.00  0.00     0.167 HD
ATOM     50  C   UNL A   1      40.694  28.765  29.792  1.00  0.00     0.031 A 
ATOM     51  C   UNL A   1      40.335  33.458  35.065  1.00  0.00     0.031 A 
ATOM     52  C   UNL A   1      41.696  28.622  30.811  1.00  0.00     0.049 A 
ATOM     53  C   UNL A   1      41.361  32.361  35.033  1.00  0.00     0.074 A 
ATOM     54  C   UNL A   1      42.739  27.716  30.878  1.00  0.00     0.029 A 
ATOM     55  N   UNL A   1      41.778  29.418  31.945  1.00  0.00    -0.354 N 
ATOM     56  N   UNL A   1      41.559  31.444  34.115  1.00  0.00    -0.248 NA
ATOM     57  C   UNL A   1      42.278  32.281  36.177  1.00  0.00     0.031 C 
ATOM     58  C   UNL A   1      43.423  27.934  32.078  1.00  0.00     0.029 A 
ATOM     59  C   UNL A   1      42.838  29.009  32.733  1.00  0.00     0.049 A 
ATOM     60  H   UNL A   1      41.171  30.163  32.157  1.00  0.00     0.167 HD
ATOM     61  C   UNL A   1      42.634  30.688  34.560  1.00  0.00     0.074 A 
ATOM     62  C   UNL A   1      43.058  31.270  35.819  1.00  0.00     0.031 C 
ATOM     63  C   UNL A   1      43.219  29.608  33.986  1.00  0.00     0.031 A 
BRANCH  50  64
ATOM     64  C   UNL A   1      40.641  27.770  28.665  1.00  0.00    -0.014 A 
ATOM     65  C   UNL A   1      41.315  28.005  27.454  1.00  0.00     0.009 A 
ATOM     66  C   UNL A   1      39.921  26.575  28.815  1.00  0.00     0.009 A 
ATOM     67  C   UNL A   1      41.229  27.088  26.404  1.00  0.00     0.001 A 
ATOM     68  C   UNL A   1      39.864  25.645  27.776  1.00  0.00     0.001 A 
ATOM     69  C   UNL A   1      40.509  25.906  26.568  1.00  0.00     0.000 A 
ENDBRANCH  50  64
BRANCH  51  70
ATOM     70  C   UNL A   1      40.236  34.395  36.214  1.00  0.00    -0.014 A 
ATOM     71  C   UNL A   1      40.927  35.616  36.181  1.00  0.00     0.009 A 
ATOM     72  C   UNL A   1      39.438  34.098  37.329  1.00  0.00     0.009 A 
ATOM     73  C   UNL A   1      40.837  36.511  37.249  1.00  0.00     0.001 A 
ATOM     74  C   UNL A   1      39.329  35.007  38.385  1.00  0.00     0.001 A 
ATOM     75  C   UNL A   1      40.034  36.209  38.347  1.00  0.00     0.000 A 
ENDBRANCH  51  70
BRANCH  63  76
ATOM     76  C   UNL A   1      44.383  29.004  34.716  1.00  0.00    -0.014 A 
ATOM     77  C   UNL A   1      45.690  29.467  34.501  1.00  0.00     0.009 A 
ATOM     78  C   UNL A   1      44.161  27.994  35.665  1.00  0.00     0.009 A 
ATOM     79  C   UNL A   1      46.758  28.908  35.203  1.00  0.00     0.001 A 
ATOM     80  C   UNL A   1      45.227  27.458  36.387  1.00  0.00     0.001 A 
ATOM     81  C   UNL A   1      46.525  27.910  36.149  1.00  0.00     0.000 A 
ENDBRANCH  63  76
ENDBRANCH  37  38
ENDBRANCH  29  32
ENDBRANCH  27  28
ENDBRANCH  26  27
ENDBRANCH  25  26
ENDBRANCH   1  25
TORSDOF 18
ENDMDL
