MODEL 1
REMARK VINA RESULT:     -11.2      0.000      0.000
REMARK SMILES [NH3+][C@H]1C=C[C@@H](C(=O)NC2(CC(=O)NCCCCNC(=O)c3ccc(-c4c5nc(c(-c6ccccc6)c6ccc([nH]6)c(-c6ccccc6)c6nc(c(-c7ccccc7)c7ccc4[nH]7)C=C6)C=C5)cc3)CCC2)C1
REMARK SMILES IDX 14 1 13 2 11 3 12 4 10 6 9 7 69 8 71 9 70 10 8 11 6 12 7 13
REMARK SMILES IDX 5 15 2 16 3 17 72 18 4 19 1 20 15 24 16 25 17 26 18 27 19 28
REMARK SMILES IDX 20 30 21 31 22 32 68 33 23 34 67 35 24 36 25 37 26 38 61 39
REMARK SMILES IDX 27 40 66 41 60 42 62 43 28 44 65 45 59 46 58 47 29 49 51 50
REMARK SMILES IDX 36 51 50 52 37 53 40 54 49 55 63 56 38 57 39 58 48 60 64 61
REMARK SMILES IDX 41 62 30 63 31 64 35 65 32 66 34 67 33 68 52 69 53 70 57 71
REMARK SMILES IDX 54 72 56 73 55 74 42 75 43 76 47 77 44 78 46 79 45 80
REMARK H PARENT 13 5 8 14 1 21 1 22 1 23 18 29 62 48 40 59
REMARK Flexibility Score: inf
ROOT
ATOM      1  C   UNL A   1      32.521  29.786  27.093  1.00  0.00     0.116 C 
ENDROOT
BRANCH   1   2
ATOM      2  N   UNL A   1      31.700  28.624  27.356  1.00  0.00    -0.356 N 
ATOM      3  C   UNL A   1      31.768  27.388  26.792  1.00  0.00     0.222 C 
ATOM      4  O   UNL A   1      30.835  26.605  26.983  1.00  0.00    -0.275 OA
ATOM      5  H   UNL A   1      30.997  28.745  28.035  1.00  0.00     0.163 HD
BRANCH   3   6
ATOM      6  C   UNL A   1      32.954  26.970  25.949  1.00  0.00     0.128 C 
BRANCH   6   7
ATOM      7  C   UNL A   1      32.956  25.517  25.406  1.00  0.00     0.049 C 
ATOM      8  C   UNL A   1      34.300  25.170  24.691  1.00  0.00     0.029 C 
ATOM      9  C   UNL A   1      32.285  25.404  24.020  1.00  0.00     0.029 C 
ATOM     10  C   UNL A   1      33.658  25.590  23.360  1.00  0.00     0.005 C 
BRANCH   7  11
ATOM     11  N   UNL A   1      32.633  24.566  26.495  1.00  0.00    -0.350 N 
ATOM     12  C   UNL A   1      32.695  23.234  26.755  1.00  0.00     0.227 C 
ATOM     13  O   UNL A   1      32.322  22.919  27.897  1.00  0.00    -0.274 OA
ATOM     14  H   UNL A   1      32.258  25.046  27.268  1.00  0.00     0.164 HD
BRANCH  12  15
ATOM     15  C   UNL A   1      33.110  22.098  25.813  1.00  0.00     0.107 C 
ATOM     16  C   UNL A   1      33.325  19.668  25.627  1.00  0.00     0.205 C 
ATOM     17  C   UNL A   1      32.237  20.203  24.752  1.00  0.00     0.033 C 
ATOM     18  C   UNL A   1      33.680  20.866  26.522  1.00  0.00     0.087 C 
ATOM     19  C   UNL A   1      32.111  21.533  24.857  1.00  0.00    -0.012 C 
BRANCH  16  20
ATOM     20  N   UNL A   1      32.902  18.520  26.410  1.00  0.00    -0.352 N 
ATOM     21  H   UNL A   1      33.018  18.724  27.403  1.00  0.00     0.345 HD
ATOM     22  H   UNL A   1      33.470  17.711  26.160  1.00  0.00     0.345 HD
ATOM     23  H   UNL A   1      31.921  18.320  26.216  1.00  0.00     0.345 HD
ENDBRANCH  16  20
ENDBRANCH  12  15
ENDBRANCH   7  11
ENDBRANCH   6   7
ENDBRANCH   3   6
ENDBRANCH   1   2
BRANCH   1  24
ATOM     24  C   UNL A   1      31.845  30.699  26.071  1.00  0.00     0.023 C 
BRANCH  24  25
ATOM     25  C   UNL A   1      31.469  32.086  26.587  1.00  0.00     0.023 C 
BRANCH  25  26
ATOM     26  C   UNL A   1      32.598  32.822  27.294  1.00  0.00     0.116 C 
BRANCH  26  27
ATOM     27  N   UNL A   1      32.282  34.203  27.627  1.00  0.00    -0.352 N 
ATOM     28  C   UNL A   1      32.918  35.028  28.524  1.00  0.00     0.251 C 
ATOM     29  H   UNL A   1      31.515  34.596  27.150  1.00  0.00     0.163 HD
ATOM     30  O   UNL A   1      32.493  36.156  28.751  1.00  0.00    -0.269 OA
BRANCH  28  31
ATOM     31  C   UNL A   1      34.094  34.515  29.259  1.00  0.00     0.039 A 
ATOM     32  C   UNL A   1      33.899  33.913  30.503  1.00  0.00     0.014 A 
ATOM     33  C   UNL A   1      35.368  34.566  28.688  1.00  0.00     0.014 A 
ATOM     34  C   UNL A   1      34.972  33.289  31.141  1.00  0.00     0.010 A 
ATOM     35  C   UNL A   1      36.416  33.874  29.284  1.00  0.00     0.010 A 
ATOM     36  C   UNL A   1      36.227  33.225  30.515  1.00  0.00    -0.014 A 
BRANCH  36  37
ATOM     37  C   UNL A   1      37.360  32.487  31.125  1.00  0.00     0.031 A 
ATOM     38  C   UNL A   1      37.936  32.944  32.437  1.00  0.00     0.074 A 
ATOM     39  C   UNL A   1      37.921  31.455  30.464  1.00  0.00     0.049 A 
ATOM     40  N   UNL A   1      38.976  32.488  33.086  1.00  0.00    -0.248 NA
ATOM     41  C   UNL A   1      37.273  34.086  33.090  1.00  0.00     0.031 C 
ATOM     42  C   UNL A   1      37.490  30.943  29.161  1.00  0.00     0.029 A 
ATOM     43  N   UNL A   1      38.986  30.656  30.797  1.00  0.00    -0.354 N 
ATOM     44  C   UNL A   1      39.104  33.298  34.207  1.00  0.00     0.074 A 
ATOM     45  C   UNL A   1      38.069  34.305  34.125  1.00  0.00     0.031 C 
ATOM     46  C   UNL A   1      38.265  29.899  28.820  1.00  0.00     0.029 A 
ATOM     47  C   UNL A   1      39.269  29.694  29.858  1.00  0.00     0.049 A 
ATOM     48  H   UNL A   1      39.499  30.762  31.630  1.00  0.00     0.167 HD
ATOM     49  C   UNL A   1      39.990  33.199  35.227  1.00  0.00     0.031 A 
ATOM     50  C   UNL A   1      40.232  28.755  29.834  1.00  0.00     0.031 A 
ATOM     51  C   UNL A   1      41.003  32.186  35.323  1.00  0.00     0.049 A 
ATOM     52  C   UNL A   1      41.197  28.663  30.982  1.00  0.00     0.074 A 
ATOM     53  C   UNL A   1      41.911  31.968  36.344  1.00  0.00     0.029 A 
ATOM     54  N   UNL A   1      41.239  31.214  34.363  1.00  0.00    -0.354 N 
ATOM     55  N   UNL A   1      41.265  29.397  32.066  1.00  0.00    -0.248 NA
ATOM     56  C   UNL A   1      42.214  27.602  30.909  1.00  0.00     0.031 C 
ATOM     57  C   UNL A   1      42.721  30.886  35.985  1.00  0.00     0.029 A 
ATOM     58  C   UNL A   1      42.286  30.402  34.762  1.00  0.00     0.049 A 
ATOM     59  H   UNL A   1      40.735  31.116  33.523  1.00  0.00     0.167 HD
ATOM     60  C   UNL A   1      42.310  28.872  32.814  1.00  0.00     0.074 A 
ATOM     61  C   UNL A   1      42.837  27.747  32.070  1.00  0.00     0.031 C 
ATOM     62  C   UNL A   1      42.792  29.284  34.011  1.00  0.00     0.031 A 
BRANCH  49  63
ATOM     63  C   UNL A   1      39.893  34.220  36.325  1.00  0.00    -0.014 A 
ATOM     64  C   UNL A   1      40.558  35.454  36.228  1.00  0.00     0.009 A 
ATOM     65  C   UNL A   1      39.102  33.961  37.454  1.00  0.00     0.009 A 
ATOM     66  C   UNL A   1      40.460  36.393  37.256  1.00  0.00     0.001 A 
ATOM     67  C   UNL A   1      38.983  34.914  38.468  1.00  0.00     0.001 A 
ATOM     68  C   UNL A   1      39.669  36.125  38.372  1.00  0.00     0.000 A 
ENDBRANCH  49  63
BRANCH  50  69
ATOM     69  C   UNL A   1      40.328  27.808  28.691  1.00  0.00    -0.014 A 
ATOM     70  C   UNL A   1      41.082  28.141  27.555  1.00  0.00     0.009 A 
ATOM     71  C   UNL A   1      39.652  26.578  28.721  1.00  0.00     0.009 A 
ATOM     72  C   UNL A   1      41.132  27.275  26.459  1.00  0.00     0.001 A 
ATOM     73  C   UNL A   1      39.727  25.703  27.635  1.00  0.00     0.001 A 
ATOM     74  C   UNL A   1      40.456  26.057  26.502  1.00  0.00     0.000 A 
ENDBRANCH  50  69
BRANCH  62  75
ATOM     75  C   UNL A   1      43.920  28.492  34.607  1.00  0.00    -0.014 A 
ATOM     76  C   UNL A   1      43.676  27.374  35.417  1.00  0.00     0.009 A 
ATOM     77  C   UNL A   1      45.246  28.849  34.316  1.00  0.00     0.009 A 
ATOM     78  C   UNL A   1      44.740  26.646  35.951  1.00  0.00     0.001 A 
ATOM     79  C   UNL A   1      46.307  28.103  34.829  1.00  0.00     0.001 A 
ATOM     80  C   UNL A   1      46.054  27.008  35.653  1.00  0.00     0.000 A 
ENDBRANCH  62  75
ENDBRANCH  36  37
ENDBRANCH  28  31
ENDBRANCH  26  27
ENDBRANCH  25  26
ENDBRANCH  24  25
ENDBRANCH   1  24
TORSDOF 15
ENDMDL
MODEL 2
REMARK VINA RESULT:     -11.2      4.546      9.298
REMARK SMILES [NH3+][C@H]1C=C[C@@H](C(=O)NC2(CC(=O)NCCCCNC(=O)c3ccc(-c4c5nc(c(-c6ccccc6)c6ccc([nH]6)c(-c6ccccc6)c6nc(c(-c7ccccc7)c7ccc4[nH]7)C=C6)C=C5)cc3)CCC2)C1
REMARK SMILES IDX 14 1 13 2 11 3 12 4 10 6 9 7 69 8 71 9 70 10 8 11 6 12 7 13
REMARK SMILES IDX 5 15 2 16 3 17 72 18 4 19 1 20 15 24 16 25 17 26 18 27 19 28
REMARK SMILES IDX 20 30 21 31 22 32 68 33 23 34 67 35 24 36 25 37 26 38 61 39
REMARK SMILES IDX 27 40 66 41 60 42 62 43 28 44 65 45 59 46 58 47 29 49 51 50
REMARK SMILES IDX 36 51 50 52 37 53 40 54 49 55 63 56 38 57 39 58 48 60 64 61
REMARK SMILES IDX 41 62 30 63 31 64 35 65 32 66 34 67 33 68 52 69 53 70 57 71
REMARK SMILES IDX 54 72 56 73 55 74 42 75 43 76 47 77 44 78 46 79 45 80
REMARK H PARENT 13 5 8 14 1 21 1 22 1 23 18 29 62 48 40 59
REMARK Flexibility Score: inf
ROOT
ATOM      1  C   UNL A   1      36.945  22.672  25.298  1.00  0.00     0.116 C 
ENDROOT
BRANCH   1   2
ATOM      2  N   UNL A   1      35.928  22.366  26.281  1.00  0.00    -0.356 N 
ATOM      3  C   UNL A   1      34.837  23.098  26.633  1.00  0.00     0.222 C 
ATOM      4  O   UNL A   1      34.219  22.776  27.650  1.00  0.00    -0.275 OA
ATOM      5  H   UNL A   1      36.041  21.512  26.758  1.00  0.00     0.163 HD
BRANCH   3   6
ATOM      6  C   UNL A   1      34.381  24.281  25.806  1.00  0.00     0.128 C 
BRANCH   6   7
ATOM      7  C   UNL A   1      33.361  23.997  24.673  1.00  0.00     0.049 C 
ATOM      8  C   UNL A   1      34.074  23.597  23.342  1.00  0.00     0.029 C 
ATOM      9  C   UNL A   1      32.909  25.282  23.947  1.00  0.00     0.029 C 
ATOM     10  C   UNL A   1      34.026  25.071  22.915  1.00  0.00     0.005 C 
BRANCH   7  11
ATOM     11  N   UNL A   1      32.378  22.980  25.115  1.00  0.00    -0.350 N 
ATOM     12  C   UNL A   1      32.162  21.642  25.019  1.00  0.00     0.227 C 
ATOM     13  O   UNL A   1      31.161  21.242  25.636  1.00  0.00    -0.274 OA
ATOM     14  H   UNL A   1      31.661  23.403  25.640  1.00  0.00     0.164 HD
BRANCH  12  15
ATOM     15  C   UNL A   1      32.955  20.604  24.217  1.00  0.00     0.107 C 
ATOM     16  C   UNL A   1      34.030  18.411  24.348  1.00  0.00     0.205 C 
ATOM     17  C   UNL A   1      32.819  18.389  23.471  1.00  0.00     0.033 C 
ATOM     18  C   UNL A   1      33.933  19.773  25.053  1.00  0.00     0.087 C 
ATOM     19  C   UNL A   1      32.223  19.588  23.404  1.00  0.00    -0.012 C 
BRANCH  16  20
ATOM     20  N   UNL A   1      34.051  17.314  25.301  1.00  0.00    -0.352 N 
ATOM     21  H   UNL A   1      34.233  16.439  24.808  1.00  0.00     0.345 HD
ATOM     22  H   UNL A   1      33.149  17.257  25.774  1.00  0.00     0.345 HD
ATOM     23  H   UNL A   1      34.786  17.476  25.988  1.00  0.00     0.345 HD
ENDBRANCH  16  20
ENDBRANCH  12  15
ENDBRANCH   7  11
ENDBRANCH   6   7
ENDBRANCH   3   6
ENDBRANCH   1   2
BRANCH   1  24
ATOM     24  C   UNL A   1      37.139  21.494  24.344  1.00  0.00     0.023 C 
BRANCH  24  25
ATOM     25  C   UNL A   1      37.757  20.246  24.969  1.00  0.00     0.023 C 
BRANCH  25  26
ATOM     26  C   UNL A   1      38.972  20.517  25.845  1.00  0.00     0.116 C 
BRANCH  26  27
ATOM     27  N   UNL A   1      39.996  19.485  25.765  1.00  0.00    -0.352 N 
ATOM     28  C   UNL A   1      41.329  19.584  26.087  1.00  0.00     0.251 C 
ATOM     29  H   UNL A   1      39.696  18.605  25.439  1.00  0.00     0.163 HD
ATOM     30  O   UNL A   1      42.091  18.641  25.902  1.00  0.00    -0.269 OA
BRANCH  28  31
ATOM     31  C   UNL A   1      41.847  20.867  26.608  1.00  0.00     0.039 A 
ATOM     32  C   UNL A   1      42.301  21.826  25.700  1.00  0.00     0.014 A 
ATOM     33  C   UNL A   1      41.816  21.144  27.976  1.00  0.00     0.014 A 
ATOM     34  C   UNL A   1      42.649  23.097  26.160  1.00  0.00     0.010 A 
ATOM     35  C   UNL A   1      42.084  22.433  28.422  1.00  0.00     0.010 A 
ATOM     36  C   UNL A   1      42.500  23.424  27.518  1.00  0.00    -0.014 A 
BRANCH  36  37
ATOM     37  C   UNL A   1      42.772  24.793  28.019  1.00  0.00     0.031 A 
ATOM     38  C   UNL A   1      44.168  25.182  28.423  1.00  0.00     0.074 A 
ATOM     39  C   UNL A   1      41.754  25.661  28.184  1.00  0.00     0.049 A 
ATOM     40  N   UNL A   1      44.590  26.296  28.963  1.00  0.00    -0.248 NA
ATOM     41  C   UNL A   1      45.222  24.174  28.222  1.00  0.00     0.031 C 
ATOM     42  C   UNL A   1      40.347  25.391  27.876  1.00  0.00     0.029 A 
ATOM     43  N   UNL A   1      41.748  26.947  28.662  1.00  0.00    -0.354 N 
ATOM     44  C   UNL A   1      45.949  26.113  29.186  1.00  0.00     0.074 A 
ATOM     45  C   UNL A   1      46.271  24.766  28.771  1.00  0.00     0.031 C 
ATOM     46  C   UNL A   1      39.620  26.488  28.148  1.00  0.00     0.029 A 
ATOM     47  C   UNL A   1      40.500  27.522  28.683  1.00  0.00     0.049 A 
ATOM     48  H   UNL A   1      42.560  27.415  28.961  1.00  0.00     0.167 HD
ATOM     49  C   UNL A   1      46.854  26.996  29.671  1.00  0.00     0.031 A 
ATOM     50  C   UNL A   1      40.108  28.742  29.090  1.00  0.00     0.031 A 
ATOM     51  C   UNL A   1      46.542  28.343  30.061  1.00  0.00     0.049 A 
ATOM     52  C   UNL A   1      41.134  29.705  29.618  1.00  0.00     0.074 A 
ATOM     53  C   UNL A   1      47.400  29.331  30.511  1.00  0.00     0.029 A 
ATOM     54  N   UNL A   1      45.270  28.894  30.041  1.00  0.00    -0.354 N 
ATOM     55  N   UNL A   1      42.426  29.538  29.762  1.00  0.00    -0.248 NA
ATOM     56  C   UNL A   1      40.649  31.032  30.028  1.00  0.00     0.031 C 
ATOM     57  C   UNL A   1      46.641  30.470  30.799  1.00  0.00     0.029 A 
ATOM     58  C   UNL A   1      45.318  30.204  30.483  1.00  0.00     0.049 A 
ATOM     59  H   UNL A   1      44.455  28.423  29.755  1.00  0.00     0.167 HD
ATOM     60  C   UNL A   1      42.911  30.744  30.253  1.00  0.00     0.074 A 
ATOM     61  C   UNL A   1      41.778  31.638  30.366  1.00  0.00     0.031 C 
ATOM     62  C   UNL A   1      44.181  31.081  30.582  1.00  0.00     0.031 A 
BRANCH  49  63
ATOM     63  C   UNL A   1      48.275  26.525  29.801  1.00  0.00    -0.014 A 
ATOM     64  C   UNL A   1      48.717  25.867  30.961  1.00  0.00     0.009 A 
ATOM     65  C   UNL A   1      49.174  26.711  28.740  1.00  0.00     0.009 A 
ATOM     66  C   UNL A   1      50.040  25.435  31.068  1.00  0.00     0.001 A 
ATOM     67  C   UNL A   1      50.489  26.252  28.839  1.00  0.00     0.001 A 
ATOM     68  C   UNL A   1      50.923  25.623  30.006  1.00  0.00     0.000 A 
ENDBRANCH  49  63
BRANCH  50  69
ATOM     69  C   UNL A   1      38.678  29.139  29.003  1.00  0.00    -0.014 A 
ATOM     70  C   UNL A   1      38.159  29.666  27.809  1.00  0.00     0.009 A 
ATOM     71  C   UNL A   1      37.830  29.013  30.115  1.00  0.00     0.009 A 
ATOM     72  C   UNL A   1      36.828  30.086  27.741  1.00  0.00     0.001 A 
ATOM     73  C   UNL A   1      36.493  29.409  30.034  1.00  0.00     0.001 A 
ATOM     74  C   UNL A   1      35.997  29.955  28.852  1.00  0.00     0.000 A 
ENDBRANCH  50  69
BRANCH  62  75
ATOM     75  C   UNL A   1      44.418  32.485  31.059  1.00  0.00    -0.014 A 
ATOM     76  C   UNL A   1      44.376  32.807  32.423  1.00  0.00     0.009 A 
ATOM     77  C   UNL A   1      44.729  33.489  30.129  1.00  0.00     0.009 A 
ATOM     78  C   UNL A   1      44.610  34.117  32.844  1.00  0.00     0.001 A 
ATOM     79  C   UNL A   1      44.989  34.791  30.555  1.00  0.00     0.001 A 
ATOM     80  C   UNL A   1      44.922  35.106  31.911  1.00  0.00     0.000 A 
ENDBRANCH  62  75
ENDBRANCH  36  37
ENDBRANCH  28  31
ENDBRANCH  26  27
ENDBRANCH  25  26
ENDBRANCH  24  25
ENDBRANCH   1  24
TORSDOF 15
ENDMDL
MODEL 3
REMARK VINA RESULT:     -11.2      4.318      9.631
REMARK SMILES [NH3+][C@H]1C=C[C@@H](C(=O)NC2(CC(=O)NCCCCNC(=O)c3ccc(-c4c5nc(c(-c6ccccc6)c6ccc([nH]6)c(-c6ccccc6)c6nc(c(-c7ccccc7)c7ccc4[nH]7)C=C6)C=C5)cc3)CCC2)C1
REMARK SMILES IDX 14 1 13 2 11 3 12 4 10 6 9 7 69 8 71 9 70 10 8 11 6 12 7 13
REMARK SMILES IDX 5 15 2 16 3 17 72 18 4 19 1 20 15 24 16 25 17 26 18 27 19 28
REMARK SMILES IDX 20 30 21 31 22 32 68 33 23 34 67 35 24 36 25 37 26 38 61 39
REMARK SMILES IDX 27 40 66 41 60 42 62 43 28 44 65 45 59 46 58 47 29 49 51 50
REMARK SMILES IDX 36 51 50 52 37 53 40 54 49 55 63 56 38 57 39 58 48 60 64 61
REMARK SMILES IDX 41 62 30 63 31 64 35 65 32 66 34 67 33 68 52 69 53 70 57 71
REMARK SMILES IDX 54 72 56 73 55 74 42 75 43 76 47 77 44 78 46 79 45 80
REMARK H PARENT 13 5 8 14 1 21 1 22 1 23 18 29 62 48 40 59
REMARK Flexibility Score: inf
ROOT
ATOM      1  C   UNL A   1      36.849  22.416  25.536  1.00  0.00     0.116 C 
ENDROOT
BRANCH   1   2
ATOM      2  N   UNL A   1      35.924  21.849  26.494  1.00  0.00    -0.356 N 
ATOM      3  C   UNL A   1      34.565  21.807  26.443  1.00  0.00     0.222 C 
ATOM      4  O   UNL A   1      33.951  21.487  27.463  1.00  0.00    -0.275 OA
ATOM      5  H   UNL A   1      36.334  21.439  27.289  1.00  0.00     0.163 HD
BRANCH   3   6
ATOM      6  C   UNL A   1      33.813  22.140  25.172  1.00  0.00     0.128 C 
BRANCH   6   7
ATOM      7  C   UNL A   1      32.391  21.541  25.018  1.00  0.00     0.049 C 
ATOM      8  C   UNL A   1      32.416  19.980  25.054  1.00  0.00     0.029 C 
ATOM      9  C   UNL A   1      31.958  21.417  23.541  1.00  0.00     0.029 C 
ATOM     10  C   UNL A   1      32.502  19.982  23.521  1.00  0.00     0.005 C 
BRANCH   7  11
ATOM     11  N   UNL A   1      31.482  22.115  26.038  1.00  0.00    -0.350 N 
ATOM     12  C   UNL A   1      30.983  23.320  26.415  1.00  0.00     0.227 C 
ATOM     13  O   UNL A   1      30.178  23.266  27.359  1.00  0.00    -0.274 OA
ATOM     14  H   UNL A   1      31.133  21.404  26.623  1.00  0.00     0.164 HD
BRANCH  12  15
ATOM     15  C   UNL A   1      31.325  24.708  25.863  1.00  0.00     0.107 C 
ATOM     16  C   UNL A   1      31.362  27.094  26.405  1.00  0.00     0.205 C 
ATOM     17  C   UNL A   1      32.740  26.529  26.265  1.00  0.00     0.033 C 
ATOM     18  C   UNL A   1      30.468  25.844  26.432  1.00  0.00     0.087 C 
ATOM     19  C   UNL A   1      32.723  25.221  25.976  1.00  0.00    -0.012 C 
BRANCH  16  20
ATOM     20  N   UNL A   1      31.203  27.893  27.607  1.00  0.00    -0.352 N 
ATOM     21  H   UNL A   1      31.679  28.788  27.485  1.00  0.00     0.345 HD
ATOM     22  H   UNL A   1      31.608  27.397  28.401  1.00  0.00     0.345 HD
ATOM     23  H   UNL A   1      30.211  28.056  27.778  1.00  0.00     0.345 HD
ENDBRANCH  16  20
ENDBRANCH  12  15
ENDBRANCH   7  11
ENDBRANCH   6   7
ENDBRANCH   3   6
ENDBRANCH   1   2
BRANCH   1  24
ATOM     24  C   UNL A   1      37.205  21.387  24.463  1.00  0.00     0.023 C 
BRANCH  24  25
ATOM     25  C   UNL A   1      37.923  20.140  24.972  1.00  0.00     0.023 C 
BRANCH  25  26
ATOM     26  C   UNL A   1      39.128  20.425  25.858  1.00  0.00     0.116 C 
BRANCH  26  27
ATOM     27  N   UNL A   1      40.164  19.405  25.787  1.00  0.00    -0.352 N 
ATOM     28  C   UNL A   1      41.497  19.524  26.103  1.00  0.00     0.251 C 
ATOM     29  H   UNL A   1      39.874  18.517  25.473  1.00  0.00     0.163 HD
ATOM     30  O   UNL A   1      42.270  18.588  25.928  1.00  0.00    -0.269 OA
BRANCH  28  31
ATOM     31  C   UNL A   1      42.001  20.820  26.607  1.00  0.00     0.039 A 
ATOM     32  C   UNL A   1      42.412  21.785  25.685  1.00  0.00     0.014 A 
ATOM     33  C   UNL A   1      41.999  21.102  27.975  1.00  0.00     0.014 A 
ATOM     34  C   UNL A   1      42.745  23.064  26.131  1.00  0.00     0.010 A 
ATOM     35  C   UNL A   1      42.251  22.398  28.409  1.00  0.00     0.010 A 
ATOM     36  C   UNL A   1      42.623  23.393  27.491  1.00  0.00    -0.014 A 
BRANCH  36  37
ATOM     37  C   UNL A   1      42.879  24.770  27.981  1.00  0.00     0.031 A 
ATOM     38  C   UNL A   1      44.272  25.183  28.370  1.00  0.00     0.074 A 
ATOM     39  C   UNL A   1      41.849  25.623  28.149  1.00  0.00     0.049 A 
ATOM     40  N   UNL A   1      44.682  26.307  28.899  1.00  0.00    -0.248 NA
ATOM     41  C   UNL A   1      45.339  24.189  28.166  1.00  0.00     0.031 C 
ATOM     42  C   UNL A   1      40.444  25.331  27.855  1.00  0.00     0.029 A 
ATOM     43  N   UNL A   1      41.828  26.913  28.618  1.00  0.00    -0.354 N 
ATOM     44  C   UNL A   1      46.046  26.146  29.111  1.00  0.00     0.074 A 
ATOM     45  C   UNL A   1      46.384  24.801  28.702  1.00  0.00     0.031 C 
ATOM     46  C   UNL A   1      39.702  26.419  28.126  1.00  0.00     0.029 A 
ATOM     47  C   UNL A   1      40.572  27.469  28.646  1.00  0.00     0.049 A 
ATOM     48  H   UNL A   1      42.636  27.394  28.907  1.00  0.00     0.167 HD
ATOM     49  C   UNL A   1      46.941  27.045  29.582  1.00  0.00     0.031 A 
ATOM     50  C   UNL A   1      40.165  28.686  29.049  1.00  0.00     0.031 A 
ATOM     51  C   UNL A   1      46.613  28.390  29.966  1.00  0.00     0.049 A 
ATOM     52  C   UNL A   1      41.181  29.668  29.561  1.00  0.00     0.074 A 
ATOM     53  C   UNL A   1      47.459  29.394  30.402  1.00  0.00     0.029 A 
ATOM     54  N   UNL A   1      45.333  28.922  29.953  1.00  0.00    -0.354 N 
ATOM     55  N   UNL A   1      42.477  29.522  29.695  1.00  0.00    -0.248 NA
ATOM     56  C   UNL A   1      40.679  30.990  29.966  1.00  0.00     0.031 C 
ATOM     57  C   UNL A   1      46.686  30.523  30.688  1.00  0.00     0.029 A 
ATOM     58  C   UNL A   1      45.365  30.236  30.386  1.00  0.00     0.049 A 
ATOM     59  H   UNL A   1      44.522  28.437  29.677  1.00  0.00     0.167 HD
ATOM     60  C   UNL A   1      42.948  30.737  30.174  1.00  0.00     0.074 A 
ATOM     61  C   UNL A   1      41.802  31.616  30.290  1.00  0.00     0.031 C 
ATOM     62  C   UNL A   1      44.216  31.096  30.489  1.00  0.00     0.031 A 
BRANCH  49  63
ATOM     63  C   UNL A   1      48.370  26.597  29.702  1.00  0.00    -0.014 A 
ATOM     64  C   UNL A   1      48.831  25.949  30.861  1.00  0.00     0.009 A 
ATOM     65  C   UNL A   1      49.258  26.792  28.634  1.00  0.00     0.009 A 
ATOM     66  C   UNL A   1      50.161  25.538  30.960  1.00  0.00     0.001 A 
ATOM     67  C   UNL A   1      50.581  26.354  28.725  1.00  0.00     0.001 A 
ATOM     68  C   UNL A   1      51.033  25.736  29.891  1.00  0.00     0.000 A 
ENDBRANCH  49  63
BRANCH  50  69
ATOM     69  C   UNL A   1      38.728  29.061  28.972  1.00  0.00    -0.014 A 
ATOM     70  C   UNL A   1      38.183  29.541  27.769  1.00  0.00     0.009 A 
ATOM     71  C   UNL A   1      37.900  28.960  30.100  1.00  0.00     0.009 A 
ATOM     72  C   UNL A   1      36.847  29.942  27.709  1.00  0.00     0.001 A 
ATOM     73  C   UNL A   1      36.556  29.335  30.027  1.00  0.00     0.001 A 
ATOM     74  C   UNL A   1      36.034  29.836  28.836  1.00  0.00     0.000 A 
ENDBRANCH  50  69
BRANCH  62  75
ATOM     75  C   UNL A   1      44.435  32.506  30.954  1.00  0.00    -0.014 A 
ATOM     76  C   UNL A   1      44.684  33.542  30.041  1.00  0.00     0.009 A 
ATOM     77  C   UNL A   1      44.349  32.807  32.322  1.00  0.00     0.009 A 
ATOM     78  C   UNL A   1      44.874  34.848  30.495  1.00  0.00     0.001 A 
ATOM     79  C   UNL A   1      44.512  34.118  32.769  1.00  0.00     0.001 A 
ATOM     80  C   UNL A   1      44.783  35.136  31.856  1.00  0.00     0.000 A 
ENDBRANCH  62  75
ENDBRANCH  36  37
ENDBRANCH  28  31
ENDBRANCH  26  27
ENDBRANCH  25  26
ENDBRANCH  24  25
ENDBRANCH   1  24
TORSDOF 15
ENDMDL
