MODEL 1
REMARK VINA RESULT:      -9.8      0.000      0.000
REMARK SMILES Cc1nc2cc(SCC(=O)NCCCCNC(=O)c3ccc(-c4c5nc(c(-c6ccccc6)c6ccc([nH]6)c(-c6ccccc6)c6nc(c(-c7ccccc7)c7ccc4[nH]7)C=C6)C=C5)cc3)ccc2s1
REMARK SMILES IDX 13 1 12 2 11 3 9 4 10 5 8 7 7 8 6 9 1 10 2 11 3 12 70 13
REMARK SMILES IDX 4 14 69 15 5 16 68 17 67 18 14 19 15 20 16 21 17 22 18 24
REMARK SMILES IDX 19 25 20 26 66 27 21 28 65 29 22 30 23 31 24 32 59 33 25 34
REMARK SMILES IDX 64 35 58 36 60 37 26 38 63 39 57 40 56 41 27 43 49 44 34 45
REMARK SMILES IDX 48 46 35 47 38 48 47 49 61 50 36 51 37 52 46 54 62 55 39 56
REMARK SMILES IDX 28 57 29 58 33 59 30 60 32 61 31 62 50 63 51 64 55 65 52 66
REMARK SMILES IDX 54 67 53 68 40 69 41 70 45 71 42 72 44 73 43 74
REMARK H PARENT 11 6 16 23 60 42 38 53
REMARK Flexibility Score: inf
ROOT
ATOM      1  C   UNL A   1      45.580  18.581  25.334  1.00  0.00     0.023 C 
ENDROOT
BRANCH   1   2
ATOM      2  C   UNL A   1      46.387  19.833  24.991  1.00  0.00     0.116 C 
BRANCH   2   3
ATOM      3  N   UNL A   1      45.640  20.721  24.121  1.00  0.00    -0.355 N 
ATOM      4  C   UNL A   1      45.300  22.028  24.300  1.00  0.00     0.230 C 
ATOM      5  O   UNL A   1      44.615  22.564  23.424  1.00  0.00    -0.274 OA
ATOM      6  H   UNL A   1      45.334  20.320  23.276  1.00  0.00     0.163 HD
BRANCH   4   7
ATOM      7  C   UNL A   1      45.825  22.831  25.476  1.00  0.00     0.174 C 
BRANCH   7   8
ATOM      8  S   UNL A   1      46.558  24.437  25.039  1.00  0.00    -0.116 SA
BRANCH   8   9
ATOM      9  C   UNL A   1      45.289  25.654  25.354  1.00  0.00     0.010 A 
ATOM     10  C   UNL A   1      44.069  31.281  27.341  1.00  0.00     0.079 C 
ATOM     11  C   UNL A   1      44.075  29.878  26.846  1.00  0.00     0.091 A 
ATOM     12  N   UNL A   1      45.148  29.121  26.781  1.00  0.00    -0.241 NA
ATOM     13  S   UNL A   1      42.618  29.155  26.299  1.00  0.00    -0.119 S 
ATOM     14  C   UNL A   1      44.825  27.896  26.221  1.00  0.00     0.083 A 
ATOM     15  C   UNL A   1      43.483  27.727  25.883  1.00  0.00     0.055 A 
ATOM     16  C   UNL A   1      45.726  26.843  25.963  1.00  0.00     0.045 A 
ATOM     17  C   UNL A   1      43.018  26.546  25.289  1.00  0.00     0.022 A 
ATOM     18  C   UNL A   1      43.943  25.527  25.015  1.00  0.00     0.016 A 
ENDBRANCH   8   9
ENDBRANCH   7   8
ENDBRANCH   4   7
ENDBRANCH   2   3
ENDBRANCH   1   2
BRANCH   1  19
ATOM     19  C   UNL A   1      44.083  18.677  25.019  1.00  0.00     0.023 C 
BRANCH  19  20
ATOM     20  C   UNL A   1      43.149  18.459  26.204  1.00  0.00     0.116 C 
BRANCH  20  21
ATOM     21  N   UNL A   1      41.744  18.546  25.842  1.00  0.00    -0.352 N 
ATOM     22  C   UNL A   1      40.845  19.558  26.069  1.00  0.00     0.251 C 
ATOM     23  H   UNL A   1      41.383  17.764  25.365  1.00  0.00     0.163 HD
ATOM     24  O   UNL A   1      39.655  19.392  25.806  1.00  0.00    -0.269 OA
BRANCH  22  25
ATOM     25  C   UNL A   1      41.292  20.838  26.659  1.00  0.00     0.039 A 
ATOM     26  C   UNL A   1      41.779  21.833  25.807  1.00  0.00     0.014 A 
ATOM     27  C   UNL A   1      41.243  21.061  28.038  1.00  0.00     0.014 A 
ATOM     28  C   UNL A   1      42.160  23.071  26.331  1.00  0.00     0.010 A 
ATOM     29  C   UNL A   1      41.551  22.321  28.550  1.00  0.00     0.010 A 
ATOM     30  C   UNL A   1      42.016  23.338  27.702  1.00  0.00    -0.014 A 
BRANCH  30  31
ATOM     31  C   UNL A   1      42.343  24.677  28.257  1.00  0.00     0.031 A 
ATOM     32  C   UNL A   1      43.741  24.998  28.709  1.00  0.00     0.074 A 
ATOM     33  C   UNL A   1      41.366  25.596  28.393  1.00  0.00     0.049 A 
ATOM     34  N   UNL A   1      44.206  26.107  29.227  1.00  0.00    -0.248 NA
ATOM     35  C   UNL A   1      44.743  23.927  28.585  1.00  0.00     0.031 C 
ATOM     36  C   UNL A   1      39.960  25.398  28.033  1.00  0.00     0.029 A 
ATOM     37  N   UNL A   1      41.409  26.882  28.871  1.00  0.00    -0.354 N 
ATOM     38  C   UNL A   1      45.547  25.864  29.499  1.00  0.00     0.074 A 
ATOM     39  C   UNL A   1      45.808  24.486  29.140  1.00  0.00     0.031 C 
ATOM     40  C   UNL A   1      39.283  26.534  28.269  1.00  0.00     0.029 A 
ATOM     41  C   UNL A   1      40.195  27.524  28.834  1.00  0.00     0.049 A 
ATOM     42  H   UNL A   1      42.232  27.305  29.208  1.00  0.00     0.167 HD
ATOM     43  C   UNL A   1      46.484  26.714  29.984  1.00  0.00     0.031 A 
ATOM     44  C   UNL A   1      39.851  28.769  29.213  1.00  0.00     0.031 A 
ATOM     45  C   UNL A   1      46.228  28.084  30.338  1.00  0.00     0.049 A 
ATOM     46  C   UNL A   1      40.905  29.686  29.767  1.00  0.00     0.074 A 
ATOM     47  C   UNL A   1      47.125  29.040  30.786  1.00  0.00     0.029 A 
ATOM     48  N   UNL A   1      44.984  28.694  30.293  1.00  0.00    -0.354 N 
ATOM     49  N   UNL A   1      42.185  29.464  29.946  1.00  0.00    -0.248 NA
ATOM     50  C   UNL A   1      40.467  31.032  30.161  1.00  0.00     0.031 C 
ATOM     51  C   UNL A   1      46.412  30.210  31.068  1.00  0.00     0.029 A 
ATOM     52  C   UNL A   1      45.083  30.004  30.733  1.00  0.00     0.049 A 
ATOM     53  H   UNL A   1      44.154  28.259  29.993  1.00  0.00     0.167 HD
ATOM     54  C   UNL A   1      42.709  30.649  30.447  1.00  0.00     0.074 A 
ATOM     55  C   UNL A   1      41.613  31.592  30.521  1.00  0.00     0.031 C 
ATOM     56  C   UNL A   1      43.984  30.930  30.813  1.00  0.00     0.031 A 
BRANCH  43  57
ATOM     57  C   UNL A   1      47.877  26.176  30.166  1.00  0.00    -0.014 A 
ATOM     58  C   UNL A   1      48.783  26.116  29.093  1.00  0.00     0.009 A 
ATOM     59  C   UNL A   1      48.304  25.756  31.435  1.00  0.00     0.009 A 
ATOM     60  C   UNL A   1      50.071  25.611  29.281  1.00  0.00     0.001 A 
ATOM     61  C   UNL A   1      49.603  25.281  31.626  1.00  0.00     0.001 A 
ATOM     62  C   UNL A   1      50.481  25.198  30.547  1.00  0.00     0.000 A 
ENDBRANCH  43  57
BRANCH  44  63
ATOM     63  C   UNL A   1      38.445  29.232  29.071  1.00  0.00    -0.014 A 
ATOM     64  C   UNL A   1      37.972  29.705  27.837  1.00  0.00     0.009 A 
ATOM     65  C   UNL A   1      37.572  29.215  30.170  1.00  0.00     0.009 A 
ATOM     66  C   UNL A   1      36.664  30.180  27.715  1.00  0.00     0.001 A 
ATOM     67  C   UNL A   1      36.256  29.661  30.037  1.00  0.00     0.001 A 
ATOM     68  C   UNL A   1      35.806  30.154  28.814  1.00  0.00     0.000 A 
ENDBRANCH  44  63
BRANCH  56  69
ATOM     69  C   UNL A   1      44.265  32.324  31.300  1.00  0.00    -0.014 A 
ATOM     70  C   UNL A   1      44.109  32.672  32.651  1.00  0.00     0.009 A 
ATOM     71  C   UNL A   1      44.717  33.299  30.396  1.00  0.00     0.009 A 
ATOM     72  C   UNL A   1      44.359  33.978  33.078  1.00  0.00     0.001 A 
ATOM     73  C   UNL A   1      44.999  34.595  30.832  1.00  0.00     0.001 A 
ATOM     74  C   UNL A   1      44.809  34.936  32.170  1.00  0.00     0.000 A 
ENDBRANCH  56  69
ENDBRANCH  30  31
ENDBRANCH  22  25
ENDBRANCH  20  21
ENDBRANCH  19  20
ENDBRANCH   1  19
TORSDOF 13
ENDMDL
MODEL 2
REMARK VINA RESULT:      -9.6      0.370      6.088
REMARK SMILES Cc1nc2cc(SCC(=O)NCCCCNC(=O)c3ccc(-c4c5nc(c(-c6ccccc6)c6ccc([nH]6)c(-c6ccccc6)c6nc(c(-c7ccccc7)c7ccc4[nH]7)C=C6)C=C5)cc3)ccc2s1
REMARK SMILES IDX 13 1 12 2 11 3 9 4 10 5 8 7 7 8 6 9 1 10 2 11 3 12 70 13
REMARK SMILES IDX 4 14 69 15 5 16 68 17 67 18 14 19 15 20 16 21 17 22 18 24
REMARK SMILES IDX 19 25 20 26 66 27 21 28 65 29 22 30 23 31 24 32 59 33 25 34
REMARK SMILES IDX 64 35 58 36 60 37 26 38 63 39 57 40 56 41 27 43 49 44 34 45
REMARK SMILES IDX 48 46 35 47 38 48 47 49 61 50 36 51 37 52 46 54 62 55 39 56
REMARK SMILES IDX 28 57 29 58 33 59 30 60 32 61 31 62 50 63 51 64 55 65 52 66
REMARK SMILES IDX 54 67 53 68 40 69 41 70 45 71 42 72 44 73 43 74
REMARK H PARENT 11 6 16 23 60 42 38 53
REMARK Flexibility Score: inf
ROOT
ATOM      1  C   UNL A   1      45.556  18.781  25.217  1.00  0.00     0.023 C 
ENDROOT
BRANCH   1   2
ATOM      2  C   UNL A   1      46.387  20.044  24.995  1.00  0.00     0.116 C 
BRANCH   2   3
ATOM      3  N   UNL A   1      45.711  20.973  24.112  1.00  0.00    -0.355 N 
ATOM      4  C   UNL A   1      45.480  22.307  24.265  1.00  0.00     0.230 C 
ATOM      5  O   UNL A   1      44.836  22.879  23.381  1.00  0.00    -0.274 OA
ATOM      6  H   UNL A   1      45.368  20.581  23.275  1.00  0.00     0.163 HD
BRANCH   4   7
ATOM      7  C   UNL A   1      46.076  23.087  25.422  1.00  0.00     0.174 C 
BRANCH   7   8
ATOM      8  S   UNL A   1      46.789  24.698  24.971  1.00  0.00    -0.116 SA
BRANCH   8   9
ATOM      9  C   UNL A   1      45.543  25.912  25.373  1.00  0.00     0.010 A 
ATOM     10  C   UNL A   1      44.449  31.504  27.526  1.00  0.00     0.079 C 
ATOM     11  C   UNL A   1      44.424  30.111  27.004  1.00  0.00     0.091 A 
ATOM     12  N   UNL A   1      45.489  29.352  26.870  1.00  0.00    -0.241 NA
ATOM     13  S   UNL A   1      42.938  29.404  26.519  1.00  0.00    -0.119 S 
ATOM     14  C   UNL A   1      45.134  28.139  26.305  1.00  0.00     0.083 A 
ATOM     15  C   UNL A   1      43.775  27.981  26.032  1.00  0.00     0.055 A 
ATOM     16  C   UNL A   1      46.015  27.089  25.981  1.00  0.00     0.045 A 
ATOM     17  C   UNL A   1      43.276  26.813  25.440  1.00  0.00     0.022 A 
ATOM     18  C   UNL A   1      44.181  25.796  25.100  1.00  0.00     0.016 A 
ENDBRANCH   8   9
ENDBRANCH   7   8
ENDBRANCH   4   7
ENDBRANCH   2   3
ENDBRANCH   1   2
BRANCH   1  19
ATOM     19  C   UNL A   1      44.054  18.949  24.964  1.00  0.00     0.023 C 
BRANCH  19  20
ATOM     20  C   UNL A   1      43.146  18.560  26.126  1.00  0.00     0.116 C 
BRANCH  20  21
ATOM     21  N   UNL A   1      41.734  18.687  25.809  1.00  0.00    -0.352 N 
ATOM     22  C   UNL A   1      40.865  19.713  26.086  1.00  0.00     0.251 C 
ATOM     23  H   UNL A   1      41.342  17.924  25.326  1.00  0.00     0.163 HD
ATOM     24  O   UNL A   1      39.665  19.578  25.855  1.00  0.00    -0.269 OA
BRANCH  22  25
ATOM     25  C   UNL A   1      41.359  20.969  26.690  1.00  0.00     0.039 A 
ATOM     26  C   UNL A   1      41.858  21.965  25.847  1.00  0.00     0.014 A 
ATOM     27  C   UNL A   1      41.340  21.168  28.074  1.00  0.00     0.014 A 
ATOM     28  C   UNL A   1      42.283  23.182  26.386  1.00  0.00     0.010 A 
ATOM     29  C   UNL A   1      41.693  22.409  28.601  1.00  0.00     0.010 A 
ATOM     30  C   UNL A   1      42.170  23.428  27.764  1.00  0.00    -0.014 A 
BRANCH  30  31
ATOM     31  C   UNL A   1      42.544  24.747  28.336  1.00  0.00     0.031 A 
ATOM     32  C   UNL A   1      41.514  25.830  28.500  1.00  0.00     0.074 A 
ATOM     33  C   UNL A   1      43.828  24.986  28.671  1.00  0.00     0.049 A 
ATOM     34  N   UNL A   1      41.661  27.045  28.970  1.00  0.00    -0.248 NA
ATOM     35  C   UNL A   1      40.145  25.519  28.060  1.00  0.00     0.031 C 
ATOM     36  C   UNL A   1      44.934  24.037  28.522  1.00  0.00     0.029 A 
ATOM     37  N   UNL A   1      44.419  26.103  29.206  1.00  0.00    -0.354 N 
ATOM     38  C   UNL A   1      40.410  27.642  28.871  1.00  0.00     0.074 A 
ATOM     39  C   UNL A   1      39.529  26.677  28.247  1.00  0.00     0.031 C 
ATOM     40  C   UNL A   1      46.060  24.598  28.990  1.00  0.00     0.029 A 
ATOM     41  C   UNL A   1      45.767  25.958  29.431  1.00  0.00     0.049 A 
ATOM     42  H   UNL A   1      43.925  26.930  29.410  1.00  0.00     0.167 HD
ATOM     43  C   UNL A   1      40.021  28.873  29.280  1.00  0.00     0.031 A 
ATOM     44  C   UNL A   1      46.668  26.823  29.935  1.00  0.00     0.031 A 
ATOM     45  C   UNL A   1      40.893  29.833  29.903  1.00  0.00     0.049 A 
ATOM     46  C   UNL A   1      46.215  28.191  30.362  1.00  0.00     0.074 A 
ATOM     47  C   UNL A   1      40.580  31.086  30.402  1.00  0.00     0.029 A 
ATOM     48  N   UNL A   1      42.252  29.651  30.106  1.00  0.00    -0.354 N 
ATOM     49  N   UNL A   1      45.012  28.712  30.333  1.00  0.00    -0.248 NA
ATOM     50  C   UNL A   1      47.246  29.086  30.906  1.00  0.00     0.031 C 
ATOM     51  C   UNL A   1      41.761  31.685  30.853  1.00  0.00     0.029 A 
ATOM     52  C   UNL A   1      42.798  30.780  30.695  1.00  0.00     0.049 A 
ATOM     53  H   UNL A   1      42.755  28.839  29.866  1.00  0.00     0.167 HD
ATOM     54  C   UNL A   1      45.136  29.984  30.876  1.00  0.00     0.074 A 
ATOM     55  C   UNL A   1      46.527  30.146  31.248  1.00  0.00     0.031 C 
ATOM     56  C   UNL A   1      44.184  30.933  31.052  1.00  0.00     0.031 A 
BRANCH  43  57
ATOM     57  C   UNL A   1      38.583  29.254  29.056  1.00  0.00    -0.014 A 
ATOM     58  C   UNL A   1      38.130  29.688  27.798  1.00  0.00     0.009 A 
ATOM     59  C   UNL A   1      37.659  29.145  30.106  1.00  0.00     0.009 A 
ATOM     60  C   UNL A   1      36.792  30.040  27.610  1.00  0.00     0.001 A 
ATOM     61  C   UNL A   1      36.315  29.468  29.906  1.00  0.00     0.001 A 
ATOM     62  C   UNL A   1      35.886  29.926  28.662  1.00  0.00     0.000 A 
ENDBRANCH  43  57
BRANCH  44  63
ATOM     63  C   UNL A   1      48.092  26.419  30.077  1.00  0.00    -0.014 A 
ATOM     64  C   UNL A   1      49.003  26.639  29.033  1.00  0.00     0.009 A 
ATOM     65  C   UNL A   1      48.545  25.799  31.253  1.00  0.00     0.009 A 
ATOM     66  C   UNL A   1      50.330  26.218  29.150  1.00  0.00     0.001 A 
ATOM     67  C   UNL A   1      49.880  25.409  31.379  1.00  0.00     0.001 A 
ATOM     68  C   UNL A   1      50.768  25.608  30.324  1.00  0.00     0.000 A 
ENDBRANCH  44  63
BRANCH  56  69
ATOM     69  C   UNL A   1      44.612  32.221  31.700  1.00  0.00    -0.014 A 
ATOM     70  C   UNL A   1      44.617  32.369  33.096  1.00  0.00     0.009 A 
ATOM     71  C   UNL A   1      45.041  33.293  30.901  1.00  0.00     0.009 A 
ATOM     72  C   UNL A   1      45.002  33.581  33.675  1.00  0.00     0.001 A 
ATOM     73  C   UNL A   1      45.457  34.490  31.485  1.00  0.00     0.001 A 
ATOM     74  C   UNL A   1      45.427  34.637  32.870  1.00  0.00     0.000 A 
ENDBRANCH  56  69
ENDBRANCH  30  31
ENDBRANCH  22  25
ENDBRANCH  20  21
ENDBRANCH  19  20
ENDBRANCH   1  19
TORSDOF 13
ENDMDL
MODEL 3
REMARK VINA RESULT:      -8.5      4.491      9.197
REMARK SMILES Cc1nc2cc(SCC(=O)NCCCCNC(=O)c3ccc(-c4c5nc(c(-c6ccccc6)c6ccc([nH]6)c(-c6ccccc6)c6nc(c(-c7ccccc7)c7ccc4[nH]7)C=C6)C=C5)cc3)ccc2s1
REMARK SMILES IDX 13 1 12 2 11 3 9 4 10 5 8 7 7 8 6 9 1 10 2 11 3 12 70 13
REMARK SMILES IDX 4 14 69 15 5 16 68 17 67 18 14 19 15 20 16 21 17 22 18 24
REMARK SMILES IDX 19 25 20 26 66 27 21 28 65 29 22 30 23 31 24 32 59 33 25 34
REMARK SMILES IDX 64 35 58 36 60 37 26 38 63 39 57 40 56 41 27 43 49 44 34 45
REMARK SMILES IDX 48 46 35 47 38 48 47 49 61 50 36 51 37 52 46 54 62 55 39 56
REMARK SMILES IDX 28 57 29 58 33 59 30 60 32 61 31 62 50 63 51 64 55 65 52 66
REMARK SMILES IDX 54 67 53 68 40 69 41 70 45 71 42 72 44 73 43 74
REMARK H PARENT 11 6 16 23 60 42 38 53
REMARK Flexibility Score: inf
ROOT
ATOM      1  C   UNL A   1      35.998  21.425  24.639  1.00  0.00     0.023 C 
ENDROOT
BRANCH   1   2
ATOM      2  C   UNL A   1      35.987  22.518  25.708  1.00  0.00     0.116 C 
BRANCH   2   3
ATOM      3  N   UNL A   1      35.672  23.812  25.136  1.00  0.00    -0.355 N 
ATOM      4  C   UNL A   1      34.546  24.568  25.266  1.00  0.00     0.230 C 
ATOM      5  O   UNL A   1      34.498  25.631  24.638  1.00  0.00    -0.274 OA
ATOM      6  H   UNL A   1      36.377  24.204  24.571  1.00  0.00     0.163 HD
BRANCH   4   7
ATOM      7  C   UNL A   1      33.434  24.177  26.220  1.00  0.00     0.174 C 
BRANCH   7   8
ATOM      8  S   UNL A   1      31.842  23.797  25.425  1.00  0.00    -0.116 SA
BRANCH   8   9
ATOM      9  C   UNL A   1      32.076  22.238  24.587  1.00  0.00     0.010 A 
ATOM     10  C   UNL A   1      32.747  16.217  25.217  1.00  0.00     0.079 C 
ATOM     11  C   UNL A   1      32.639  17.635  24.780  1.00  0.00     0.091 A 
ATOM     12  N   UNL A   1      32.560  18.658  25.601  1.00  0.00    -0.241 NA
ATOM     13  S   UNL A   1      32.595  18.015  23.107  1.00  0.00    -0.119 S 
ATOM     14  C   UNL A   1      32.411  19.830  24.879  1.00  0.00     0.083 A 
ATOM     15  C   UNL A   1      32.398  19.681  23.492  1.00  0.00     0.055 A 
ATOM     16  C   UNL A   1      32.260  21.122  25.422  1.00  0.00     0.045 A 
ATOM     17  C   UNL A   1      32.233  20.779  22.637  1.00  0.00     0.022 A 
ATOM     18  C   UNL A   1      32.053  22.049  23.206  1.00  0.00     0.016 A 
ENDBRANCH   8   9
ENDBRANCH   7   8
ENDBRANCH   4   7
ENDBRANCH   2   3
ENDBRANCH   1   2
BRANCH   1  19
ATOM     19  C   UNL A   1      37.054  20.335  24.848  1.00  0.00     0.023 C 
BRANCH  19  20
ATOM     20  C   UNL A   1      38.344  20.793  25.519  1.00  0.00     0.116 C 
BRANCH  20  21
ATOM     21  N   UNL A   1      39.359  19.753  25.568  1.00  0.00    -0.352 N 
ATOM     22  C   UNL A   1      40.668  19.829  25.975  1.00  0.00     0.251 C 
ATOM     23  H   UNL A   1      39.064  18.865  25.264  1.00  0.00     0.163 HD
ATOM     24  O   UNL A   1      41.415  18.866  25.816  1.00  0.00    -0.269 OA
BRANCH  22  25
ATOM     25  C   UNL A   1      41.194  21.074  26.576  1.00  0.00     0.039 A 
ATOM     26  C   UNL A   1      41.764  22.033  25.735  1.00  0.00     0.014 A 
ATOM     27  C   UNL A   1      41.137  21.297  27.955  1.00  0.00     0.014 A 
ATOM     28  C   UNL A   1      42.223  23.240  26.269  1.00  0.00     0.010 A 
ATOM     29  C   UNL A   1      41.525  22.531  28.475  1.00  0.00     0.010 A 
ATOM     30  C   UNL A   1      42.074  23.514  27.638  1.00  0.00    -0.014 A 
BRANCH  30  31
ATOM     31  C   UNL A   1      42.486  24.825  28.202  1.00  0.00     0.031 A 
ATOM     32  C   UNL A   1      41.473  25.917  28.419  1.00  0.00     0.074 A 
ATOM     33  C   UNL A   1      43.785  25.050  28.481  1.00  0.00     0.049 A 
ATOM     34  N   UNL A   1      41.652  27.126  28.890  1.00  0.00    -0.248 NA
ATOM     35  C   UNL A   1      40.083  25.620  28.038  1.00  0.00     0.031 C 
ATOM     36  C   UNL A   1      44.874  24.092  28.277  1.00  0.00     0.029 A 
ATOM     37  N   UNL A   1      44.410  26.158  28.997  1.00  0.00    -0.354 N 
ATOM     38  C   UNL A   1      40.403  27.735  28.851  1.00  0.00     0.074 A 
ATOM     39  C   UNL A   1      39.487  26.783  28.260  1.00  0.00     0.031 C 
ATOM     40  C   UNL A   1      46.026  24.641  28.698  1.00  0.00     0.029 A 
ATOM     41  C   UNL A   1      45.765  26.000  29.161  1.00  0.00     0.049 A 
ATOM     42  H   UNL A   1      43.932  26.988  29.228  1.00  0.00     0.167 HD
ATOM     43  C   UNL A   1      40.045  28.967  29.285  1.00  0.00     0.031 A 
ATOM     44  C   UNL A   1      46.695  26.853  29.630  1.00  0.00     0.031 A 
ATOM     45  C   UNL A   1      40.953  29.914  29.875  1.00  0.00     0.049 A 
ATOM     46  C   UNL A   1      46.274  28.222  30.086  1.00  0.00     0.074 A 
ATOM     47  C   UNL A   1      40.673  31.166  30.396  1.00  0.00     0.029 A 
ATOM     48  N   UNL A   1      42.318  29.719  30.016  1.00  0.00    -0.354 N 
ATOM     49  N   UNL A   1      45.076  28.754  30.114  1.00  0.00    -0.248 NA
ATOM     50  C   UNL A   1      47.336  29.104  30.590  1.00  0.00     0.031 C 
ATOM     51  C   UNL A   1      41.878  31.751  30.798  1.00  0.00     0.029 A 
ATOM     52  C   UNL A   1      42.899  30.838  30.589  1.00  0.00     0.049 A 
ATOM     53  H   UNL A   1      42.802  28.904  29.749  1.00  0.00     0.167 HD
ATOM     54  C   UNL A   1      45.236  30.020  30.660  1.00  0.00     0.074 A 
ATOM     55  C   UNL A   1      46.643  30.167  30.971  1.00  0.00     0.031 C 
ATOM     56  C   UNL A   1      44.301  30.977  30.884  1.00  0.00     0.031 A 
BRANCH  43  57
ATOM     57  C   UNL A   1      38.602  29.362  29.128  1.00  0.00    -0.014 A 
ATOM     58  C   UNL A   1      37.702  29.282  30.204  1.00  0.00     0.009 A 
ATOM     59  C   UNL A   1      38.142  29.855  27.897  1.00  0.00     0.009 A 
ATOM     60  C   UNL A   1      36.365  29.651  30.039  1.00  0.00     0.001 A 
ATOM     61  C   UNL A   1      36.812  30.253  27.744  1.00  0.00     0.001 A 
ATOM     62  C   UNL A   1      35.923  30.140  28.811  1.00  0.00     0.000 A 
ENDBRANCH  43  57
BRANCH  44  63
ATOM     63  C   UNL A   1      48.120  26.435  29.706  1.00  0.00    -0.014 A 
ATOM     64  C   UNL A   1      48.990  26.669  28.630  1.00  0.00     0.009 A 
ATOM     65  C   UNL A   1      48.615  25.788  30.849  1.00  0.00     0.009 A 
ATOM     66  C   UNL A   1      50.317  26.237  28.685  1.00  0.00     0.001 A 
ATOM     67  C   UNL A   1      49.951  25.385  30.913  1.00  0.00     0.001 A 
ATOM     68  C   UNL A   1      50.797  25.599  29.827  1.00  0.00     0.000 A 
ENDBRANCH  44  63
BRANCH  56  69
ATOM     69  C   UNL A   1      44.769  32.256  31.521  1.00  0.00    -0.014 A 
ATOM     70  C   UNL A   1      44.817  32.402  32.917  1.00  0.00     0.009 A 
ATOM     71  C   UNL A   1      45.193  33.322  30.711  1.00  0.00     0.009 A 
ATOM     72  C   UNL A   1      45.239  33.606  33.486  1.00  0.00     0.001 A 
ATOM     73  C   UNL A   1      45.646  34.511  31.284  1.00  0.00     0.001 A 
ATOM     74  C   UNL A   1      45.658  34.656  32.670  1.00  0.00     0.000 A 
ENDBRANCH  56  69
ENDBRANCH  30  31
ENDBRANCH  22  25
ENDBRANCH  20  21
ENDBRANCH  19  20
ENDBRANCH   1  19
TORSDOF 13
ENDMDL
