MODEL 1
REMARK VINA RESULT:     -12.7      0.000      0.000
REMARK SMILES O=C(NCCCCNC(=O)[C@@H](Cc1ccc(F)cc1)NC(=O)c1ccn(C2CCCC2)n1)c1ccc(-c2c3nc(c(-c4ccccc4)c4ccc([nH]4)c(-c4ccccc4)c4nc(c(-c5ccccc5)c5ccc2[nH]5)C=C4)C=C3)cc1
REMARK SMILES IDX 6 1 5 2 4 3 3 4 1 5 2 6 33 8 34 9 80 10 35 11 79 12 36 13
REMARK SMILES IDX 37 14 38 15 73 16 39 17 78 18 72 19 74 20 40 21 77 22 71 23
REMARK SMILES IDX 70 24 41 26 63 27 48 28 62 29 49 30 52 31 61 32 75 33 50 34
REMARK SMILES IDX 51 35 60 37 76 38 53 39 42 40 43 41 47 42 44 43 46 44 45 45
REMARK SMILES IDX 64 46 65 47 69 48 66 49 68 50 67 51 54 52 55 53 59 54 56 55
REMARK SMILES IDX 58 56 57 57 7 58 8 59 9 60 10 62 11 63 12 64 13 65 14 66
REMARK SMILES IDX 19 67 15 68 18 69 16 70 17 71 20 72 21 73 22 75 23 76 24 77
REMARK SMILES IDX 32 78 25 79 26 80 27 81 28 82 31 83 29 84 30 85
REMARK H PARENT 3 7 74 25 52 36 8 61 20 74
REMARK Flexibility Score: inf
ROOT
ATOM      1  C   UNL A   1      36.959  22.774  24.662  1.00  0.00     0.023 C 
ENDROOT
BRANCH   1   2
ATOM      2  C   UNL A   1      37.726  21.485  24.965  1.00  0.00     0.023 C 
BRANCH   2   3
ATOM      3  C   UNL A   1      38.757  21.505  26.089  1.00  0.00     0.116 C 
BRANCH   3   4
ATOM      4  N   UNL A   1      40.119  21.777  25.681  1.00  0.00    -0.352 N 
ATOM      5  O   UNL A   1      42.264  22.076  26.150  1.00  0.00    -0.269 OA
ATOM      6  C   UNL A   1      41.115  22.502  26.292  1.00  0.00     0.251 C 
ATOM      7  H   UNL A   1      40.376  21.376  24.819  1.00  0.00     0.163 HD
BRANCH   6   8
ATOM      8  C   UNL A   1      40.920  23.800  27.000  1.00  0.00     0.039 A 
ATOM      9  C   UNL A   1      39.935  24.739  26.706  1.00  0.00     0.014 A 
ATOM     10  C   UNL A   1      41.899  24.139  27.959  1.00  0.00     0.014 A 
ATOM     11  C   UNL A   1      39.974  26.007  27.292  1.00  0.00     0.010 A 
ATOM     12  C   UNL A   1      41.940  25.400  28.550  1.00  0.00     0.010 A 
ATOM     13  C   UNL A   1      40.994  26.352  28.189  1.00  0.00    -0.014 A 
BRANCH  13  14
ATOM     14  C   UNL A   1      40.926  27.660  28.846  1.00  0.00     0.031 A 
ATOM     15  C   UNL A   1      41.896  28.658  28.305  1.00  0.00     0.074 A 
ATOM     16  C   UNL A   1      40.020  28.039  29.771  1.00  0.00     0.049 A 
ATOM     17  N   UNL A   1      42.893  29.207  28.916  1.00  0.00    -0.248 NA
ATOM     18  C   UNL A   1      41.804  28.999  26.876  1.00  0.00     0.031 C 
ATOM     19  C   UNL A   1      38.821  27.330  30.223  1.00  0.00     0.029 A 
ATOM     20  N   UNL A   1      39.948  29.219  30.457  1.00  0.00    -0.354 N 
ATOM     21  C   UNL A   1      43.474  30.084  28.003  1.00  0.00     0.074 A 
ATOM     22  C   UNL A   1      42.839  29.829  26.733  1.00  0.00     0.031 C 
ATOM     23  C   UNL A   1      38.035  28.179  30.929  1.00  0.00     0.029 A 
ATOM     24  C   UNL A   1      38.740  29.439  31.106  1.00  0.00     0.049 A 
ATOM     25  H   UNL A   1      40.693  29.863  30.487  1.00  0.00     0.167 HD
ATOM     26  C   UNL A   1      44.305  31.089  28.394  1.00  0.00     0.031 A 
ATOM     27  C   UNL A   1      38.336  30.585  31.714  1.00  0.00     0.031 A 
ATOM     28  C   UNL A   1      44.802  30.890  29.727  1.00  0.00     0.049 A 
ATOM     29  C   UNL A   1      39.541  31.390  32.004  1.00  0.00     0.074 A 
ATOM     30  C   UNL A   1      45.576  29.931  30.348  1.00  0.00     0.029 A 
ATOM     31  N   UNL A   1      44.193  31.594  30.738  1.00  0.00    -0.354 N 
ATOM     32  N   UNL A   1      40.437  31.050  32.884  1.00  0.00    -0.248 NA
ATOM     33  C   UNL A   1      39.968  32.367  31.016  1.00  0.00     0.031 C 
ATOM     34  C   UNL A   1      45.003  29.786  31.645  1.00  0.00     0.029 A 
ATOM     35  C   UNL A   1      43.963  30.709  31.757  1.00  0.00     0.049 A 
ATOM     36  H   UNL A   1      43.964  32.550  30.730  1.00  0.00     0.167 HD
ATOM     37  C   UNL A   1      41.644  31.415  32.310  1.00  0.00     0.074 A 
ATOM     38  C   UNL A   1      41.288  32.306  31.208  1.00  0.00     0.031 C 
ATOM     39  C   UNL A   1      42.795  30.745  32.608  1.00  0.00     0.031 A 
BRANCH  26  40
ATOM     40  C   UNL A   1      44.358  32.438  27.721  1.00  0.00    -0.014 A 
ATOM     41  C   UNL A   1      43.602  33.496  28.259  1.00  0.00     0.009 A 
ATOM     42  C   UNL A   1      44.879  32.625  26.427  1.00  0.00     0.009 A 
ATOM     43  C   UNL A   1      43.315  34.642  27.507  1.00  0.00     0.001 A 
ATOM     44  C   UNL A   1      44.627  33.785  25.689  1.00  0.00     0.001 A 
ATOM     45  C   UNL A   1      43.820  34.781  26.219  1.00  0.00     0.000 A 
ENDBRANCH  26  40
BRANCH  27  46
ATOM     46  C   UNL A   1      36.980  31.175  31.809  1.00  0.00    -0.014 A 
ATOM     47  C   UNL A   1      36.530  31.769  33.001  1.00  0.00     0.009 A 
ATOM     48  C   UNL A   1      36.244  31.424  30.637  1.00  0.00     0.009 A 
ATOM     49  C   UNL A   1      35.409  32.613  33.010  1.00  0.00     0.001 A 
ATOM     50  C   UNL A   1      35.126  32.268  30.646  1.00  0.00     0.001 A 
ATOM     51  C   UNL A   1      34.717  32.874  31.829  1.00  0.00     0.000 A 
ENDBRANCH  27  46
BRANCH  39  52
ATOM     52  C   UNL A   1      42.774  29.762  33.750  1.00  0.00    -0.014 A 
ATOM     53  C   UNL A   1      43.087  30.114  35.075  1.00  0.00     0.009 A 
ATOM     54  C   UNL A   1      42.251  28.482  33.506  1.00  0.00     0.009 A 
ATOM     55  C   UNL A   1      42.896  29.203  36.121  1.00  0.00     0.001 A 
ATOM     56  C   UNL A   1      42.041  27.582  34.551  1.00  0.00     0.001 A 
ATOM     57  C   UNL A   1      42.364  27.941  35.858  1.00  0.00     0.000 A 
ENDBRANCH  39  52
ENDBRANCH  13  14
ENDBRANCH   6   8
ENDBRANCH   3   4
ENDBRANCH   2   3
ENDBRANCH   1   2
BRANCH   1  58
ATOM     58  C   UNL A   1      36.403  23.640  25.817  1.00  0.00     0.116 C 
BRANCH  58  59
ATOM     59  N   UNL A   1      35.615  22.796  26.720  1.00  0.00    -0.354 N 
ATOM     60  C   UNL A   1      34.334  22.406  26.902  1.00  0.00     0.242 C 
ATOM     61  H   UNL A   1      36.197  22.388  27.401  1.00  0.00     0.163 HD
ATOM     62  O   UNL A   1      34.134  21.896  28.020  1.00  0.00    -0.273 OA
BRANCH  60  63
ATOM     63  C   UNL A   1      33.114  22.530  25.943  1.00  0.00     0.176 C 
BRANCH  63  64
ATOM     64  C   UNL A   1      33.204  21.955  24.505  1.00  0.00     0.070 C 
BRANCH  64  65
ATOM     65  C   UNL A   1      33.357  20.463  24.351  1.00  0.00    -0.045 A 
ATOM     66  C   UNL A   1      32.281  19.734  23.862  1.00  0.00     0.007 A 
ATOM     67  C   UNL A   1      34.513  19.765  24.723  1.00  0.00     0.007 A 
ATOM     68  C   UNL A   1      32.389  18.376  23.568  1.00  0.00     0.039 A 
ATOM     69  C   UNL A   1      34.607  18.385  24.500  1.00  0.00     0.039 A 
ATOM     70  C   UNL A   1      33.560  17.712  23.884  1.00  0.00     0.123 A 
ATOM     71  F   UNL A   1      33.670  16.404  23.617  1.00  0.00    -0.207 F 
ENDBRANCH  64  65
ENDBRANCH  63  64
BRANCH  63  72
ATOM     72  N   UNL A   1      31.801  22.382  26.560  1.00  0.00    -0.339 N 
ATOM     73  C   UNL A   1      30.813  23.341  26.742  1.00  0.00     0.272 C 
ATOM     74  H   UNL A   1      31.585  21.480  26.894  1.00  0.00     0.164 HD
ATOM     75  O   UNL A   1      29.853  23.025  27.443  1.00  0.00    -0.267 OA
BRANCH  73  76
ATOM     76  C   UNL A   1      30.925  24.677  26.102  1.00  0.00     0.150 A 
ATOM     77  C   UNL A   1      30.210  25.198  24.983  1.00  0.00     0.056 A 
ATOM     78  N   UNL A   1      31.751  25.625  26.594  1.00  0.00    -0.167 NA
ATOM     79  C   UNL A   1      30.705  26.462  24.772  1.00  0.00     0.110 A 
ATOM     80  N   UNL A   1      31.602  26.684  25.774  1.00  0.00    -0.269 N 
BRANCH  80  81
ATOM     81  C   UNL A   1      32.321  27.920  26.005  1.00  0.00     0.107 C 
ATOM     82  C   UNL A   1      31.691  28.827  27.061  1.00  0.00     0.027 C 
ATOM     83  C   UNL A   1      33.755  27.754  26.506  1.00  0.00     0.027 C 
ATOM     84  C   UNL A   1      32.789  29.842  27.353  1.00  0.00     0.002 C 
ATOM     85  C   UNL A   1      34.110  29.107  27.122  1.00  0.00     0.002 C 
ENDBRANCH  80  81
ENDBRANCH  73  76
ENDBRANCH  63  72
ENDBRANCH  60  63
ENDBRANCH  58  59
ENDBRANCH   1  58
TORSDOF 16
ENDMDL
MODEL 2
REMARK VINA RESULT:     -12.5      2.042      2.793
REMARK SMILES O=C(NCCCCNC(=O)[C@@H](Cc1ccc(F)cc1)NC(=O)c1ccn(C2CCCC2)n1)c1ccc(-c2c3nc(c(-c4ccccc4)c4ccc([nH]4)c(-c4ccccc4)c4nc(c(-c5ccccc5)c5ccc2[nH]5)C=C4)C=C3)cc1
REMARK SMILES IDX 6 1 5 2 4 3 3 4 1 5 2 6 33 8 34 9 80 10 35 11 79 12 36 13
REMARK SMILES IDX 37 14 38 15 73 16 39 17 78 18 72 19 74 20 40 21 77 22 71 23
REMARK SMILES IDX 70 24 41 26 63 27 48 28 62 29 49 30 52 31 61 32 75 33 50 34
REMARK SMILES IDX 51 35 60 37 76 38 53 39 42 40 43 41 47 42 44 43 46 44 45 45
REMARK SMILES IDX 64 46 65 47 69 48 66 49 68 50 67 51 54 52 55 53 59 54 56 55
REMARK SMILES IDX 58 56 57 57 7 58 8 59 9 60 10 62 11 63 12 64 13 65 14 66
REMARK SMILES IDX 19 67 15 68 18 69 16 70 17 71 20 72 21 73 22 75 23 76 24 77
REMARK SMILES IDX 32 78 25 79 26 80 27 81 28 82 31 83 29 84 30 85
REMARK H PARENT 3 7 74 25 52 36 8 61 20 74
REMARK Flexibility Score: inf
ROOT
ATOM      1  C   UNL A   1      38.156  23.438  26.205  1.00  0.00     0.023 C 
ENDROOT
BRANCH   1   2
ATOM      2  C   UNL A   1      38.815  22.060  26.127  1.00  0.00     0.023 C 
BRANCH   2   3
ATOM      3  C   UNL A   1      40.232  21.904  26.670  1.00  0.00     0.116 C 
BRANCH   3   4
ATOM      4  N   UNL A   1      41.295  22.255  25.751  1.00  0.00    -0.352 N 
ATOM      5  O   UNL A   1      43.390  22.846  25.340  1.00  0.00    -0.269 OA
ATOM      6  C   UNL A   1      42.319  23.164  25.863  1.00  0.00     0.251 C 
ATOM      7  H   UNL A   1      41.282  21.756  24.902  1.00  0.00     0.163 HD
BRANCH   6   8
ATOM      8  C   UNL A   1      42.195  24.527  26.457  1.00  0.00     0.039 A 
ATOM      9  C   UNL A   1      42.742  24.930  27.672  1.00  0.00     0.014 A 
ATOM     10  C   UNL A   1      41.348  25.427  25.776  1.00  0.00     0.014 A 
ATOM     11  C   UNL A   1      42.389  26.162  28.229  1.00  0.00     0.010 A 
ATOM     12  C   UNL A   1      40.996  26.660  26.324  1.00  0.00     0.010 A 
ATOM     13  C   UNL A   1      41.491  27.015  27.573  1.00  0.00    -0.014 A 
BRANCH  13  14
ATOM     14  C   UNL A   1      41.236  28.335  28.157  1.00  0.00     0.031 A 
ATOM     15  C   UNL A   1      42.323  29.327  27.904  1.00  0.00     0.074 A 
ATOM     16  C   UNL A   1      40.100  28.726  28.771  1.00  0.00     0.049 A 
ATOM     17  N   UNL A   1      43.100  29.890  28.769  1.00  0.00    -0.248 NA
ATOM     18  C   UNL A   1      42.652  29.642  26.504  1.00  0.00     0.031 C 
ATOM     19  C   UNL A   1      38.821  28.021  28.867  1.00  0.00     0.029 A 
ATOM     20  N   UNL A   1      39.834  29.919  29.385  1.00  0.00    -0.354 N 
ATOM     21  C   UNL A   1      43.923  30.753  28.048  1.00  0.00     0.074 A 
ATOM     22  C   UNL A   1      43.685  30.473  26.654  1.00  0.00     0.031 C 
ATOM     23  C   UNL A   1      37.865  28.879  29.298  1.00  0.00     0.029 A 
ATOM     24  C   UNL A   1      38.489  30.145  29.650  1.00  0.00     0.049 A 
ATOM     25  H   UNL A   1      40.539  30.565  29.619  1.00  0.00     0.167 HD
ATOM     26  C   UNL A   1      44.605  31.768  28.646  1.00  0.00     0.031 A 
ATOM     27  C   UNL A   1      37.927  31.300  30.092  1.00  0.00     0.031 A 
ATOM     28  C   UNL A   1      44.692  31.595  30.070  1.00  0.00     0.049 A 
ATOM     29  C   UNL A   1      38.997  32.115  30.706  1.00  0.00     0.074 A 
ATOM     30  C   UNL A   1      45.251  30.651  30.906  1.00  0.00     0.029 A 
ATOM     31  N   UNL A   1      43.816  32.314  30.846  1.00  0.00    -0.354 N 
ATOM     32  N   UNL A   1      39.597  31.795  31.815  1.00  0.00    -0.248 NA
ATOM     33  C   UNL A   1      39.694  33.075  29.868  1.00  0.00     0.031 C 
ATOM     34  C   UNL A   1      44.324  30.526  31.983  1.00  0.00     0.029 A 
ATOM     35  C   UNL A   1      43.297  31.447  31.771  1.00  0.00     0.049 A 
ATOM     36  H   UNL A   1      43.601  33.270  30.754  1.00  0.00     0.167 HD
ATOM     37  C   UNL A   1      40.920  32.154  31.611  1.00  0.00     0.074 A 
ATOM     38  C   UNL A   1      40.902  33.024  30.437  1.00  0.00     0.031 C 
ATOM     39  C   UNL A   1      41.933  31.493  32.244  1.00  0.00     0.031 A 
BRANCH  26  40
ATOM     40  C   UNL A   1      44.854  33.105  27.993  1.00  0.00    -0.014 A 
ATOM     41  C   UNL A   1      43.777  33.999  27.843  1.00  0.00     0.009 A 
ATOM     42  C   UNL A   1      46.022  33.391  27.262  1.00  0.00     0.009 A 
ATOM     43  C   UNL A   1      43.841  35.072  26.947  1.00  0.00     0.001 A 
ATOM     44  C   UNL A   1      46.103  34.486  26.397  1.00  0.00     0.001 A 
ATOM     45  C   UNL A   1      45.001  35.309  26.216  1.00  0.00     0.000 A 
ENDBRANCH  26  40
BRANCH  27  46
ATOM     46  C   UNL A   1      36.603  31.886  29.778  1.00  0.00    -0.014 A 
ATOM     47  C   UNL A   1      35.770  32.383  30.795  1.00  0.00     0.009 A 
ATOM     48  C   UNL A   1      36.292  32.234  28.451  1.00  0.00     0.009 A 
ATOM     49  C   UNL A   1      34.691  33.229  30.497  1.00  0.00     0.001 A 
ATOM     50  C   UNL A   1      35.215  33.078  28.154  1.00  0.00     0.001 A 
ATOM     51  C   UNL A   1      34.423  33.588  29.178  1.00  0.00     0.000 A 
ENDBRANCH  27  46
BRANCH  39  52
ATOM     52  C   UNL A   1      41.578  30.531  33.348  1.00  0.00    -0.014 A 
ATOM     53  C   UNL A   1      41.314  29.168  33.125  1.00  0.00     0.009 A 
ATOM     54  C   UNL A   1      41.688  30.981  34.672  1.00  0.00     0.009 A 
ATOM     55  C   UNL A   1      41.148  28.287  34.201  1.00  0.00     0.001 A 
ATOM     56  C   UNL A   1      41.545  30.099  35.744  1.00  0.00     0.001 A 
ATOM     57  C   UNL A   1      41.273  28.753  35.509  1.00  0.00     0.000 A 
ENDBRANCH  39  52
ENDBRANCH  13  14
ENDBRANCH   6   8
ENDBRANCH   3   4
ENDBRANCH   2   3
ENDBRANCH   1   2
BRANCH   1  58
ATOM     58  C   UNL A   1      36.694  23.630  25.738  1.00  0.00     0.116 C 
BRANCH  58  59
ATOM     59  N   UNL A   1      35.825  22.707  26.473  1.00  0.00    -0.354 N 
ATOM     60  C   UNL A   1      34.508  22.451  26.640  1.00  0.00     0.242 C 
ATOM     61  H   UNL A   1      36.366  22.082  27.008  1.00  0.00     0.163 HD
ATOM     62  O   UNL A   1      34.275  21.725  27.625  1.00  0.00    -0.273 OA
BRANCH  60  63
ATOM     63  C   UNL A   1      33.289  22.946  25.810  1.00  0.00     0.176 C 
BRANCH  63  64
ATOM     64  C   UNL A   1      33.355  22.929  24.260  1.00  0.00     0.070 C 
BRANCH  64  65
ATOM     65  C   UNL A   1      33.339  24.253  23.540  1.00  0.00    -0.045 A 
ATOM     66  C   UNL A   1      33.887  25.360  24.176  1.00  0.00     0.007 A 
ATOM     67  C   UNL A   1      32.757  24.437  22.280  1.00  0.00     0.007 A 
ATOM     68  C   UNL A   1      34.029  26.584  23.524  1.00  0.00     0.039 A 
ATOM     69  C   UNL A   1      32.828  25.685  21.644  1.00  0.00     0.039 A 
ATOM     70  C   UNL A   1      33.502  26.733  22.255  1.00  0.00     0.123 A 
ATOM     71  F   UNL A   1      33.623  27.909  21.625  1.00  0.00    -0.207 F 
ENDBRANCH  64  65
ENDBRANCH  63  64
BRANCH  63  72
ATOM     72  N   UNL A   1      31.975  22.621  26.352  1.00  0.00    -0.339 N 
ATOM     73  C   UNL A   1      30.930  23.478  26.671  1.00  0.00     0.272 C 
ATOM     74  H   UNL A   1      31.805  21.664  26.515  1.00  0.00     0.164 HD
ATOM     75  O   UNL A   1      29.976  22.992  27.276  1.00  0.00    -0.267 OA
BRANCH  73  76
ATOM     76  C   UNL A   1      30.976  24.911  26.280  1.00  0.00     0.150 A 
ATOM     77  C   UNL A   1      30.302  25.572  25.212  1.00  0.00     0.056 A 
ATOM     78  N   UNL A   1      31.687  25.811  26.994  1.00  0.00    -0.167 NA
ATOM     79  C   UNL A   1      30.706  26.884  25.261  1.00  0.00     0.110 A 
ATOM     80  N   UNL A   1      31.509  26.985  26.358  1.00  0.00    -0.269 N 
BRANCH  80  81
ATOM     81  C   UNL A   1      32.106  28.207  26.856  1.00  0.00     0.107 C 
ATOM     82  C   UNL A   1      33.634  28.200  26.875  1.00  0.00     0.027 C 
ATOM     83  C   UNL A   1      31.778  29.465  26.052  1.00  0.00     0.027 C 
ATOM     84  C   UNL A   1      33.990  29.666  27.091  1.00  0.00     0.002 C 
ATOM     85  C   UNL A   1      32.861  30.470  26.443  1.00  0.00     0.002 C 
ENDBRANCH  80  81
ENDBRANCH  73  76
ENDBRANCH  63  72
ENDBRANCH  60  63
ENDBRANCH  58  59
ENDBRANCH   1  58
TORSDOF 16
ENDMDL
MODEL 3
REMARK VINA RESULT:     -12.5      3.710      8.725
REMARK SMILES O=C(NCCCCNC(=O)[C@@H](Cc1ccc(F)cc1)NC(=O)c1ccn(C2CCCC2)n1)c1ccc(-c2c3nc(c(-c4ccccc4)c4ccc([nH]4)c(-c4ccccc4)c4nc(c(-c5ccccc5)c5ccc2[nH]5)C=C4)C=C3)cc1
REMARK SMILES IDX 6 1 5 2 4 3 3 4 1 5 2 6 33 8 34 9 80 10 35 11 79 12 36 13
REMARK SMILES IDX 37 14 38 15 73 16 39 17 78 18 72 19 74 20 40 21 77 22 71 23
REMARK SMILES IDX 70 24 41 26 63 27 48 28 62 29 49 30 52 31 61 32 75 33 50 34
REMARK SMILES IDX 51 35 60 37 76 38 53 39 42 40 43 41 47 42 44 43 46 44 45 45
REMARK SMILES IDX 64 46 65 47 69 48 66 49 68 50 67 51 54 52 55 53 59 54 56 55
REMARK SMILES IDX 58 56 57 57 7 58 8 59 9 60 10 62 11 63 12 64 13 65 14 66
REMARK SMILES IDX 19 67 15 68 18 69 16 70 17 71 20 72 21 73 22 75 23 76 24 77
REMARK SMILES IDX 32 78 25 79 26 80 27 81 28 82 31 83 29 84 30 85
REMARK H PARENT 3 7 74 25 52 36 8 61 20 74
REMARK Flexibility Score: inf
ROOT
ATOM      1  C   UNL A   1      33.534  29.105  26.769  1.00  0.00     0.023 C 
ENDROOT
BRANCH   1   2
ATOM      2  C   UNL A   1      34.677  29.863  27.448  1.00  0.00     0.023 C 
BRANCH   2   3
ATOM      3  C   UNL A   1      34.508  31.359  27.694  1.00  0.00     0.116 C 
BRANCH   3   4
ATOM      4  N   UNL A   1      34.460  31.761  29.084  1.00  0.00    -0.352 N 
ATOM      5  O   UNL A   1      35.269  32.894  30.806  1.00  0.00    -0.269 OA
ATOM      6  C   UNL A   1      35.466  31.990  29.991  1.00  0.00     0.251 C 
ATOM      7  H   UNL A   1      33.551  31.893  29.440  1.00  0.00     0.163 HD
BRANCH   6   8
ATOM      8  C   UNL A   1      36.700  31.164  30.129  1.00  0.00     0.039 A 
ATOM      9  C   UNL A   1      37.997  31.603  29.875  1.00  0.00     0.014 A 
ATOM     10  C   UNL A   1      36.505  29.798  30.423  1.00  0.00     0.014 A 
ATOM     11  C   UNL A   1      39.054  30.690  29.835  1.00  0.00     0.010 A 
ATOM     12  C   UNL A   1      37.557  28.883  30.391  1.00  0.00     0.010 A 
ATOM     13  C   UNL A   1      38.832  29.324  30.060  1.00  0.00    -0.014 A 
BRANCH  13  14
ATOM     14  C   UNL A   1      39.993  28.431  30.103  1.00  0.00     0.031 A 
ATOM     15  C   UNL A   1      40.622  28.323  31.453  1.00  0.00     0.074 A 
ATOM     16  C   UNL A   1      40.435  27.653  29.093  1.00  0.00     0.049 A 
ATOM     17  N   UNL A   1      41.805  28.702  31.809  1.00  0.00    -0.248 NA
ATOM     18  C   UNL A   1      39.787  27.836  32.563  1.00  0.00     0.031 C 
ATOM     19  C   UNL A   1      39.804  27.385  27.799  1.00  0.00     0.029 A 
ATOM     20  N   UNL A   1      41.542  26.852  29.060  1.00  0.00    -0.354 N 
ATOM     21  C   UNL A   1      41.932  28.364  33.154  1.00  0.00     0.074 A 
ATOM     22  C   UNL A   1      40.625  27.944  33.595  1.00  0.00     0.031 C 
ATOM     23  C   UNL A   1      40.415  26.328  27.211  1.00  0.00     0.029 A 
ATOM     24  C   UNL A   1      41.567  25.942  28.010  1.00  0.00     0.049 A 
ATOM     25  H   UNL A   1      42.264  26.914  29.727  1.00  0.00     0.167 HD
ATOM     26  C   UNL A   1      43.146  28.274  33.765  1.00  0.00     0.031 A 
ATOM     27  C   UNL A   1      42.451  24.926  27.831  1.00  0.00     0.031 A 
ATOM     28  C   UNL A   1      44.179  28.929  33.012  1.00  0.00     0.049 A 
ATOM     29  C   UNL A   1      43.651  25.225  28.640  1.00  0.00     0.074 A 
ATOM     30  C   UNL A   1      44.417  30.226  32.603  1.00  0.00     0.029 A 
ATOM     31  N   UNL A   1      44.998  28.137  32.244  1.00  0.00    -0.354 N 
ATOM     32  N   UNL A   1      44.473  26.199  28.374  1.00  0.00    -0.248 NA
ATOM     33  C   UNL A   1      43.714  24.700  29.994  1.00  0.00     0.031 C 
ATOM     34  C   UNL A   1      44.970  30.098  31.295  1.00  0.00     0.029 A 
ATOM     35  C   UNL A   1      45.098  28.736  31.017  1.00  0.00     0.049 A 
ATOM     36  H   UNL A   1      45.429  27.298  32.523  1.00  0.00     0.167 HD
ATOM     37  C   UNL A   1      44.829  26.701  29.616  1.00  0.00     0.074 A 
ATOM     38  C   UNL A   1      44.410  25.681  30.575  1.00  0.00     0.031 C 
ATOM     39  C   UNL A   1      45.177  28.012  29.770  1.00  0.00     0.031 A 
BRANCH  26  40
ATOM     40  C   UNL A   1      43.467  27.267  34.841  1.00  0.00    -0.014 A 
ATOM     41  C   UNL A   1      43.375  25.895  34.537  1.00  0.00     0.009 A 
ATOM     42  C   UNL A   1      43.563  27.609  36.203  1.00  0.00     0.009 A 
ATOM     43  C   UNL A   1      43.301  24.929  35.546  1.00  0.00     0.001 A 
ATOM     44  C   UNL A   1      43.528  26.642  37.212  1.00  0.00     0.001 A 
ATOM     45  C   UNL A   1      43.367  25.304  36.884  1.00  0.00     0.000 A 
ENDBRANCH  26  40
BRANCH  27  46
ATOM     46  C   UNL A   1      42.236  23.582  27.248  1.00  0.00    -0.014 A 
ATOM     47  C   UNL A   1      42.972  23.149  26.131  1.00  0.00     0.009 A 
ATOM     48  C   UNL A   1      41.526  22.611  27.976  1.00  0.00     0.009 A 
ATOM     49  C   UNL A   1      43.027  21.791  25.782  1.00  0.00     0.001 A 
ATOM     50  C   UNL A   1      41.581  21.256  27.629  1.00  0.00     0.001 A 
ATOM     51  C   UNL A   1      42.343  20.843  26.541  1.00  0.00     0.000 A 
ENDBRANCH  27  46
BRANCH  39  52
ATOM     52  C   UNL A   1      45.400  28.842  28.531  1.00  0.00    -0.014 A 
ATOM     53  C   UNL A   1      44.376  29.561  27.891  1.00  0.00     0.009 A 
ATOM     54  C   UNL A   1      46.722  29.042  28.104  1.00  0.00     0.009 A 
ATOM     55  C   UNL A   1      44.668  30.441  26.843  1.00  0.00     0.001 A 
ATOM     56  C   UNL A   1      47.016  29.935  27.073  1.00  0.00     0.001 A 
ATOM     57  C   UNL A   1      45.989  30.634  26.442  1.00  0.00     0.000 A 
ENDBRANCH  39  52
ENDBRANCH  13  14
ENDBRANCH   6   8
ENDBRANCH   3   4
ENDBRANCH   2   3
ENDBRANCH   1   2
BRANCH   1  58
ATOM     58  C   UNL A   1      32.646  29.813  25.719  1.00  0.00     0.116 C 
BRANCH  58  59
ATOM     59  N   UNL A   1      33.253  29.667  24.393  1.00  0.00    -0.354 N 
ATOM     60  C   UNL A   1      33.179  28.855  23.315  1.00  0.00     0.242 C 
ATOM     61  H   UNL A   1      33.916  30.378  24.241  1.00  0.00     0.163 HD
ATOM     62  O   UNL A   1      34.140  28.991  22.536  1.00  0.00    -0.273 OA
BRANCH  60  63
ATOM     63  C   UNL A   1      32.103  27.792  22.947  1.00  0.00     0.176 C 
BRANCH  63  64
ATOM     64  C   UNL A   1      30.626  28.015  23.365  1.00  0.00     0.070 C 
BRANCH  64  65
ATOM     65  C   UNL A   1      29.995  29.344  23.037  1.00  0.00    -0.045 A 
ATOM     66  C   UNL A   1      29.793  29.671  21.702  1.00  0.00     0.007 A 
ATOM     67  C   UNL A   1      29.645  30.291  24.009  1.00  0.00     0.007 A 
ATOM     68  C   UNL A   1      29.097  30.819  21.326  1.00  0.00     0.039 A 
ATOM     69  C   UNL A   1      29.010  31.484  23.637  1.00  0.00     0.039 A 
ATOM     70  C   UNL A   1      28.703  31.716  22.303  1.00  0.00     0.123 A 
ATOM     71  F   UNL A   1      28.045  32.827  21.950  1.00  0.00    -0.207 F 
ENDBRANCH  64  65
ENDBRANCH  63  64
BRANCH  63  72
ATOM     72  N   UNL A   1      32.262  27.149  21.647  1.00  0.00    -0.339 N 
ATOM     73  C   UNL A   1      32.708  25.866  21.361  1.00  0.00     0.272 C 
ATOM     74  H   UNL A   1      32.020  27.699  20.866  1.00  0.00     0.164 HD
ATOM     75  O   UNL A   1      32.922  25.601  20.179  1.00  0.00    -0.267 OA
BRANCH  73  76
ATOM     76  C   UNL A   1      32.903  24.870  22.447  1.00  0.00     0.150 A 
ATOM     77  C   UNL A   1      31.921  24.165  23.204  1.00  0.00     0.056 A 
ATOM     78  N   UNL A   1      34.137  24.466  22.816  1.00  0.00    -0.167 NA
ATOM     79  C   UNL A   1      32.617  23.391  24.101  1.00  0.00     0.110 A 
ATOM     80  N   UNL A   1      33.936  23.582  23.813  1.00  0.00    -0.269 N 
BRANCH  80  81
ATOM     81  C   UNL A   1      35.045  22.905  24.452  1.00  0.00     0.107 C 
ATOM     82  C   UNL A   1      34.825  21.410  24.679  1.00  0.00     0.027 C 
ATOM     83  C   UNL A   1      36.363  22.945  23.680  1.00  0.00     0.027 C 
ATOM     84  C   UNL A   1      36.218  20.897  25.020  1.00  0.00     0.002 C 
ATOM     85  C   UNL A   1      37.194  21.804  24.269  1.00  0.00     0.002 C 
ENDBRANCH  80  81
ENDBRANCH  73  76
ENDBRANCH  63  72
ENDBRANCH  60  63
ENDBRANCH  58  59
ENDBRANCH   1  58
TORSDOF 16
ENDMDL
