MODEL 1
REMARK VINA RESULT:     -10.6      0.000      0.000
REMARK SMILES CC(C)[C@@H](C[NH3+])C(=O)N1[C@@H](C(=O)NCCCCNC(=O)c2ccc(-c3c4nc(c(-c5ccccc5)c5ccc([nH]5)c(-c5ccccc5)c5nc(c(-c6ccccc6)c6ccc3[nH]6)C=C5)C=C4)cc2)CC[C@H]2CCCC[C@H]21
REMARK SMILES IDX 14 1 13 2 11 3 12 4 10 6 9 7 76 8 69 9 71 10 75 11 70 12
REMARK SMILES IDX 72 13 74 14 73 15 7 16 8 17 4 18 2 19 1 20 3 21 5 22 6 23
REMARK SMILES IDX 15 27 16 28 17 29 18 30 19 31 20 33 21 34 22 35 68 36 23 37
REMARK SMILES IDX 67 38 24 39 25 40 26 41 61 42 27 43 66 44 60 45 62 46 28 47
REMARK SMILES IDX 65 48 59 49 58 50 29 52 51 53 36 54 50 55 37 56 40 57 49 58
REMARK SMILES IDX 63 59 38 60 39 61 48 63 64 64 41 65 30 66 31 67 35 68 32 69
REMARK SMILES IDX 34 70 33 71 52 72 53 73 57 74 54 75 56 76 55 77 42 78 43 79
REMARK SMILES IDX 47 80 44 81 46 82 45 83
REMARK H PARENT 13 5 6 24 6 25 6 26 18 32 62 51 40 62
REMARK Flexibility Score: inf
ROOT
ATOM      1  C   UNL A   1      32.093  28.364  26.955  1.00  0.00     0.116 C 
ENDROOT
BRANCH   1   2
ATOM      2  N   UNL A   1      31.018  27.391  26.972  1.00  0.00    -0.354 N 
ATOM      3  C   UNL A   1      31.055  26.069  26.654  1.00  0.00     0.242 C 
ATOM      4  O   UNL A   1      29.970  25.490  26.524  1.00  0.00    -0.273 OA
ATOM      5  H   UNL A   1      30.139  27.736  27.251  1.00  0.00     0.163 HD
BRANCH   3   6
ATOM      6  C   UNL A   1      32.374  25.360  26.292  1.00  0.00     0.174 C 
ATOM      7  N   UNL A   1      32.701  25.224  24.848  1.00  0.00    -0.327 N 
ATOM      8  C   UNL A   1      33.800  24.270  24.568  1.00  0.00     0.089 C 
ATOM      9  C   UNL A   1      32.233  23.988  27.010  1.00  0.00     0.036 C 
ATOM     10  C   UNL A   1      33.536  22.873  25.147  1.00  0.00     0.012 C 
ATOM     11  C   UNL A   1      34.280  24.089  23.120  1.00  0.00     0.025 C 
ATOM     12  C   UNL A   1      33.287  22.957  26.651  1.00  0.00     0.008 C 
ATOM     13  C   UNL A   1      32.449  22.097  24.385  1.00  0.00     0.006 C 
ATOM     14  C   UNL A   1      33.396  23.205  22.242  1.00  0.00     0.002 C 
ATOM     15  C   UNL A   1      32.212  22.550  22.943  1.00  0.00     0.000 C 
BRANCH   7  16
ATOM     16  C   UNL A   1      32.485  26.220  23.899  1.00  0.00     0.232 C 
ATOM     17  O   UNL A   1      33.360  27.089  23.752  1.00  0.00    -0.274 OA
BRANCH  16  18
ATOM     18  C   UNL A   1      31.201  26.372  23.043  1.00  0.00     0.136 C 
BRANCH  18  19
ATOM     19  C   UNL A   1      30.232  27.519  23.423  1.00  0.00     0.001 C 
ATOM     20  C   UNL A   1      30.177  28.661  22.400  1.00  0.00     0.008 C 
ATOM     21  C   UNL A   1      28.795  27.005  23.607  1.00  0.00     0.008 C 
ENDBRANCH  18  19
BRANCH  18  22
ATOM     22  C   UNL A   1      31.469  26.152  21.545  1.00  0.00     0.272 C 
BRANCH  22  23
ATOM     23  N   UNL A   1      32.776  26.574  21.062  1.00  0.00    -0.357 N 
ATOM     24  H   UNL A   1      33.486  25.915  21.379  1.00  0.00     0.344 HD
ATOM     25  H   UNL A   1      32.989  27.503  21.426  1.00  0.00     0.344 HD
ATOM     26  H   UNL A   1      32.769  26.603  20.042  1.00  0.00     0.344 HD
ENDBRANCH  22  23
ENDBRANCH  18  22
ENDBRANCH  16  18
ENDBRANCH   7  16
ENDBRANCH   3   6
ENDBRANCH   1   2
BRANCH   1  27
ATOM     27  C   UNL A   1      31.810  29.470  25.948  1.00  0.00     0.023 C 
BRANCH  27  28
ATOM     28  C   UNL A   1      31.520  30.826  26.593  1.00  0.00     0.023 C 
BRANCH  28  29
ATOM     29  C   UNL A   1      32.763  31.639  26.927  1.00  0.00     0.116 C 
BRANCH  29  30
ATOM     30  N   UNL A   1      32.435  33.002  27.316  1.00  0.00    -0.352 N 
ATOM     31  C   UNL A   1      33.079  33.819  28.213  1.00  0.00     0.251 C 
ATOM     32  H   UNL A   1      31.646  33.392  26.875  1.00  0.00     0.163 HD
ATOM     33  O   UNL A   1      32.558  34.857  28.601  1.00  0.00    -0.269 OA
BRANCH  31  34
ATOM     34  C   UNL A   1      34.406  33.419  28.721  1.00  0.00     0.039 A 
ATOM     35  C   UNL A   1      34.487  32.661  29.890  1.00  0.00     0.014 A 
ATOM     36  C   UNL A   1      35.565  33.782  28.029  1.00  0.00     0.014 A 
ATOM     37  C   UNL A   1      35.733  32.220  30.336  1.00  0.00     0.010 A 
ATOM     38  C   UNL A   1      36.794  33.268  28.426  1.00  0.00     0.010 A 
ATOM     39  C   UNL A   1      36.893  32.494  29.591  1.00  0.00    -0.014 A 
BRANCH  39  40
ATOM     40  C   UNL A   1      38.223  32.002  30.029  1.00  0.00     0.031 A 
ATOM     41  C   UNL A   1      38.748  30.691  29.508  1.00  0.00     0.074 A 
ATOM     42  C   UNL A   1      38.934  32.704  30.932  1.00  0.00     0.049 A 
ATOM     43  N   UNL A   1      39.860  30.070  29.807  1.00  0.00    -0.248 NA
ATOM     44  C   UNL A   1      37.898  29.971  28.544  1.00  0.00     0.031 C 
ATOM     45  C   UNL A   1      38.522  33.971  31.541  1.00  0.00     0.029 A 
ATOM     46  N   UNL A   1      40.157  32.446  31.499  1.00  0.00    -0.354 N 
ATOM     47  C   UNL A   1      39.835  28.885  29.083  1.00  0.00     0.074 A 
ATOM     48  C   UNL A   1      38.574  28.845  28.377  1.00  0.00     0.031 C 
ATOM     49  C   UNL A   1      39.490  34.394  32.370  1.00  0.00     0.029 A 
ATOM     50  C   UNL A   1      40.567  33.411  32.387  1.00  0.00     0.049 A 
ATOM     51  H   UNL A   1      40.691  31.645  31.289  1.00  0.00     0.167 HD
ATOM     52  C   UNL A   1      40.786  27.924  28.994  1.00  0.00     0.031 A 
ATOM     53  C   UNL A   1      41.684  33.492  33.136  1.00  0.00     0.031 A 
ATOM     54  C   UNL A   1      42.043  27.966  29.690  1.00  0.00     0.049 A 
ATOM     55  C   UNL A   1      42.713  32.399  33.038  1.00  0.00     0.074 A 
ATOM     56  C   UNL A   1      43.092  27.066  29.629  1.00  0.00     0.029 A 
ATOM     57  N   UNL A   1      42.419  28.960  30.580  1.00  0.00    -0.354 N 
ATOM     58  N   UNL A   1      42.703  31.316  32.298  1.00  0.00    -0.248 NA
ATOM     59  C   UNL A   1      43.915  32.549  33.870  1.00  0.00     0.031 C 
ATOM     60  C   UNL A   1      44.079  27.485  30.526  1.00  0.00     0.029 A 
ATOM     61  C   UNL A   1      43.675  28.684  31.093  1.00  0.00     0.049 A 
ATOM     62  H   UNL A   1      41.873  29.747  30.812  1.00  0.00     0.167 HD
ATOM     63  C   UNL A   1      43.912  30.676  32.547  1.00  0.00     0.074 A 
ATOM     64  C   UNL A   1      44.633  31.500  33.496  1.00  0.00     0.031 C 
ATOM     65  C   UNL A   1      44.383  29.514  32.034  1.00  0.00     0.031 A 
BRANCH  52  66
ATOM     66  C   UNL A   1      40.492  26.739  28.114  1.00  0.00    -0.014 A 
ATOM     67  C   UNL A   1      40.965  26.675  26.793  1.00  0.00     0.009 A 
ATOM     68  C   UNL A   1      39.756  25.658  28.622  1.00  0.00     0.009 A 
ATOM     69  C   UNL A   1      40.672  25.572  25.988  1.00  0.00     0.001 A 
ATOM     70  C   UNL A   1      39.494  24.540  27.827  1.00  0.00     0.001 A 
ATOM     71  C   UNL A   1      39.942  24.504  26.507  1.00  0.00     0.000 A 
ENDBRANCH  52  66
BRANCH  53  72
ATOM     72  C   UNL A   1      41.899  34.657  34.034  1.00  0.00    -0.014 A 
ATOM     73  C   UNL A   1      41.460  34.623  35.366  1.00  0.00     0.009 A 
ATOM     74  C   UNL A   1      42.531  35.818  33.559  1.00  0.00     0.009 A 
ATOM     75  C   UNL A   1      41.619  35.736  36.194  1.00  0.00     0.001 A 
ATOM     76  C   UNL A   1      42.720  36.917  34.399  1.00  0.00     0.001 A 
ATOM     77  C   UNL A   1      42.253  36.881  35.712  1.00  0.00     0.000 A 
ENDBRANCH  53  72
BRANCH  65  78
ATOM     78  C   UNL A   1      45.766  29.088  32.443  1.00  0.00    -0.014 A 
ATOM     79  C   UNL A   1      45.980  28.250  33.548  1.00  0.00     0.009 A 
ATOM     80  C   UNL A   1      46.869  29.503  31.681  1.00  0.00     0.009 A 
ATOM     81  C   UNL A   1      47.276  27.868  33.903  1.00  0.00     0.001 A 
ATOM     82  C   UNL A   1      48.160  29.092  32.016  1.00  0.00     0.001 A 
ATOM     83  C   UNL A   1      48.363  28.285  33.134  1.00  0.00     0.000 A 
ENDBRANCH  65  78
ENDBRANCH  39  40
ENDBRANCH  31  34
ENDBRANCH  29  30
ENDBRANCH  28  29
ENDBRANCH  27  28
ENDBRANCH   1  27
TORSDOF 16
ENDMDL
MODEL 2
REMARK VINA RESULT:     -10.4      3.267      8.166
REMARK SMILES CC(C)[C@@H](C[NH3+])C(=O)N1[C@@H](C(=O)NCCCCNC(=O)c2ccc(-c3c4nc(c(-c5ccccc5)c5ccc([nH]5)c(-c5ccccc5)c5nc(c(-c6ccccc6)c6ccc3[nH]6)C=C5)C=C4)cc2)CC[C@H]2CCCC[C@H]21
REMARK SMILES IDX 14 1 13 2 11 3 12 4 10 6 9 7 76 8 69 9 71 10 75 11 70 12
REMARK SMILES IDX 72 13 74 14 73 15 7 16 8 17 4 18 2 19 1 20 3 21 5 22 6 23
REMARK SMILES IDX 15 27 16 28 17 29 18 30 19 31 20 33 21 34 22 35 68 36 23 37
REMARK SMILES IDX 67 38 24 39 25 40 26 41 61 42 27 43 66 44 60 45 62 46 28 47
REMARK SMILES IDX 65 48 59 49 58 50 29 52 51 53 36 54 50 55 37 56 40 57 49 58
REMARK SMILES IDX 63 59 38 60 39 61 48 63 64 64 41 65 30 66 31 67 35 68 32 69
REMARK SMILES IDX 34 70 33 71 52 72 53 73 57 74 54 75 56 76 55 77 42 78 43 79
REMARK SMILES IDX 47 80 44 81 46 82 45 83
REMARK H PARENT 13 5 6 24 6 25 6 26 18 32 62 51 40 62
REMARK Flexibility Score: inf
ROOT
ATOM      1  C   UNL A   1      36.725  21.919  24.219  1.00  0.00     0.116 C 
ENDROOT
BRANCH   1   2
ATOM      2  N   UNL A   1      36.447  23.037  25.098  1.00  0.00    -0.354 N 
ATOM      3  C   UNL A   1      35.259  23.644  25.362  1.00  0.00     0.242 C 
ATOM      4  O   UNL A   1      35.298  24.720  25.969  1.00  0.00    -0.273 OA
ATOM      5  H   UNL A   1      37.227  23.408  25.571  1.00  0.00     0.163 HD
BRANCH   3   6
ATOM      6  C   UNL A   1      33.934  23.119  24.777  1.00  0.00     0.174 C 
ATOM      7  N   UNL A   1      33.011  24.117  24.174  1.00  0.00    -0.327 N 
ATOM      8  C   UNL A   1      31.645  23.599  23.926  1.00  0.00     0.089 C 
ATOM      9  C   UNL A   1      33.303  22.365  25.981  1.00  0.00     0.036 C 
ATOM     10  C   UNL A   1      30.990  23.021  25.188  1.00  0.00     0.012 C 
ATOM     11  C   UNL A   1      30.614  24.511  23.244  1.00  0.00     0.025 C 
ATOM     12  C   UNL A   1      31.864  21.923  25.788  1.00  0.00     0.008 C 
ATOM     13  C   UNL A   1      30.573  24.100  26.202  1.00  0.00     0.006 C 
ATOM     14  C   UNL A   1      29.967  25.559  24.147  1.00  0.00     0.002 C 
ATOM     15  C   UNL A   1      30.361  25.498  25.618  1.00  0.00     0.000 C 
BRANCH   7  16
ATOM     16  C   UNL A   1      33.423  25.189  23.386  1.00  0.00     0.232 C 
ATOM     17  O   UNL A   1      33.791  24.954  22.224  1.00  0.00    -0.274 OA
BRANCH  16  18
ATOM     18  C   UNL A   1      33.520  26.661  23.864  1.00  0.00     0.136 C 
BRANCH  18  19
ATOM     19  C   UNL A   1      33.025  27.754  22.885  1.00  0.00     0.001 C 
ATOM     20  C   UNL A   1      31.839  28.576  23.408  1.00  0.00     0.008 C 
ATOM     21  C   UNL A   1      34.146  28.746  22.535  1.00  0.00     0.008 C 
ENDBRANCH  18  19
BRANCH  18  22
ATOM     22  C   UNL A   1      33.132  26.820  25.343  1.00  0.00     0.272 C 
BRANCH  22  23
ATOM     23  N   UNL A   1      34.050  27.598  26.164  1.00  0.00    -0.357 N 
ATOM     24  H   UNL A   1      34.847  27.019  26.426  1.00  0.00     0.344 HD
ATOM     25  H   UNL A   1      33.569  27.915  27.005  1.00  0.00     0.344 HD
ATOM     26  H   UNL A   1      34.377  28.406  25.634  1.00  0.00     0.344 HD
ENDBRANCH  22  23
ENDBRANCH  18  22
ENDBRANCH  16  18
ENDBRANCH   7  16
ENDBRANCH   3   6
ENDBRANCH   1   2
BRANCH   1  27
ATOM     27  C   UNL A   1      36.555  20.595  24.951  1.00  0.00     0.023 C 
BRANCH  27  28
ATOM     28  C   UNL A   1      37.803  19.712  24.918  1.00  0.00     0.023 C 
BRANCH  28  29
ATOM     29  C   UNL A   1      38.982  20.263  25.709  1.00  0.00     0.116 C 
BRANCH  29  30
ATOM     30  N   UNL A   1      40.081  19.314  25.782  1.00  0.00    -0.352 N 
ATOM     31  C   UNL A   1      41.405  19.550  26.064  1.00  0.00     0.251 C 
ATOM     32  H   UNL A   1      39.845  18.374  25.607  1.00  0.00     0.163 HD
ATOM     33  O   UNL A   1      42.250  18.687  25.872  1.00  0.00    -0.269 OA
BRANCH  31  34
ATOM     34  C   UNL A   1      41.799  20.872  26.590  1.00  0.00     0.039 A 
ATOM     35  C   UNL A   1      42.250  21.850  25.702  1.00  0.00     0.014 A 
ATOM     36  C   UNL A   1      41.706  21.145  27.957  1.00  0.00     0.014 A 
ATOM     37  C   UNL A   1      42.557  23.124  26.183  1.00  0.00     0.010 A 
ATOM     38  C   UNL A   1      41.927  22.437  28.420  1.00  0.00     0.010 A 
ATOM     39  C   UNL A   1      42.369  23.436  27.540  1.00  0.00    -0.014 A 
BRANCH  39  40
ATOM     40  C   UNL A   1      42.653  24.795  28.064  1.00  0.00     0.031 A 
ATOM     41  C   UNL A   1      44.051  25.161  28.485  1.00  0.00     0.074 A 
ATOM     42  C   UNL A   1      41.650  25.681  28.211  1.00  0.00     0.049 A 
ATOM     43  N   UNL A   1      44.490  26.276  29.010  1.00  0.00    -0.248 NA
ATOM     44  C   UNL A   1      45.087  24.128  28.317  1.00  0.00     0.031 C 
ATOM     45  C   UNL A   1      40.245  25.439  27.874  1.00  0.00     0.029 A 
ATOM     46  N   UNL A   1      41.659  26.968  28.688  1.00  0.00    -0.354 N 
ATOM     47  C   UNL A   1      45.843  26.072  29.248  1.00  0.00     0.074 A 
ATOM     48  C   UNL A   1      46.141  24.710  28.867  1.00  0.00     0.031 C 
ATOM     49  C   UNL A   1      39.536  26.551  28.123  1.00  0.00     0.029 A 
ATOM     50  C   UNL A   1      40.423  27.568  28.679  1.00  0.00     0.049 A 
ATOM     51  H   UNL A   1      42.475  27.419  29.006  1.00  0.00     0.167 HD
ATOM     52  C   UNL A   1      46.763  26.947  29.722  1.00  0.00     0.031 A 
ATOM     53  C   UNL A   1      40.045  28.797  29.080  1.00  0.00     0.031 A 
ATOM     54  C   UNL A   1      46.468  28.304  30.095  1.00  0.00     0.049 A 
ATOM     55  C   UNL A   1      41.081  29.741  29.626  1.00  0.00     0.074 A 
ATOM     56  C   UNL A   1      47.339  29.283  30.541  1.00  0.00     0.029 A 
ATOM     57  N   UNL A   1      45.204  28.871  30.072  1.00  0.00    -0.354 N 
ATOM     58  N   UNL A   1      42.370  29.555  29.784  1.00  0.00    -0.248 NA
ATOM     59  C   UNL A   1      40.611  31.071  30.035  1.00  0.00     0.031 C 
ATOM     60  C   UNL A   1      46.592  30.426  30.842  1.00  0.00     0.029 A 
ATOM     61  C   UNL A   1      45.267  30.181  30.518  1.00  0.00     0.049 A 
ATOM     62  H   UNL A   1      44.383  28.412  29.781  1.00  0.00     0.167 HD
ATOM     63  C   UNL A   1      42.869  30.755  30.275  1.00  0.00     0.074 A 
ATOM     64  C   UNL A   1      41.746  31.665  30.375  1.00  0.00     0.031 C 
ATOM     65  C   UNL A   1      44.142  31.076  30.609  1.00  0.00     0.031 A 
BRANCH  52  66
ATOM     66  C   UNL A   1      48.176  26.453  29.870  1.00  0.00    -0.014 A 
ATOM     67  C   UNL A   1      49.116  26.607  28.837  1.00  0.00     0.009 A 
ATOM     68  C   UNL A   1      48.583  25.850  31.070  1.00  0.00     0.009 A 
ATOM     69  C   UNL A   1      50.420  26.130  28.988  1.00  0.00     0.001 A 
ATOM     70  C   UNL A   1      49.897  25.406  31.232  1.00  0.00     0.001 A 
ATOM     71  C   UNL A   1      50.811  25.536  30.187  1.00  0.00     0.000 A 
ENDBRANCH  52  66
BRANCH  53  72
ATOM     72  C   UNL A   1      38.623  29.216  28.966  1.00  0.00    -0.014 A 
ATOM     73  C   UNL A   1      37.759  29.115  30.066  1.00  0.00     0.009 A 
ATOM     74  C   UNL A   1      38.117  29.706  27.751  1.00  0.00     0.009 A 
ATOM     75  C   UNL A   1      36.412  29.463  29.944  1.00  0.00     0.001 A 
ATOM     76  C   UNL A   1      36.778  30.085  27.641  1.00  0.00     0.001 A 
ATOM     77  C   UNL A   1      35.923  29.952  28.733  1.00  0.00     0.000 A 
ENDBRANCH  53  72
BRANCH  65  78
ATOM     78  C   UNL A   1      44.403  32.486  31.063  1.00  0.00    -0.014 A 
ATOM     79  C   UNL A   1      44.714  33.507  30.152  1.00  0.00     0.009 A 
ATOM     80  C   UNL A   1      44.295  32.803  32.426  1.00  0.00     0.009 A 
ATOM     81  C   UNL A   1      44.949  34.808  30.603  1.00  0.00     0.001 A 
ATOM     82  C   UNL A   1      44.495  34.110  32.871  1.00  0.00     0.001 A 
ATOM     83  C   UNL A   1      44.834  35.109  31.961  1.00  0.00     0.000 A 
ENDBRANCH  65  78
ENDBRANCH  39  40
ENDBRANCH  31  34
ENDBRANCH  29  30
ENDBRANCH  28  29
ENDBRANCH  27  28
ENDBRANCH   1  27
TORSDOF 16
ENDMDL
MODEL 3
REMARK VINA RESULT:     -10.4      3.598      8.636
REMARK SMILES CC(C)[C@@H](C[NH3+])C(=O)N1[C@@H](C(=O)NCCCCNC(=O)c2ccc(-c3c4nc(c(-c5ccccc5)c5ccc([nH]5)c(-c5ccccc5)c5nc(c(-c6ccccc6)c6ccc3[nH]6)C=C5)C=C4)cc2)CC[C@H]2CCCC[C@H]21
REMARK SMILES IDX 14 1 13 2 11 3 12 4 10 6 9 7 76 8 69 9 71 10 75 11 70 12
REMARK SMILES IDX 72 13 74 14 73 15 7 16 8 17 4 18 2 19 1 20 3 21 5 22 6 23
REMARK SMILES IDX 15 27 16 28 17 29 18 30 19 31 20 33 21 34 22 35 68 36 23 37
REMARK SMILES IDX 67 38 24 39 25 40 26 41 61 42 27 43 66 44 60 45 62 46 28 47
REMARK SMILES IDX 65 48 59 49 58 50 29 52 51 53 36 54 50 55 37 56 40 57 49 58
REMARK SMILES IDX 63 59 38 60 39 61 48 63 64 64 41 65 30 66 31 67 35 68 32 69
REMARK SMILES IDX 34 70 33 71 52 72 53 73 57 74 54 75 56 76 55 77 42 78 43 79
REMARK SMILES IDX 47 80 44 81 46 82 45 83
REMARK H PARENT 13 5 6 24 6 25 6 26 18 32 62 51 40 62
REMARK Flexibility Score: inf
ROOT
ATOM      1  C   UNL A   1      37.315  21.704  24.622  1.00  0.00     0.116 C 
ENDROOT
BRANCH   1   2
ATOM      2  N   UNL A   1      36.662  22.411  23.538  1.00  0.00    -0.354 N 
ATOM      3  C   UNL A   1      35.617  23.281  23.590  1.00  0.00     0.242 C 
ATOM      4  O   UNL A   1      35.083  23.585  22.517  1.00  0.00    -0.273 OA
ATOM      5  H   UNL A   1      37.023  22.237  22.640  1.00  0.00     0.163 HD
BRANCH   3   6
ATOM      6  C   UNL A   1      35.004  23.731  24.930  1.00  0.00     0.174 C 
ATOM      7  N   UNL A   1      33.817  22.982  25.423  1.00  0.00    -0.327 N 
ATOM      8  C   UNL A   1      33.100  23.656  26.530  1.00  0.00     0.089 C 
ATOM      9  C   UNL A   1      34.705  25.237  24.681  1.00  0.00     0.036 C 
ATOM     10  C   UNL A   1      32.667  25.086  26.175  1.00  0.00     0.012 C 
ATOM     11  C   UNL A   1      31.895  22.953  27.174  1.00  0.00     0.025 C 
ATOM     12  C   UNL A   1      33.874  25.919  25.752  1.00  0.00     0.008 C 
ATOM     13  C   UNL A   1      31.502  25.135  25.172  1.00  0.00     0.006 C 
ATOM     14  C   UNL A   1      30.590  23.033  26.385  1.00  0.00     0.002 C 
ATOM     15  C   UNL A   1      30.636  23.875  25.115  1.00  0.00     0.000 C 
BRANCH   7  16
ATOM     16  C   UNL A   1      33.674  21.600  25.338  1.00  0.00     0.232 C 
ATOM     17  O   UNL A   1      34.026  20.913  26.310  1.00  0.00    -0.274 OA
BRANCH  16  18
ATOM     18  C   UNL A   1      33.162  20.832  24.091  1.00  0.00     0.136 C 
BRANCH  18  19
ATOM     19  C   UNL A   1      32.930  19.309  24.247  1.00  0.00     0.001 C 
ATOM     20  C   UNL A   1      32.151  18.670  23.089  1.00  0.00     0.008 C 
ATOM     21  C   UNL A   1      34.259  18.547  24.375  1.00  0.00     0.008 C 
ENDBRANCH  18  19
BRANCH  18  22
ATOM     22  C   UNL A   1      32.097  21.626  23.315  1.00  0.00     0.272 C 
BRANCH  22  23
ATOM     23  N   UNL A   1      32.528  22.205  22.050  1.00  0.00    -0.357 N 
ATOM     24  H   UNL A   1      32.608  21.469  21.348  1.00  0.00     0.344 HD
ATOM     25  H   UNL A   1      33.435  22.656  22.175  1.00  0.00     0.344 HD
ATOM     26  H   UNL A   1      31.845  22.896  21.742  1.00  0.00     0.344 HD
ENDBRANCH  22  23
ENDBRANCH  18  22
ENDBRANCH  16  18
ENDBRANCH   7  16
ENDBRANCH   3   6
ENDBRANCH   1   2
BRANCH   1  27
ATOM     27  C   UNL A   1      37.394  20.212  24.329  1.00  0.00     0.023 C 
BRANCH  27  28
ATOM     28  C   UNL A   1      38.180  19.424  25.376  1.00  0.00     0.023 C 
BRANCH  28  29
ATOM     29  C   UNL A   1      39.433  20.127  25.880  1.00  0.00     0.116 C 
BRANCH  29  30
ATOM     30  N   UNL A   1      40.581  19.235  25.923  1.00  0.00    -0.352 N 
ATOM     31  C   UNL A   1      41.904  19.543  26.128  1.00  0.00     0.251 C 
ATOM     32  H   UNL A   1      40.383  18.280  25.787  1.00  0.00     0.163 HD
ATOM     33  O   UNL A   1      42.780  18.717  25.916  1.00  0.00    -0.269 OA
BRANCH  31  34
ATOM     34  C   UNL A   1      42.258  20.899  26.595  1.00  0.00     0.039 A 
ATOM     35  C   UNL A   1      42.603  21.872  25.656  1.00  0.00     0.014 A 
ATOM     36  C   UNL A   1      42.233  21.205  27.958  1.00  0.00     0.014 A 
ATOM     37  C   UNL A   1      42.870  23.173  26.084  1.00  0.00     0.010 A 
ATOM     38  C   UNL A   1      42.412  22.520  28.372  1.00  0.00     0.010 A 
ATOM     39  C   UNL A   1      42.747  23.515  27.441  1.00  0.00    -0.014 A 
BRANCH  39  40
ATOM     40  C   UNL A   1      42.990  24.901  27.911  1.00  0.00     0.031 A 
ATOM     41  C   UNL A   1      44.390  25.355  28.222  1.00  0.00     0.074 A 
ATOM     42  C   UNL A   1      41.950  25.735  28.109  1.00  0.00     0.049 A 
ATOM     43  N   UNL A   1      44.801  26.506  28.689  1.00  0.00    -0.248 NA
ATOM     44  C   UNL A   1      45.469  24.376  28.006  1.00  0.00     0.031 C 
ATOM     45  C   UNL A   1      40.541  25.406  27.879  1.00  0.00     0.029 A 
ATOM     46  N   UNL A   1      41.920  27.033  28.554  1.00  0.00    -0.354 N 
ATOM     47  C   UNL A   1      46.177  26.384  28.835  1.00  0.00     0.074 A 
ATOM     48  C   UNL A   1      46.524  25.030  28.465  1.00  0.00     0.031 C 
ATOM     49  C   UNL A   1      39.789  26.484  28.152  1.00  0.00     0.029 A 
ATOM     50  C   UNL A   1      40.654  27.563  28.620  1.00  0.00     0.049 A 
ATOM     51  H   UNL A   1      42.729  27.537  28.802  1.00  0.00     0.167 HD
ATOM     52  C   UNL A   1      47.076  27.321  29.221  1.00  0.00     0.031 A 
ATOM     53  C   UNL A   1      40.236  28.780  29.017  1.00  0.00     0.031 A 
ATOM     54  C   UNL A   1      46.732  28.669  29.582  1.00  0.00     0.049 A 
ATOM     55  C   UNL A   1      41.252  29.794  29.465  1.00  0.00     0.074 A 
ATOM     56  C   UNL A   1      47.575  29.707  29.941  1.00  0.00     0.029 A 
ATOM     57  N   UNL A   1      45.439  29.165  29.636  1.00  0.00    -0.354 N 
ATOM     58  N   UNL A   1      42.557  29.683  29.535  1.00  0.00    -0.248 NA
ATOM     59  C   UNL A   1      40.737  31.107  29.876  1.00  0.00     0.031 C 
ATOM     60  C   UNL A   1      46.787  30.814  30.269  1.00  0.00     0.029 A 
ATOM     61  C   UNL A   1      45.458  30.488  30.046  1.00  0.00     0.049 A 
ATOM     62  H   UNL A   1      44.627  28.653  29.416  1.00  0.00     0.167 HD
ATOM     63  C   UNL A   1      43.020  30.922  29.961  1.00  0.00     0.074 A 
ATOM     64  C   UNL A   1      41.857  31.772  30.120  1.00  0.00     0.031 C 
ATOM     65  C   UNL A   1      44.294  31.322  30.196  1.00  0.00     0.031 A 
BRANCH  52  66
ATOM     66  C   UNL A   1      48.523  26.909  29.279  1.00  0.00    -0.014 A 
ATOM     67  C   UNL A   1      49.051  26.257  30.405  1.00  0.00     0.009 A 
ATOM     68  C   UNL A   1      49.362  27.152  28.182  1.00  0.00     0.009 A 
ATOM     69  C   UNL A   1      50.399  25.894  30.446  1.00  0.00     0.001 A 
ATOM     70  C   UNL A   1      50.701  26.756  28.211  1.00  0.00     0.001 A 
ATOM     71  C   UNL A   1      51.221  26.138  29.347  1.00  0.00     0.000 A 
ENDBRANCH  52  66
BRANCH  53  72
ATOM     72  C   UNL A   1      38.788  29.117  28.996  1.00  0.00    -0.014 A 
ATOM     73  C   UNL A   1      38.179  29.575  27.818  1.00  0.00     0.009 A 
ATOM     74  C   UNL A   1      38.009  28.998  30.158  1.00  0.00     0.009 A 
ATOM     75  C   UNL A   1      36.830  29.937  27.812  1.00  0.00     0.001 A 
ATOM     76  C   UNL A   1      36.652  29.329  30.140  1.00  0.00     0.001 A 
ATOM     77  C   UNL A   1      36.067  29.810  28.971  1.00  0.00     0.000 A 
ENDBRANCH  53  72
BRANCH  65  78
ATOM     78  C   UNL A   1      44.505  32.757  30.597  1.00  0.00    -0.014 A 
ATOM     79  C   UNL A   1      44.525  33.148  31.945  1.00  0.00     0.009 A 
ATOM     80  C   UNL A   1      44.728  33.724  29.605  1.00  0.00     0.009 A 
ATOM     81  C   UNL A   1      44.727  34.487  32.287  1.00  0.00     0.001 A 
ATOM     82  C   UNL A   1      44.964  35.055  29.951  1.00  0.00     0.001 A 
ATOM     83  C   UNL A   1      44.951  35.438  31.291  1.00  0.00     0.000 A 
ENDBRANCH  65  78
ENDBRANCH  39  40
ENDBRANCH  31  34
ENDBRANCH  29  30
ENDBRANCH  28  29
ENDBRANCH  27  28
ENDBRANCH   1  27
TORSDOF 16
ENDMDL
