MODEL 1
REMARK VINA RESULT:     -11.5      0.000      0.000
REMARK SMILES C[C@H](C(=O)NCCCCNC(=O)c1ccc(-c2c3nc(c(-c4ccccc4)c4ccc([nH]4)c(-c4ccccc4)c4nc(c(-c5ccccc5)c5ccc2[nH]5)C=C4)C=C3)cc1)c1cccc(C(=O)c2ccccc2)c1
REMARK SMILES IDX 7 1 6 2 5 3 3 4 4 5 2 7 1 8 61 9 62 10 74 11 63 12 65 13
REMARK SMILES IDX 64 14 66 15 67 16 68 17 69 18 73 19 70 20 72 21 71 22 8 23
REMARK SMILES IDX 9 24 10 25 11 26 12 28 13 29 14 30 60 31 15 32 59 33 16 34
REMARK SMILES IDX 17 35 18 36 53 37 19 38 58 39 52 40 54 41 20 42 57 43 51 44
REMARK SMILES IDX 50 45 21 47 43 48 28 49 42 50 29 51 32 52 41 53 55 54 30 55
REMARK SMILES IDX 31 56 40 58 56 59 33 60 22 61 23 62 27 63 24 64 26 65 25 66
REMARK SMILES IDX 44 67 45 68 49 69 46 70 48 71 47 72 34 73 35 74 39 75 36 76
REMARK SMILES IDX 38 77 37 78
REMARK H PARENT 5 6 10 27 54 46 32 57
REMARK Flexibility Score: inf
ROOT
ATOM      1  C   UNL A   1      31.764  29.851  26.408  1.00  0.00     0.023 C 
ENDROOT
BRANCH   1   2
ATOM      2  C   UNL A   1      33.124  29.326  25.948  1.00  0.00     0.116 C 
BRANCH   2   3
ATOM      3  N   UNL A   1      33.369  29.610  24.543  1.00  0.00    -0.356 N 
ATOM      4  C   UNL A   1      33.390  28.820  23.432  1.00  0.00     0.227 C 
ATOM      5  O   UNL A   1      33.742  29.388  22.392  1.00  0.00    -0.274 OA
ATOM      6  H   UNL A   1      33.555  30.558  24.358  1.00  0.00     0.163 HD
BRANCH   4   7
ATOM      7  C   UNL A   1      32.913  27.352  23.415  1.00  0.00     0.105 C 
ATOM      8  C   UNL A   1      33.814  26.502  24.323  1.00  0.00     0.023 C 
BRANCH   7   9
ATOM      9  C   UNL A   1      31.456  27.134  23.796  1.00  0.00    -0.035 A 
ATOM     10  C   UNL A   1      31.059  25.889  24.312  1.00  0.00     0.004 A 
ATOM     11  C   UNL A   1      30.481  28.124  23.568  1.00  0.00     0.016 A 
ATOM     12  C   UNL A   1      29.711  25.595  24.486  1.00  0.00     0.001 A 
ATOM     13  C   UNL A   1      29.120  27.802  23.637  1.00  0.00     0.023 A 
ATOM     14  C   UNL A   1      28.747  26.535  24.120  1.00  0.00     0.012 A 
BRANCH  13  15
ATOM     15  C   UNL A   1      28.027  28.691  23.143  1.00  0.00     0.193 C 
ATOM     16  O   UNL A   1      26.889  28.216  23.124  1.00  0.00    -0.289 OA
BRANCH  15  17
ATOM     17  C   UNL A   1      28.205  30.083  22.614  1.00  0.00     0.022 A 
ATOM     18  C   UNL A   1      28.430  31.095  23.562  1.00  0.00     0.012 A 
ATOM     19  C   UNL A   1      28.096  30.458  21.269  1.00  0.00     0.012 A 
ATOM     20  C   UNL A   1      28.571  32.431  23.176  1.00  0.00     0.001 A 
ATOM     21  C   UNL A   1      28.248  31.794  20.879  1.00  0.00     0.001 A 
ATOM     22  C   UNL A   1      28.488  32.780  21.832  1.00  0.00     0.000 A 
ENDBRANCH  15  17
ENDBRANCH  13  15
ENDBRANCH   7   9
ENDBRANCH   4   7
ENDBRANCH   2   3
ENDBRANCH   1   2
BRANCH   1  23
ATOM     23  C   UNL A   1      31.631  31.371  26.464  1.00  0.00     0.023 C 
BRANCH  23  24
ATOM     24  C   UNL A   1      32.784  32.042  27.180  1.00  0.00     0.116 C 
BRANCH  24  25
ATOM     25  N   UNL A   1      32.481  33.420  27.556  1.00  0.00    -0.352 N 
ATOM     26  C   UNL A   1      33.173  34.266  28.391  1.00  0.00     0.251 C 
ATOM     27  H   UNL A   1      31.665  33.797  27.155  1.00  0.00     0.163 HD
ATOM     28  O   UNL A   1      32.715  35.367  28.681  1.00  0.00    -0.269 OA
BRANCH  26  29
ATOM     29  C   UNL A   1      34.454  33.821  28.978  1.00  0.00     0.039 A 
ATOM     30  C   UNL A   1      34.443  33.127  30.191  1.00  0.00     0.014 A 
ATOM     31  C   UNL A   1      35.657  34.039  28.305  1.00  0.00     0.014 A 
ATOM     32  C   UNL A   1      35.627  32.569  30.678  1.00  0.00     0.010 A 
ATOM     33  C   UNL A   1      36.809  33.394  28.732  1.00  0.00     0.010 A 
ATOM     34  C   UNL A   1      36.808  32.654  29.925  1.00  0.00    -0.014 A 
BRANCH  34  35
ATOM     35  C   UNL A   1      38.065  31.987  30.345  1.00  0.00     0.031 A 
ATOM     36  C   UNL A   1      39.018  32.709  31.258  1.00  0.00     0.074 A 
ATOM     37  C   UNL A   1      38.403  30.795  29.813  1.00  0.00     0.049 A 
ATOM     38  N   UNL A   1      40.236  32.382  31.606  1.00  0.00    -0.248 NA
ATOM     39  C   UNL A   1      38.557  33.991  31.819  1.00  0.00     0.031 C 
ATOM     40  C   UNL A   1      37.590  30.018  28.874  1.00  0.00     0.029 A 
ATOM     41  N   UNL A   1      39.537  30.038  29.971  1.00  0.00    -0.354 N 
ATOM     42  C   UNL A   1      40.698  33.437  32.383  1.00  0.00     0.074 A 
ATOM     43  C   UNL A   1      39.649  34.430  32.424  1.00  0.00     0.031 C 
ATOM     44  C   UNL A   1      38.244  28.889  28.554  1.00  0.00     0.029 A 
ATOM     45  C   UNL A   1      39.540  28.885  29.223  1.00  0.00     0.049 A 
ATOM     46  H   UNL A   1      40.280  30.297  30.564  1.00  0.00     0.167 HD
ATOM     47  C   UNL A   1      41.886  33.560  33.020  1.00  0.00     0.031 A 
ATOM     48  C   UNL A   1      40.488  27.940  29.076  1.00  0.00     0.031 A 
ATOM     49  C   UNL A   1      42.905  32.546  33.020  1.00  0.00     0.049 A 
ATOM     50  C   UNL A   1      41.790  28.091  29.814  1.00  0.00     0.074 A 
ATOM     51  C   UNL A   1      44.097  32.526  33.722  1.00  0.00     0.029 A 
ATOM     52  N   UNL A   1      42.848  31.373  32.285  1.00  0.00    -0.354 N 
ATOM     53  N   UNL A   1      42.177  29.053  30.616  1.00  0.00    -0.248 NA
ATOM     54  C   UNL A   1      42.784  27.024  29.628  1.00  0.00     0.031 C 
ATOM     55  C   UNL A   1      44.786  31.362  33.371  1.00  0.00     0.029 A 
ATOM     56  C   UNL A   1      44.001  30.636  32.490  1.00  0.00     0.049 A 
ATOM     57  H   UNL A   1      42.100  31.105  31.704  1.00  0.00     0.167 HD
ATOM     58  C   UNL A   1      43.449  28.698  31.045  1.00  0.00     0.074 A 
ATOM     59  C   UNL A   1      43.761  27.425  30.431  1.00  0.00     0.031 C 
ATOM     60  C   UNL A   1      44.287  29.369  31.870  1.00  0.00     0.031 A 
BRANCH  47  61
ATOM     61  C   UNL A   1      42.150  34.834  33.770  1.00  0.00    -0.014 A 
ATOM     62  C   UNL A   1      41.807  34.971  35.125  1.00  0.00     0.009 A 
ATOM     63  C   UNL A   1      42.796  35.899  33.122  1.00  0.00     0.009 A 
ATOM     64  C   UNL A   1      42.076  36.160  35.805  1.00  0.00     0.001 A 
ATOM     65  C   UNL A   1      43.089  37.076  33.813  1.00  0.00     0.001 A 
ATOM     66  C   UNL A   1      42.722  37.208  35.151  1.00  0.00     0.000 A 
ENDBRANCH  47  61
BRANCH  48  67
ATOM     67  C   UNL A   1      40.253  26.771  28.189  1.00  0.00    -0.014 A 
ATOM     68  C   UNL A   1      39.530  25.660  28.649  1.00  0.00     0.009 A 
ATOM     69  C   UNL A   1      40.764  26.751  26.880  1.00  0.00     0.009 A 
ATOM     70  C   UNL A   1      39.349  24.542  27.832  1.00  0.00     0.001 A 
ATOM     71  C   UNL A   1      40.557  25.645  26.055  1.00  0.00     0.001 A 
ATOM     72  C   UNL A   1      39.859  24.536  26.534  1.00  0.00     0.000 A 
ENDBRANCH  48  67
BRANCH  60  73
ATOM     73  C   UNL A   1      45.610  28.731  32.176  1.00  0.00    -0.014 A 
ATOM     74  C   UNL A   1      46.739  28.992  31.383  1.00  0.00     0.009 A 
ATOM     75  C   UNL A   1      45.743  27.911  33.307  1.00  0.00     0.009 A 
ATOM     76  C   UNL A   1      47.972  28.425  31.708  1.00  0.00     0.001 A 
ATOM     77  C   UNL A   1      46.983  27.368  33.644  1.00  0.00     0.001 A 
ATOM     78  C   UNL A   1      48.094  27.619  32.840  1.00  0.00     0.000 A 
ENDBRANCH  60  73
ENDBRANCH  34  35
ENDBRANCH  26  29
ENDBRANCH  24  25
ENDBRANCH  23  24
ENDBRANCH   1  23
TORSDOF 14
ENDMDL
MODEL 2
REMARK VINA RESULT:     -11.5      4.113      8.787
REMARK SMILES C[C@H](C(=O)NCCCCNC(=O)c1ccc(-c2c3nc(c(-c4ccccc4)c4ccc([nH]4)c(-c4ccccc4)c4nc(c(-c5ccccc5)c5ccc2[nH]5)C=C4)C=C3)cc1)c1cccc(C(=O)c2ccccc2)c1
REMARK SMILES IDX 7 1 6 2 5 3 3 4 4 5 2 7 1 8 61 9 62 10 74 11 63 12 65 13
REMARK SMILES IDX 64 14 66 15 67 16 68 17 69 18 73 19 70 20 72 21 71 22 8 23
REMARK SMILES IDX 9 24 10 25 11 26 12 28 13 29 14 30 60 31 15 32 59 33 16 34
REMARK SMILES IDX 17 35 18 36 53 37 19 38 58 39 52 40 54 41 20 42 57 43 51 44
REMARK SMILES IDX 50 45 21 47 43 48 28 49 42 50 29 51 32 52 41 53 55 54 30 55
REMARK SMILES IDX 31 56 40 58 56 59 33 60 22 61 23 62 27 63 24 64 26 65 25 66
REMARK SMILES IDX 44 67 45 68 49 69 46 70 48 71 47 72 34 73 35 74 39 75 36 76
REMARK SMILES IDX 38 77 37 78
REMARK H PARENT 5 6 10 27 54 46 32 57
REMARK Flexibility Score: inf
ROOT
ATOM      1  C   UNL A   1      36.831  21.885  24.435  1.00  0.00     0.023 C 
ENDROOT
BRANCH   1   2
ATOM      2  C   UNL A   1      36.272  22.854  25.477  1.00  0.00     0.116 C 
BRANCH   2   3
ATOM      3  N   UNL A   1      35.502  22.166  26.500  1.00  0.00    -0.356 N 
ATOM      4  C   UNL A   1      34.295  21.531  26.478  1.00  0.00     0.227 C 
ATOM      5  O   UNL A   1      33.888  21.140  27.578  1.00  0.00    -0.274 OA
ATOM      6  H   UNL A   1      35.937  22.155  27.382  1.00  0.00     0.163 HD
BRANCH   4   7
ATOM      7  C   UNL A   1      33.519  21.211  25.182  1.00  0.00     0.105 C 
ATOM      8  C   UNL A   1      32.840  19.839  25.308  1.00  0.00     0.023 C 
BRANCH   7   9
ATOM      9  C   UNL A   1      32.490  22.251  24.763  1.00  0.00    -0.035 A 
ATOM     10  C   UNL A   1      32.139  22.364  23.407  1.00  0.00     0.004 A 
ATOM     11  C   UNL A   1      31.940  23.156  25.691  1.00  0.00     0.016 A 
ATOM     12  C   UNL A   1      31.354  23.426  22.969  1.00  0.00     0.001 A 
ATOM     13  C   UNL A   1      31.241  24.285  25.247  1.00  0.00     0.023 A 
ATOM     14  C   UNL A   1      30.936  24.396  23.878  1.00  0.00     0.012 A 
BRANCH  13  15
ATOM     15  C   UNL A   1      30.870  25.435  26.123  1.00  0.00     0.193 C 
ATOM     16  O   UNL A   1      29.752  25.401  26.643  1.00  0.00    -0.289 OA
BRANCH  15  17
ATOM     17  C   UNL A   1      31.713  26.649  26.373  1.00  0.00     0.022 A 
ATOM     18  C   UNL A   1      33.034  26.610  25.898  1.00  0.00     0.012 A 
ATOM     19  C   UNL A   1      31.312  27.779  27.098  1.00  0.00     0.012 A 
ATOM     20  C   UNL A   1      33.914  27.675  26.112  1.00  0.00     0.001 A 
ATOM     21  C   UNL A   1      32.187  28.852  27.304  1.00  0.00     0.001 A 
ATOM     22  C   UNL A   1      33.487  28.800  26.809  1.00  0.00     0.000 A 
ENDBRANCH  15  17
ENDBRANCH  13  15
ENDBRANCH   7   9
ENDBRANCH   4   7
ENDBRANCH   2   3
ENDBRANCH   1   2
BRANCH   1  23
ATOM     23  C   UNL A   1      37.515  20.641  24.995  1.00  0.00     0.023 C 
BRANCH  23  24
ATOM     24  C   UNL A   1      38.821  20.948  25.699  1.00  0.00     0.116 C 
BRANCH  24  25
ATOM     25  N   UNL A   1      39.751  19.823  25.666  1.00  0.00    -0.352 N 
ATOM     26  C   UNL A   1      41.080  19.783  26.018  1.00  0.00     0.251 C 
ATOM     27  H   UNL A   1      39.373  18.973  25.345  1.00  0.00     0.163 HD
ATOM     28  O   UNL A   1      41.744  18.768  25.825  1.00  0.00    -0.269 OA
BRANCH  26  29
ATOM     29  C   UNL A   1      41.719  20.987  26.587  1.00  0.00     0.039 A 
ATOM     30  C   UNL A   1      42.255  21.946  25.723  1.00  0.00     0.014 A 
ATOM     31  C   UNL A   1      41.737  21.196  27.966  1.00  0.00     0.014 A 
ATOM     32  C   UNL A   1      42.723  23.157  26.240  1.00  0.00     0.010 A 
ATOM     33  C   UNL A   1      42.100  22.438  28.467  1.00  0.00     0.010 A 
ATOM     34  C   UNL A   1      42.600  23.431  27.611  1.00  0.00    -0.014 A 
BRANCH  34  35
ATOM     35  C   UNL A   1      42.981  24.742  28.193  1.00  0.00     0.031 A 
ATOM     36  C   UNL A   1      41.917  25.773  28.456  1.00  0.00     0.074 A 
ATOM     37  C   UNL A   1      44.283  25.046  28.368  1.00  0.00     0.049 A 
ATOM     38  N   UNL A   1      42.051  27.030  28.795  1.00  0.00    -0.248 NA
ATOM     39  C   UNL A   1      40.519  25.348  28.268  1.00  0.00     0.031 C 
ATOM     40  C   UNL A   1      45.412  24.153  28.099  1.00  0.00     0.029 A 
ATOM     41  N   UNL A   1      44.876  26.208  28.794  1.00  0.00    -0.354 N 
ATOM     42  C   UNL A   1      40.763  27.550  28.815  1.00  0.00     0.074 A 
ATOM     43  C   UNL A   1      39.867  26.490  28.416  1.00  0.00     0.031 C 
ATOM     44  C   UNL A   1      46.557  24.793  28.382  1.00  0.00     0.029 A 
ATOM     45  C   UNL A   1      46.249  26.154  28.804  1.00  0.00     0.049 A 
ATOM     46  H   UNL A   1      44.367  27.006  29.067  1.00  0.00     0.167 HD
ATOM     47  C   UNL A   1      40.362  28.799  29.152  1.00  0.00     0.031 A 
ATOM     48  C   UNL A   1      47.160  27.102  29.100  1.00  0.00     0.031 A 
ATOM     49  C   UNL A   1      41.252  29.834  29.600  1.00  0.00     0.049 A 
ATOM     50  C   UNL A   1      46.684  28.473  29.493  1.00  0.00     0.074 A 
ATOM     51  C   UNL A   1      40.935  31.096  30.068  1.00  0.00     0.029 A 
ATOM     52  N   UNL A   1      42.633  29.723  29.637  1.00  0.00    -0.354 N 
ATOM     53  N   UNL A   1      45.458  28.925  29.592  1.00  0.00    -0.248 NA
ATOM     54  C   UNL A   1      47.720  29.465  29.818  1.00  0.00     0.031 C 
ATOM     55  C   UNL A   1      42.129  31.769  30.342  1.00  0.00     0.029 A 
ATOM     56  C   UNL A   1      43.185  30.908  30.090  1.00  0.00     0.049 A 
ATOM     57  H   UNL A   1      43.143  28.922  29.380  1.00  0.00     0.167 HD
ATOM     58  C   UNL A   1      45.573  30.244  30.009  1.00  0.00     0.074 A 
ATOM     59  C   UNL A   1      46.987  30.515  30.163  1.00  0.00     0.031 C 
ATOM     60  C   UNL A   1      44.596  31.153  30.239  1.00  0.00     0.031 A 
BRANCH  47  61
ATOM     61  C   UNL A   1      38.897  29.115  29.050  1.00  0.00    -0.014 A 
ATOM     62  C   UNL A   1      38.040  28.975  30.152  1.00  0.00     0.009 A 
ATOM     63  C   UNL A   1      38.376  29.605  27.842  1.00  0.00     0.009 A 
ATOM     64  C   UNL A   1      36.684  29.289  30.037  1.00  0.00     0.001 A 
ATOM     65  C   UNL A   1      37.026  29.945  27.738  1.00  0.00     0.001 A 
ATOM     66  C   UNL A   1      36.180  29.781  28.833  1.00  0.00     0.000 A 
ENDBRANCH  47  61
BRANCH  48  67
ATOM     67  C   UNL A   1      48.613  26.797  29.027  1.00  0.00    -0.014 A 
ATOM     68  C   UNL A   1      49.317  26.963  27.825  1.00  0.00     0.009 A 
ATOM     69  C   UNL A   1      49.302  26.321  30.155  1.00  0.00     0.009 A 
ATOM     70  C   UNL A   1      50.671  26.630  27.744  1.00  0.00     0.001 A 
ATOM     71  C   UNL A   1      50.662  26.018  30.080  1.00  0.00     0.001 A 
ATOM     72  C   UNL A   1      51.344  26.162  28.872  1.00  0.00     0.000 A 
ENDBRANCH  48  67
BRANCH  60  73
ATOM     73  C   UNL A   1      45.018  32.516  30.703  1.00  0.00    -0.014 A 
ATOM     74  C   UNL A   1      45.195  32.792  32.068  1.00  0.00     0.009 A 
ATOM     75  C   UNL A   1      45.305  33.514  29.760  1.00  0.00     0.009 A 
ATOM     76  C   UNL A   1      45.632  34.052  32.479  1.00  0.00     0.001 A 
ATOM     77  C   UNL A   1      45.767  34.764  30.173  1.00  0.00     0.001 A 
ATOM     78  C   UNL A   1      45.923  35.033  31.532  1.00  0.00     0.000 A 
ENDBRANCH  60  73
ENDBRANCH  34  35
ENDBRANCH  26  29
ENDBRANCH  24  25
ENDBRANCH  23  24
ENDBRANCH   1  23
TORSDOF 14
ENDMDL
MODEL 3
REMARK VINA RESULT:     -11.5      0.723      5.997
REMARK SMILES C[C@H](C(=O)NCCCCNC(=O)c1ccc(-c2c3nc(c(-c4ccccc4)c4ccc([nH]4)c(-c4ccccc4)c4nc(c(-c5ccccc5)c5ccc2[nH]5)C=C4)C=C3)cc1)c1cccc(C(=O)c2ccccc2)c1
REMARK SMILES IDX 7 1 6 2 5 3 3 4 4 5 2 7 1 8 61 9 62 10 74 11 63 12 65 13
REMARK SMILES IDX 64 14 66 15 67 16 68 17 69 18 73 19 70 20 72 21 71 22 8 23
REMARK SMILES IDX 9 24 10 25 11 26 12 28 13 29 14 30 60 31 15 32 59 33 16 34
REMARK SMILES IDX 17 35 18 36 53 37 19 38 58 39 52 40 54 41 20 42 57 43 51 44
REMARK SMILES IDX 50 45 21 47 43 48 28 49 42 50 29 51 32 52 41 53 55 54 30 55
REMARK SMILES IDX 31 56 40 58 56 59 33 60 22 61 23 62 27 63 24 64 26 65 25 66
REMARK SMILES IDX 44 67 45 68 49 69 46 70 48 71 47 72 34 73 35 74 39 75 36 76
REMARK SMILES IDX 38 77 37 78
REMARK H PARENT 5 6 10 27 54 46 32 57
REMARK Flexibility Score: inf
ROOT
ATOM      1  C   UNL A   1      32.128  28.760  26.472  1.00  0.00     0.023 C 
ENDROOT
BRANCH   1   2
ATOM      2  C   UNL A   1      33.435  28.355  25.790  1.00  0.00     0.116 C 
BRANCH   2   3
ATOM      3  N   UNL A   1      33.576  28.967  24.479  1.00  0.00    -0.356 N 
ATOM      4  C   UNL A   1      33.363  28.502  23.215  1.00  0.00     0.227 C 
ATOM      5  O   UNL A   1      33.690  29.276  22.309  1.00  0.00    -0.274 OA
ATOM      6  H   UNL A   1      33.886  29.900  24.510  1.00  0.00     0.163 HD
BRANCH   4   7
ATOM      7  C   UNL A   1      32.667  27.159  22.902  1.00  0.00     0.105 C 
ATOM      8  C   UNL A   1      33.528  25.995  23.416  1.00  0.00     0.023 C 
BRANCH   7   9
ATOM      9  C   UNL A   1      31.250  27.018  23.436  1.00  0.00    -0.035 A 
ATOM     10  C   UNL A   1      30.851  25.802  24.015  1.00  0.00     0.004 A 
ATOM     11  C   UNL A   1      30.304  28.051  23.292  1.00  0.00     0.016 A 
ATOM     12  C   UNL A   1      29.516  25.577  24.334  1.00  0.00     0.001 A 
ATOM     13  C   UNL A   1      28.944  27.798  23.509  1.00  0.00     0.023 A 
ATOM     14  C   UNL A   1      28.565  26.557  24.052  1.00  0.00     0.012 A 
BRANCH  13  15
ATOM     15  C   UNL A   1      27.848  28.732  23.115  1.00  0.00     0.193 C 
ATOM     16  O   UNL A   1      26.694  28.308  23.209  1.00  0.00    -0.289 OA
BRANCH  15  17
ATOM     17  C   UNL A   1      28.035  30.112  22.558  1.00  0.00     0.022 A 
ATOM     18  C   UNL A   1      28.105  31.163  23.487  1.00  0.00     0.012 A 
ATOM     19  C   UNL A   1      28.074  30.438  21.196  1.00  0.00     0.012 A 
ATOM     20  C   UNL A   1      28.241  32.491  23.070  1.00  0.00     0.001 A 
ATOM     21  C   UNL A   1      28.221  31.766  20.777  1.00  0.00     0.001 A 
ATOM     22  C   UNL A   1      28.306  32.791  21.714  1.00  0.00     0.000 A 
ENDBRANCH  15  17
ENDBRANCH  13  15
ENDBRANCH   7   9
ENDBRANCH   4   7
ENDBRANCH   2   3
ENDBRANCH   1   2
BRANCH   1  23
ATOM     23  C   UNL A   1      31.803  30.250  26.437  1.00  0.00     0.023 C 
BRANCH  23  24
ATOM     24  C   UNL A   1      32.874  31.107  27.080  1.00  0.00     0.116 C 
BRANCH  24  25
ATOM     25  N   UNL A   1      32.443  32.488  27.273  1.00  0.00    -0.352 N 
ATOM     26  C   UNL A   1      33.049  33.497  27.985  1.00  0.00     0.251 C 
ATOM     27  H   UNL A   1      31.599  32.732  26.830  1.00  0.00     0.163 HD
ATOM     28  O   UNL A   1      32.489  34.579  28.130  1.00  0.00    -0.269 OA
BRANCH  26  29
ATOM     29  C   UNL A   1      34.361  33.254  28.620  1.00  0.00     0.039 A 
ATOM     30  C   UNL A   1      34.411  32.598  29.852  1.00  0.00     0.014 A 
ATOM     31  C   UNL A   1      35.541  33.620  27.971  1.00  0.00     0.014 A 
ATOM     32  C   UNL A   1      35.647  32.227  30.388  1.00  0.00     0.010 A 
ATOM     33  C   UNL A   1      36.758  33.156  28.448  1.00  0.00     0.010 A 
ATOM     34  C   UNL A   1      36.826  32.457  29.663  1.00  0.00    -0.014 A 
BRANCH  34  35
ATOM     35  C   UNL A   1      38.151  31.985  30.136  1.00  0.00     0.031 A 
ATOM     36  C   UNL A   1      38.720  30.704  29.588  1.00  0.00     0.074 A 
ATOM     37  C   UNL A   1      38.778  32.636  31.136  1.00  0.00     0.049 A 
ATOM     38  N   UNL A   1      39.770  30.031  29.985  1.00  0.00    -0.248 NA
ATOM     39  C   UNL A   1      37.988  30.074  28.476  1.00  0.00     0.031 C 
ATOM     40  C   UNL A   1      38.302  33.859  31.789  1.00  0.00     0.029 A 
ATOM     41  N   UNL A   1      39.945  32.344  31.796  1.00  0.00    -0.354 N 
ATOM     42  C   UNL A   1      39.793  28.882  29.205  1.00  0.00     0.074 A 
ATOM     43  C   UNL A   1      38.635  28.927  28.342  1.00  0.00     0.031 C 
ATOM     44  C   UNL A   1      39.177  34.218  32.742  1.00  0.00     0.029 A 
ATOM     45  C   UNL A   1      40.247  33.229  32.803  1.00  0.00     0.049 A 
ATOM     46  H   UNL A   1      40.513  31.571  31.571  1.00  0.00     0.167 HD
ATOM     47  C   UNL A   1      40.707  27.884  29.199  1.00  0.00     0.031 A 
ATOM     48  C   UNL A   1      41.261  33.233  33.689  1.00  0.00     0.031 A 
ATOM     49  C   UNL A   1      41.885  27.869  30.022  1.00  0.00     0.049 A 
ATOM     50  C   UNL A   1      42.275  32.124  33.643  1.00  0.00     0.074 A 
ATOM     51  C   UNL A   1      42.928  26.961  30.013  1.00  0.00     0.029 A 
ATOM     52  N   UNL A   1      42.175  28.810  30.997  1.00  0.00    -0.354 N 
ATOM     53  N   UNL A   1      42.331  31.090  32.841  1.00  0.00    -0.248 NA
ATOM     54  C   UNL A   1      43.368  32.185  34.625  1.00  0.00     0.031 C 
ATOM     55  C   UNL A   1      43.827  27.324  31.020  1.00  0.00     0.029 A 
ATOM     56  C   UNL A   1      43.367  28.484  31.621  1.00  0.00     0.049 A 
ATOM     57  H   UNL A   1      41.617  29.591  31.213  1.00  0.00     0.167 HD
ATOM     58  C   UNL A   1      43.472  30.388  33.206  1.00  0.00     0.074 A 
ATOM     59  C   UNL A   1      44.090  31.124  34.289  1.00  0.00     0.031 C 
ATOM     60  C   UNL A   1      43.963  29.235  32.694  1.00  0.00     0.031 A 
BRANCH  47  61
ATOM     61  C   UNL A   1      40.472  26.724  28.273  1.00  0.00    -0.014 A 
ATOM     62  C   UNL A   1      39.664  25.639  28.650  1.00  0.00     0.009 A 
ATOM     63  C   UNL A   1      41.030  26.740  26.985  1.00  0.00     0.009 A 
ATOM     64  C   UNL A   1      39.448  24.579  27.767  1.00  0.00     0.001 A 
ATOM     65  C   UNL A   1      40.789  25.693  26.095  1.00  0.00     0.001 A 
ATOM     66  C   UNL A   1      40.004  24.610  26.489  1.00  0.00     0.000 A 
ENDBRANCH  47  61
BRANCH  48  67
ATOM     67  C   UNL A   1      41.367  34.314  34.704  1.00  0.00    -0.014 A 
ATOM     68  C   UNL A   1      42.123  35.467  34.441  1.00  0.00     0.009 A 
ATOM     69  C   UNL A   1      40.727  34.193  35.949  1.00  0.00     0.009 A 
ATOM     70  C   UNL A   1      42.262  36.461  35.413  1.00  0.00     0.001 A 
ATOM     71  C   UNL A   1      40.843  35.202  36.907  1.00  0.00     0.001 A 
ATOM     72  C   UNL A   1      41.619  36.330  36.643  1.00  0.00     0.000 A 
ENDBRANCH  48  67
BRANCH  60  73
ATOM     73  C   UNL A   1      45.240  28.709  33.282  1.00  0.00    -0.014 A 
ATOM     74  C   UNL A   1      45.223  27.786  34.339  1.00  0.00     0.009 A 
ATOM     75  C   UNL A   1      46.471  29.092  32.727  1.00  0.00     0.009 A 
ATOM     76  C   UNL A   1      46.419  27.274  34.844  1.00  0.00     0.001 A 
ATOM     77  C   UNL A   1      47.663  28.558  33.217  1.00  0.00     0.001 A 
ATOM     78  C   UNL A   1      47.635  27.655  34.279  1.00  0.00     0.000 A 
ENDBRANCH  60  73
ENDBRANCH  34  35
ENDBRANCH  26  29
ENDBRANCH  24  25
ENDBRANCH  23  24
ENDBRANCH   1  23
TORSDOF 14
ENDMDL
