MODEL 1
REMARK VINA RESULT:     -10.0      0.000      0.000
REMARK SMILES COc1ccc(C2=NN(C(=O)CCC(=O)NCCCCNC(=O)c3ccc(-c4c5nc(c(-c6ccccc6)c6ccc([nH]6)c(-c6ccccc6)c6nc(c(-c7ccccc7)c7ccc4[nH]7)C=C6)C=C5)cc3)[C@H](c3ccc(Cl)cc3Cl)C2)cc1
REMARK SMILES IDX 17 1 16 2 14 3 15 4 13 6 12 7 10 8 11 9 9 10 7 11 8 12 81 13
REMARK SMILES IDX 72 14 6 15 3 16 4 17 83 18 5 19 82 20 2 21 1 22 73 23 74 24
REMARK SMILES IDX 79 25 75 26 78 27 80 28 76 29 77 30 18 31 19 32 20 33 21 34
REMARK SMILES IDX 22 35 23 37 24 38 25 39 71 40 26 41 70 42 27 43 28 44 29 45
REMARK SMILES IDX 64 46 30 47 69 48 63 49 65 50 31 51 68 52 62 53 61 54 32 56
REMARK SMILES IDX 54 57 39 58 53 59 40 60 43 61 52 62 66 63 41 64 42 65 51 67
REMARK SMILES IDX 67 68 44 69 33 70 34 71 38 72 35 73 37 74 36 75 55 76 56 77
REMARK SMILES IDX 60 78 57 79 59 80 58 81 45 82 46 83 50 84 47 85 49 86 48 87
REMARK H PARENT 16 5 21 36 65 55 43 66
REMARK Flexibility Score: inf
ROOT
ATOM      1  C   UNL A   1      49.867  37.284  28.762  1.00  0.00     0.116 C 
ENDROOT
BRANCH   1   2
ATOM      2  N   UNL A   1      49.352  37.757  27.328  1.00  0.00    -0.356 N 
ATOM      3  C   UNL A   1      48.179  38.258  26.872  1.00  0.00     0.220 C 
ATOM      4  O   UNL A   1      48.073  38.393  25.650  1.00  0.00    -0.275 OA
ATOM      5  H   UNL A   1      50.033  37.663  26.623  1.00  0.00     0.163 HD
BRANCH   3   6
ATOM      6  C   UNL A   1      47.082  38.647  27.818  1.00  0.00     0.110 C 
BRANCH   6   7
ATOM      7  C   UNL A   1      47.268  39.906  28.656  1.00  0.00     0.112 C 
BRANCH   7   8
ATOM      8  C   UNL A   1      46.634  41.172  28.120  1.00  0.00     0.243 C 
ATOM      9  O   UNL A   1      47.350  42.066  27.665  1.00  0.00    -0.273 OA
BRANCH   8  10
ATOM     10  N   UNL A   1      45.250  41.327  28.366  1.00  0.00    -0.225 N 
ATOM     11  C   UNL A   1      43.621  40.753  30.662  1.00  0.00     0.071 C 
ATOM     12  N   UNL A   1      44.941  41.455  30.192  1.00  0.00    -0.174 NA
ATOM     13  C   UNL A   1      42.740  39.734  29.030  1.00  0.00     0.091 C 
ATOM     14  C   UNL A   1      43.806  40.456  27.443  1.00  0.00     0.149 C 
BRANCH  11  15
ATOM     15  C   UNL A   1      42.969  41.588  31.939  1.00  0.00    -0.002 A 
ATOM     16  C   UNL A   1      43.025  43.411  34.014  1.00  0.00     0.118 A 
ATOM     17  C   UNL A   1      42.283  43.678  32.824  1.00  0.00     0.047 A 
ATOM     18  C   UNL A   1      43.045  42.091  34.360  1.00  0.00     0.047 A 
ATOM     19  C   UNL A   1      42.350  42.792  31.730  1.00  0.00     0.014 A 
ATOM     20  C   UNL A   1      42.899  41.181  33.302  1.00  0.00     0.014 A 
BRANCH  16  21
ATOM     21  O   UNL A   1      44.269  44.123  34.530  1.00  0.00    -0.497 OA
ATOM     22  C   UNL A   1      46.242  44.515  34.384  1.00  0.00     0.278 C 
ENDBRANCH  16  21
ENDBRANCH  11  15
BRANCH  14  23
ATOM     23  C   UNL A   1      43.316  41.528  26.253  1.00  0.00    -0.004 A 
ATOM     24  C   UNL A   1      44.197  42.387  25.549  1.00  0.00     0.009 A 
ATOM     25  C   UNL A   1      42.063  41.346  25.622  1.00  0.00     0.047 A 
ATOM     26  C   UNL A   1      43.997  42.728  24.200  1.00  0.00     0.021 A 
ATOM     27  C   UNL A   1      41.854  41.681  24.268  1.00  0.00     0.041 A 
ATOM     28  Cl  UNL A   1      40.638  40.950  26.519  1.00  0.00    -0.084 Cl
ATOM     29  C   UNL A   1      42.852  42.315  23.545  1.00  0.00     0.042 A 
ATOM     30  Cl  UNL A   1      42.655  42.638  21.868  1.00  0.00    -0.084 Cl
ENDBRANCH  14  23
ENDBRANCH   8  10
ENDBRANCH   7   8
ENDBRANCH   6   7
ENDBRANCH   3   6
ENDBRANCH   1   2
BRANCH   1  31
ATOM     31  C   UNL A   1      50.646  38.537  30.426  1.00  0.00     0.023 C 
BRANCH  31  32
ATOM     32  C   UNL A   1      50.456  40.421  30.368  1.00  0.00     0.023 C 
BRANCH  32  33
ATOM     33  C   UNL A   1      51.185  41.496  31.583  1.00  0.00     0.116 C 
BRANCH  33  34
ATOM     34  N   UNL A   1      51.184  41.245  33.158  1.00  0.00    -0.352 N 
ATOM     35  C   UNL A   1      50.379  40.608  34.148  1.00  0.00     0.251 C 
ATOM     36  H   UNL A   1      51.979  41.652  33.571  1.00  0.00     0.163 HD
ATOM     37  O   UNL A   1      50.572  40.837  35.337  1.00  0.00    -0.269 OA
BRANCH  35  38
ATOM     38  C   UNL A   1      49.341  39.633  33.762  1.00  0.00     0.039 A 
ATOM     39  C   UNL A   1      49.180  37.807  34.049  1.00  0.00     0.014 A 
ATOM     40  C   UNL A   1      47.917  40.575  33.316  1.00  0.00     0.014 A 
ATOM     41  C   UNL A   1      47.485  37.072  34.056  1.00  0.00     0.010 A 
ATOM     42  C   UNL A   1      46.333  39.866  33.293  1.00  0.00     0.010 A 
ATOM     43  C   UNL A   1      46.074  38.140  33.633  1.00  0.00    -0.014 A 
BRANCH  43  44
ATOM     44  C   UNL A   1      44.612  37.944  33.320  1.00  0.00     0.031 A 
ATOM     45  C   UNL A   1      43.705  37.527  34.486  1.00  0.00     0.074 A 
ATOM     46  C   UNL A   1      44.311  37.409  32.113  1.00  0.00     0.049 A 
ATOM     47  N   UNL A   1      42.668  36.719  34.516  1.00  0.00    -0.248 NA
ATOM     48  C   UNL A   1      44.118  37.985  35.819  1.00  0.00     0.031 C 
ATOM     49  C   UNL A   1      45.157  37.465  30.922  1.00  0.00     0.029 A 
ATOM     50  N   UNL A   1      43.264  36.588  31.735  1.00  0.00    -0.354 N 
ATOM     51  C   UNL A   1      42.345  36.560  35.864  1.00  0.00     0.074 A 
ATOM     52  C   UNL A   1      43.368  37.245  36.618  1.00  0.00     0.031 C 
ATOM     53  C   UNL A   1      44.624  36.682  29.964  1.00  0.00     0.029 A 
ATOM     54  C   UNL A   1      43.399  36.060  30.468  1.00  0.00     0.049 A 
ATOM     55  H   UNL A   1      42.492  36.399  32.315  1.00  0.00     0.167 HD
ATOM     56  C   UNL A   1      41.271  35.970  36.448  1.00  0.00     0.031 A 
ATOM     57  C   UNL A   1      42.635  35.181  29.785  1.00  0.00     0.031 A 
ATOM     58  C   UNL A   1      40.215  35.318  35.727  1.00  0.00     0.049 A 
ATOM     59  C   UNL A   1      41.374  34.614  30.391  1.00  0.00     0.074 A 
ATOM     60  C   UNL A   1      38.991  34.869  36.195  1.00  0.00     0.029 A 
ATOM     61  N   UNL A   1      40.264  35.021  34.379  1.00  0.00    -0.354 N 
ATOM     62  N   UNL A   1      40.942  34.692  31.624  1.00  0.00    -0.248 NA
ATOM     63  C   UNL A   1      40.470  33.876  29.490  1.00  0.00     0.031 C 
ATOM     64  C   UNL A   1      38.306  34.278  35.128  1.00  0.00     0.029 A 
ATOM     65  C   UNL A   1      39.092  34.396  33.994  1.00  0.00     0.049 A 
ATOM     66  H   UNL A   1      41.021  35.222  33.781  1.00  0.00     0.167 HD
ATOM     67  C   UNL A   1      39.684  34.094  31.625  1.00  0.00     0.074 A 
ATOM     68  C   UNL A   1      39.435  33.627  30.281  1.00  0.00     0.031 C 
ATOM     69  C   UNL A   1      38.810  33.973  32.652  1.00  0.00     0.031 A 
BRANCH  56  70
ATOM     70  C   UNL A   1      41.128  36.098  37.945  1.00  0.00    -0.014 A 
ATOM     71  C   UNL A   1      40.229  37.030  38.492  1.00  0.00     0.009 A 
ATOM     72  C   UNL A   1      41.838  35.257  38.816  1.00  0.00     0.009 A 
ATOM     73  C   UNL A   1      40.090  37.163  39.874  1.00  0.00     0.001 A 
ATOM     74  C   UNL A   1      41.667  35.366  40.199  1.00  0.00     0.001 A 
ATOM     75  C   UNL A   1      40.806  36.328  40.727  1.00  0.00     0.000 A 
ENDBRANCH  56  70
BRANCH  57  76
ATOM     76  C   UNL A   1      42.948  34.867  28.363  1.00  0.00    -0.014 A 
ATOM     77  C   UNL A   1      43.767  33.762  28.074  1.00  0.00     0.009 A 
ATOM     78  C   UNL A   1      42.495  35.670  27.308  1.00  0.00     0.009 A 
ATOM     79  C   UNL A   1      44.152  33.484  26.762  1.00  0.00     0.001 A 
ATOM     80  C   UNL A   1      42.865  35.374  25.991  1.00  0.00     0.001 A 
ATOM     81  C   UNL A   1      43.699  34.289  25.720  1.00  0.00     0.000 A 
ENDBRANCH  57  76
BRANCH  69  82
ATOM     82  C   UNL A   1      37.444  33.419  32.370  1.00  0.00    -0.014 A 
ATOM     83  C   UNL A   1      37.176  32.044  32.419  1.00  0.00     0.009 A 
ATOM     84  C   UNL A   1      36.384  34.312  32.138  1.00  0.00     0.009 A 
ATOM     85  C   UNL A   1      35.873  31.574  32.227  1.00  0.00     0.001 A 
ATOM     86  C   UNL A   1      35.081  33.841  31.967  1.00  0.00     0.001 A 
ATOM     87  C   UNL A   1      34.827  32.471  32.009  1.00  0.00     0.000 A 
ENDBRANCH  69  82
ENDBRANCH  43  44
ENDBRANCH  35  38
ENDBRANCH  33  34
ENDBRANCH  32  33
ENDBRANCH  31  32
ENDBRANCH   1  31
TORSDOF 17
ENDMDL
MODEL 2
REMARK VINA RESULT:      -9.9      7.093     11.387
REMARK SMILES COc1ccc(C2=NN(C(=O)CCC(=O)NCCCCNC(=O)c3ccc(-c4c5nc(c(-c6ccccc6)c6ccc([nH]6)c(-c6ccccc6)c6nc(c(-c7ccccc7)c7ccc4[nH]7)C=C6)C=C5)cc3)[C@H](c3ccc(Cl)cc3Cl)C2)cc1
REMARK SMILES IDX 17 1 16 2 14 3 15 4 13 6 12 7 10 8 11 9 9 10 7 11 8 12 81 13
REMARK SMILES IDX 72 14 6 15 3 16 4 17 83 18 5 19 82 20 2 21 1 22 73 23 74 24
REMARK SMILES IDX 79 25 75 26 78 27 80 28 76 29 77 30 18 31 19 32 20 33 21 34
REMARK SMILES IDX 22 35 23 37 24 38 25 39 71 40 26 41 70 42 27 43 28 44 29 45
REMARK SMILES IDX 64 46 30 47 69 48 63 49 65 50 31 51 68 52 62 53 61 54 32 56
REMARK SMILES IDX 54 57 39 58 53 59 40 60 43 61 52 62 66 63 41 64 42 65 51 67
REMARK SMILES IDX 67 68 44 69 33 70 34 71 38 72 35 73 37 74 36 75 55 76 56 77
REMARK SMILES IDX 60 78 57 79 59 80 58 81 45 82 46 83 50 84 47 85 49 86 48 87
REMARK H PARENT 16 5 21 36 65 55 43 66
REMARK Flexibility Score: inf
ROOT
ATOM      1  C   UNL A   1      47.435  25.115  25.236  1.00  0.00     0.116 C 
ENDROOT
BRANCH   1   2
ATOM      2  N   UNL A   1      47.677  25.558  26.749  1.00  0.00    -0.356 N 
ATOM      3  C   UNL A   1      47.336  26.651  27.472  1.00  0.00     0.220 C 
ATOM      4  O   UNL A   1      47.811  26.734  28.607  1.00  0.00    -0.275 OA
ATOM      5  H   UNL A   1      48.184  24.893  27.269  1.00  0.00     0.163 HD
BRANCH   3   6
ATOM      6  C   UNL A   1      46.406  27.689  26.916  1.00  0.00     0.110 C 
BRANCH   6   7
ATOM      7  C   UNL A   1      45.639  28.567  27.897  1.00  0.00     0.112 C 
BRANCH   7   8
ATOM      8  C   UNL A   1      45.011  29.822  27.328  1.00  0.00     0.243 C 
ATOM      9  O   UNL A   1      44.676  29.852  26.143  1.00  0.00    -0.273 OA
BRANCH   8  10
ATOM     10  N   UNL A   1      45.035  30.963  28.164  1.00  0.00    -0.225 N 
ATOM     11  C   UNL A   1      42.949  32.662  29.173  1.00  0.00     0.071 C 
ATOM     12  N   UNL A   1      43.392  31.168  29.005  1.00  0.00    -0.174 NA
ATOM     13  C   UNL A   1      44.333  33.927  28.192  1.00  0.00     0.091 C 
ATOM     14  C   UNL A   1      45.878  32.650  27.793  1.00  0.00     0.149 C 
BRANCH  11  15
ATOM     15  C   UNL A   1      42.082  32.831  30.577  1.00  0.00    -0.002 A 
ATOM     16  C   UNL A   1      41.306  34.135  32.885  1.00  0.00     0.118 A 
ATOM     17  C   UNL A   1      40.419  34.025  31.772  1.00  0.00     0.047 A 
ATOM     18  C   UNL A   1      42.123  33.054  33.040  1.00  0.00     0.047 A 
ATOM     19  C   UNL A   1      40.862  33.455  30.562  1.00  0.00     0.014 A 
ATOM     20  C   UNL A   1      42.413  32.336  31.871  1.00  0.00     0.014 A 
BRANCH  16  21
ATOM     21  O   UNL A   1      41.958  35.390  33.452  1.00  0.00    -0.497 OA
ATOM     22  C   UNL A   1      42.037  36.832  34.860  1.00  0.00     0.278 C 
ENDBRANCH  16  21
ENDBRANCH  11  15
BRANCH  14  23
ATOM     23  C   UNL A   1      47.386  32.572  28.516  1.00  0.00    -0.004 A 
ATOM     24  C   UNL A   1      48.608  32.541  27.798  1.00  0.00     0.009 A 
ATOM     25  C   UNL A   1      47.527  32.930  29.878  1.00  0.00     0.047 A 
ATOM     26  C   UNL A   1      49.780  33.151  28.281  1.00  0.00     0.021 A 
ATOM     27  C   UNL A   1      48.697  33.545  30.370  1.00  0.00     0.041 A 
ATOM     28  Cl  UNL A   1      46.398  32.409  31.080  1.00  0.00    -0.084 Cl
ATOM     29  C   UNL A   1      49.798  33.710  29.545  1.00  0.00     0.042 A 
ATOM     30  Cl  UNL A   1      51.194  34.549  30.095  1.00  0.00    -0.084 Cl
ENDBRANCH  14  23
ENDBRANCH   8  10
ENDBRANCH   7   8
ENDBRANCH   6   7
ENDBRANCH   3   6
ENDBRANCH   1   2
BRANCH   1  31
ATOM     31  C   UNL A   1      46.261  23.385  24.479  1.00  0.00     0.023 C 
BRANCH  31  32
ATOM     32  C   UNL A   1      45.702  22.022  25.669  1.00  0.00     0.023 C 
BRANCH  32  33
ATOM     33  C   UNL A   1      44.428  20.852  25.256  1.00  0.00     0.116 C 
BRANCH  33  34
ATOM     34  N   UNL A   1      42.859  21.124  25.350  1.00  0.00    -0.352 N 
ATOM     35  C   UNL A   1      41.963  22.102  25.876  1.00  0.00     0.251 C 
ATOM     36  H   UNL A   1      42.357  20.399  24.912  1.00  0.00     0.163 HD
ATOM     37  O   UNL A   1      40.768  21.848  25.980  1.00  0.00    -0.269 OA
BRANCH  35  38
ATOM     38  C   UNL A   1      42.449  23.442  26.255  1.00  0.00     0.039 A 
ATOM     39  C   UNL A   1      43.186  24.826  25.263  1.00  0.00     0.014 A 
ATOM     40  C   UNL A   1      41.791  23.773  27.859  1.00  0.00     0.014 A 
ATOM     41  C   UNL A   1      43.019  26.548  25.911  1.00  0.00     0.010 A 
ATOM     42  C   UNL A   1      41.671  25.392  28.472  1.00  0.00     0.010 A 
ATOM     43  C   UNL A   1      42.278  26.788  27.555  1.00  0.00    -0.014 A 
BRANCH  43  44
ATOM     44  C   UNL A   1      42.136  27.928  28.533  1.00  0.00     0.031 A 
ATOM     45  C   UNL A   1      42.682  27.698  29.948  1.00  0.00     0.074 A 
ATOM     46  C   UNL A   1      41.006  28.671  28.446  1.00  0.00     0.049 A 
ATOM     47  N   UNL A   1      42.230  28.102  31.115  1.00  0.00    -0.248 NA
ATOM     48  C   UNL A   1      43.816  26.771  30.058  1.00  0.00     0.031 C 
ATOM     49  C   UNL A   1      40.177  28.823  27.251  1.00  0.00     0.029 A 
ATOM     50  N   UNL A   1      40.288  29.326  29.430  1.00  0.00    -0.354 N 
ATOM     51  C   UNL A   1      43.007  27.449  32.074  1.00  0.00     0.074 A 
ATOM     52  C   UNL A   1      43.863  26.533  31.358  1.00  0.00     0.031 C 
ATOM     53  C   UNL A   1      39.050  29.484  27.577  1.00  0.00     0.029 A 
ATOM     54  C   UNL A   1      39.067  29.802  29.005  1.00  0.00     0.049 A 
ATOM     55  H   UNL A   1      40.619  29.442  30.350  1.00  0.00     0.167 HD
ATOM     56  C   UNL A   1      43.077  27.625  33.418  1.00  0.00     0.031 A 
ATOM     57  C   UNL A   1      38.071  30.422  29.676  1.00  0.00     0.031 A 
ATOM     58  C   UNL A   1      42.273  28.557  34.155  1.00  0.00     0.049 A 
ATOM     59  C   UNL A   1      38.199  30.722  31.150  1.00  0.00     0.074 A 
ATOM     60  C   UNL A   1      42.398  28.960  35.473  1.00  0.00     0.029 A 
ATOM     61  N   UNL A   1      41.186  29.229  33.629  1.00  0.00    -0.354 N 
ATOM     62  N   UNL A   1      39.099  30.305  32.004  1.00  0.00    -0.248 NA
ATOM     63  C   UNL A   1      37.194  31.626  31.740  1.00  0.00     0.031 C 
ATOM     64  C   UNL A   1      41.369  29.866  35.753  1.00  0.00     0.029 A 
ATOM     65  C   UNL A   1      40.632  30.049  34.595  1.00  0.00     0.049 A 
ATOM     66  H   UNL A   1      40.856  29.139  32.706  1.00  0.00     0.167 HD
ATOM     67  C   UNL A   1      38.820  30.961  33.201  1.00  0.00     0.074 A 
ATOM     68  C   UNL A   1      37.649  31.776  32.976  1.00  0.00     0.031 C 
ATOM     69  C   UNL A   1      39.500  30.903  34.371  1.00  0.00     0.031 A 
BRANCH  56  70
ATOM     70  C   UNL A   1      44.141  26.863  34.170  1.00  0.00    -0.014 A 
ATOM     71  C   UNL A   1      43.838  25.625  34.764  1.00  0.00     0.009 A 
ATOM     72  C   UNL A   1      45.459  27.339  34.243  1.00  0.00     0.009 A 
ATOM     73  C   UNL A   1      44.810  24.913  35.467  1.00  0.00     0.001 A 
ATOM     74  C   UNL A   1      46.440  26.604  34.914  1.00  0.00     0.001 A 
ATOM     75  C   UNL A   1      46.112  25.400  35.538  1.00  0.00     0.000 A 
ENDBRANCH  56  70
BRANCH  57  76
ATOM     76  C   UNL A   1      36.889  30.948  28.939  1.00  0.00    -0.014 A 
ATOM     77  C   UNL A   1      36.854  32.310  28.593  1.00  0.00     0.009 A 
ATOM     78  C   UNL A   1      35.788  30.140  28.625  1.00  0.00     0.009 A 
ATOM     79  C   UNL A   1      35.729  32.860  27.976  1.00  0.00     0.001 A 
ATOM     80  C   UNL A   1      34.672  30.691  27.986  1.00  0.00     0.001 A 
ATOM     81  C   UNL A   1      34.640  32.050  27.671  1.00  0.00     0.000 A 
ENDBRANCH  57  76
BRANCH  69  82
ATOM     82  C   UNL A   1      39.090  31.822  35.485  1.00  0.00    -0.014 A 
ATOM     83  C   UNL A   1      39.385  33.192  35.464  1.00  0.00     0.009 A 
ATOM     84  C   UNL A   1      38.310  31.309  36.536  1.00  0.00     0.009 A 
ATOM     85  C   UNL A   1      38.918  34.028  36.483  1.00  0.00     0.001 A 
ATOM     86  C   UNL A   1      37.828  32.149  37.540  1.00  0.00     0.001 A 
ATOM     87  C   UNL A   1      38.135  33.508  37.514  1.00  0.00     0.000 A 
ENDBRANCH  69  82
ENDBRANCH  43  44
ENDBRANCH  35  38
ENDBRANCH  33  34
ENDBRANCH  32  33
ENDBRANCH  31  32
ENDBRANCH   1  31
TORSDOF 17
ENDMDL
MODEL 3
REMARK VINA RESULT:      -9.6      8.615     15.028
REMARK SMILES COc1ccc(C2=NN(C(=O)CCC(=O)NCCCCNC(=O)c3ccc(-c4c5nc(c(-c6ccccc6)c6ccc([nH]6)c(-c6ccccc6)c6nc(c(-c7ccccc7)c7ccc4[nH]7)C=C6)C=C5)cc3)[C@H](c3ccc(Cl)cc3Cl)C2)cc1
REMARK SMILES IDX 17 1 16 2 14 3 15 4 13 6 12 7 10 8 11 9 9 10 7 11 8 12 81 13
REMARK SMILES IDX 72 14 6 15 3 16 4 17 83 18 5 19 82 20 2 21 1 22 73 23 74 24
REMARK SMILES IDX 79 25 75 26 78 27 80 28 76 29 77 30 18 31 19 32 20 33 21 34
REMARK SMILES IDX 22 35 23 37 24 38 25 39 71 40 26 41 70 42 27 43 28 44 29 45
REMARK SMILES IDX 64 46 30 47 69 48 63 49 65 50 31 51 68 52 62 53 61 54 32 56
REMARK SMILES IDX 54 57 39 58 53 59 40 60 43 61 52 62 66 63 41 64 42 65 51 67
REMARK SMILES IDX 67 68 44 69 33 70 34 71 38 72 35 73 37 74 36 75 55 76 56 77
REMARK SMILES IDX 60 78 57 79 59 80 58 81 45 82 46 83 50 84 47 85 49 86 48 87
REMARK H PARENT 16 5 21 36 65 55 43 66
REMARK Flexibility Score: inf
ROOT
ATOM      1  C   UNL A   1      31.701  28.740  26.041  1.00  0.00     0.116 C 
ENDROOT
BRANCH   1   2
ATOM      2  N   UNL A   1      31.610  28.737  24.449  1.00  0.00    -0.356 N 
ATOM      3  C   UNL A   1      32.306  28.109  23.471  1.00  0.00     0.220 C 
ATOM      4  O   UNL A   1      32.055  28.444  22.311  1.00  0.00    -0.275 OA
ATOM      5  H   UNL A   1      30.893  29.317  24.102  1.00  0.00     0.163 HD
BRANCH   3   6
ATOM      6  C   UNL A   1      33.312  27.045  23.796  1.00  0.00     0.110 C 
BRANCH   6   7
ATOM      7  C   UNL A   1      32.841  25.597  23.831  1.00  0.00     0.112 C 
BRANCH   7   8
ATOM      8  C   UNL A   1      33.080  24.842  25.121  1.00  0.00     0.243 C 
ATOM      9  O   UNL A   1      32.608  25.272  26.175  1.00  0.00    -0.273 OA
BRANCH   8  10
ATOM     10  N   UNL A   1      34.014  23.781  25.057  1.00  0.00    -0.225 N 
ATOM     11  C   UNL A   1      36.886  23.737  25.000  1.00  0.00     0.071 C 
ATOM     12  N   UNL A   1      35.645  24.330  25.753  1.00  0.00    -0.174 NA
ATOM     13  C   UNL A   1      36.234  22.644  23.309  1.00  0.00     0.091 C 
ATOM     14  C   UNL A   1      34.221  22.506  23.634  1.00  0.00     0.149 C 
BRANCH  11  15
ATOM     15  C   UNL A   1      38.127  23.497  26.074  1.00  0.00    -0.002 A 
ATOM     16  C   UNL A   1      40.768  23.542  26.882  1.00  0.00     0.118 A 
ATOM     17  C   UNL A   1      39.819  24.458  27.427  1.00  0.00     0.047 A 
ATOM     18  C   UNL A   1      40.240  22.318  26.591  1.00  0.00     0.047 A 
ATOM     19  C   UNL A   1      38.501  24.499  26.929  1.00  0.00     0.014 A 
ATOM     20  C   UNL A   1      38.869  22.301  26.295  1.00  0.00     0.014 A 
BRANCH  16  21
ATOM     21  O   UNL A   1      41.961  23.842  25.983  1.00  0.00    -0.497 OA
ATOM     22  C   UNL A   1      43.460  23.194  24.800  1.00  0.00     0.278 C 
ENDBRANCH  16  21
ENDBRANCH  11  15
BRANCH  14  23
ATOM     23  C   UNL A   1      33.323  21.168  24.088  1.00  0.00    -0.004 A 
ATOM     24  C   UNL A   1      32.446  20.470  23.219  1.00  0.00     0.009 A 
ATOM     25  C   UNL A   1      33.692  20.438  25.242  1.00  0.00     0.047 A 
ATOM     26  C   UNL A   1      32.256  19.079  23.300  1.00  0.00     0.021 A 
ATOM     27  C   UNL A   1      33.509  19.042  25.331  1.00  0.00     0.041 A 
ATOM     28  Cl  UNL A   1      34.147  21.224  26.713  1.00  0.00    -0.084 Cl
ATOM     29  C   UNL A   1      32.846  18.360  24.323  1.00  0.00     0.042 A 
ATOM     30  Cl  UNL A   1      32.704  16.647  24.365  1.00  0.00    -0.084 Cl
ENDBRANCH  14  23
ENDBRANCH   8  10
ENDBRANCH   7   8
ENDBRANCH   6   7
ENDBRANCH   3   6
ENDBRANCH   1   2
BRANCH   1  31
ATOM     31  C   UNL A   1      33.477  28.342  27.319  1.00  0.00     0.023 C 
BRANCH  31  32
ATOM     32  C   UNL A   1      35.048  29.380  27.114  1.00  0.00     0.023 C 
BRANCH  32  33
ATOM     33  C   UNL A   1      35.740  30.344  28.438  1.00  0.00     0.116 C 
BRANCH  33  34
ATOM     34  N   UNL A   1      35.801  29.901  29.969  1.00  0.00    -0.352 N 
ATOM     35  C   UNL A   1      36.582  30.152  31.135  1.00  0.00     0.251 C 
ATOM     36  H   UNL A   1      35.081  29.260  30.170  1.00  0.00     0.163 HD
ATOM     37  O   UNL A   1      36.484  29.418  32.112  1.00  0.00    -0.269 OA
BRANCH  35  38
ATOM     38  C   UNL A   1      37.480  31.321  31.202  1.00  0.00     0.039 A 
ATOM     39  C   UNL A   1      37.150  33.147  31.208  1.00  0.00     0.014 A 
ATOM     40  C   UNL A   1      39.042  30.716  31.759  1.00  0.00     0.014 A 
ATOM     41  C   UNL A   1      38.400  34.256  31.994  1.00  0.00     0.010 A 
ATOM     42  C   UNL A   1      40.224  31.773  32.464  1.00  0.00     0.010 A 
ATOM     43  C   UNL A   1      39.959  33.526  32.584  1.00  0.00    -0.014 A 
BRANCH  43  44
ATOM     44  C   UNL A   1      41.289  34.041  33.074  1.00  0.00     0.031 A 
ATOM     45  C   UNL A   1      41.330  34.606  34.500  1.00  0.00     0.074 A 
ATOM     46  C   UNL A   1      42.075  34.667  32.165  1.00  0.00     0.049 A 
ATOM     47  N   UNL A   1      42.006  35.616  35.001  1.00  0.00    -0.248 NA
ATOM     48  C   UNL A   1      40.369  34.027  35.450  1.00  0.00     0.031 C 
ATOM     49  C   UNL A   1      42.026  34.469  30.717  1.00  0.00     0.029 A 
ATOM     50  N   UNL A   1      42.975  35.705  32.325  1.00  0.00    -0.354 N 
ATOM     51  C   UNL A   1      41.520  35.798  36.297  1.00  0.00     0.074 A 
ATOM     52  C   UNL A   1      40.413  34.885  36.455  1.00  0.00     0.031 C 
ATOM     53  C   UNL A   1      42.820  35.378  30.120  1.00  0.00     0.029 A 
ATOM     54  C   UNL A   1      43.435  36.232  31.137  1.00  0.00     0.049 A 
ATOM     55  H   UNL A   1      43.262  36.037  33.206  1.00  0.00     0.167 HD
ATOM     56  C   UNL A   1      41.975  36.586  37.304  1.00  0.00     0.031 A 
ATOM     57  C   UNL A   1      44.254  37.277  30.885  1.00  0.00     0.031 A 
ATOM     58  C   UNL A   1      43.099  37.472  37.195  1.00  0.00     0.049 A 
ATOM     59  C   UNL A   1      44.854  38.081  32.012  1.00  0.00     0.074 A 
ATOM     60  C   UNL A   1      43.765  38.157  38.196  1.00  0.00     0.029 A 
ATOM     61  N   UNL A   1      43.718  37.795  36.003  1.00  0.00    -0.354 N 
ATOM     62  N   UNL A   1      44.567  38.058  33.289  1.00  0.00    -0.248 NA
ATOM     63  C   UNL A   1      45.933  39.024  31.663  1.00  0.00     0.031 C 
ATOM     64  C   UNL A   1      44.781  38.916  37.604  1.00  0.00     0.029 A 
ATOM     65  C   UNL A   1      44.763  38.668  36.242  1.00  0.00     0.049 A 
ATOM     66  H   UNL A   1      43.456  37.455  35.117  1.00  0.00     0.167 HD
ATOM     67  C   UNL A   1      45.482  38.911  33.900  1.00  0.00     0.074 A 
ATOM     68  C   UNL A   1      46.311  39.464  32.855  1.00  0.00     0.031 C 
ATOM     69  C   UNL A   1      45.628  39.185  35.219  1.00  0.00     0.031 A 
BRANCH  56  70
ATOM     70  C   UNL A   1      41.318  36.444  38.656  1.00  0.00    -0.014 A 
ATOM     71  C   UNL A   1      40.212  37.245  38.993  1.00  0.00     0.009 A 
ATOM     72  C   UNL A   1      41.754  35.479  39.576  1.00  0.00     0.009 A 
ATOM     73  C   UNL A   1      39.599  37.128  40.240  1.00  0.00     0.001 A 
ATOM     74  C   UNL A   1      41.113  35.337  40.810  1.00  0.00     0.001 A 
ATOM     75  C   UNL A   1      40.047  36.171  41.147  1.00  0.00     0.000 A 
ENDBRANCH  56  70
BRANCH  57  76
ATOM     76  C   UNL A   1      44.693  37.561  29.491  1.00  0.00    -0.014 A 
ATOM     77  C   UNL A   1      45.831  36.907  28.989  1.00  0.00     0.009 A 
ATOM     78  C   UNL A   1      44.038  38.499  28.682  1.00  0.00     0.009 A 
ATOM     79  C   UNL A   1      46.324  37.207  27.718  1.00  0.00     0.001 A 
ATOM     80  C   UNL A   1      44.522  38.781  27.399  1.00  0.00     0.001 A 
ATOM     81  C   UNL A   1      45.668  38.142  26.923  1.00  0.00     0.000 A 
ENDBRANCH  57  76
BRANCH  69  82
ATOM     82  C   UNL A   1      46.792  40.028  35.652  1.00  0.00    -0.014 A 
ATOM     83  C   UNL A   1      48.074  39.491  35.828  1.00  0.00     0.009 A 
ATOM     84  C   UNL A   1      46.608  41.414  35.798  1.00  0.00     0.009 A 
ATOM     85  C   UNL A   1      49.148  40.325  36.157  1.00  0.00     0.001 A 
ATOM     86  C   UNL A   1      47.685  42.247  36.105  1.00  0.00     0.001 A 
ATOM     87  C   UNL A   1      48.954  41.700  36.287  1.00  0.00     0.000 A 
ENDBRANCH  69  82
ENDBRANCH  43  44
ENDBRANCH  35  38
ENDBRANCH  33  34
ENDBRANCH  32  33
ENDBRANCH  31  32
ENDBRANCH   1  31
TORSDOF 17
ENDMDL
