MODEL 1
REMARK VINA RESULT:     -10.9      0.000      0.000
REMARK SMILES CN(Cc1ccccc1Br)C(=O)N[C@H]1C=C[C@H](C(=O)NCCCCNC(=O)c2ccc(-c3c4nc(c(-c5ccccc5)c5ccc([nH]5)c(-c5ccccc5)c5nc(c(-c6ccccc6)c6ccc3[nH]6)C=C5)C=C4)cc2)C1
REMARK SMILES IDX 21 1 20 2 18 3 19 4 17 6 14 7 15 8 76 9 16 10 13 11 11 12
REMARK SMILES IDX 12 13 2 15 1 16 3 17 4 18 5 19 9 20 6 21 8 22 10 23 7 24
REMARK SMILES IDX 22 25 23 26 24 27 25 28 26 29 27 31 28 32 29 33 75 34 30 35
REMARK SMILES IDX 74 36 31 37 32 38 33 39 68 40 34 41 73 42 67 43 69 44 35 45
REMARK SMILES IDX 72 46 66 47 65 48 36 50 58 51 43 52 57 53 44 54 47 55 56 56
REMARK SMILES IDX 70 57 45 58 46 59 55 61 71 62 48 63 37 64 38 65 42 66 39 67
REMARK SMILES IDX 41 68 40 69 59 70 60 71 64 72 61 73 63 74 62 75 49 76 50 77
REMARK SMILES IDX 54 78 51 79 53 80 52 81
REMARK H PARENT 20 5 13 14 25 30 69 49 47 60
REMARK Flexibility Score: inf
ROOT
ATOM      1  C   UNL A   1      36.405  22.085  25.906  1.00  0.00     0.116 C 
ENDROOT
BRANCH   1   2
ATOM      2  N   UNL A   1      35.215  21.757  26.666  1.00  0.00    -0.356 N 
ATOM      3  C   UNL A   1      34.087  22.452  26.962  1.00  0.00     0.227 C 
ATOM      4  O   UNL A   1      33.313  21.900  27.755  1.00  0.00    -0.274 OA
ATOM      5  H   UNL A   1      35.228  20.847  27.043  1.00  0.00     0.163 HD
BRANCH   3   6
ATOM      6  C   UNL A   1      33.651  23.767  26.288  1.00  0.00     0.103 C 
ATOM      7  C   UNL A   1      34.145  23.746  23.907  1.00  0.00     0.107 C 
ATOM      8  C   UNL A   1      34.887  24.847  24.615  1.00  0.00    -0.006 C 
ATOM      9  C   UNL A   1      33.033  23.460  24.915  1.00  0.00     0.047 C 
ATOM     10  C   UNL A   1      34.648  24.825  25.935  1.00  0.00    -0.016 C 
BRANCH   7  11
ATOM     11  N   UNL A   1      33.721  24.204  22.618  1.00  0.00    -0.332 N 
ATOM     12  C   UNL A   1      32.671  24.869  22.122  1.00  0.00     0.317 C 
ATOM     13  O   UNL A   1      32.779  25.151  20.922  1.00  0.00    -0.249 OA
ATOM     14  H   UNL A   1      34.370  23.970  21.916  1.00  0.00     0.165 HD
BRANCH  12  15
ATOM     15  N   UNL A   1      31.592  25.282  22.847  1.00  0.00    -0.324 N 
ATOM     16  C   UNL A   1      30.678  24.199  23.208  1.00  0.00     0.149 C 
BRANCH  15  17
ATOM     17  C   UNL A   1      31.209  26.617  23.337  1.00  0.00     0.157 C 
BRANCH  17  18
ATOM     18  C   UNL A   1      31.954  27.173  24.534  1.00  0.00    -0.014 A 
ATOM     19  C   UNL A   1      31.518  26.796  25.821  1.00  0.00     0.007 A 
ATOM     20  C   UNL A   1      33.112  27.961  24.460  1.00  0.00     0.022 A 
ATOM     21  C   UNL A   1      32.110  27.302  26.980  1.00  0.00     0.000 A 
ATOM     22  C   UNL A   1      33.719  28.455  25.625  1.00  0.00     0.016 A 
ATOM     23  Br  UNL A   1      34.029  28.312  22.837  1.00  0.00    -0.050 Br
ATOM     24  C   UNL A   1      33.201  28.151  26.881  1.00  0.00     0.001 A 
ENDBRANCH  17  18
ENDBRANCH  15  17
ENDBRANCH  12  15
ENDBRANCH   7  11
ENDBRANCH   3   6
ENDBRANCH   1   2
BRANCH   1  25
ATOM     25  C   UNL A   1      36.594  21.139  24.726  1.00  0.00     0.023 C 
BRANCH  25  26
ATOM     26  C   UNL A   1      37.636  20.042  24.966  1.00  0.00     0.023 C 
BRANCH  26  27
ATOM     27  C   UNL A   1      38.883  20.476  25.735  1.00  0.00     0.116 C 
BRANCH  27  28
ATOM     28  N   UNL A   1      39.941  19.479  25.731  1.00  0.00    -0.352 N 
ATOM     29  C   UNL A   1      41.266  19.619  26.074  1.00  0.00     0.251 C 
ATOM     30  H   UNL A   1      39.673  18.577  25.441  1.00  0.00     0.163 HD
ATOM     31  O   UNL A   1      42.052  18.699  25.902  1.00  0.00    -0.269 OA
BRANCH  29  32
ATOM     32  C   UNL A   1      41.740  20.907  26.621  1.00  0.00     0.039 A 
ATOM     33  C   UNL A   1      42.241  21.869  25.738  1.00  0.00     0.014 A 
ATOM     34  C   UNL A   1      41.667  21.173  27.990  1.00  0.00     0.014 A 
ATOM     35  C   UNL A   1      42.598  23.127  26.222  1.00  0.00     0.010 A 
ATOM     36  C   UNL A   1      41.963  22.449  28.460  1.00  0.00     0.010 A 
ATOM     37  C   UNL A   1      42.425  23.440  27.580  1.00  0.00    -0.014 A 
BRANCH  37  38
ATOM     38  C   UNL A   1      42.706  24.804  28.094  1.00  0.00     0.031 A 
ATOM     39  C   UNL A   1      44.095  25.179  28.530  1.00  0.00     0.074 A 
ATOM     40  C   UNL A   1      41.697  25.686  28.229  1.00  0.00     0.049 A 
ATOM     41  N   UNL A   1      44.520  26.299  29.057  1.00  0.00    -0.248 NA
ATOM     42  C   UNL A   1      45.138  24.152  28.376  1.00  0.00     0.031 C 
ATOM     43  C   UNL A   1      40.295  25.432  27.886  1.00  0.00     0.029 A 
ATOM     44  N   UNL A   1      41.694  26.975  28.699  1.00  0.00    -0.354 N 
ATOM     45  C   UNL A   1      45.873  26.109  29.303  1.00  0.00     0.074 A 
ATOM     46  C   UNL A   1      46.187  24.750  28.921  1.00  0.00     0.031 C 
ATOM     47  C   UNL A   1      39.575  26.536  28.138  1.00  0.00     0.029 A 
ATOM     48  C   UNL A   1      40.452  27.561  28.692  1.00  0.00     0.049 A 
ATOM     49  H   UNL A   1      42.506  27.436  29.012  1.00  0.00     0.167 HD
ATOM     50  C   UNL A   1      46.780  26.993  29.784  1.00  0.00     0.031 A 
ATOM     51  C   UNL A   1      40.061  28.787  29.093  1.00  0.00     0.031 A 
ATOM     52  C   UNL A   1      46.472  28.346  30.163  1.00  0.00     0.049 A 
ATOM     53  C   UNL A   1      41.084  29.745  29.633  1.00  0.00     0.074 A 
ATOM     54  C   UNL A   1      47.331  29.329  30.624  1.00  0.00     0.029 A 
ATOM     55  N   UNL A   1      45.205  28.907  30.124  1.00  0.00    -0.354 N 
ATOM     56  N   UNL A   1      42.372  29.569  29.802  1.00  0.00    -0.248 NA
ATOM     57  C   UNL A   1      40.600  31.076  30.024  1.00  0.00     0.031 C 
ATOM     58  C   UNL A   1      46.575  30.473  30.905  1.00  0.00     0.029 A 
ATOM     59  C   UNL A   1      45.255  30.217  30.568  1.00  0.00     0.049 A 
ATOM     60  H   UNL A   1      44.391  28.442  29.825  1.00  0.00     0.167 HD
ATOM     61  C   UNL A   1      42.856  30.773  30.295  1.00  0.00     0.074 A 
ATOM     62  C   UNL A   1      41.728  31.678  30.379  1.00  0.00     0.031 C 
ATOM     63  C   UNL A   1      44.123  31.103  30.647  1.00  0.00     0.031 A 
BRANCH  50  64
ATOM     64  C   UNL A   1      48.199  26.515  29.923  1.00  0.00    -0.014 A 
ATOM     65  C   UNL A   1      48.634  25.872  31.093  1.00  0.00     0.009 A 
ATOM     66  C   UNL A   1      49.103  26.681  28.863  1.00  0.00     0.009 A 
ATOM     67  C   UNL A   1      49.955  25.439  31.214  1.00  0.00     0.001 A 
ATOM     68  C   UNL A   1      50.417  26.221  28.975  1.00  0.00     0.001 A 
ATOM     69  C   UNL A   1      50.844  25.609  30.153  1.00  0.00     0.000 A 
ENDBRANCH  50  64
BRANCH  51  70
ATOM     70  C   UNL A   1      38.632  29.183  28.989  1.00  0.00    -0.014 A 
ATOM     71  C   UNL A   1      37.783  29.088  30.101  1.00  0.00     0.009 A 
ATOM     72  C   UNL A   1      38.108  29.649  27.773  1.00  0.00     0.009 A 
ATOM     73  C   UNL A   1      36.430  29.420  29.990  1.00  0.00     0.001 A 
ATOM     74  C   UNL A   1      36.762  30.008  27.672  1.00  0.00     0.001 A 
ATOM     75  C   UNL A   1      35.923  29.885  28.777  1.00  0.00     0.000 A 
ENDBRANCH  51  70
BRANCH  63  76
ATOM     76  C   UNL A   1      44.360  32.508  31.123  1.00  0.00    -0.014 A 
ATOM     77  C   UNL A   1      44.327  32.831  32.489  1.00  0.00     0.009 A 
ATOM     78  C   UNL A   1      44.658  33.515  30.192  1.00  0.00     0.009 A 
ATOM     79  C   UNL A   1      44.553  34.143  32.909  1.00  0.00     0.001 A 
ATOM     80  C   UNL A   1      44.911  34.820  30.618  1.00  0.00     0.001 A 
ATOM     81  C   UNL A   1      44.849  35.135  31.974  1.00  0.00     0.000 A 
ENDBRANCH  63  76
ENDBRANCH  37  38
ENDBRANCH  29  32
ENDBRANCH  27  28
ENDBRANCH  26  27
ENDBRANCH  25  26
ENDBRANCH   1  25
TORSDOF 15
ENDMDL
MODEL 2
REMARK VINA RESULT:     -10.8      0.630      5.908
REMARK SMILES CN(Cc1ccccc1Br)C(=O)N[C@H]1C=C[C@H](C(=O)NCCCCNC(=O)c2ccc(-c3c4nc(c(-c5ccccc5)c5ccc([nH]5)c(-c5ccccc5)c5nc(c(-c6ccccc6)c6ccc3[nH]6)C=C5)C=C4)cc2)C1
REMARK SMILES IDX 21 1 20 2 18 3 19 4 17 6 14 7 15 8 76 9 16 10 13 11 11 12
REMARK SMILES IDX 12 13 2 15 1 16 3 17 4 18 5 19 9 20 6 21 8 22 10 23 7 24
REMARK SMILES IDX 22 25 23 26 24 27 25 28 26 29 27 31 28 32 29 33 75 34 30 35
REMARK SMILES IDX 74 36 31 37 32 38 33 39 68 40 34 41 73 42 67 43 69 44 35 45
REMARK SMILES IDX 72 46 66 47 65 48 36 50 58 51 43 52 57 53 44 54 47 55 56 56
REMARK SMILES IDX 70 57 45 58 46 59 55 61 71 62 48 63 37 64 38 65 42 66 39 67
REMARK SMILES IDX 41 68 40 69 59 70 60 71 64 72 61 73 63 74 62 75 49 76 50 77
REMARK SMILES IDX 54 78 51 79 53 80 52 81
REMARK H PARENT 20 5 13 14 25 30 69 49 47 60
REMARK Flexibility Score: inf
ROOT
ATOM      1  C   UNL A   1      36.207  22.700  25.609  1.00  0.00     0.116 C 
ENDROOT
BRANCH   1   2
ATOM      2  N   UNL A   1      35.037  22.244  26.333  1.00  0.00    -0.356 N 
ATOM      3  C   UNL A   1      33.884  22.857  26.705  1.00  0.00     0.227 C 
ATOM      4  O   UNL A   1      33.138  22.192  27.437  1.00  0.00    -0.274 OA
ATOM      5  H   UNL A   1      35.089  21.300  26.611  1.00  0.00     0.163 HD
BRANCH   3   6
ATOM      6  C   UNL A   1      33.390  24.218  26.178  1.00  0.00     0.103 C 
ATOM      7  C   UNL A   1      33.540  24.331  23.753  1.00  0.00     0.107 C 
ATOM      8  C   UNL A   1      34.403  25.374  24.409  1.00  0.00    -0.006 C 
ATOM      9  C   UNL A   1      32.576  24.005  24.892  1.00  0.00     0.047 C 
ATOM     10  C   UNL A   1      34.353  25.277  25.746  1.00  0.00    -0.016 C 
BRANCH   7  11
ATOM     11  N   UNL A   1      32.949  24.873  22.567  1.00  0.00    -0.332 N 
ATOM     12  C   UNL A   1      31.883  25.626  22.271  1.00  0.00     0.317 C 
ATOM     13  O   UNL A   1      31.817  25.954  21.080  1.00  0.00    -0.249 OA
ATOM     14  H   UNL A   1      33.458  24.630  21.760  1.00  0.00     0.165 HD
BRANCH  12  15
ATOM     15  N   UNL A   1      30.965  26.075  23.175  1.00  0.00    -0.324 N 
ATOM     16  C   UNL A   1      30.052  25.037  23.649  1.00  0.00     0.149 C 
BRANCH  15  17
ATOM     17  C   UNL A   1      30.759  27.411  23.761  1.00  0.00     0.157 C 
BRANCH  17  18
ATOM     18  C   UNL A   1      31.675  27.839  24.889  1.00  0.00    -0.014 A 
ATOM     19  C   UNL A   1      31.348  27.438  26.201  1.00  0.00     0.007 A 
ATOM     20  C   UNL A   1      32.887  28.526  24.718  1.00  0.00     0.022 A 
ATOM     21  C   UNL A   1      32.104  27.832  27.306  1.00  0.00     0.000 A 
ATOM     22  C   UNL A   1      33.658  28.907  25.827  1.00  0.00     0.016 A 
ATOM     23  Br  UNL A   1      33.652  28.876  23.019  1.00  0.00    -0.050 Br
ATOM     24  C   UNL A   1      33.252  28.587  27.120  1.00  0.00     0.001 A 
ENDBRANCH  17  18
ENDBRANCH  15  17
ENDBRANCH  12  15
ENDBRANCH   7  11
ENDBRANCH   3   6
ENDBRANCH   1   2
BRANCH   1  25
ATOM     25  C   UNL A   1      36.585  21.733  24.492  1.00  0.00     0.023 C 
BRANCH  25  26
ATOM     26  C   UNL A   1      37.395  20.522  24.963  1.00  0.00     0.023 C 
BRANCH  26  27
ATOM     27  C   UNL A   1      38.666  20.845  25.748  1.00  0.00     0.116 C 
BRANCH  27  28
ATOM     28  N   UNL A   1      39.637  19.763  25.746  1.00  0.00    -0.352 N 
ATOM     29  C   UNL A   1      40.970  19.794  26.086  1.00  0.00     0.251 C 
ATOM     30  H   UNL A   1      39.294  18.886  25.461  1.00  0.00     0.163 HD
ATOM     31  O   UNL A   1      41.676  18.810  25.918  1.00  0.00    -0.269 OA
BRANCH  29  32
ATOM     32  C   UNL A   1      41.551  21.040  26.626  1.00  0.00     0.039 A 
ATOM     33  C   UNL A   1      42.092  21.971  25.734  1.00  0.00     0.014 A 
ATOM     34  C   UNL A   1      41.539  21.300  27.998  1.00  0.00     0.014 A 
ATOM     35  C   UNL A   1      42.553  23.197  26.215  1.00  0.00     0.010 A 
ATOM     36  C   UNL A   1      41.939  22.547  28.467  1.00  0.00     0.010 A 
ATOM     37  C   UNL A   1      42.444  23.510  27.580  1.00  0.00    -0.014 A 
BRANCH  37  38
ATOM     38  C   UNL A   1      42.837  24.846  28.092  1.00  0.00     0.031 A 
ATOM     39  C   UNL A   1      41.796  25.905  28.329  1.00  0.00     0.074 A 
ATOM     40  C   UNL A   1      44.140  25.129  28.284  1.00  0.00     0.049 A 
ATOM     41  N   UNL A   1      41.953  27.144  28.718  1.00  0.00    -0.248 NA
ATOM     42  C   UNL A   1      40.396  25.527  28.072  1.00  0.00     0.031 C 
ATOM     43  C   UNL A   1      45.253  24.206  28.048  1.00  0.00     0.029 A 
ATOM     44  N   UNL A   1      44.751  26.280  28.714  1.00  0.00    -0.354 N 
ATOM     45  C   UNL A   1      40.678  27.695  28.744  1.00  0.00     0.074 A 
ATOM     46  C   UNL A   1      39.766  26.673  28.279  1.00  0.00     0.031 C 
ATOM     47  C   UNL A   1      46.406  24.821  28.356  1.00  0.00     0.029 A 
ATOM     48  C   UNL A   1      46.120  26.188  28.776  1.00  0.00     0.049 A 
ATOM     49  H   UNL A   1      44.254  27.095  28.956  1.00  0.00     0.167 HD
ATOM     50  C   UNL A   1      40.297  28.933  29.140  1.00  0.00     0.031 A 
ATOM     51  C   UNL A   1      47.043  27.104  29.126  1.00  0.00     0.031 A 
ATOM     52  C   UNL A   1      41.202  29.950  29.605  1.00  0.00     0.049 A 
ATOM     53  C   UNL A   1      46.595  28.475  29.551  1.00  0.00     0.074 A 
ATOM     54  C   UNL A   1      40.907  31.222  30.064  1.00  0.00     0.029 A 
ATOM     55  N   UNL A   1      42.579  29.811  29.669  1.00  0.00    -0.354 N 
ATOM     56  N   UNL A   1      45.380  28.959  29.629  1.00  0.00    -0.248 NA
ATOM     57  C   UNL A   1      47.648  29.418  29.951  1.00  0.00     0.031 C 
ATOM     58  C   UNL A   1      42.111  31.868  30.367  1.00  0.00     0.029 A 
ATOM     59  C   UNL A   1      43.150  30.979  30.146  1.00  0.00     0.049 A 
ATOM     60  H   UNL A   1      43.078  29.002  29.413  1.00  0.00     0.167 HD
ATOM     61  C   UNL A   1      45.519  30.254  30.109  1.00  0.00     0.074 A 
ATOM     62  C   UNL A   1      46.935  30.473  30.323  1.00  0.00     0.031 C 
ATOM     63  C   UNL A   1      44.561  31.181  30.351  1.00  0.00     0.031 A 
BRANCH  50  64
ATOM     64  C   UNL A   1      38.829  29.250  29.088  1.00  0.00    -0.014 A 
ATOM     65  C   UNL A   1      38.230  29.707  27.903  1.00  0.00     0.009 A 
ATOM     66  C   UNL A   1      38.028  29.059  30.224  1.00  0.00     0.009 A 
ATOM     67  C   UNL A   1      36.866  30.005  27.868  1.00  0.00     0.001 A 
ATOM     68  C   UNL A   1      36.659  29.330  30.179  1.00  0.00     0.001 A 
ATOM     69  C   UNL A   1      36.081  29.811  29.005  1.00  0.00     0.000 A 
ENDBRANCH  50  64
BRANCH  51  70
ATOM     70  C   UNL A   1      48.487  26.753  29.100  1.00  0.00    -0.014 A 
ATOM     71  C   UNL A   1      49.257  26.986  27.950  1.00  0.00     0.009 A 
ATOM     72  C   UNL A   1      49.100  26.174  30.222  1.00  0.00     0.009 A 
ATOM     73  C   UNL A   1      50.604  26.616  27.913  1.00  0.00     0.001 A 
ATOM     74  C   UNL A   1      50.454  25.832  30.192  1.00  0.00     0.001 A 
ATOM     75  C   UNL A   1      51.201  26.044  29.035  1.00  0.00     0.000 A 
ENDBRANCH  51  70
BRANCH  63  76
ATOM     76  C   UNL A   1      45.009  32.503  30.907  1.00  0.00    -0.014 A 
ATOM     77  C   UNL A   1      45.083  32.723  32.292  1.00  0.00     0.009 A 
ATOM     78  C   UNL A   1      45.396  33.529  30.032  1.00  0.00     0.009 A 
ATOM     79  C   UNL A   1      45.505  33.959  32.787  1.00  0.00     0.001 A 
ATOM     80  C   UNL A   1      45.844  34.753  30.531  1.00  0.00     0.001 A 
ATOM     81  C   UNL A   1      45.889  34.970  31.907  1.00  0.00     0.000 A 
ENDBRANCH  63  76
ENDBRANCH  37  38
ENDBRANCH  29  32
ENDBRANCH  27  28
ENDBRANCH  26  27
ENDBRANCH  25  26
ENDBRANCH   1  25
TORSDOF 15
ENDMDL
MODEL 3
REMARK VINA RESULT:     -10.8      3.983      9.155
REMARK SMILES CN(Cc1ccccc1Br)C(=O)N[C@H]1C=C[C@H](C(=O)NCCCCNC(=O)c2ccc(-c3c4nc(c(-c5ccccc5)c5ccc([nH]5)c(-c5ccccc5)c5nc(c(-c6ccccc6)c6ccc3[nH]6)C=C5)C=C4)cc2)C1
REMARK SMILES IDX 21 1 20 2 18 3 19 4 17 6 14 7 15 8 76 9 16 10 13 11 11 12
REMARK SMILES IDX 12 13 2 15 1 16 3 17 4 18 5 19 9 20 6 21 8 22 10 23 7 24
REMARK SMILES IDX 22 25 23 26 24 27 25 28 26 29 27 31 28 32 29 33 75 34 30 35
REMARK SMILES IDX 74 36 31 37 32 38 33 39 68 40 34 41 73 42 67 43 69 44 35 45
REMARK SMILES IDX 72 46 66 47 65 48 36 50 58 51 43 52 57 53 44 54 47 55 56 56
REMARK SMILES IDX 70 57 45 58 46 59 55 61 71 62 48 63 37 64 38 65 42 66 39 67
REMARK SMILES IDX 41 68 40 69 59 70 60 71 64 72 61 73 63 74 62 75 49 76 50 77
REMARK SMILES IDX 54 78 51 79 53 80 52 81
REMARK H PARENT 20 5 13 14 25 30 69 49 47 60
REMARK Flexibility Score: inf
ROOT
ATOM      1  C   UNL A   1      32.952  30.212  26.261  1.00  0.00     0.116 C 
ENDROOT
BRANCH   1   2
ATOM      2  N   UNL A   1      33.088  29.577  24.965  1.00  0.00    -0.356 N 
ATOM      3  C   UNL A   1      32.378  28.607  24.333  1.00  0.00     0.227 C 
ATOM      4  O   UNL A   1      32.856  28.208  23.263  1.00  0.00    -0.274 OA
ATOM      5  H   UNL A   1      33.848  29.915  24.438  1.00  0.00     0.163 HD
BRANCH   3   6
ATOM      6  C   UNL A   1      30.991  28.094  24.766  1.00  0.00     0.103 C 
ATOM      7  C   UNL A   1      31.081  25.755  25.424  1.00  0.00     0.107 C 
ATOM      8  C   UNL A   1      30.169  25.962  24.246  1.00  0.00    -0.006 C 
ATOM      9  C   UNL A   1      31.143  27.174  25.987  1.00  0.00     0.047 C 
ATOM     10  C   UNL A   1      30.160  27.246  23.857  1.00  0.00    -0.016 C 
BRANCH   7  11
ATOM     11  N   UNL A   1      30.526  24.760  26.292  1.00  0.00    -0.332 N 
ATOM     12  C   UNL A   1      30.881  23.546  26.729  1.00  0.00     0.317 C 
ATOM     13  O   UNL A   1      30.119  23.080  27.585  1.00  0.00    -0.249 OA
ATOM     14  H   UNL A   1      29.660  25.042  26.664  1.00  0.00     0.165 HD
BRANCH  12  15
ATOM     15  N   UNL A   1      32.006  22.874  26.348  1.00  0.00    -0.324 N 
ATOM     16  C   UNL A   1      31.848  22.120  25.106  1.00  0.00     0.149 C 
BRANCH  15  17
ATOM     17  C   UNL A   1      33.343  22.801  26.963  1.00  0.00     0.157 C 
BRANCH  17  18
ATOM     18  C   UNL A   1      34.536  22.630  26.046  1.00  0.00    -0.014 A 
ATOM     19  C   UNL A   1      35.045  21.329  25.851  1.00  0.00     0.007 A 
ATOM     20  C   UNL A   1      35.119  23.660  25.292  1.00  0.00     0.022 A 
ATOM     21  C   UNL A   1      36.174  21.085  25.067  1.00  0.00     0.000 A 
ATOM     22  C   UNL A   1      36.242  23.413  24.489  1.00  0.00     0.016 A 
ATOM     23  Br  UNL A   1      34.386  25.405  25.175  1.00  0.00    -0.050 Br
ATOM     24  C   UNL A   1      36.787  22.135  24.400  1.00  0.00     0.001 A 
ENDBRANCH  17  18
ENDBRANCH  15  17
ENDBRANCH  12  15
ENDBRANCH   7  11
ENDBRANCH   3   6
ENDBRANCH   1   2
BRANCH   1  25
ATOM     25  C   UNL A   1      31.560  30.805  26.450  1.00  0.00     0.023 C 
BRANCH  25  26
ATOM     26  C   UNL A   1      31.542  32.332  26.563  1.00  0.00     0.023 C 
BRANCH  26  27
ATOM     27  C   UNL A   1      32.692  32.946  27.359  1.00  0.00     0.116 C 
BRANCH  27  28
ATOM     28  N   UNL A   1      32.421  34.300  27.816  1.00  0.00    -0.352 N 
ATOM     29  C   UNL A   1      33.090  35.047  28.758  1.00  0.00     0.251 C 
ATOM     30  H   UNL A   1      31.650  34.743  27.394  1.00  0.00     0.163 HD
ATOM     31  O   UNL A   1      32.657  36.135  29.108  1.00  0.00    -0.269 OA
BRANCH  29  32
ATOM     32  C   UNL A   1      34.321  34.507  29.371  1.00  0.00     0.039 A 
ATOM     33  C   UNL A   1      34.236  33.900  30.627  1.00  0.00     0.014 A 
ATOM     34  C   UNL A   1      35.543  34.576  28.699  1.00  0.00     0.014 A 
ATOM     35  C   UNL A   1      35.366  33.295  31.176  1.00  0.00     0.010 A 
ATOM     36  C   UNL A   1      36.653  33.916  29.219  1.00  0.00     0.010 A 
ATOM     37  C   UNL A   1      36.574  33.264  30.459  1.00  0.00    -0.014 A 
BRANCH  37  38
ATOM     38  C   UNL A   1      37.758  32.539  30.984  1.00  0.00     0.031 A 
ATOM     39  C   UNL A   1      38.502  33.066  32.179  1.00  0.00     0.074 A 
ATOM     40  C   UNL A   1      38.203  31.440  30.344  1.00  0.00     0.049 A 
ATOM     41  N   UNL A   1      39.588  32.604  32.744  1.00  0.00    -0.248 NA
ATOM     42  C   UNL A   1      37.969  34.286  32.807  1.00  0.00     0.031 C 
ATOM     43  C   UNL A   1      37.599  30.851  29.146  1.00  0.00     0.029 A 
ATOM     44  N   UNL A   1      39.275  30.625  30.609  1.00  0.00    -0.354 N 
ATOM     45  C   UNL A   1      39.871  33.478  33.785  1.00  0.00     0.074 A 
ATOM     46  C   UNL A   1      38.877  34.527  33.739  1.00  0.00     0.031 C 
ATOM     47  C   UNL A   1      38.297  29.759  28.794  1.00  0.00     0.029 A 
ATOM     48  C   UNL A   1      39.415  29.591  29.716  1.00  0.00     0.049 A 
ATOM     49  H   UNL A   1      39.885  30.767  31.369  1.00  0.00     0.167 HD
ATOM     50  C   UNL A   1      40.857  33.403  34.711  1.00  0.00     0.031 A 
ATOM     51  C   UNL A   1      40.344  28.619  29.643  1.00  0.00     0.031 A 
ATOM     52  C   UNL A   1      41.846  32.359  34.760  1.00  0.00     0.049 A 
ATOM     53  C   UNL A   1      41.435  28.564  30.676  1.00  0.00     0.074 A 
ATOM     54  C   UNL A   1      42.861  32.177  35.684  1.00  0.00     0.029 A 
ATOM     55  N   UNL A   1      41.943  31.321  33.848  1.00  0.00    -0.354 N 
ATOM     56  N   UNL A   1      41.652  29.364  31.690  1.00  0.00    -0.248 NA
ATOM     57  C   UNL A   1      42.399  27.461  30.559  1.00  0.00     0.031 C 
ATOM     58  C   UNL A   1      43.599  31.050  35.304  1.00  0.00     0.029 A 
ATOM     59  C   UNL A   1      43.010  30.503  34.176  1.00  0.00     0.049 A 
ATOM     60  H   UNL A   1      41.342  31.186  33.080  1.00  0.00     0.167 HD
ATOM     61  C   UNL A   1      42.761  28.849  32.347  1.00  0.00     0.074 A 
ATOM     62  C   UNL A   1      43.160  27.657  31.628  1.00  0.00     0.031 C 
ATOM     63  C   UNL A   1      43.394  29.321  33.449  1.00  0.00     0.031 A 
BRANCH  50  64
ATOM     64  C   UNL A   1      40.908  34.488  35.751  1.00  0.00    -0.014 A 
ATOM     65  C   UNL A   1      40.179  34.379  36.946  1.00  0.00     0.009 A 
ATOM     66  C   UNL A   1      41.717  35.617  35.549  1.00  0.00     0.009 A 
ATOM     67  C   UNL A   1      40.229  35.395  37.901  1.00  0.00     0.001 A 
ATOM     68  C   UNL A   1      41.787  36.619  36.518  1.00  0.00     0.001 A 
ATOM     69  C   UNL A   1      41.036  36.513  37.689  1.00  0.00     0.000 A 
ENDBRANCH  50  64
BRANCH  51  70
ATOM     70  C   UNL A   1      40.279  27.608  28.555  1.00  0.00    -0.014 A 
ATOM     71  C   UNL A   1      39.595  26.398  28.746  1.00  0.00     0.009 A 
ATOM     72  C   UNL A   1      40.912  27.844  27.324  1.00  0.00     0.009 A 
ATOM     73  C   UNL A   1      39.571  25.431  27.737  1.00  0.00     0.001 A 
ATOM     74  C   UNL A   1      40.862  26.887  26.307  1.00  0.00     0.001 A 
ATOM     75  C   UNL A   1      40.201  25.680  26.518  1.00  0.00     0.000 A 
ENDBRANCH  51  70
BRANCH  63  76
ATOM     76  C   UNL A   1      44.562  28.528  33.962  1.00  0.00    -0.014 A 
ATOM     77  C   UNL A   1      44.385  27.482  34.882  1.00  0.00     0.009 A 
ATOM     78  C   UNL A   1      45.853  28.807  33.489  1.00  0.00     0.009 A 
ATOM     79  C   UNL A   1      45.484  26.755  35.343  1.00  0.00     0.001 A 
ATOM     80  C   UNL A   1      46.946  28.061  33.931  1.00  0.00     0.001 A 
ATOM     81  C   UNL A   1      46.763  27.042  34.865  1.00  0.00     0.000 A 
ENDBRANCH  63  76
ENDBRANCH  37  38
ENDBRANCH  29  32
ENDBRANCH  27  28
ENDBRANCH  26  27
ENDBRANCH  25  26
ENDBRANCH   1  25
TORSDOF 15
ENDMDL
