MODEL 1
REMARK VINA RESULT:     -11.5      0.000      0.000
REMARK SMILES O=C(NCCCCNC(=O)c1cc(SCc2csc(-c3ccsc3)n2)ccn1)c1ccc(-c2c3nc(c(-c4ccccc4)c4ccc([nH]4)c(-c4ccccc4)c4nc(c(-c5ccccc5)c5ccc2[nH]5)C=C4)C=C3)cc1
REMARK SMILES IDX 6 1 5 2 4 3 3 4 1 5 2 6 29 8 30 9 76 10 31 11 75 12 32 13
REMARK SMILES IDX 33 14 34 15 69 16 35 17 74 18 68 19 70 20 36 21 73 22 67 23
REMARK SMILES IDX 66 24 37 26 59 27 44 28 58 29 45 30 48 31 57 32 71 33 46 34
REMARK SMILES IDX 47 35 56 37 72 38 49 39 38 40 39 41 43 42 40 43 42 44 41 45
REMARK SMILES IDX 60 46 61 47 65 48 62 49 64 50 63 51 50 52 51 53 55 54 52 55
REMARK SMILES IDX 54 56 53 57 7 58 8 59 9 60 10 62 11 63 12 64 28 65 13 66
REMARK SMILES IDX 27 67 26 68 14 69 15 70 16 71 17 72 25 73 18 74 19 75 20 76
REMARK SMILES IDX 21 77 24 78 22 79 23 80
REMARK H PARENT 3 7 70 25 48 36 8 61
REMARK Flexibility Score: inf
ROOT
ATOM      1  C   UNL A   1      36.827  20.899  24.681  1.00  0.00     0.023 C 
ENDROOT
BRANCH   1   2
ATOM      2  C   UNL A   1      37.818  19.765  24.935  1.00  0.00     0.023 C 
BRANCH   2   3
ATOM      3  C   UNL A   1      39.058  20.133  25.743  1.00  0.00     0.116 C 
BRANCH   3   4
ATOM      4  N   UNL A   1      40.082  19.100  25.754  1.00  0.00    -0.352 N 
ATOM      5  O   UNL A   1      42.154  18.229  25.927  1.00  0.00    -0.269 OA
ATOM      6  C   UNL A   1      41.423  19.210  26.035  1.00  0.00     0.251 C 
ATOM      7  H   UNL A   1      39.769  18.194  25.530  1.00  0.00     0.163 HD
BRANCH   6   8
ATOM      8  C   UNL A   1      42.001  20.518  26.422  1.00  0.00     0.039 A 
ATOM      9  C   UNL A   1      42.161  20.880  27.761  1.00  0.00     0.014 A 
ATOM     10  C   UNL A   1      42.381  21.406  25.409  1.00  0.00     0.014 A 
ATOM     11  C   UNL A   1      42.559  22.172  28.089  1.00  0.00     0.010 A 
ATOM     12  C   UNL A   1      42.839  22.684  25.739  1.00  0.00     0.010 A 
ATOM     13  C   UNL A   1      42.890  23.089  27.081  1.00  0.00    -0.014 A 
BRANCH  13  14
ATOM     14  C   UNL A   1      43.287  24.466  27.453  1.00  0.00     0.031 A 
ATOM     15  C   UNL A   1      44.722  24.902  27.349  1.00  0.00     0.074 A 
ATOM     16  C   UNL A   1      42.338  25.339  27.838  1.00  0.00     0.049 A 
ATOM     17  N   UNL A   1      45.245  26.078  27.589  1.00  0.00    -0.248 NA
ATOM     18  C   UNL A   1      45.696  23.887  26.917  1.00  0.00     0.031 C 
ATOM     19  C   UNL A   1      40.910  25.032  27.954  1.00  0.00     0.029 A 
ATOM     20  N   UNL A   1      42.427  26.662  28.183  1.00  0.00    -0.354 N 
ATOM     21  C   UNL A   1      46.606  25.945  27.344  1.00  0.00     0.074 A 
ATOM     22  C   UNL A   1      46.833  24.567  26.963  1.00  0.00     0.031 C 
ATOM     23  C   UNL A   1      40.252  26.146  28.311  1.00  0.00     0.029 A 
ATOM     24  C   UNL A   1      41.215  27.227  28.494  1.00  0.00     0.049 A 
ATOM     25  H   UNL A   1      43.276  27.158  28.206  1.00  0.00     0.167 HD
ATOM     26  C   UNL A   1      47.576  26.886  27.425  1.00  0.00     0.031 A 
ATOM     27  C   UNL A   1      40.913  28.477  28.892  1.00  0.00     0.031 A 
ATOM     28  C   UNL A   1      47.348  28.252  27.818  1.00  0.00     0.049 A 
ATOM     29  C   UNL A   1      42.016  29.486  29.027  1.00  0.00     0.074 A 
ATOM     30  C   UNL A   1      48.264  29.284  27.927  1.00  0.00     0.029 A 
ATOM     31  N   UNL A   1      46.114  28.773  28.174  1.00  0.00    -0.354 N 
ATOM     32  N   UNL A   1      43.294  29.349  28.771  1.00  0.00    -0.248 NA
ATOM     33  C   UNL A   1      41.634  30.821  29.505  1.00  0.00     0.031 C 
ATOM     34  C   UNL A   1      47.591  30.418  28.396  1.00  0.00     0.029 A 
ATOM     35  C   UNL A   1      46.248  30.105  28.528  1.00  0.00     0.049 A 
ATOM     36  H   UNL A   1      45.267  28.271  28.175  1.00  0.00     0.167 HD
ATOM     37  C   UNL A   1      43.868  30.584  29.041  1.00  0.00     0.074 A 
ATOM     38  C   UNL A   1      42.794  31.462  29.461  1.00  0.00     0.031 C 
ATOM     39  C   UNL A   1      45.167  30.959  28.951  1.00  0.00     0.031 A 
BRANCH  26  40
ATOM     40  C   UNL A   1      48.983  26.459  27.113  1.00  0.00    -0.014 A 
ATOM     41  C   UNL A   1      49.838  25.975  28.115  1.00  0.00     0.009 A 
ATOM     42  C   UNL A   1      49.451  26.514  25.790  1.00  0.00     0.009 A 
ATOM     43  C   UNL A   1      51.142  25.581  27.803  1.00  0.00     0.001 A 
ATOM     44  C   UNL A   1      50.747  26.098  25.478  1.00  0.00     0.001 A 
ATOM     45  C   UNL A   1      51.594  25.641  26.486  1.00  0.00     0.000 A 
ENDBRANCH  26  40
BRANCH  27  46
ATOM     46  C   UNL A   1      39.505  28.834  29.202  1.00  0.00    -0.014 A 
ATOM     47  C   UNL A   1      38.662  29.353  28.208  1.00  0.00     0.009 A 
ATOM     48  C   UNL A   1      38.994  28.642  30.496  1.00  0.00     0.009 A 
ATOM     49  C   UNL A   1      37.340  29.690  28.510  1.00  0.00     0.001 A 
ATOM     50  C   UNL A   1      37.664  28.953  30.786  1.00  0.00     0.001 A 
ATOM     51  C   UNL A   1      36.841  29.485  29.795  1.00  0.00     0.000 A 
ENDBRANCH  27  46
BRANCH  39  52
ATOM     52  C   UNL A   1      45.489  32.384  29.293  1.00  0.00    -0.014 A 
ATOM     53  C   UNL A   1      45.431  33.394  28.321  1.00  0.00     0.009 A 
ATOM     54  C   UNL A   1      45.826  32.724  30.612  1.00  0.00     0.009 A 
ATOM     55  C   UNL A   1      45.735  34.715  28.659  1.00  0.00     0.001 A 
ATOM     56  C   UNL A   1      46.105  34.048  30.952  1.00  0.00     0.001 A 
ATOM     57  C   UNL A   1      46.067  35.040  29.974  1.00  0.00     0.000 A 
ENDBRANCH  39  52
ENDBRANCH  13  14
ENDBRANCH   6   8
ENDBRANCH   3   4
ENDBRANCH   2   3
ENDBRANCH   1   2
BRANCH   1  58
ATOM     58  C   UNL A   1      35.520  20.811  25.461  1.00  0.00     0.116 C 
BRANCH  58  59
ATOM     59  N   UNL A   1      34.680  19.702  25.045  1.00  0.00    -0.351 N 
ATOM     60  C   UNL A   1      33.377  19.717  24.589  1.00  0.00     0.269 C 
ATOM     61  H   UNL A   1      35.100  18.813  25.095  1.00  0.00     0.163 HD
ATOM     62  O   UNL A   1      32.822  18.657  24.310  1.00  0.00    -0.268 OA
BRANCH  60  63
ATOM     63  C   UNL A   1      32.663  21.015  24.435  1.00  0.00     0.129 A 
ATOM     64  C   UNL A   1      33.011  21.874  23.398  1.00  0.00     0.049 A 
ATOM     65  N   UNL A   1      31.737  21.302  25.383  1.00  0.00    -0.251 NA
ATOM     66  C   UNL A   1      32.446  23.144  23.380  1.00  0.00     0.011 A 
ATOM     67  C   UNL A   1      31.150  22.508  25.298  1.00  0.00     0.113 A 
ATOM     68  C   UNL A   1      31.479  23.454  24.342  1.00  0.00     0.035 A 
BRANCH  66  69
ATOM     69  S   UNL A   1      32.897  24.460  22.260  1.00  0.00    -0.120 SA
BRANCH  69  70
ATOM     70  C   UNL A   1      31.398  25.478  22.109  1.00  0.00     0.132 C 
BRANCH  70  71
ATOM     71  C   UNL A   1      31.528  26.900  22.569  1.00  0.00     0.062 A 
ATOM     72  C   UNL A   1      32.367  27.414  23.542  1.00  0.00     0.091 A 
ATOM     73  N   UNL A   1      30.642  27.829  22.038  1.00  0.00    -0.240 NA
ATOM     74  S   UNL A   1      31.918  29.029  23.912  1.00  0.00    -0.122 S 
ATOM     75  C   UNL A   1      30.669  28.945  22.740  1.00  0.00     0.124 A 
BRANCH  75  76
ATOM     76  C   UNL A   1      29.645  30.021  22.514  1.00  0.00     0.021 A 
ATOM     77  C   UNL A   1      29.147  30.472  21.255  1.00  0.00     0.023 A 
ATOM     78  C   UNL A   1      29.101  30.735  23.563  1.00  0.00     0.076 A 
ATOM     79  C   UNL A   1      28.275  31.531  21.391  1.00  0.00     0.065 A 
ATOM     80  S   UNL A   1      28.016  31.946  23.030  1.00  0.00    -0.152 S 
ENDBRANCH  75  76
ENDBRANCH  70  71
ENDBRANCH  69  70
ENDBRANCH  66  69
ENDBRANCH  60  63
ENDBRANCH  58  59
ENDBRANCH   1  58
TORSDOF 15
ENDMDL
MODEL 2
REMARK VINA RESULT:     -11.2      5.281     10.718
REMARK SMILES O=C(NCCCCNC(=O)c1cc(SCc2csc(-c3ccsc3)n2)ccn1)c1ccc(-c2c3nc(c(-c4ccccc4)c4ccc([nH]4)c(-c4ccccc4)c4nc(c(-c5ccccc5)c5ccc2[nH]5)C=C4)C=C3)cc1
REMARK SMILES IDX 6 1 5 2 4 3 3 4 1 5 2 6 29 8 30 9 76 10 31 11 75 12 32 13
REMARK SMILES IDX 33 14 34 15 69 16 35 17 74 18 68 19 70 20 36 21 73 22 67 23
REMARK SMILES IDX 66 24 37 26 59 27 44 28 58 29 45 30 48 31 57 32 71 33 46 34
REMARK SMILES IDX 47 35 56 37 72 38 49 39 38 40 39 41 43 42 40 43 42 44 41 45
REMARK SMILES IDX 60 46 61 47 65 48 62 49 64 50 63 51 50 52 51 53 55 54 52 55
REMARK SMILES IDX 54 56 53 57 7 58 8 59 9 60 10 62 11 63 12 64 28 65 13 66
REMARK SMILES IDX 27 67 26 68 14 69 15 70 16 71 17 72 25 73 18 74 19 75 20 76
REMARK SMILES IDX 21 77 24 78 22 79 23 80
REMARK H PARENT 3 7 70 25 48 36 8 61
REMARK Flexibility Score: inf
ROOT
ATOM      1  C   UNL A   1      31.449  30.980  25.664  1.00  0.00     0.023 C 
ENDROOT
BRANCH   1   2
ATOM      2  C   UNL A   1      31.342  31.900  26.878  1.00  0.00     0.023 C 
BRANCH   2   3
ATOM      3  C   UNL A   1      32.582  32.728  27.196  1.00  0.00     0.116 C 
BRANCH   3   4
ATOM      4  N   UNL A   1      32.290  34.089  27.617  1.00  0.00    -0.352 N 
ATOM      5  O   UNL A   1      32.520  35.994  28.802  1.00  0.00    -0.269 OA
ATOM      6  C   UNL A   1      32.960  34.882  28.519  1.00  0.00     0.251 C 
ATOM      7  H   UNL A   1      31.500  34.500  27.197  1.00  0.00     0.163 HD
BRANCH   6   8
ATOM      8  C   UNL A   1      34.184  34.383  29.188  1.00  0.00     0.039 A 
ATOM      9  C   UNL A   1      35.450  34.575  28.633  1.00  0.00     0.014 A 
ATOM     10  C   UNL A   1      34.050  33.696  30.400  1.00  0.00     0.014 A 
ATOM     11  C   UNL A   1      36.560  33.961  29.204  1.00  0.00     0.010 A 
ATOM     12  C   UNL A   1      35.173  33.130  31.008  1.00  0.00     0.010 A 
ATOM     13  C   UNL A   1      36.429  33.222  30.390  1.00  0.00    -0.014 A 
BRANCH  13  14
ATOM     14  C   UNL A   1      37.619  32.556  30.967  1.00  0.00     0.031 A 
ATOM     15  C   UNL A   1      38.209  33.035  32.264  1.00  0.00     0.074 A 
ATOM     16  C   UNL A   1      38.137  31.485  30.339  1.00  0.00     0.049 A 
ATOM     17  N   UNL A   1      39.219  32.547  32.939  1.00  0.00    -0.248 NA
ATOM     18  C   UNL A   1      37.581  34.210  32.887  1.00  0.00     0.031 C 
ATOM     19  C   UNL A   1      37.633  30.919  29.085  1.00  0.00     0.029 A 
ATOM     20  N   UNL A   1      39.185  30.670  30.678  1.00  0.00    -0.354 N 
ATOM     21  C   UNL A   1      39.353  33.357  34.060  1.00  0.00     0.074 A 
ATOM     22  C   UNL A   1      38.338  34.384  33.961  1.00  0.00     0.031 C 
ATOM     23  C   UNL A   1      38.352  29.828  28.778  1.00  0.00     0.029 A 
ATOM     24  C   UNL A   1      39.393  29.648  29.785  1.00  0.00     0.049 A 
ATOM     25  H   UNL A   1      39.736  30.804  31.482  1.00  0.00     0.167 HD
ATOM     26  C   UNL A   1      40.238  33.251  35.079  1.00  0.00     0.031 A 
ATOM     27  C   UNL A   1      40.326  28.678  29.772  1.00  0.00     0.031 A 
ATOM     28  C   UNL A   1      41.255  32.237  35.166  1.00  0.00     0.049 A 
ATOM     29  C   UNL A   1      41.330  28.617  30.886  1.00  0.00     0.074 A 
ATOM     30  C   UNL A   1      42.198  32.041  36.161  1.00  0.00     0.029 A 
ATOM     31  N   UNL A   1      41.466  31.249  34.216  1.00  0.00    -0.354 N 
ATOM     32  N   UNL A   1      41.429  29.378  31.949  1.00  0.00    -0.248 NA
ATOM     33  C   UNL A   1      42.349  27.563  30.799  1.00  0.00     0.031 C 
ATOM     34  C   UNL A   1      43.010  30.964  35.788  1.00  0.00     0.029 A 
ATOM     35  C   UNL A   1      42.539  30.457  34.587  1.00  0.00     0.049 A 
ATOM     36  H   UNL A   1      40.931  31.129  33.398  1.00  0.00     0.167 HD
ATOM     37  C   UNL A   1      42.510  28.887  32.666  1.00  0.00     0.074 A 
ATOM     38  C   UNL A   1      43.022  27.750  31.927  1.00  0.00     0.031 C 
ATOM     39  C   UNL A   1      43.036  29.335  33.832  1.00  0.00     0.031 A 
BRANCH  26  40
ATOM     40  C   UNL A   1      40.166  34.283  36.169  1.00  0.00    -0.014 A 
ATOM     41  C   UNL A   1      39.325  34.113  37.280  1.00  0.00     0.009 A 
ATOM     42  C   UNL A   1      40.974  35.429  36.099  1.00  0.00     0.009 A 
ATOM     43  C   UNL A   1      39.273  35.084  38.284  1.00  0.00     0.001 A 
ATOM     44  C   UNL A   1      40.938  36.386  37.115  1.00  0.00     0.001 A 
ATOM     45  C   UNL A   1      40.081  36.217  38.201  1.00  0.00     0.000 A 
ENDBRANCH  26  40
BRANCH  27  46
ATOM     46  C   UNL A   1      40.356  27.696  28.659  1.00  0.00    -0.014 A 
ATOM     47  C   UNL A   1      39.654  26.485  28.751  1.00  0.00     0.009 A 
ATOM     48  C   UNL A   1      41.080  27.975  27.488  1.00  0.00     0.009 A 
ATOM     49  C   UNL A   1      39.692  25.566  27.700  1.00  0.00     0.001 A 
ATOM     50  C   UNL A   1      41.092  27.066  26.428  1.00  0.00     0.001 A 
ATOM     51  C   UNL A   1      40.405  25.859  26.538  1.00  0.00     0.000 A 
ENDBRANCH  27  46
BRANCH  39  52
ATOM     52  C   UNL A   1      44.210  28.581  34.385  1.00  0.00    -0.014 A 
ATOM     53  C   UNL A   1      45.524  28.922  34.028  1.00  0.00     0.009 A 
ATOM     54  C   UNL A   1      43.999  27.536  35.297  1.00  0.00     0.009 A 
ATOM     55  C   UNL A   1      46.603  28.207  34.552  1.00  0.00     0.001 A 
ATOM     56  C   UNL A   1      45.080  26.840  35.838  1.00  0.00     0.001 A 
ATOM     57  C   UNL A   1      46.380  27.171  35.459  1.00  0.00     0.000 A 
ENDBRANCH  39  52
ENDBRANCH  13  14
ENDBRANCH   6   8
ENDBRANCH   3   4
ENDBRANCH   2   3
ENDBRANCH   1   2
BRANCH   1  58
ATOM     58  C   UNL A   1      32.418  29.812  25.814  1.00  0.00     0.116 C 
BRANCH  58  59
ATOM     59  N   UNL A   1      31.921  28.765  26.689  1.00  0.00    -0.351 N 
ATOM     60  C   UNL A   1      31.411  27.524  26.363  1.00  0.00     0.269 C 
ATOM     61  H   UNL A   1      31.953  28.969  27.651  1.00  0.00     0.163 HD
ATOM     62  O   UNL A   1      31.012  26.781  27.256  1.00  0.00    -0.268 OA
BRANCH  60  63
ATOM     63  C   UNL A   1      31.357  27.099  24.937  1.00  0.00     0.129 A 
ATOM     64  C   UNL A   1      32.146  26.039  24.503  1.00  0.00     0.049 A 
ATOM     65  N   UNL A   1      30.562  27.837  24.125  1.00  0.00    -0.251 NA
ATOM     66  C   UNL A   1      32.200  25.775  23.139  1.00  0.00     0.011 A 
ATOM     67  C   UNL A   1      30.574  27.512  22.820  1.00  0.00     0.113 A 
ATOM     68  C   UNL A   1      31.376  26.517  22.287  1.00  0.00     0.035 A 
BRANCH  66  69
ATOM     69  S   UNL A   1      33.290  24.596  22.357  1.00  0.00    -0.120 SA
BRANCH  69  70
ATOM     70  C   UNL A   1      32.535  22.974  22.683  1.00  0.00     0.132 C 
BRANCH  70  71
ATOM     71  C   UNL A   1      33.215  22.138  23.725  1.00  0.00     0.062 A 
ATOM     72  C   UNL A   1      34.300  22.467  24.518  1.00  0.00     0.091 A 
ATOM     73  N   UNL A   1      32.784  20.825  23.874  1.00  0.00    -0.240 NA
ATOM     74  S   UNL A   1      34.889  21.069  25.321  1.00  0.00    -0.122 S 
ATOM     75  C   UNL A   1      33.650  20.134  24.590  1.00  0.00     0.124 A 
BRANCH  75  76
ATOM     76  C   UNL A   1      33.536  18.640  24.705  1.00  0.00     0.021 A 
ATOM     77  C   UNL A   1      34.041  17.675  23.784  1.00  0.00     0.023 A 
ATOM     78  C   UNL A   1      32.858  18.044  25.748  1.00  0.00     0.076 A 
ATOM     79  C   UNL A   1      33.698  16.388  24.140  1.00  0.00     0.065 A 
ATOM     80  S   UNL A   1      32.817  16.339  25.605  1.00  0.00    -0.152 S 
ENDBRANCH  75  76
ENDBRANCH  70  71
ENDBRANCH  69  70
ENDBRANCH  66  69
ENDBRANCH  60  63
ENDBRANCH  58  59
ENDBRANCH   1  58
TORSDOF 15
ENDMDL
MODEL 3
REMARK VINA RESULT:     -11.1      1.291      6.005
REMARK SMILES O=C(NCCCCNC(=O)c1cc(SCc2csc(-c3ccsc3)n2)ccn1)c1ccc(-c2c3nc(c(-c4ccccc4)c4ccc([nH]4)c(-c4ccccc4)c4nc(c(-c5ccccc5)c5ccc2[nH]5)C=C4)C=C3)cc1
REMARK SMILES IDX 6 1 5 2 4 3 3 4 1 5 2 6 29 8 30 9 76 10 31 11 75 12 32 13
REMARK SMILES IDX 33 14 34 15 69 16 35 17 74 18 68 19 70 20 36 21 73 22 67 23
REMARK SMILES IDX 66 24 37 26 59 27 44 28 58 29 45 30 48 31 57 32 71 33 46 34
REMARK SMILES IDX 47 35 56 37 72 38 49 39 38 40 39 41 43 42 40 43 42 44 41 45
REMARK SMILES IDX 60 46 61 47 65 48 62 49 64 50 63 51 50 52 51 53 55 54 52 55
REMARK SMILES IDX 54 56 53 57 7 58 8 59 9 60 10 62 11 63 12 64 28 65 13 66
REMARK SMILES IDX 27 67 26 68 14 69 15 70 16 71 17 72 25 73 18 74 19 75 20 76
REMARK SMILES IDX 21 77 24 78 22 79 23 80
REMARK H PARENT 3 7 70 25 48 36 8 61
REMARK Flexibility Score: inf
ROOT
ATOM      1  C   UNL A   1      36.919  19.706  24.800  1.00  0.00     0.023 C 
ENDROOT
BRANCH   1   2
ATOM      2  C   UNL A   1      38.144  20.617  24.837  1.00  0.00     0.023 C 
BRANCH   2   3
ATOM      3  C   UNL A   1      39.040  20.478  26.063  1.00  0.00     0.116 C 
BRANCH   3   4
ATOM      4  N   UNL A   1      40.107  19.502  25.905  1.00  0.00    -0.352 N 
ATOM      5  O   UNL A   1      42.223  18.726  25.852  1.00  0.00    -0.269 OA
ATOM      6  C   UNL A   1      41.458  19.654  26.104  1.00  0.00     0.251 C 
ATOM      7  H   UNL A   1      39.820  18.606  25.613  1.00  0.00     0.163 HD
BRANCH   6   8
ATOM      8  C   UNL A   1      42.003  20.947  26.579  1.00  0.00     0.039 A 
ATOM      9  C   UNL A   1      42.095  21.247  27.939  1.00  0.00     0.014 A 
ATOM     10  C   UNL A   1      42.424  21.883  25.628  1.00  0.00     0.014 A 
ATOM     11  C   UNL A   1      42.464  22.525  28.345  1.00  0.00     0.010 A 
ATOM     12  C   UNL A   1      42.852  23.148  26.037  1.00  0.00     0.010 A 
ATOM     13  C   UNL A   1      42.834  23.491  27.397  1.00  0.00    -0.014 A 
BRANCH  13  14
ATOM     14  C   UNL A   1      43.198  24.853  27.851  1.00  0.00     0.031 A 
ATOM     15  C   UNL A   1      42.133  25.879  28.121  1.00  0.00     0.074 A 
ATOM     16  C   UNL A   1      44.493  25.145  28.066  1.00  0.00     0.049 A 
ATOM     17  N   UNL A   1      42.262  27.103  28.565  1.00  0.00    -0.248 NA
ATOM     18  C   UNL A   1      40.741  25.476  27.863  1.00  0.00     0.031 C 
ATOM     19  C   UNL A   1      45.611  24.221  27.859  1.00  0.00     0.029 A 
ATOM     20  N   UNL A   1      45.087  26.292  28.525  1.00  0.00    -0.354 N 
ATOM     21  C   UNL A   1      40.975  27.620  28.634  1.00  0.00     0.074 A 
ATOM     22  C   UNL A   1      40.079  26.586  28.160  1.00  0.00     0.031 C 
ATOM     23  C   UNL A   1      46.752  24.828  28.222  1.00  0.00     0.029 A 
ATOM     24  C   UNL A   1      46.451  26.193  28.640  1.00  0.00     0.049 A 
ATOM     25  H   UNL A   1      44.584  27.108  28.750  1.00  0.00     0.167 HD
ATOM     26  C   UNL A   1      40.575  28.843  29.056  1.00  0.00     0.031 A 
ATOM     27  C   UNL A   1      47.362  27.103  29.030  1.00  0.00     0.031 A 
ATOM     28  C   UNL A   1      41.470  29.874  29.513  1.00  0.00     0.049 A 
ATOM     29  C   UNL A   1      46.897  28.471  29.441  1.00  0.00     0.074 A 
ATOM     30  C   UNL A   1      41.164  31.145  29.967  1.00  0.00     0.029 A 
ATOM     31  N   UNL A   1      42.850  29.752  29.567  1.00  0.00    -0.354 N 
ATOM     32  N   UNL A   1      45.673  28.935  29.520  1.00  0.00    -0.248 NA
ATOM     33  C   UNL A   1      47.937  29.436  29.818  1.00  0.00     0.031 C 
ATOM     34  C   UNL A   1      42.363  31.809  30.249  1.00  0.00     0.029 A 
ATOM     35  C   UNL A   1      43.412  30.932  30.021  1.00  0.00     0.049 A 
ATOM     36  H   UNL A   1      43.356  28.944  29.319  1.00  0.00     0.167 HD
ATOM     37  C   UNL A   1      45.795  30.242  29.970  1.00  0.00     0.074 A 
ATOM     38  C   UNL A   1      47.210  30.489  30.166  1.00  0.00     0.031 C 
ATOM     39  C   UNL A   1      44.823  31.159  30.201  1.00  0.00     0.031 A 
BRANCH  26  40
ATOM     40  C   UNL A   1      39.103  29.145  29.013  1.00  0.00    -0.014 A 
ATOM     41  C   UNL A   1      38.494  29.635  27.847  1.00  0.00     0.009 A 
ATOM     42  C   UNL A   1      38.309  28.906  30.145  1.00  0.00     0.009 A 
ATOM     43  C   UNL A   1      37.123  29.907  27.827  1.00  0.00     0.001 A 
ATOM     44  C   UNL A   1      36.936  29.156  30.115  1.00  0.00     0.001 A 
ATOM     45  C   UNL A   1      36.346  29.665  28.959  1.00  0.00     0.000 A 
ENDBRANCH  26  40
BRANCH  27  46
ATOM     46  C   UNL A   1      48.804  26.751  29.037  1.00  0.00    -0.014 A 
ATOM     47  C   UNL A   1      49.598  26.957  27.899  1.00  0.00     0.009 A 
ATOM     48  C   UNL A   1      49.398  26.217  30.193  1.00  0.00     0.009 A 
ATOM     49  C   UNL A   1      50.953  26.619  27.913  1.00  0.00     0.001 A 
ATOM     50  C   UNL A   1      50.759  25.907  30.212  1.00  0.00     0.001 A 
ATOM     51  C   UNL A   1      51.533  26.100  29.069  1.00  0.00     0.000 A 
ENDBRANCH  27  46
BRANCH  39  52
ATOM     52  C   UNL A   1      45.261  32.502  30.709  1.00  0.00    -0.014 A 
ATOM     53  C   UNL A   1      45.442  32.733  32.081  1.00  0.00     0.009 A 
ATOM     54  C   UNL A   1      45.524  33.538  29.800  1.00  0.00     0.009 A 
ATOM     55  C   UNL A   1      45.849  33.990  32.535  1.00  0.00     0.001 A 
ATOM     56  C   UNL A   1      45.955  34.784  30.255  1.00  0.00     0.001 A 
ATOM     57  C   UNL A   1      46.109  35.012  31.622  1.00  0.00     0.000 A 
ENDBRANCH  39  52
ENDBRANCH  13  14
ENDBRANCH   6   8
ENDBRANCH   3   4
ENDBRANCH   2   3
ENDBRANCH   1   2
BRANCH   1  58
ATOM     58  C   UNL A   1      35.580  20.404  25.008  1.00  0.00     0.116 C 
BRANCH  58  59
ATOM     59  N   UNL A   1      34.451  19.491  24.997  1.00  0.00    -0.351 N 
ATOM     60  C   UNL A   1      33.142  19.717  25.374  1.00  0.00     0.269 C 
ATOM     61  H   UNL A   1      34.646  18.582  24.675  1.00  0.00     0.163 HD
ATOM     62  O   UNL A   1      32.329  18.798  25.318  1.00  0.00    -0.268 OA
BRANCH  60  63
ATOM     63  C   UNL A   1      32.730  21.072  25.837  1.00  0.00     0.129 A 
ATOM     64  C   UNL A   1      31.932  21.867  25.021  1.00  0.00     0.049 A 
ATOM     65  N   UNL A   1      33.227  21.469  27.034  1.00  0.00    -0.251 NA
ATOM     66  C   UNL A   1      31.704  23.183  25.406  1.00  0.00     0.011 A 
ATOM     67  C   UNL A   1      32.929  22.722  27.419  1.00  0.00     0.113 A 
ATOM     68  C   UNL A   1      32.198  23.607  26.644  1.00  0.00     0.035 A 
BRANCH  66  69
ATOM     69  S   UNL A   1      30.877  24.420  24.418  1.00  0.00    -0.120 SA
BRANCH  69  70
ATOM     70  C   UNL A   1      30.480  25.758  25.583  1.00  0.00     0.132 C 
BRANCH  70  71
ATOM     71  C   UNL A   1      30.898  27.135  25.160  1.00  0.00     0.062 A 
ATOM     72  C   UNL A   1      31.869  27.948  25.718  1.00  0.00     0.091 A 
ATOM     73  N   UNL A   1      30.175  27.739  24.138  1.00  0.00    -0.240 NA
ATOM     74  S   UNL A   1      31.750  29.534  25.074  1.00  0.00    -0.122 S 
ATOM     75  C   UNL A   1      30.447  29.028  24.080  1.00  0.00     0.124 A 
BRANCH  75  76
ATOM     76  C   UNL A   1      29.632  29.949  23.217  1.00  0.00     0.021 A 
ATOM     77  C   UNL A   1      29.334  29.776  21.832  1.00  0.00     0.023 A 
ATOM     78  C   UNL A   1      29.111  31.128  23.707  1.00  0.00     0.076 A 
ATOM     79  C   UNL A   1      28.632  30.844  21.315  1.00  0.00     0.065 A 
ATOM     80  S   UNL A   1      28.287  32.024  22.504  1.00  0.00    -0.152 S 
ENDBRANCH  75  76
ENDBRANCH  70  71
ENDBRANCH  69  70
ENDBRANCH  66  69
ENDBRANCH  60  63
ENDBRANCH  58  59
ENDBRANCH   1  58
TORSDOF 15
ENDMDL
