MODEL 1
REMARK VINA RESULT:     -11.0      0.000      0.000
REMARK SMILES CC[C@@](C)(Nc1cc([N+](=O)[O-])ccc1C)C(=O)NCCCCNC(=O)c1ccc(-c2c3nc(c(-c4ccccc4)c4ccc([nH]4)c(-c4ccccc4)c4nc(c(-c5ccccc5)c5ccc2[nH]5)C=C4)C=C3)cc1
REMARK SMILES IDX 20 1 19 2 18 3 16 4 17 5 3 7 4 8 2 9 1 10 5 11 6 13 7 14
REMARK SMILES IDX 14 15 8 16 13 17 15 18 12 19 9 20 10 21 11 22 21 23 22 24
REMARK SMILES IDX 23 25 24 26 25 28 26 29 27 30 73 31 28 32 72 33 29 34 30 35
REMARK SMILES IDX 31 36 66 37 32 38 71 39 65 40 67 41 33 42 70 43 64 44 63 45
REMARK SMILES IDX 34 47 56 48 41 49 55 50 42 51 45 52 54 53 68 54 43 55 44 56
REMARK SMILES IDX 53 58 69 59 46 60 35 61 36 62 40 63 37 64 39 65 38 66 57 67
REMARK SMILES IDX 58 68 62 69 59 70 61 71 60 72 47 73 48 74 52 75 49 76 51 77
REMARK SMILES IDX 50 78
REMARK H PARENT 18 6 5 12 23 27 67 46 45 57
REMARK Flexibility Score: inf
ROOT
ATOM      1  C   UNL A   1      31.973  31.003  26.663  1.00  0.00     0.023 C 
ENDROOT
BRANCH   1   2
ATOM      2  C   UNL A   1      32.439  29.668  26.001  1.00  0.00     0.116 C 
BRANCH   2   3
ATOM      3  N   UNL A   1      31.663  28.449  26.269  1.00  0.00    -0.354 N 
ATOM      4  C   UNL A   1      31.346  27.261  25.665  1.00  0.00     0.245 C 
ATOM      5  O   UNL A   1      30.689  26.510  26.408  1.00  0.00    -0.272 OA
ATOM      6  H   UNL A   1      31.238  28.504  27.156  1.00  0.00     0.163 HD
BRANCH   4   7
ATOM      7  C   UNL A   1      31.701  26.791  24.199  1.00  0.00     0.113 C 
ATOM      8  C   UNL A   1      33.088  27.247  23.735  1.00  0.00     0.045 C 
BRANCH   7   9
ATOM      9  C   UNL A   1      31.686  25.214  24.215  1.00  0.00     0.035 C 
ATOM     10  C   UNL A   1      30.681  24.536  23.284  1.00  0.00     0.007 C 
ENDBRANCH   7   9
BRANCH   7  11
ATOM     11  N   UNL A   1      30.723  27.169  23.090  1.00  0.00    -0.371 N 
ATOM     12  H   UNL A   1      30.832  26.661  22.253  1.00  0.00     0.161 HD
BRANCH  11  13
ATOM     13  C   UNL A   1      29.708  28.111  23.067  1.00  0.00     0.045 A 
ATOM     14  C   UNL A   1      29.964  29.483  23.096  1.00  0.00     0.111 A 
ATOM     15  C   UNL A   1      28.363  27.800  23.221  1.00  0.00    -0.027 A 
ATOM     16  C   UNL A   1      28.896  30.415  23.112  1.00  0.00     0.271 A 
ATOM     17  C   UNL A   1      27.305  28.677  22.938  1.00  0.00     0.012 A 
ATOM     18  C   UNL A   1      27.992  26.712  24.155  1.00  0.00     0.046 C 
ATOM     19  C   UNL A   1      27.573  30.021  22.906  1.00  0.00     0.086 A 
BRANCH  16  20
ATOM     20  N   UNL A   1      29.135  31.796  23.534  1.00  0.00     0.062 N 
ATOM     21  O   UNL A   1      29.577  31.984  24.674  1.00  0.00    -0.258 OA
ATOM     22  O   UNL A   1      28.826  32.699  22.740  1.00  0.00    -0.258 OA
ENDBRANCH  16  20
ENDBRANCH  11  13
ENDBRANCH   7  11
ENDBRANCH   4   7
ENDBRANCH   2   3
ENDBRANCH   1   2
BRANCH   1  23
ATOM     23  C   UNL A   1      32.958  31.713  27.609  1.00  0.00     0.023 C 
BRANCH  23  24
ATOM     24  C   UNL A   1      34.375  31.196  27.660  1.00  0.00     0.116 C 
BRANCH  24  25
ATOM     25  N   UNL A   1      35.303  31.921  28.529  1.00  0.00    -0.352 N 
ATOM     26  C   UNL A   1      36.414  31.408  29.206  1.00  0.00     0.251 C 
ATOM     27  H   UNL A   1      35.125  32.881  28.651  1.00  0.00     0.163 HD
ATOM     28  O   UNL A   1      37.096  32.087  29.918  1.00  0.00    -0.269 OA
BRANCH  26  29
ATOM     29  C   UNL A   1      36.813  30.004  28.873  1.00  0.00     0.039 A 
ATOM     30  C   UNL A   1      37.040  29.192  29.985  1.00  0.00     0.014 A 
ATOM     31  C   UNL A   1      37.449  29.756  27.661  1.00  0.00     0.014 A 
ATOM     32  C   UNL A   1      38.175  28.395  29.998  1.00  0.00     0.010 A 
ATOM     33  C   UNL A   1      38.641  29.056  27.714  1.00  0.00     0.010 A 
ATOM     34  C   UNL A   1      39.052  28.474  28.922  1.00  0.00    -0.014 A 
BRANCH  34  35
ATOM     35  C   UNL A   1      40.466  28.120  29.039  1.00  0.00     0.031 A 
ATOM     36  C   UNL A   1      40.920  26.808  28.546  1.00  0.00     0.074 A 
ATOM     37  C   UNL A   1      41.368  28.979  29.576  1.00  0.00     0.049 A 
ATOM     38  N   UNL A   1      42.031  26.261  28.902  1.00  0.00    -0.248 NA
ATOM     39  C   UNL A   1      40.110  25.954  27.680  1.00  0.00     0.031 C 
ATOM     40  C   UNL A   1      42.829  28.887  29.533  1.00  0.00     0.029 A 
ATOM     41  N   UNL A   1      41.125  29.995  30.500  1.00  0.00    -0.354 N 
ATOM     42  C   UNL A   1      42.227  25.180  28.085  1.00  0.00     0.074 A 
ATOM     43  C   UNL A   1      40.955  24.946  27.450  1.00  0.00     0.031 C 
ATOM     44  C   UNL A   1      43.344  29.598  30.549  1.00  0.00     0.029 A 
ATOM     45  C   UNL A   1      42.236  30.058  31.366  1.00  0.00     0.049 A 
ATOM     46  H   UNL A   1      40.322  30.565  30.540  1.00  0.00     0.167 HD
ATOM     47  C   UNL A   1      43.485  24.696  27.932  1.00  0.00     0.031 A 
ATOM     48  C   UNL A   1      42.092  29.811  32.701  1.00  0.00     0.031 A 
ATOM     49  C   UNL A   1      44.390  25.178  28.977  1.00  0.00     0.049 A 
ATOM     50  C   UNL A   1      42.814  28.566  33.192  1.00  0.00     0.074 A 
ATOM     51  C   UNL A   1      45.500  26.000  29.025  1.00  0.00     0.029 A 
ATOM     52  N   UNL A   1      44.011  24.976  30.297  1.00  0.00    -0.354 N 
ATOM     53  N   UNL A   1      43.544  27.782  32.445  1.00  0.00    -0.248 NA
ATOM     54  C   UNL A   1      42.670  28.051  34.556  1.00  0.00     0.031 C 
ATOM     55  C   UNL A   1      45.752  26.323  30.396  1.00  0.00     0.029 A 
ATOM     56  C   UNL A   1      44.820  25.662  31.177  1.00  0.00     0.049 A 
ATOM     57  H   UNL A   1      43.254  24.409  30.573  1.00  0.00     0.167 HD
ATOM     58  C   UNL A   1      43.872  26.655  33.153  1.00  0.00     0.074 A 
ATOM     59  C   UNL A   1      43.318  26.876  34.477  1.00  0.00     0.031 C 
ATOM     60  C   UNL A   1      44.517  25.588  32.598  1.00  0.00     0.031 A 
BRANCH  47  61
ATOM     61  C   UNL A   1      43.918  23.898  26.728  1.00  0.00    -0.014 A 
ATOM     62  C   UNL A   1      43.717  22.508  26.706  1.00  0.00     0.009 A 
ATOM     63  C   UNL A   1      44.641  24.432  25.641  1.00  0.00     0.009 A 
ATOM     64  C   UNL A   1      44.208  21.708  25.663  1.00  0.00     0.001 A 
ATOM     65  C   UNL A   1      45.098  23.646  24.578  1.00  0.00     0.001 A 
ATOM     66  C   UNL A   1      44.890  22.279  24.594  1.00  0.00     0.000 A 
ENDBRANCH  47  61
BRANCH  48  67
ATOM     67  C   UNL A   1      40.795  30.310  33.240  1.00  0.00    -0.014 A 
ATOM     68  C   UNL A   1      40.609  31.705  33.335  1.00  0.00     0.009 A 
ATOM     69  C   UNL A   1      39.667  29.480  33.287  1.00  0.00     0.009 A 
ATOM     70  C   UNL A   1      39.325  32.257  33.333  1.00  0.00     0.001 A 
ATOM     71  C   UNL A   1      38.383  30.039  33.305  1.00  0.00     0.001 A 
ATOM     72  C   UNL A   1      38.213  31.423  33.285  1.00  0.00     0.000 A 
ENDBRANCH  48  67
BRANCH  60  73
ATOM     73  C   UNL A   1      44.863  24.339  33.365  1.00  0.00    -0.014 A 
ATOM     74  C   UNL A   1      43.906  23.365  33.683  1.00  0.00     0.009 A 
ATOM     75  C   UNL A   1      46.157  24.164  33.898  1.00  0.00     0.009 A 
ATOM     76  C   UNL A   1      44.243  22.243  34.454  1.00  0.00     0.001 A 
ATOM     77  C   UNL A   1      46.490  23.060  34.686  1.00  0.00     0.001 A 
ATOM     78  C   UNL A   1      45.533  22.093  34.956  1.00  0.00     0.000 A 
ENDBRANCH  60  73
ENDBRANCH  34  35
ENDBRANCH  26  29
ENDBRANCH  24  25
ENDBRANCH  23  24
ENDBRANCH   1  23
TORSDOF 15
ENDMDL
MODEL 2
REMARK VINA RESULT:     -10.8      4.014      9.042
REMARK SMILES CC[C@@](C)(Nc1cc([N+](=O)[O-])ccc1C)C(=O)NCCCCNC(=O)c1ccc(-c2c3nc(c(-c4ccccc4)c4ccc([nH]4)c(-c4ccccc4)c4nc(c(-c5ccccc5)c5ccc2[nH]5)C=C4)C=C3)cc1
REMARK SMILES IDX 20 1 19 2 18 3 16 4 17 5 3 7 4 8 2 9 1 10 5 11 6 13 7 14
REMARK SMILES IDX 14 15 8 16 13 17 15 18 12 19 9 20 10 21 11 22 21 23 22 24
REMARK SMILES IDX 23 25 24 26 25 28 26 29 27 30 73 31 28 32 72 33 29 34 30 35
REMARK SMILES IDX 31 36 66 37 32 38 71 39 65 40 67 41 33 42 70 43 64 44 63 45
REMARK SMILES IDX 34 47 56 48 41 49 55 50 42 51 45 52 54 53 68 54 43 55 44 56
REMARK SMILES IDX 53 58 69 59 46 60 35 61 36 62 40 63 37 64 39 65 38 66 57 67
REMARK SMILES IDX 58 68 62 69 59 70 61 71 60 72 47 73 48 74 52 75 49 76 51 77
REMARK SMILES IDX 50 78
REMARK H PARENT 18 6 5 12 23 27 67 46 45 57
REMARK Flexibility Score: inf
ROOT
ATOM      1  C   UNL A   1      38.070  19.786  25.274  1.00  0.00     0.023 C 
ENDROOT
BRANCH   1   2
ATOM      2  C   UNL A   1      36.704  20.529  25.145  1.00  0.00     0.116 C 
BRANCH   2   3
ATOM      3  N   UNL A   1      35.475  19.725  25.091  1.00  0.00    -0.354 N 
ATOM      4  C   UNL A   1      34.146  19.870  24.790  1.00  0.00     0.245 C 
ATOM      5  O   UNL A   1      33.529  18.790  24.828  1.00  0.00    -0.272 OA
ATOM      6  H   UNL A   1      35.665  18.795  25.354  1.00  0.00     0.163 HD
BRANCH   4   7
ATOM      7  C   UNL A   1      33.369  21.200  24.437  1.00  0.00     0.113 C 
ATOM      8  C   UNL A   1      32.258  20.997  23.402  1.00  0.00     0.045 C 
BRANCH   7   9
ATOM      9  C   UNL A   1      32.704  21.701  25.776  1.00  0.00     0.035 C 
ATOM     10  C   UNL A   1      33.537  21.543  27.048  1.00  0.00     0.007 C 
ENDBRANCH   7   9
BRANCH   7  11
ATOM     11  N   UNL A   1      34.202  22.387  23.958  1.00  0.00    -0.371 N 
ATOM     12  H   UNL A   1      34.993  22.146  23.423  1.00  0.00     0.161 HD
BRANCH  11  13
ATOM     13  C   UNL A   1      34.025  23.747  24.152  1.00  0.00     0.045 A 
ATOM     14  C   UNL A   1      33.399  24.559  23.205  1.00  0.00     0.111 A 
ATOM     15  C   UNL A   1      34.620  24.462  25.184  1.00  0.00    -0.027 A 
ATOM     16  C   UNL A   1      33.273  25.955  23.424  1.00  0.00     0.271 A 
ATOM     17  C   UNL A   1      34.256  25.763  25.564  1.00  0.00     0.012 A 
ATOM     18  C   UNL A   1      35.990  24.088  25.605  1.00  0.00     0.046 C 
ATOM     19  C   UNL A   1      33.586  26.538  24.653  1.00  0.00     0.086 A 
BRANCH  16  20
ATOM     20  N   UNL A   1      32.990  26.850  22.301  1.00  0.00     0.062 N 
ATOM     21  O   UNL A   1      31.910  27.453  22.300  1.00  0.00    -0.258 OA
ATOM     22  O   UNL A   1      33.830  26.905  21.388  1.00  0.00    -0.258 OA
ENDBRANCH  16  20
ENDBRANCH  11  13
ENDBRANCH   7  11
ENDBRANCH   4   7
ENDBRANCH   2   3
ENDBRANCH   1   2
BRANCH   1  23
ATOM     23  C   UNL A   1      39.353  20.634  25.225  1.00  0.00     0.023 C 
BRANCH  23  24
ATOM     24  C   UNL A   1      39.459  21.798  26.181  1.00  0.00     0.116 C 
BRANCH  24  25
ATOM     25  N   UNL A   1      40.804  22.148  26.636  1.00  0.00    -0.352 N 
ATOM     26  C   UNL A   1      41.310  23.425  26.901  1.00  0.00     0.251 C 
ATOM     27  H   UNL A   1      41.426  21.398  26.774  1.00  0.00     0.163 HD
ATOM     28  O   UNL A   1      42.442  23.604  27.246  1.00  0.00    -0.269 OA
BRANCH  26  29
ATOM     29  C   UNL A   1      40.324  24.552  26.891  1.00  0.00     0.039 A 
ATOM     30  C   UNL A   1      40.759  25.690  26.209  1.00  0.00     0.014 A 
ATOM     31  C   UNL A   1      39.398  24.644  27.925  1.00  0.00     0.014 A 
ATOM     32  C   UNL A   1      40.576  26.926  26.811  1.00  0.00     0.010 A 
ATOM     33  C   UNL A   1      39.317  25.857  28.583  1.00  0.00     0.010 A 
ATOM     34  C   UNL A   1      40.006  26.970  28.078  1.00  0.00    -0.014 A 
BRANCH  34  35
ATOM     35  C   UNL A   1      40.232  28.082  28.999  1.00  0.00     0.031 A 
ATOM     36  C   UNL A   1      39.214  29.142  29.107  1.00  0.00     0.074 A 
ATOM     37  C   UNL A   1      41.348  28.151  29.766  1.00  0.00     0.049 A 
ATOM     38  N   UNL A   1      39.453  30.309  29.599  1.00  0.00    -0.248 NA
ATOM     39  C   UNL A   1      37.859  29.008  28.576  1.00  0.00     0.031 C 
ATOM     40  C   UNL A   1      41.604  29.040  30.900  1.00  0.00     0.029 A 
ATOM     41  N   UNL A   1      42.595  27.582  29.501  1.00  0.00    -0.354 N 
ATOM     42  C   UNL A   1      38.245  30.936  29.750  1.00  0.00     0.074 A 
ATOM     43  C   UNL A   1      37.312  30.159  28.975  1.00  0.00     0.031 C 
ATOM     44  C   UNL A   1      42.930  29.164  31.072  1.00  0.00     0.029 A 
ATOM     45  C   UNL A   1      43.579  28.475  29.973  1.00  0.00     0.049 A 
ATOM     46  H   UNL A   1      42.757  26.714  29.064  1.00  0.00     0.167 HD
ATOM     47  C   UNL A   1      38.147  31.962  30.632  1.00  0.00     0.031 A 
ATOM     48  C   UNL A   1      44.472  29.043  29.110  1.00  0.00     0.031 A 
ATOM     49  C   UNL A   1      39.459  32.489  31.010  1.00  0.00     0.049 A 
ATOM     50  C   UNL A   1      44.339  30.552  28.969  1.00  0.00     0.074 A 
ATOM     51  C   UNL A   1      40.215  32.532  32.168  1.00  0.00     0.029 A 
ATOM     52  N   UNL A   1      40.311  32.884  29.988  1.00  0.00    -0.354 N 
ATOM     53  N   UNL A   1      43.477  31.289  29.616  1.00  0.00    -0.248 NA
ATOM     54  C   UNL A   1      45.106  31.329  27.991  1.00  0.00     0.031 C 
ATOM     55  C   UNL A   1      41.546  32.917  31.812  1.00  0.00     0.029 A 
ATOM     56  C   UNL A   1      41.583  33.147  30.448  1.00  0.00     0.049 A 
ATOM     57  H   UNL A   1      40.038  32.967  29.045  1.00  0.00     0.167 HD
ATOM     58  C   UNL A   1      43.490  32.560  29.103  1.00  0.00     0.074 A 
ATOM     59  C   UNL A   1      44.539  32.542  28.100  1.00  0.00     0.031 C 
ATOM     60  C   UNL A   1      42.603  33.526  29.483  1.00  0.00     0.031 A 
BRANCH  47  61
ATOM     61  C   UNL A   1      36.844  32.380  31.266  1.00  0.00    -0.014 A 
ATOM     62  C   UNL A   1      35.893  33.079  30.504  1.00  0.00     0.009 A 
ATOM     63  C   UNL A   1      36.544  32.228  32.636  1.00  0.00     0.009 A 
ATOM     64  C   UNL A   1      34.719  33.591  31.078  1.00  0.00     0.001 A 
ATOM     65  C   UNL A   1      35.357  32.700  33.207  1.00  0.00     0.001 A 
ATOM     66  C   UNL A   1      34.447  33.393  32.428  1.00  0.00     0.000 A 
ENDBRANCH  47  61
BRANCH  48  67
ATOM     67  C   UNL A   1      44.877  28.119  28.013  1.00  0.00    -0.014 A 
ATOM     68  C   UNL A   1      45.637  26.980  28.351  1.00  0.00     0.009 A 
ATOM     69  C   UNL A   1      44.226  28.145  26.772  1.00  0.00     0.009 A 
ATOM     70  C   UNL A   1      45.628  25.846  27.535  1.00  0.00     0.001 A 
ATOM     71  C   UNL A   1      44.236  27.011  25.949  1.00  0.00     0.001 A 
ATOM     72  C   UNL A   1      44.899  25.851  26.350  1.00  0.00     0.000 A 
ENDBRANCH  48  67
BRANCH  60  73
ATOM     73  C   UNL A   1      42.600  34.918  28.910  1.00  0.00    -0.014 A 
ATOM     74  C   UNL A   1      42.197  35.187  27.594  1.00  0.00     0.009 A 
ATOM     75  C   UNL A   1      43.122  35.997  29.653  1.00  0.00     0.009 A 
ATOM     76  C   UNL A   1      42.265  36.483  27.066  1.00  0.00     0.001 A 
ATOM     77  C   UNL A   1      43.214  37.286  29.121  1.00  0.00     0.001 A 
ATOM     78  C   UNL A   1      42.775  37.531  27.828  1.00  0.00     0.000 A 
ENDBRANCH  60  73
ENDBRANCH  34  35
ENDBRANCH  26  29
ENDBRANCH  24  25
ENDBRANCH  23  24
ENDBRANCH   1  23
TORSDOF 15
ENDMDL
MODEL 3
REMARK VINA RESULT:     -10.6      4.936     10.000
REMARK SMILES CC[C@@](C)(Nc1cc([N+](=O)[O-])ccc1C)C(=O)NCCCCNC(=O)c1ccc(-c2c3nc(c(-c4ccccc4)c4ccc([nH]4)c(-c4ccccc4)c4nc(c(-c5ccccc5)c5ccc2[nH]5)C=C4)C=C3)cc1
REMARK SMILES IDX 20 1 19 2 18 3 16 4 17 5 3 7 4 8 2 9 1 10 5 11 6 13 7 14
REMARK SMILES IDX 14 15 8 16 13 17 15 18 12 19 9 20 10 21 11 22 21 23 22 24
REMARK SMILES IDX 23 25 24 26 25 28 26 29 27 30 73 31 28 32 72 33 29 34 30 35
REMARK SMILES IDX 31 36 66 37 32 38 71 39 65 40 67 41 33 42 70 43 64 44 63 45
REMARK SMILES IDX 34 47 56 48 41 49 55 50 42 51 45 52 54 53 68 54 43 55 44 56
REMARK SMILES IDX 53 58 69 59 46 60 35 61 36 62 40 63 37 64 39 65 38 66 57 67
REMARK SMILES IDX 58 68 62 69 59 70 61 71 60 72 47 73 48 74 52 75 49 76 51 77
REMARK SMILES IDX 50 78
REMARK H PARENT 18 6 5 12 23 27 67 46 45 57
REMARK Flexibility Score: inf
ROOT
ATOM      1  C   UNL A   1      37.564  21.222  25.027  1.00  0.00     0.023 C 
ENDROOT
BRANCH   1   2
ATOM      2  C   UNL A   1      37.058  22.428  24.176  1.00  0.00     0.116 C 
BRANCH   2   3
ATOM      3  N   UNL A   1      36.059  23.329  24.768  1.00  0.00    -0.354 N 
ATOM      4  C   UNL A   1      34.798  23.280  25.304  1.00  0.00     0.245 C 
ATOM      5  O   UNL A   1      34.432  24.378  25.759  1.00  0.00    -0.272 OA
ATOM      6  H   UNL A   1      36.400  24.252  24.784  1.00  0.00     0.163 HD
BRANCH   4   7
ATOM      7  C   UNL A   1      33.821  22.041  25.376  1.00  0.00     0.113 C 
ATOM      8  C   UNL A   1      33.625  21.505  26.797  1.00  0.00     0.045 C 
BRANCH   7   9
ATOM      9  C   UNL A   1      32.422  22.539  24.845  1.00  0.00     0.035 C 
ATOM     10  C   UNL A   1      31.205  22.176  25.696  1.00  0.00     0.007 C 
ENDBRANCH   7   9
BRANCH   7  11
ATOM     11  N   UNL A   1      34.154  20.838  24.497  1.00  0.00    -0.371 N 
ATOM     12  H   UNL A   1      34.748  21.035  23.736  1.00  0.00     0.161 HD
BRANCH  11  13
ATOM     13  C   UNL A   1      33.759  19.514  24.595  1.00  0.00     0.045 A 
ATOM     14  C   UNL A   1      34.598  18.523  25.109  1.00  0.00     0.111 A 
ATOM     15  C   UNL A   1      32.601  19.009  24.018  1.00  0.00    -0.027 A 
ATOM     16  C   UNL A   1      34.171  17.171  25.156  1.00  0.00     0.271 A 
ATOM     17  C   UNL A   1      32.041  17.758  24.319  1.00  0.00     0.012 A 
ATOM     18  C   UNL A   1      32.177  19.543  22.703  1.00  0.00     0.046 C 
ATOM     19  C   UNL A   1      32.853  16.807  24.880  1.00  0.00     0.086 A 
BRANCH  16  20
ATOM     20  N   UNL A   1      35.154  16.098  25.313  1.00  0.00     0.062 N 
ATOM     21  O   UNL A   1      34.761  14.932  25.185  1.00  0.00    -0.258 OA
ATOM     22  O   UNL A   1      36.312  16.423  25.619  1.00  0.00    -0.258 OA
ENDBRANCH  16  20
ENDBRANCH  11  13
ENDBRANCH   7  11
ENDBRANCH   4   7
ENDBRANCH   2   3
ENDBRANCH   1   2
BRANCH   1  23
ATOM     23  C   UNL A   1      38.996  21.292  25.585  1.00  0.00     0.023 C 
BRANCH  23  24
ATOM     24  C   UNL A   1      39.301  22.370  26.598  1.00  0.00     0.116 C 
BRANCH  24  25
ATOM     25  N   UNL A   1      40.709  22.730  26.763  1.00  0.00    -0.352 N 
ATOM     26  C   UNL A   1      41.267  24.012  26.762  1.00  0.00     0.251 C 
ATOM     27  H   UNL A   1      41.337  21.983  26.892  1.00  0.00     0.163 HD
ATOM     28  O   UNL A   1      42.444  24.195  26.880  1.00  0.00    -0.269 OA
BRANCH  26  29
ATOM     29  C   UNL A   1      40.308  25.161  26.770  1.00  0.00     0.039 A 
ATOM     30  C   UNL A   1      40.768  26.298  26.103  1.00  0.00     0.014 A 
ATOM     31  C   UNL A   1      39.386  25.260  27.807  1.00  0.00     0.014 A 
ATOM     32  C   UNL A   1      40.614  27.530  26.722  1.00  0.00     0.010 A 
ATOM     33  C   UNL A   1      39.335  26.466  28.482  1.00  0.00     0.010 A 
ATOM     34  C   UNL A   1      40.048  27.569  27.991  1.00  0.00    -0.014 A 
BRANCH  34  35
ATOM     35  C   UNL A   1      40.301  28.663  28.927  1.00  0.00     0.031 A 
ATOM     36  C   UNL A   1      39.299  29.735  29.065  1.00  0.00     0.074 A 
ATOM     37  C   UNL A   1      41.428  28.704  29.680  1.00  0.00     0.049 A 
ATOM     38  N   UNL A   1      39.560  30.890  29.573  1.00  0.00    -0.248 NA
ATOM     39  C   UNL A   1      37.936  29.628  28.550  1.00  0.00     0.031 C 
ATOM     40  C   UNL A   1      41.710  29.571  30.825  1.00  0.00     0.029 A 
ATOM     41  N   UNL A   1      42.662  28.122  29.390  1.00  0.00    -0.354 N 
ATOM     42  C   UNL A   1      38.363  31.531  29.750  1.00  0.00     0.074 A 
ATOM     43  C   UNL A   1      37.410  30.779  28.974  1.00  0.00     0.031 C 
ATOM     44  C   UNL A   1      43.040  29.674  30.982  1.00  0.00     0.029 A 
ATOM     45  C   UNL A   1      43.665  28.994  29.863  1.00  0.00     0.049 A 
ATOM     46  H   UNL A   1      42.807  27.260  28.937  1.00  0.00     0.167 HD
ATOM     47  C   UNL A   1      38.291  32.544  30.650  1.00  0.00     0.031 A 
ATOM     48  C   UNL A   1      44.555  29.564  28.998  1.00  0.00     0.031 A 
ATOM     49  C   UNL A   1      39.615  33.047  31.019  1.00  0.00     0.049 A 
ATOM     50  C   UNL A   1      44.441  31.077  28.884  1.00  0.00     0.074 A 
ATOM     51  C   UNL A   1      40.386  33.061  32.167  1.00  0.00     0.029 A 
ATOM     52  N   UNL A   1      40.459  33.446  29.992  1.00  0.00    -0.354 N 
ATOM     53  N   UNL A   1      43.597  31.815  29.553  1.00  0.00    -0.248 NA
ATOM     54  C   UNL A   1      45.205  31.859  27.909  1.00  0.00     0.031 C 
ATOM     55  C   UNL A   1      41.717  33.433  31.800  1.00  0.00     0.029 A 
ATOM     56  C   UNL A   1      41.740  33.684  30.440  1.00  0.00     0.049 A 
ATOM     57  H   UNL A   1      40.175  33.549  29.055  1.00  0.00     0.167 HD
ATOM     58  C   UNL A   1      43.621  33.094  29.061  1.00  0.00     0.074 A 
ATOM     59  C   UNL A   1      44.658  33.078  28.044  1.00  0.00     0.031 C 
ATOM     60  C   UNL A   1      42.753  34.065  29.468  1.00  0.00     0.031 A 
BRANCH  47  61
ATOM     61  C   UNL A   1      37.001  32.969  31.307  1.00  0.00    -0.014 A 
ATOM     62  C   UNL A   1      36.644  32.429  32.553  1.00  0.00     0.009 A 
ATOM     63  C   UNL A   1      36.037  33.799  30.697  1.00  0.00     0.009 A 
ATOM     64  C   UNL A   1      35.403  32.703  33.148  1.00  0.00     0.001 A 
ATOM     65  C   UNL A   1      34.815  34.110  31.302  1.00  0.00     0.001 A 
ATOM     66  C   UNL A   1      34.492  33.552  32.526  1.00  0.00     0.000 A 
ENDBRANCH  47  61
BRANCH  48  67
ATOM     67  C   UNL A   1      44.933  28.652  27.881  1.00  0.00    -0.014 A 
ATOM     68  C   UNL A   1      45.736  27.533  28.181  1.00  0.00     0.009 A 
ATOM     69  C   UNL A   1      44.226  28.664  26.672  1.00  0.00     0.009 A 
ATOM     70  C   UNL A   1      45.719  26.400  27.364  1.00  0.00     0.001 A 
ATOM     71  C   UNL A   1      44.227  27.532  25.846  1.00  0.00     0.001 A 
ATOM     72  C   UNL A   1      44.937  26.389  26.213  1.00  0.00     0.000 A 
ENDBRANCH  48  67
BRANCH  60  73
ATOM     73  C   UNL A   1      42.762  35.467  28.918  1.00  0.00    -0.014 A 
ATOM     74  C   UNL A   1      43.386  36.531  29.585  1.00  0.00     0.009 A 
ATOM     75  C   UNL A   1      42.030  35.781  27.754  1.00  0.00     0.009 A 
ATOM     76  C   UNL A   1      43.323  37.837  29.082  1.00  0.00     0.001 A 
ATOM     77  C   UNL A   1      41.945  37.087  27.263  1.00  0.00     0.001 A 
ATOM     78  C   UNL A   1      42.602  38.115  27.924  1.00  0.00     0.000 A 
ENDBRANCH  60  73
ENDBRANCH  34  35
ENDBRANCH  26  29
ENDBRANCH  24  25
ENDBRANCH  23  24
ENDBRANCH   1  23
TORSDOF 15
ENDMDL
