MODEL 1
REMARK VINA RESULT:     -10.1      0.000      0.000
REMARK SMILES CCN(CCC(=O)NCCCCNC(=O)c1ccc(-c2c3nc(c(-c4ccccc4)c4ccc([nH]4)c(-c4ccccc4)c4nc(c(-c5ccccc5)c5ccc2[nH]5)C=C4)C=C3)cc1)C(=O)c1cc(Cl)ccc1F
REMARK SMILES IDX 9 1 8 2 6 3 7 4 5 6 4 7 3 8 2 9 1 10 64 11 65 12 66 13 67 14
REMARK SMILES IDX 72 15 68 16 71 17 73 18 69 19 70 20 10 21 11 22 12 23 13 24
REMARK SMILES IDX 14 25 15 27 16 28 17 29 63 30 18 31 62 32 19 33 20 34 21 35
REMARK SMILES IDX 56 36 22 37 61 38 55 39 57 40 23 41 60 42 54 43 53 44 24 46
REMARK SMILES IDX 46 47 31 48 45 49 32 50 35 51 44 52 58 53 33 54 34 55 43 57
REMARK SMILES IDX 59 58 36 59 25 60 26 61 30 62 27 63 29 64 28 65 47 66 48 67
REMARK SMILES IDX 52 68 49 69 51 70 50 71 37 72 38 73 42 74 39 75 41 76 40 77
REMARK H PARENT 8 5 13 26 57 45 35 56
REMARK Flexibility Score: inf
ROOT
ATOM      1  C   UNL A   1      32.955  26.288  26.091  1.00  0.00     0.116 C 
ENDROOT
BRANCH   1   2
ATOM      2  N   UNL A   1      31.541  26.145  26.379  1.00  0.00    -0.356 N 
ATOM      3  C   UNL A   1      30.698  25.115  26.084  1.00  0.00     0.221 C 
ATOM      4  O   UNL A   1      29.540  25.174  26.498  1.00  0.00    -0.275 OA
ATOM      5  H   UNL A   1      31.130  26.902  26.856  1.00  0.00     0.163 HD
BRANCH   3   6
ATOM      6  C   UNL A   1      31.185  23.926  25.288  1.00  0.00     0.121 C 
BRANCH   6   7
ATOM      7  C   UNL A   1      30.914  24.018  23.790  1.00  0.00     0.129 C 
BRANCH   7   8
ATOM      8  N   UNL A   1      32.036  24.425  22.934  1.00  0.00    -0.338 N 
BRANCH   8   9
ATOM      9  C   UNL A   1      31.985  25.851  22.532  1.00  0.00     0.116 C 
ATOM     10  C   UNL A   1      30.703  26.654  22.681  1.00  0.00     0.027 C 
ENDBRANCH   8   9
BRANCH   8  11
ATOM     11  C   UNL A   1      33.153  23.612  22.639  1.00  0.00     0.256 C 
ATOM     12  O   UNL A   1      33.454  23.316  21.481  1.00  0.00    -0.269 OA
BRANCH  11  13
ATOM     13  C   UNL A   1      33.875  22.821  23.692  1.00  0.00     0.077 A 
ATOM     14  C   UNL A   1      34.891  23.519  24.381  1.00  0.00     0.037 A 
ATOM     15  C   UNL A   1      33.655  21.498  24.061  1.00  0.00     0.136 A 
ATOM     16  C   UNL A   1      35.719  22.873  25.304  1.00  0.00     0.042 A 
ATOM     17  C   UNL A   1      34.514  20.836  24.946  1.00  0.00     0.041 A 
ATOM     18  F   UNL A   1      32.585  20.811  23.654  1.00  0.00    -0.206 F 
ATOM     19  Cl  UNL A   1      36.966  23.749  26.104  1.00  0.00    -0.084 Cl
ATOM     20  C   UNL A   1      35.561  21.518  25.560  1.00  0.00     0.023 A 
ENDBRANCH  11  13
ENDBRANCH   8  11
ENDBRANCH   7   8
ENDBRANCH   6   7
ENDBRANCH   3   6
ENDBRANCH   1   2
BRANCH   1  21
ATOM     21  C   UNL A   1      33.245  27.504  25.225  1.00  0.00     0.023 C 
BRANCH  21  22
ATOM     22  C   UNL A   1      33.954  28.647  25.934  1.00  0.00     0.023 C 
BRANCH  22  23
ATOM     23  C   UNL A   1      33.564  28.816  27.387  1.00  0.00     0.116 C 
BRANCH  23  24
ATOM     24  N   UNL A   1      33.634  30.194  27.850  1.00  0.00    -0.352 N 
ATOM     25  C   UNL A   1      34.686  30.878  28.412  1.00  0.00     0.251 C 
ATOM     26  H   UNL A   1      32.803  30.714  27.747  1.00  0.00     0.163 HD
ATOM     27  O   UNL A   1      34.530  32.012  28.832  1.00  0.00    -0.269 OA
BRANCH  25  28
ATOM     28  C   UNL A   1      35.997  30.204  28.538  1.00  0.00     0.039 A 
ATOM     29  C   UNL A   1      36.872  30.220  27.450  1.00  0.00     0.014 A 
ATOM     30  C   UNL A   1      36.379  29.608  29.739  1.00  0.00     0.014 A 
ATOM     31  C   UNL A   1      38.160  29.707  27.599  1.00  0.00     0.010 A 
ATOM     32  C   UNL A   1      37.696  29.220  29.924  1.00  0.00     0.010 A 
ATOM     33  C   UNL A   1      38.597  29.245  28.851  1.00  0.00    -0.014 A 
BRANCH  33  34
ATOM     34  C   UNL A   1      39.978  28.746  29.062  1.00  0.00     0.031 A 
ATOM     35  C   UNL A   1      41.023  29.672  29.624  1.00  0.00     0.074 A 
ATOM     36  C   UNL A   1      40.308  27.496  28.682  1.00  0.00     0.049 A 
ATOM     37  N   UNL A   1      42.306  29.469  29.786  1.00  0.00    -0.248 NA
ATOM     38  C   UNL A   1      40.578  31.022  30.015  1.00  0.00     0.031 C 
ATOM     39  C   UNL A   1      39.401  26.524  28.067  1.00  0.00     0.029 A 
ATOM     40  N   UNL A   1      41.507  26.834  28.750  1.00  0.00    -0.354 N 
ATOM     41  C   UNL A   1      42.817  30.668  30.270  1.00  0.00     0.074 A 
ATOM     42  C   UNL A   1      41.725  31.613  30.306  1.00  0.00     0.031 C 
ATOM     43  C   UNL A   1      40.068  25.378  27.849  1.00  0.00     0.029 A 
ATOM     44  C   UNL A   1      41.455  25.549  28.266  1.00  0.00     0.049 A 
ATOM     45  H   UNL A   1      42.327  27.240  29.114  1.00  0.00     0.167 HD
ATOM     46  C   UNL A   1      44.074  30.949  30.684  1.00  0.00     0.031 A 
ATOM     47  C   UNL A   1      42.420  24.616  28.164  1.00  0.00     0.031 A 
ATOM     48  C   UNL A   1      45.150  29.998  30.680  1.00  0.00     0.049 A 
ATOM     49  C   UNL A   1      43.805  24.947  28.649  1.00  0.00     0.074 A 
ATOM     50  C   UNL A   1      46.449  30.165  31.125  1.00  0.00     0.029 A 
ATOM     51  N   UNL A   1      45.045  28.695  30.220  1.00  0.00    -0.354 N 
ATOM     52  N   UNL A   1      44.257  26.067  29.159  1.00  0.00    -0.248 NA
ATOM     53  C   UNL A   1      44.810  23.878  28.558  1.00  0.00     0.031 C 
ATOM     54  C   UNL A   1      47.141  28.971  30.899  1.00  0.00     0.029 A 
ATOM     55  C   UNL A   1      46.258  28.047  30.362  1.00  0.00     0.049 A 
ATOM     56  H   UNL A   1      44.227  28.292  29.846  1.00  0.00     0.167 HD
ATOM     57  C   UNL A   1      45.589  25.830  29.473  1.00  0.00     0.074 A 
ATOM     58  C   UNL A   1      45.865  24.454  29.116  1.00  0.00     0.031 C 
ATOM     59  C   UNL A   1      46.505  26.675  30.006  1.00  0.00     0.031 A 
BRANCH  46  60
ATOM     60  C   UNL A   1      44.337  32.338  31.194  1.00  0.00    -0.014 A 
ATOM     61  C   UNL A   1      43.950  32.719  32.489  1.00  0.00     0.009 A 
ATOM     62  C   UNL A   1      44.995  33.273  30.380  1.00  0.00     0.009 A 
ATOM     63  C   UNL A   1      44.182  34.018  32.946  1.00  0.00     0.001 A 
ATOM     64  C   UNL A   1      45.255  34.562  30.851  1.00  0.00     0.001 A 
ATOM     65  C   UNL A   1      44.839  34.936  32.128  1.00  0.00     0.000 A 
ENDBRANCH  46  60
BRANCH  47  66
ATOM     66  C   UNL A   1      42.113  23.277  27.597  1.00  0.00    -0.014 A 
ATOM     67  C   UNL A   1      42.438  22.974  26.265  1.00  0.00     0.009 A 
ATOM     68  C   UNL A   1      41.478  22.300  28.378  1.00  0.00     0.009 A 
ATOM     69  C   UNL A   1      42.102  21.734  25.718  1.00  0.00     0.001 A 
ATOM     70  C   UNL A   1      41.171  21.049  27.837  1.00  0.00     0.001 A 
ATOM     71  C   UNL A   1      41.472  20.771  26.504  1.00  0.00     0.000 A 
ENDBRANCH  47  66
BRANCH  59  72
ATOM     72  C   UNL A   1      47.875  26.122  30.270  1.00  0.00    -0.014 A 
ATOM     73  C   UNL A   1      48.846  26.068  29.258  1.00  0.00     0.009 A 
ATOM     74  C   UNL A   1      48.213  25.693  31.563  1.00  0.00     0.009 A 
ATOM     75  C   UNL A   1      50.119  25.561  29.530  1.00  0.00     0.001 A 
ATOM     76  C   UNL A   1      49.494  25.217  31.838  1.00  0.00     0.001 A 
ATOM     77  C   UNL A   1      50.442  25.142  30.820  1.00  0.00     0.000 A 
ENDBRANCH  59  72
ENDBRANCH  33  34
ENDBRANCH  25  28
ENDBRANCH  23  24
ENDBRANCH  22  23
ENDBRANCH  21  22
ENDBRANCH   1  21
TORSDOF 16
ENDMDL
MODEL 2
REMARK VINA RESULT:      -9.9      2.730      7.657
REMARK SMILES CCN(CCC(=O)NCCCCNC(=O)c1ccc(-c2c3nc(c(-c4ccccc4)c4ccc([nH]4)c(-c4ccccc4)c4nc(c(-c5ccccc5)c5ccc2[nH]5)C=C4)C=C3)cc1)C(=O)c1cc(Cl)ccc1F
REMARK SMILES IDX 9 1 8 2 6 3 7 4 5 6 4 7 3 8 2 9 1 10 64 11 65 12 66 13 67 14
REMARK SMILES IDX 72 15 68 16 71 17 73 18 69 19 70 20 10 21 11 22 12 23 13 24
REMARK SMILES IDX 14 25 15 27 16 28 17 29 63 30 18 31 62 32 19 33 20 34 21 35
REMARK SMILES IDX 56 36 22 37 61 38 55 39 57 40 23 41 60 42 54 43 53 44 24 46
REMARK SMILES IDX 46 47 31 48 45 49 32 50 35 51 44 52 58 53 33 54 34 55 43 57
REMARK SMILES IDX 59 58 36 59 25 60 26 61 30 62 27 63 29 64 28 65 47 66 48 67
REMARK SMILES IDX 52 68 49 69 51 70 50 71 37 72 38 73 42 74 39 75 41 76 40 77
REMARK H PARENT 8 5 13 26 57 45 35 56
REMARK Flexibility Score: inf
ROOT
ATOM      1  C   UNL A   1      35.812  20.906  24.908  1.00  0.00     0.116 C 
ENDROOT
BRANCH   1   2
ATOM      2  N   UNL A   1      35.191  19.599  25.007  1.00  0.00    -0.356 N 
ATOM      3  C   UNL A   1      33.928  19.214  24.666  1.00  0.00     0.221 C 
ATOM      4  O   UNL A   1      33.638  18.022  24.765  1.00  0.00    -0.275 OA
ATOM      5  H   UNL A   1      35.764  18.887  25.375  1.00  0.00     0.163 HD
BRANCH   3   6
ATOM      6  C   UNL A   1      32.926  20.225  24.162  1.00  0.00     0.121 C 
BRANCH   6   7
ATOM      7  C   UNL A   1      32.602  21.338  25.153  1.00  0.00     0.129 C 
BRANCH   7   8
ATOM      8  N   UNL A   1      33.005  22.700  24.780  1.00  0.00    -0.338 N 
BRANCH   8   9
ATOM      9  C   UNL A   1      32.810  23.000  23.341  1.00  0.00     0.116 C 
ATOM     10  C   UNL A   1      33.735  23.966  22.617  1.00  0.00     0.027 C 
ENDBRANCH   8   9
BRANCH   8  11
ATOM     11  C   UNL A   1      33.390  23.701  25.699  1.00  0.00     0.256 C 
ATOM     12  O   UNL A   1      34.228  23.489  26.578  1.00  0.00    -0.269 OA
BRANCH  11  13
ATOM     13  C   UNL A   1      32.623  24.981  25.865  1.00  0.00     0.077 A 
ATOM     14  C   UNL A   1      33.407  26.127  26.127  1.00  0.00     0.037 A 
ATOM     15  C   UNL A   1      31.246  25.162  25.788  1.00  0.00     0.136 A 
ATOM     16  C   UNL A   1      32.817  27.360  26.417  1.00  0.00     0.042 A 
ATOM     17  C   UNL A   1      30.651  26.383  26.128  1.00  0.00     0.041 A 
ATOM     18  F   UNL A   1      30.426  24.217  25.323  1.00  0.00    -0.206 F 
ATOM     19  Cl  UNL A   1      33.803  28.727  26.760  1.00  0.00    -0.084 Cl
ATOM     20  C   UNL A   1      31.435  27.484  26.460  1.00  0.00     0.023 A 
ENDBRANCH  11  13
ENDBRANCH   8  11
ENDBRANCH   7   8
ENDBRANCH   6   7
ENDBRANCH   3   6
ENDBRANCH   1   2
BRANCH   1  21
ATOM     21  C   UNL A   1      37.267  20.819  24.472  1.00  0.00     0.023 C 
BRANCH  21  22
ATOM     22  C   UNL A   1      38.027  19.613  25.001  1.00  0.00     0.023 C 
BRANCH  22  23
ATOM     23  C   UNL A   1      39.205  19.959  25.885  1.00  0.00     0.116 C 
BRANCH  23  24
ATOM     24  N   UNL A   1      40.264  18.960  25.858  1.00  0.00    -0.352 N 
ATOM     25  C   UNL A   1      41.619  19.113  26.037  1.00  0.00     0.251 C 
ATOM     26  H   UNL A   1      39.966  18.037  25.685  1.00  0.00     0.163 HD
ATOM     27  O   UNL A   1      42.372  18.167  25.882  1.00  0.00    -0.269 OA
BRANCH  25  28
ATOM     28  C   UNL A   1      42.154  20.450  26.377  1.00  0.00     0.039 A 
ATOM     29  C   UNL A   1      42.498  21.322  25.342  1.00  0.00     0.014 A 
ATOM     30  C   UNL A   1      42.263  20.857  27.706  1.00  0.00     0.014 A 
ATOM     31  C   UNL A   1      42.877  22.630  25.645  1.00  0.00     0.010 A 
ATOM     32  C   UNL A   1      42.511  22.189  27.997  1.00  0.00     0.010 A 
ATOM     33  C   UNL A   1      42.841  23.086  26.972  1.00  0.00    -0.014 A 
BRANCH  33  34
ATOM     34  C   UNL A   1      43.179  24.486  27.327  1.00  0.00     0.031 A 
ATOM     35  C   UNL A   1      44.617  24.931  27.304  1.00  0.00     0.074 A 
ATOM     36  C   UNL A   1      42.212  25.329  27.740  1.00  0.00     0.049 A 
ATOM     37  N   UNL A   1      45.136  26.072  27.680  1.00  0.00    -0.248 NA
ATOM     38  C   UNL A   1      45.611  23.947  26.839  1.00  0.00     0.031 C 
ATOM     39  C   UNL A   1      40.790  25.000  27.867  1.00  0.00     0.029 A 
ATOM     40  N   UNL A   1      42.286  26.639  28.139  1.00  0.00    -0.354 N 
ATOM     41  C   UNL A   1      46.509  25.931  27.519  1.00  0.00     0.074 A 
ATOM     42  C   UNL A   1      46.750  24.574  27.086  1.00  0.00     0.031 C 
ATOM     43  C   UNL A   1      40.121  26.091  28.278  1.00  0.00     0.029 A 
ATOM     44  C   UNL A   1      41.070  27.178  28.486  1.00  0.00     0.049 A 
ATOM     45  H   UNL A   1      43.129  27.146  28.173  1.00  0.00     0.167 HD
ATOM     46  C   UNL A   1      47.483  26.856  27.682  1.00  0.00     0.031 A 
ATOM     47  C   UNL A   1      40.758  28.411  28.927  1.00  0.00     0.031 A 
ATOM     48  C   UNL A   1      47.238  28.214  28.080  1.00  0.00     0.049 A 
ATOM     49  C   UNL A   1      41.855  29.428  29.082  1.00  0.00     0.074 A 
ATOM     50  C   UNL A   1      48.147  29.246  28.226  1.00  0.00     0.029 A 
ATOM     51  N   UNL A   1      45.987  28.731  28.381  1.00  0.00    -0.354 N 
ATOM     52  N   UNL A   1      43.142  29.295  28.869  1.00  0.00    -0.248 NA
ATOM     53  C   UNL A   1      41.454  30.772  29.523  1.00  0.00     0.031 C 
ATOM     54  C   UNL A   1      47.449  30.381  28.653  1.00  0.00     0.029 A 
ATOM     55  C   UNL A   1      46.100  30.067  28.721  1.00  0.00     0.049 A 
ATOM     56  H   UNL A   1      45.145  28.222  28.358  1.00  0.00     0.167 HD
ATOM     57  C   UNL A   1      43.700  30.540  29.126  1.00  0.00     0.074 A 
ATOM     58  C   UNL A   1      42.608  31.421  29.488  1.00  0.00     0.031 C 
ATOM     59  C   UNL A   1      44.998  30.923  29.070  1.00  0.00     0.031 A 
BRANCH  46  60
ATOM     60  C   UNL A   1      48.895  26.426  27.407  1.00  0.00    -0.014 A 
ATOM     61  C   UNL A   1      49.726  25.965  28.441  1.00  0.00     0.009 A 
ATOM     62  C   UNL A   1      49.400  26.460  26.097  1.00  0.00     0.009 A 
ATOM     63  C   UNL A   1      51.044  25.585  28.179  1.00  0.00     0.001 A 
ATOM     64  C   UNL A   1      50.708  26.050  25.831  1.00  0.00     0.001 A 
ATOM     65  C   UNL A   1      51.531  25.623  26.873  1.00  0.00     0.000 A 
ENDBRANCH  46  60
BRANCH  47  66
ATOM     66  C   UNL A   1      39.347  28.761  29.240  1.00  0.00    -0.014 A 
ATOM     67  C   UNL A   1      38.507  29.294  28.250  1.00  0.00     0.009 A 
ATOM     68  C   UNL A   1      38.837  28.579  30.535  1.00  0.00     0.009 A 
ATOM     69  C   UNL A   1      37.198  29.670  28.559  1.00  0.00     0.001 A 
ATOM     70  C   UNL A   1      37.517  28.927  30.833  1.00  0.00     0.001 A 
ATOM     71  C   UNL A   1      36.703  29.483  29.848  1.00  0.00     0.000 A 
ENDBRANCH  47  66
BRANCH  59  72
ATOM     72  C   UNL A   1      45.302  32.363  29.370  1.00  0.00    -0.014 A 
ATOM     73  C   UNL A   1      45.631  32.782  30.668  1.00  0.00     0.009 A 
ATOM     74  C   UNL A   1      45.304  33.303  28.327  1.00  0.00     0.009 A 
ATOM     75  C   UNL A   1      45.922  34.125  30.921  1.00  0.00     0.001 A 
ATOM     76  C   UNL A   1      45.625  34.636  28.578  1.00  0.00     0.001 A 
ATOM     77  C   UNL A   1      45.924  35.048  29.875  1.00  0.00     0.000 A 
ENDBRANCH  59  72
ENDBRANCH  33  34
ENDBRANCH  25  28
ENDBRANCH  23  24
ENDBRANCH  22  23
ENDBRANCH  21  22
ENDBRANCH   1  21
TORSDOF 16
ENDMDL
MODEL 3
REMARK VINA RESULT:      -9.7      5.236      8.277
REMARK SMILES CCN(CCC(=O)NCCCCNC(=O)c1ccc(-c2c3nc(c(-c4ccccc4)c4ccc([nH]4)c(-c4ccccc4)c4nc(c(-c5ccccc5)c5ccc2[nH]5)C=C4)C=C3)cc1)C(=O)c1cc(Cl)ccc1F
REMARK SMILES IDX 9 1 8 2 6 3 7 4 5 6 4 7 3 8 2 9 1 10 64 11 65 12 66 13 67 14
REMARK SMILES IDX 72 15 68 16 71 17 73 18 69 19 70 20 10 21 11 22 12 23 13 24
REMARK SMILES IDX 14 25 15 27 16 28 17 29 63 30 18 31 62 32 19 33 20 34 21 35
REMARK SMILES IDX 56 36 22 37 61 38 55 39 57 40 23 41 60 42 54 43 53 44 24 46
REMARK SMILES IDX 46 47 31 48 45 49 32 50 35 51 44 52 58 53 33 54 34 55 43 57
REMARK SMILES IDX 59 58 36 59 25 60 26 61 30 62 27 63 29 64 28 65 47 66 48 67
REMARK SMILES IDX 52 68 49 69 51 70 50 71 37 72 38 73 42 74 39 75 41 76 40 77
REMARK H PARENT 8 5 13 26 57 45 35 56
REMARK Flexibility Score: inf
ROOT
ATOM      1  C   UNL A   1      34.462  34.699  33.214  1.00  0.00     0.116 C 
ENDROOT
BRANCH   1   2
ATOM      2  N   UNL A   1      35.775  35.053  33.719  1.00  0.00    -0.356 N 
ATOM      3  C   UNL A   1      36.760  34.247  34.208  1.00  0.00     0.221 C 
ATOM      4  O   UNL A   1      37.836  34.761  34.512  1.00  0.00    -0.275 OA
ATOM      5  H   UNL A   1      35.986  36.015  33.707  1.00  0.00     0.163 HD
BRANCH   3   6
ATOM      6  C   UNL A   1      36.535  32.759  34.351  1.00  0.00     0.121 C 
BRANCH   6   7
ATOM      7  C   UNL A   1      37.458  31.899  33.493  1.00  0.00     0.129 C 
BRANCH   7   8
ATOM      8  N   UNL A   1      38.411  31.034  34.203  1.00  0.00    -0.338 N 
BRANCH   8   9
ATOM      9  C   UNL A   1      38.113  30.890  35.648  1.00  0.00     0.116 C 
ATOM     10  C   UNL A   1      38.639  31.902  36.654  1.00  0.00     0.027 C 
ENDBRANCH   8   9
BRANCH   8  11
ATOM     11  C   UNL A   1      39.420  30.271  33.575  1.00  0.00     0.256 C 
ATOM     12  O   UNL A   1      39.187  29.570  32.588  1.00  0.00    -0.269 OA
BRANCH  11  13
ATOM     13  C   UNL A   1      40.758  30.027  34.210  1.00  0.00     0.077 A 
ATOM     14  C   UNL A   1      41.339  31.147  34.846  1.00  0.00     0.037 A 
ATOM     15  C   UNL A   1      41.478  28.838  34.245  1.00  0.00     0.136 A 
ATOM     16  C   UNL A   1      42.631  31.093  35.377  1.00  0.00     0.042 A 
ATOM     17  C   UNL A   1      42.791  28.794  34.730  1.00  0.00     0.041 A 
ATOM     18  F   UNL A   1      40.943  27.668  33.888  1.00  0.00    -0.206 F 
ATOM     19  Cl  UNL A   1      43.317  32.485  36.119  1.00  0.00    -0.084 Cl
ATOM     20  C   UNL A   1      43.379  29.927  35.284  1.00  0.00     0.023 A 
ENDBRANCH  11  13
ENDBRANCH   8  11
ENDBRANCH   7   8
ENDBRANCH   6   7
ENDBRANCH   3   6
ENDBRANCH   1   2
BRANCH   1  21
ATOM     21  C   UNL A   1      33.633  35.925  32.863  1.00  0.00     0.023 C 
BRANCH  21  22
ATOM     22  C   UNL A   1      32.628  35.724  31.740  1.00  0.00     0.023 C 
BRANCH  22  23
ATOM     23  C   UNL A   1      33.125  36.154  30.376  1.00  0.00     0.116 C 
BRANCH  23  24
ATOM     24  N   UNL A   1      32.608  35.339  29.287  1.00  0.00    -0.352 N 
ATOM     25  C   UNL A   1      33.201  34.297  28.612  1.00  0.00     0.251 C 
ATOM     26  H   UNL A   1      31.697  35.567  28.988  1.00  0.00     0.163 HD
ATOM     27  O   UNL A   1      32.647  33.790  27.652  1.00  0.00    -0.269 OA
BRANCH  25  28
ATOM     28  C   UNL A   1      34.539  33.832  29.039  1.00  0.00     0.039 A 
ATOM     29  C   UNL A   1      34.636  32.975  30.138  1.00  0.00     0.014 A 
ATOM     30  C   UNL A   1      35.681  34.197  28.328  1.00  0.00     0.014 A 
ATOM     31  C   UNL A   1      35.873  32.423  30.469  1.00  0.00     0.010 A 
ATOM     32  C   UNL A   1      36.880  33.548  28.577  1.00  0.00     0.010 A 
ATOM     33  C   UNL A   1      36.996  32.670  29.663  1.00  0.00    -0.014 A 
BRANCH  33  34
ATOM     34  C   UNL A   1      38.315  32.054  29.949  1.00  0.00     0.031 A 
ATOM     35  C   UNL A   1      39.343  32.831  30.728  1.00  0.00     0.074 A 
ATOM     36  C   UNL A   1      38.614  30.839  29.448  1.00  0.00     0.049 A 
ATOM     37  N   UNL A   1      40.587  32.521  30.993  1.00  0.00    -0.248 NA
ATOM     38  C   UNL A   1      38.933  34.151  31.241  1.00  0.00     0.031 C 
ATOM     39  C   UNL A   1      37.727  30.013  28.625  1.00  0.00     0.029 A 
ATOM     40  N   UNL A   1      39.759  30.092  29.555  1.00  0.00    -0.354 N 
ATOM     41  C   UNL A   1      41.107  33.614  31.676  1.00  0.00     0.074 A 
ATOM     42  C   UNL A   1      40.073  34.622  31.720  1.00  0.00     0.031 C 
ATOM     43  C   UNL A   1      38.348  28.858  28.332  1.00  0.00     0.029 A 
ATOM     44  C   UNL A   1      39.688  28.882  28.907  1.00  0.00     0.049 A 
ATOM     45  H   UNL A   1      40.556  30.392  30.049  1.00  0.00     0.167 HD
ATOM     46  C   UNL A   1      42.325  33.755  32.249  1.00  0.00     0.031 A 
ATOM     47  C   UNL A   1      40.605  27.903  28.788  1.00  0.00     0.031 A 
ATOM     48  C   UNL A   1      43.339  32.739  32.234  1.00  0.00     0.049 A 
ATOM     49  C   UNL A   1      41.944  28.075  29.449  1.00  0.00     0.074 A 
ATOM     50  C   UNL A   1      44.588  32.760  32.827  1.00  0.00     0.029 A 
ATOM     51  N   UNL A   1      43.212  31.511  31.603  1.00  0.00    -0.354 N 
ATOM     52  N   UNL A   1      42.400  29.092  30.142  1.00  0.00    -0.248 NA
ATOM     53  C   UNL A   1      42.891  26.958  29.327  1.00  0.00     0.031 C 
ATOM     54  C   UNL A   1      45.233  31.557  32.523  1.00  0.00     0.029 A 
ATOM     55  C   UNL A   1      44.364  30.768  31.785  1.00  0.00     0.049 A 
ATOM     56  H   UNL A   1      42.420  31.214  31.100  1.00  0.00     0.167 HD
ATOM     57  C   UNL A   1      43.673  28.727  30.558  1.00  0.00     0.074 A 
ATOM     58  C   UNL A   1      43.909  27.387  30.058  1.00  0.00     0.031 C 
ATOM     59  C   UNL A   1      44.571  29.435  31.285  1.00  0.00     0.031 A 
BRANCH  46  60
ATOM     60  C   UNL A   1      42.607  35.051  32.956  1.00  0.00    -0.014 A 
ATOM     61  C   UNL A   1      42.162  35.271  34.269  1.00  0.00     0.009 A 
ATOM     62  C   UNL A   1      43.344  36.057  32.312  1.00  0.00     0.009 A 
ATOM     63  C   UNL A   1      42.414  36.486  34.910  1.00  0.00     0.001 A 
ATOM     64  C   UNL A   1      43.622  37.259  32.966  1.00  0.00     0.001 A 
ATOM     65  C   UNL A   1      43.148  37.476  34.259  1.00  0.00     0.000 A 
ENDBRANCH  46  60
BRANCH  47  66
ATOM     66  C   UNL A   1      40.287  26.667  28.025  1.00  0.00    -0.014 A 
ATOM     67  C   UNL A   1      40.739  26.504  26.707  1.00  0.00     0.009 A 
ATOM     68  C   UNL A   1      39.515  25.649  28.606  1.00  0.00     0.009 A 
ATOM     69  C   UNL A   1      40.396  25.365  25.975  1.00  0.00     0.001 A 
ATOM     70  C   UNL A   1      39.199  24.497  27.882  1.00  0.00     0.001 A 
ATOM     71  C   UNL A   1      39.630  24.362  26.563  1.00  0.00     0.000 A 
ENDBRANCH  47  66
BRANCH  59  72
ATOM     72  C   UNL A   1      45.871  28.760  31.615  1.00  0.00    -0.014 A 
ATOM     73  C   UNL A   1      46.013  27.978  32.772  1.00  0.00     0.009 A 
ATOM     74  C   UNL A   1      46.954  28.872  30.729  1.00  0.00     0.009 A 
ATOM     75  C   UNL A   1      47.229  27.350  33.051  1.00  0.00     0.001 A 
ATOM     76  C   UNL A   1      48.156  28.219  30.995  1.00  0.00     0.001 A 
ATOM     77  C   UNL A   1      48.296  27.467  32.161  1.00  0.00     0.000 A 
ENDBRANCH  59  72
ENDBRANCH  33  34
ENDBRANCH  25  28
ENDBRANCH  23  24
ENDBRANCH  22  23
ENDBRANCH  21  22
ENDBRANCH   1  21
TORSDOF 16
ENDMDL
