MODEL 1
REMARK VINA RESULT:     -11.3      0.000      0.000
REMARK SMILES CC[C@@](C)(NC(=O)c1cccc2ccccc12)C(=O)NCCCCNC(=O)c1ccc(-c2c3nc(c(-c4ccccc4)c4ccc([nH]4)c(-c4ccccc4)c4nc(c(-c5ccccc5)c5ccc2[nH]5)C=C4)C=C3)cc1
REMARK SMILES IDX 22 1 21 2 20 3 18 4 19 5 3 7 4 8 2 9 1 10 5 11 6 12 7 14
REMARK SMILES IDX 8 15 9 16 17 17 10 18 12 19 16 20 11 21 13 22 15 23 14 24
REMARK SMILES IDX 23 25 24 26 25 27 26 28 27 30 28 31 29 32 75 33 30 34 74 35
REMARK SMILES IDX 31 36 32 37 33 38 68 39 34 40 73 41 67 42 69 43 35 44 72 45
REMARK SMILES IDX 66 46 65 47 36 49 58 50 43 51 57 52 44 53 47 54 56 55 70 56
REMARK SMILES IDX 45 57 46 58 55 60 71 61 48 62 37 63 38 64 42 65 39 66 41 67
REMARK SMILES IDX 40 68 59 69 60 70 64 71 61 72 63 73 62 74 49 75 50 76 54 77
REMARK SMILES IDX 51 78 53 79 52 80
REMARK H PARENT 20 6 5 13 25 29 69 48 47 59
REMARK Flexibility Score: inf
ROOT
ATOM      1  C   UNL A   1      33.427  26.762  25.345  1.00  0.00     0.023 C 
ENDROOT
BRANCH   1   2
ATOM      2  C   UNL A   1      34.205  25.450  25.445  1.00  0.00     0.116 C 
BRANCH   2   3
ATOM      3  N   UNL A   1      34.753  24.879  24.226  1.00  0.00    -0.354 N 
ATOM      4  C   UNL A   1      35.441  23.726  23.954  1.00  0.00     0.245 C 
ATOM      5  O   UNL A   1      35.465  23.402  22.761  1.00  0.00    -0.272 OA
ATOM      6  H   UNL A   1      34.598  25.437  23.431  1.00  0.00     0.163 HD
BRANCH   4   7
ATOM      7  C   UNL A   1      36.093  22.833  25.054  1.00  0.00     0.116 C 
ATOM      8  C   UNL A   1      36.810  21.710  24.259  1.00  0.00     0.045 C 
BRANCH   7   9
ATOM      9  C   UNL A   1      37.164  23.543  25.935  1.00  0.00     0.035 C 
ATOM     10  C   UNL A   1      38.502  22.843  26.147  1.00  0.00     0.007 C 
ENDBRANCH   7   9
BRANCH   7  11
ATOM     11  N   UNL A   1      35.123  22.197  25.994  1.00  0.00    -0.338 N 
ATOM     12  C   UNL A   1      33.812  21.750  25.949  1.00  0.00     0.252 C 
ATOM     13  H   UNL A   1      35.521  22.058  26.884  1.00  0.00     0.164 HD
ATOM     14  O   UNL A   1      33.299  21.654  27.068  1.00  0.00    -0.269 OA
BRANCH  12  15
ATOM     15  C   UNL A   1      33.033  21.287  24.731  1.00  0.00     0.047 A 
ATOM     16  C   UNL A   1      32.411  22.225  23.905  1.00  0.00     0.014 A 
ATOM     17  C   UNL A   1      33.059  19.923  24.268  1.00  0.00    -0.006 A 
ATOM     18  C   UNL A   1      31.839  21.916  22.675  1.00  0.00     0.001 A 
ATOM     19  C   UNL A   1      32.479  19.624  22.993  1.00  0.00    -0.018 A 
ATOM     20  C   UNL A   1      33.627  18.815  24.950  1.00  0.00     0.009 A 
ATOM     21  C   UNL A   1      31.879  20.617  22.221  1.00  0.00     0.009 A 
ATOM     22  C   UNL A   1      32.509  18.329  22.460  1.00  0.00     0.009 A 
ATOM     23  C   UNL A   1      33.653  17.525  24.402  1.00  0.00     0.001 A 
ATOM     24  C   UNL A   1      33.101  17.283  23.156  1.00  0.00     0.001 A 
ENDBRANCH  12  15
ENDBRANCH   7  11
ENDBRANCH   4   7
ENDBRANCH   2   3
ENDBRANCH   1   2
BRANCH   1  25
ATOM     25  C   UNL A   1      34.031  28.020  25.965  1.00  0.00     0.023 C 
BRANCH  25  26
ATOM     26  C   UNL A   1      33.521  28.405  27.341  1.00  0.00     0.116 C 
BRANCH  26  27
ATOM     27  N   UNL A   1      33.485  29.842  27.543  1.00  0.00    -0.352 N 
ATOM     28  C   UNL A   1      34.444  30.669  28.068  1.00  0.00     0.251 C 
ATOM     29  H   UNL A   1      32.653  30.287  27.264  1.00  0.00     0.163 HD
ATOM     30  O   UNL A   1      34.167  31.849  28.307  1.00  0.00    -0.269 OA
BRANCH  28  31
ATOM     31  C   UNL A   1      35.800  30.162  28.369  1.00  0.00     0.039 A 
ATOM     32  C   UNL A   1      36.770  30.199  27.364  1.00  0.00     0.014 A 
ATOM     33  C   UNL A   1      36.115  29.629  29.622  1.00  0.00     0.014 A 
ATOM     34  C   UNL A   1      38.064  29.741  27.627  1.00  0.00     0.010 A 
ATOM     35  C   UNL A   1      37.423  29.245  29.908  1.00  0.00     0.010 A 
ATOM     36  C   UNL A   1      38.407  29.282  28.908  1.00  0.00    -0.014 A 
BRANCH  36  37
ATOM     37  C   UNL A   1      39.780  28.810  29.215  1.00  0.00     0.031 A 
ATOM     38  C   UNL A   1      40.743  29.712  29.939  1.00  0.00     0.074 A 
ATOM     39  C   UNL A   1      40.181  27.594  28.795  1.00  0.00     0.049 A 
ATOM     40  N   UNL A   1      41.998  29.502  30.251  1.00  0.00    -0.248 NA
ATOM     41  C   UNL A   1      40.238  31.034  30.345  1.00  0.00     0.031 C 
ATOM     42  C   UNL A   1      39.355  26.638  28.055  1.00  0.00     0.029 A 
ATOM     43  N   UNL A   1      41.388  26.955  28.931  1.00  0.00    -0.354 N 
ATOM     44  C   UNL A   1      42.435  30.669  30.865  1.00  0.00     0.074 A 
ATOM     45  C   UNL A   1      41.328  31.601  30.840  1.00  0.00     0.031 C 
ATOM     46  C   UNL A   1      40.071  25.524  27.828  1.00  0.00     0.029 A 
ATOM     47  C   UNL A   1      41.415  25.702  28.369  1.00  0.00     0.049 A 
ATOM     48  H   UNL A   1      42.162  27.358  29.388  1.00  0.00     0.167 HD
ATOM     49  C   UNL A   1      43.641  30.937  31.419  1.00  0.00     0.031 A 
ATOM     50  C   UNL A   1      42.410  24.799  28.295  1.00  0.00     0.031 A 
ATOM     51  C   UNL A   1      44.736  30.005  31.460  1.00  0.00     0.049 A 
ATOM     52  C   UNL A   1      43.744  25.125  28.908  1.00  0.00     0.074 A 
ATOM     53  C   UNL A   1      45.977  30.159  32.053  1.00  0.00     0.029 A 
ATOM     54  N   UNL A   1      44.719  28.745  30.882  1.00  0.00    -0.354 N 
ATOM     55  N   UNL A   1      44.119  26.208  29.546  1.00  0.00    -0.248 NA
ATOM     56  C   UNL A   1      44.789  24.097  28.799  1.00  0.00     0.031 C 
ATOM     57  C   UNL A   1      46.731  29.011  31.788  1.00  0.00     0.029 A 
ATOM     58  C   UNL A   1      45.939  28.120  31.081  1.00  0.00     0.049 A 
ATOM     59  H   UNL A   1      43.955  28.353  30.403  1.00  0.00     0.167 HD
ATOM     60  C   UNL A   1      45.431  25.980  29.939  1.00  0.00     0.074 A 
ATOM     61  C   UNL A   1      45.782  24.651  29.482  1.00  0.00     0.031 C 
ATOM     62  C   UNL A   1      46.271  26.798  30.621  1.00  0.00     0.031 A 
BRANCH  49  63
ATOM     63  C   UNL A   1      43.841  32.302  32.021  1.00  0.00    -0.014 A 
ATOM     64  C   UNL A   1      43.554  32.553  33.372  1.00  0.00     0.009 A 
ATOM     65  C   UNL A   1      44.351  33.344  31.231  1.00  0.00     0.009 A 
ATOM     66  C   UNL A   1      43.738  33.830  33.910  1.00  0.00     0.001 A 
ATOM     67  C   UNL A   1      44.562  34.610  31.778  1.00  0.00     0.001 A 
ATOM     68  C   UNL A   1      44.247  34.854  33.114  1.00  0.00     0.000 A 
ENDBRANCH  49  63
BRANCH  50  69
ATOM     69  C   UNL A   1      42.181  23.489  27.631  1.00  0.00    -0.014 A 
ATOM     70  C   UNL A   1      41.666  22.404  28.358  1.00  0.00     0.009 A 
ATOM     71  C   UNL A   1      42.482  23.313  26.272  1.00  0.00     0.009 A 
ATOM     72  C   UNL A   1      41.483  21.164  27.744  1.00  0.00     0.001 A 
ATOM     73  C   UNL A   1      42.270  22.079  25.654  1.00  0.00     0.001 A 
ATOM     74  C   UNL A   1      41.780  21.003  26.392  1.00  0.00     0.000 A 
ENDBRANCH  50  69
BRANCH  62  75
ATOM     75  C   UNL A   1      47.638  26.264  30.943  1.00  0.00    -0.014 A 
ATOM     76  C   UNL A   1      47.919  25.678  32.187  1.00  0.00     0.009 A 
ATOM     77  C   UNL A   1      48.648  26.313  29.970  1.00  0.00     0.009 A 
ATOM     78  C   UNL A   1      49.196  25.182  32.461  1.00  0.00     0.001 A 
ATOM     79  C   UNL A   1      49.914  25.791  30.235  1.00  0.00     0.001 A 
ATOM     80  C   UNL A   1      50.189  25.234  31.483  1.00  0.00     0.000 A 
ENDBRANCH  62  75
ENDBRANCH  36  37
ENDBRANCH  28  31
ENDBRANCH  26  27
ENDBRANCH  25  26
ENDBRANCH   1  25
TORSDOF 14
ENDMDL
MODEL 2
REMARK VINA RESULT:     -11.2      2.216      7.631
REMARK SMILES CC[C@@](C)(NC(=O)c1cccc2ccccc12)C(=O)NCCCCNC(=O)c1ccc(-c2c3nc(c(-c4ccccc4)c4ccc([nH]4)c(-c4ccccc4)c4nc(c(-c5ccccc5)c5ccc2[nH]5)C=C4)C=C3)cc1
REMARK SMILES IDX 22 1 21 2 20 3 18 4 19 5 3 7 4 8 2 9 1 10 5 11 6 12 7 14
REMARK SMILES IDX 8 15 9 16 17 17 10 18 12 19 16 20 11 21 13 22 15 23 14 24
REMARK SMILES IDX 23 25 24 26 25 27 26 28 27 30 28 31 29 32 75 33 30 34 74 35
REMARK SMILES IDX 31 36 32 37 33 38 68 39 34 40 73 41 67 42 69 43 35 44 72 45
REMARK SMILES IDX 66 46 65 47 36 49 58 50 43 51 57 52 44 53 47 54 56 55 70 56
REMARK SMILES IDX 45 57 46 58 55 60 71 61 48 62 37 63 38 64 42 65 39 66 41 67
REMARK SMILES IDX 40 68 59 69 60 70 64 71 61 72 63 73 62 74 49 75 50 76 54 77
REMARK SMILES IDX 51 78 53 79 52 80
REMARK H PARENT 20 6 5 13 25 29 69 48 47 59
REMARK Flexibility Score: inf
ROOT
ATOM      1  C   UNL A   1      36.312  20.294  24.993  1.00  0.00     0.023 C 
ENDROOT
BRANCH   1   2
ATOM      2  C   UNL A   1      36.077  21.718  25.497  1.00  0.00     0.116 C 
BRANCH   2   3
ATOM      3  N   UNL A   1      35.270  21.903  26.692  1.00  0.00    -0.354 N 
ATOM      4  C   UNL A   1      34.034  22.448  26.918  1.00  0.00     0.245 C 
ATOM      5  O   UNL A   1      33.519  22.144  28.000  1.00  0.00    -0.272 OA
ATOM      6  H   UNL A   1      35.702  21.565  27.509  1.00  0.00     0.163 HD
BRANCH   4   7
ATOM      7  C   UNL A   1      33.280  23.332  25.876  1.00  0.00     0.116 C 
ATOM      8  C   UNL A   1      34.050  24.680  25.892  1.00  0.00     0.045 C 
BRANCH   7   9
ATOM      9  C   UNL A   1      33.302  22.796  24.413  1.00  0.00     0.035 C 
ATOM     10  C   UNL A   1      32.138  21.930  23.946  1.00  0.00     0.007 C 
ENDBRANCH   7   9
BRANCH   7  11
ATOM     11  N   UNL A   1      31.850  23.603  26.209  1.00  0.00    -0.338 N 
ATOM     12  C   UNL A   1      30.975  24.674  26.123  1.00  0.00     0.252 C 
ATOM     13  H   UNL A   1      31.412  22.809  26.592  1.00  0.00     0.164 HD
ATOM     14  O   UNL A   1      30.002  24.560  26.875  1.00  0.00    -0.269 OA
BRANCH  12  15
ATOM     15  C   UNL A   1      31.040  25.849  25.163  1.00  0.00     0.047 A 
ATOM     16  C   UNL A   1      30.616  25.693  23.842  1.00  0.00     0.014 A 
ATOM     17  C   UNL A   1      31.344  27.188  25.599  1.00  0.00    -0.006 A 
ATOM     18  C   UNL A   1      30.461  26.748  22.949  1.00  0.00     0.001 A 
ATOM     19  C   UNL A   1      31.166  28.265  24.671  1.00  0.00    -0.018 A 
ATOM     20  C   UNL A   1      31.798  27.569  26.889  1.00  0.00     0.009 A 
ATOM     21  C   UNL A   1      30.733  28.031  23.367  1.00  0.00     0.009 A 
ATOM     22  C   UNL A   1      31.398  29.596  25.041  1.00  0.00     0.009 A 
ATOM     23  C   UNL A   1      32.023  28.906  27.245  1.00  0.00     0.001 A 
ATOM     24  C   UNL A   1      31.817  29.920  26.324  1.00  0.00     0.001 A 
ENDBRANCH  12  15
ENDBRANCH   7  11
ENDBRANCH   4   7
ENDBRANCH   2   3
ENDBRANCH   1   2
BRANCH   1  25
ATOM     25  C   UNL A   1      37.745  19.845  24.715  1.00  0.00     0.023 C 
BRANCH  25  26
ATOM     26  C   UNL A   1      38.785  20.226  25.752  1.00  0.00     0.116 C 
BRANCH  26  27
ATOM     27  N   UNL A   1      39.900  19.297  25.793  1.00  0.00    -0.352 N 
ATOM     28  C   UNL A   1      41.218  19.537  26.082  1.00  0.00     0.251 C 
ATOM     29  H   UNL A   1      39.678  18.362  25.582  1.00  0.00     0.163 HD
ATOM     30  O   UNL A   1      42.052  18.642  25.910  1.00  0.00    -0.269 OA
BRANCH  28  31
ATOM     31  C   UNL A   1      41.657  20.858  26.580  1.00  0.00     0.039 A 
ATOM     32  C   UNL A   1      42.090  21.815  25.658  1.00  0.00     0.014 A 
ATOM     33  C   UNL A   1      41.669  21.152  27.947  1.00  0.00     0.014 A 
ATOM     34  C   UNL A   1      42.495  23.076  26.101  1.00  0.00     0.010 A 
ATOM     35  C   UNL A   1      41.997  22.434  28.381  1.00  0.00     0.010 A 
ATOM     36  C   UNL A   1      42.430  23.404  27.463  1.00  0.00    -0.014 A 
BRANCH  36  37
ATOM     37  C   UNL A   1      42.836  24.745  27.953  1.00  0.00     0.031 A 
ATOM     38  C   UNL A   1      41.794  25.799  28.217  1.00  0.00     0.074 A 
ATOM     39  C   UNL A   1      44.143  25.035  28.108  1.00  0.00     0.049 A 
ATOM     40  N   UNL A   1      41.953  27.043  28.596  1.00  0.00    -0.248 NA
ATOM     41  C   UNL A   1      40.390  25.413  28.004  1.00  0.00     0.031 C 
ATOM     42  C   UNL A   1      45.252  24.114  27.854  1.00  0.00     0.029 A 
ATOM     43  N   UNL A   1      44.758  26.192  28.516  1.00  0.00    -0.354 N 
ATOM     44  C   UNL A   1      40.677  27.589  28.643  1.00  0.00     0.074 A 
ATOM     45  C   UNL A   1      39.759  26.559  28.208  1.00  0.00     0.031 C 
ATOM     46  C   UNL A   1      46.410  24.732  28.140  1.00  0.00     0.029 A 
ATOM     47  C   UNL A   1      46.129  26.102  28.557  1.00  0.00     0.049 A 
ATOM     48  H   UNL A   1      44.264  27.010  28.756  1.00  0.00     0.167 HD
ATOM     49  C   UNL A   1      40.298  28.830  29.031  1.00  0.00     0.031 A 
ATOM     50  C   UNL A   1      47.055  27.020  28.889  1.00  0.00     0.031 A 
ATOM     51  C   UNL A   1      41.209  29.849  29.480  1.00  0.00     0.049 A 
ATOM     52  C   UNL A   1      46.609  28.395  29.306  1.00  0.00     0.074 A 
ATOM     53  C   UNL A   1      40.918  31.116  29.954  1.00  0.00     0.029 A 
ATOM     54  N   UNL A   1      42.588  29.714  29.510  1.00  0.00    -0.354 N 
ATOM     55  N   UNL A   1      45.393  28.874  29.410  1.00  0.00    -0.248 NA
ATOM     56  C   UNL A   1      47.667  29.352  29.662  1.00  0.00     0.031 C 
ATOM     57  C   UNL A   1      42.126  31.769  30.220  1.00  0.00     0.029 A 
ATOM     58  C   UNL A   1      43.165  30.887  29.969  1.00  0.00     0.049 A 
ATOM     59  H   UNL A   1      43.083  28.907  29.245  1.00  0.00     0.167 HD
ATOM     60  C   UNL A   1      45.538  30.176  29.871  1.00  0.00     0.074 A 
ATOM     61  C   UNL A   1      46.957  30.406  30.041  1.00  0.00     0.031 C 
ATOM     62  C   UNL A   1      44.579  31.099  30.132  1.00  0.00     0.031 A 
BRANCH  49  63
ATOM     63  C   UNL A   1      38.830  29.155  28.979  1.00  0.00    -0.014 A 
ATOM     64  C   UNL A   1      38.012  29.030  30.114  1.00  0.00     0.009 A 
ATOM     65  C   UNL A   1      38.261  29.623  27.783  1.00  0.00     0.009 A 
ATOM     66  C   UNL A   1      36.650  29.328  30.042  1.00  0.00     0.001 A 
ATOM     67  C   UNL A   1      36.906  29.950  27.723  1.00  0.00     0.001 A 
ATOM     68  C   UNL A   1      36.100  29.793  28.849  1.00  0.00     0.000 A 
ENDBRANCH  49  63
BRANCH  50  69
ATOM     69  C   UNL A   1      48.498  26.668  28.862  1.00  0.00    -0.014 A 
ATOM     70  C   UNL A   1      49.268  26.912  27.713  1.00  0.00     0.009 A 
ATOM     71  C   UNL A   1      49.113  26.080  29.977  1.00  0.00     0.009 A 
ATOM     72  C   UNL A   1      50.615  26.551  27.674  1.00  0.00     0.001 A 
ATOM     73  C   UNL A   1      50.469  25.746  29.945  1.00  0.00     0.001 A 
ATOM     74  C   UNL A   1      51.217  25.972  28.790  1.00  0.00     0.000 A 
ENDBRANCH  50  69
BRANCH  62  75
ATOM     75  C   UNL A   1      45.033  32.429  30.663  1.00  0.00    -0.014 A 
ATOM     76  C   UNL A   1      45.200  33.536  29.817  1.00  0.00     0.009 A 
ATOM     77  C   UNL A   1      45.258  32.585  32.040  1.00  0.00     0.009 A 
ATOM     78  C   UNL A   1      45.615  34.764  30.335  1.00  0.00     0.001 A 
ATOM     79  C   UNL A   1      45.644  33.821  32.560  1.00  0.00     0.001 A 
ATOM     80  C   UNL A   1      45.831  34.906  31.706  1.00  0.00     0.000 A 
ENDBRANCH  62  75
ENDBRANCH  36  37
ENDBRANCH  28  31
ENDBRANCH  26  27
ENDBRANCH  25  26
ENDBRANCH   1  25
TORSDOF 14
ENDMDL
MODEL 3
REMARK VINA RESULT:     -11.1      2.112      7.728
REMARK SMILES CC[C@@](C)(NC(=O)c1cccc2ccccc12)C(=O)NCCCCNC(=O)c1ccc(-c2c3nc(c(-c4ccccc4)c4ccc([nH]4)c(-c4ccccc4)c4nc(c(-c5ccccc5)c5ccc2[nH]5)C=C4)C=C3)cc1
REMARK SMILES IDX 22 1 21 2 20 3 18 4 19 5 3 7 4 8 2 9 1 10 5 11 6 12 7 14
REMARK SMILES IDX 8 15 9 16 17 17 10 18 12 19 16 20 11 21 13 22 15 23 14 24
REMARK SMILES IDX 23 25 24 26 25 27 26 28 27 30 28 31 29 32 75 33 30 34 74 35
REMARK SMILES IDX 31 36 32 37 33 38 68 39 34 40 73 41 67 42 69 43 35 44 72 45
REMARK SMILES IDX 66 46 65 47 36 49 58 50 43 51 57 52 44 53 47 54 56 55 70 56
REMARK SMILES IDX 45 57 46 58 55 60 71 61 48 62 37 63 38 64 42 65 39 66 41 67
REMARK SMILES IDX 40 68 59 69 60 70 64 71 61 72 63 73 62 74 49 75 50 76 54 77
REMARK SMILES IDX 51 78 53 79 52 80
REMARK H PARENT 20 6 5 13 25 29 69 48 47 59
REMARK Flexibility Score: inf
ROOT
ATOM      1  C   UNL A   1      36.457  20.144  24.807  1.00  0.00     0.023 C 
ENDROOT
BRANCH   1   2
ATOM      2  C   UNL A   1      36.295  21.528  25.436  1.00  0.00     0.116 C 
BRANCH   2   3
ATOM      3  N   UNL A   1      35.505  21.646  26.651  1.00  0.00    -0.354 N 
ATOM      4  C   UNL A   1      34.255  22.138  26.916  1.00  0.00     0.245 C 
ATOM      5  O   UNL A   1      33.773  21.782  27.997  1.00  0.00    -0.272 OA
ATOM      6  H   UNL A   1      35.965  21.300  27.448  1.00  0.00     0.163 HD
BRANCH   4   7
ATOM      7  C   UNL A   1      33.450  23.025  25.917  1.00  0.00     0.116 C 
ATOM      8  C   UNL A   1      34.226  24.369  25.889  1.00  0.00     0.045 C 
BRANCH   7   9
ATOM      9  C   UNL A   1      33.387  22.488  24.456  1.00  0.00     0.035 C 
ATOM     10  C   UNL A   1      33.869  23.399  23.332  1.00  0.00     0.007 C 
ENDBRANCH   7   9
BRANCH   7  11
ATOM     11  N   UNL A   1      32.041  23.304  26.328  1.00  0.00    -0.338 N 
ATOM     12  C   UNL A   1      31.169  24.380  26.291  1.00  0.00     0.252 C 
ATOM     13  H   UNL A   1      31.620  22.513  26.734  1.00  0.00     0.164 HD
ATOM     14  O   UNL A   1      30.238  24.271  27.095  1.00  0.00    -0.269 OA
BRANCH  12  15
ATOM     15  C   UNL A   1      31.188  25.556  25.330  1.00  0.00     0.047 A 
ATOM     16  C   UNL A   1      30.741  25.389  24.017  1.00  0.00     0.014 A 
ATOM     17  C   UNL A   1      31.469  26.902  25.759  1.00  0.00    -0.006 A 
ATOM     18  C   UNL A   1      30.545  26.439  23.127  1.00  0.00     0.001 A 
ATOM     19  C   UNL A   1      31.248  27.973  24.835  1.00  0.00    -0.018 A 
ATOM     20  C   UNL A   1      31.940  27.294  27.040  1.00  0.00     0.009 A 
ATOM     21  C   UNL A   1      30.794  27.729  23.540  1.00  0.00     0.009 A 
ATOM     22  C   UNL A   1      31.457  29.310  25.199  1.00  0.00     0.009 A 
ATOM     23  C   UNL A   1      32.141  28.636  27.391  1.00  0.00     0.001 A 
ATOM     24  C   UNL A   1      31.894  29.644  26.474  1.00  0.00     0.001 A 
ENDBRANCH  12  15
ENDBRANCH   7  11
ENDBRANCH   4   7
ENDBRANCH   2   3
ENDBRANCH   1   2
BRANCH   1  25
ATOM     25  C   UNL A   1      37.851  19.523  24.758  1.00  0.00     0.023 C 
BRANCH  25  26
ATOM     26  C   UNL A   1      38.824  19.963  25.836  1.00  0.00     0.116 C 
BRANCH  26  27
ATOM     27  N   UNL A   1      40.053  19.191  25.831  1.00  0.00    -0.352 N 
ATOM     28  C   UNL A   1      41.335  19.599  26.089  1.00  0.00     0.251 C 
ATOM     29  H   UNL A   1      39.951  18.237  25.609  1.00  0.00     0.163 HD
ATOM     30  O   UNL A   1      42.275  18.825  25.878  1.00  0.00    -0.269 OA
BRANCH  28  31
ATOM     31  C   UNL A   1      41.610  20.959  26.599  1.00  0.00     0.039 A 
ATOM     32  C   UNL A   1      41.534  21.190  27.975  1.00  0.00     0.014 A 
ATOM     33  C   UNL A   1      41.916  22.012  25.732  1.00  0.00     0.014 A 
ATOM     34  C   UNL A   1      41.804  22.462  28.484  1.00  0.00     0.010 A 
ATOM     35  C   UNL A   1      42.262  23.260  26.245  1.00  0.00     0.010 A 
ATOM     36  C   UNL A   1      42.193  23.502  27.626  1.00  0.00    -0.014 A 
BRANCH  36  37
ATOM     37  C   UNL A   1      42.505  24.856  28.147  1.00  0.00     0.031 A 
ATOM     38  C   UNL A   1      43.910  25.199  28.564  1.00  0.00     0.074 A 
ATOM     39  C   UNL A   1      41.517  25.760  28.299  1.00  0.00     0.049 A 
ATOM     40  N   UNL A   1      44.370  26.306  29.091  1.00  0.00    -0.248 NA
ATOM     41  C   UNL A   1      44.929  24.151  28.388  1.00  0.00     0.031 C 
ATOM     42  C   UNL A   1      40.109  25.542  27.965  1.00  0.00     0.029 A 
ATOM     43  N   UNL A   1      41.550  27.046  28.777  1.00  0.00    -0.354 N 
ATOM     44  C   UNL A   1      45.720  26.079  29.330  1.00  0.00     0.074 A 
ATOM     45  C   UNL A   1      45.996  24.715  28.936  1.00  0.00     0.031 C 
ATOM     46  C   UNL A   1      39.418  26.664  28.221  1.00  0.00     0.029 A 
ATOM     47  C   UNL A   1      40.324  27.666  28.773  1.00  0.00     0.049 A 
ATOM     48  H   UNL A   1      42.374  27.483  29.093  1.00  0.00     0.167 HD
ATOM     49  C   UNL A   1      46.652  26.933  29.814  1.00  0.00     0.031 A 
ATOM     50  C   UNL A   1      39.969  28.901  29.173  1.00  0.00     0.031 A 
ATOM     51  C   UNL A   1      46.381  28.295  30.190  1.00  0.00     0.049 A 
ATOM     52  C   UNL A   1      41.020  29.828  29.719  1.00  0.00     0.074 A 
ATOM     53  C   UNL A   1      47.270  29.260  30.633  1.00  0.00     0.029 A 
ATOM     54  N   UNL A   1      45.127  28.884  30.167  1.00  0.00    -0.354 N 
ATOM     55  N   UNL A   1      42.306  29.619  29.874  1.00  0.00    -0.248 NA
ATOM     56  C   UNL A   1      40.572  31.164  30.134  1.00  0.00     0.031 C 
ATOM     57  C   UNL A   1      46.544  30.417  30.929  1.00  0.00     0.029 A 
ATOM     58  C   UNL A   1      45.213  30.193  30.614  1.00  0.00     0.049 A 
ATOM     59  H   UNL A   1      44.299  28.440  29.876  1.00  0.00     0.167 HD
ATOM     60  C   UNL A   1      42.823  30.806  30.376  1.00  0.00     0.074 A 
ATOM     61  C   UNL A   1      41.717  31.734  30.485  1.00  0.00     0.031 C 
ATOM     62  C   UNL A   1      44.102  31.102  30.715  1.00  0.00     0.031 A 
BRANCH  49  63
ATOM     63  C   UNL A   1      48.054  26.412  29.973  1.00  0.00    -0.014 A 
ATOM     64  C   UNL A   1      48.488  25.835  31.178  1.00  0.00     0.009 A 
ATOM     65  C   UNL A   1      48.948  26.474  28.892  1.00  0.00     0.009 A 
ATOM     66  C   UNL A   1      49.796  25.366  31.308  1.00  0.00     0.001 A 
ATOM     67  C   UNL A   1      50.245  25.975  29.015  1.00  0.00     0.001 A 
ATOM     68  C   UNL A   1      50.672  25.431  30.226  1.00  0.00     0.000 A 
ENDBRANCH  49  63
BRANCH  50  69
ATOM     69  C   UNL A   1      38.555  29.346  29.056  1.00  0.00    -0.014 A 
ATOM     70  C   UNL A   1      37.690  29.261  30.159  1.00  0.00     0.009 A 
ATOM     71  C   UNL A   1      38.061  29.849  27.844  1.00  0.00     0.009 A 
ATOM     72  C   UNL A   1      36.353  29.646  30.041  1.00  0.00     0.001 A 
ATOM     73  C   UNL A   1      36.731  30.261  27.737  1.00  0.00     0.001 A 
ATOM     74  C   UNL A   1      35.875  30.150  28.832  1.00  0.00     0.000 A 
ENDBRANCH  50  69
BRANCH  62  75
ATOM     75  C   UNL A   1      44.379  32.497  31.202  1.00  0.00    -0.014 A 
ATOM     76  C   UNL A   1      44.713  33.529  30.311  1.00  0.00     0.009 A 
ATOM     77  C   UNL A   1      44.263  32.788  32.570  1.00  0.00     0.009 A 
ATOM     78  C   UNL A   1      44.958  34.819  30.787  1.00  0.00     0.001 A 
ATOM     79  C   UNL A   1      44.480  34.084  33.039  1.00  0.00     0.001 A 
ATOM     80  C   UNL A   1      44.836  35.095  32.149  1.00  0.00     0.000 A 
ENDBRANCH  62  75
ENDBRANCH  36  37
ENDBRANCH  28  31
ENDBRANCH  26  27
ENDBRANCH  25  26
ENDBRANCH   1  25
TORSDOF 14
ENDMDL
