MODEL 1
REMARK VINA RESULT:     -10.5      0.000      0.000
REMARK SMILES Cc1cc(N(C)[C@H](C)C(=O)NCCCCNC(=O)c2ccc(-c3c4nc(c(-c5ccccc5)c5ccc([nH]5)c(-c5ccccc5)c5nc(c(-c6ccccc6)c6ccc3[nH]6)C=C5)C=C4)cc2)ncc1[N+](=O)[O-]
REMARK SMILES IDX 13 1 12 2 11 3 9 4 10 5 7 7 8 8 5 9 6 10 4 11 1 12 2 13 3 14
REMARK SMILES IDX 69 15 68 16 67 17 70 18 71 19 72 20 14 21 15 22 16 23 17 24
REMARK SMILES IDX 18 26 19 27 20 28 66 29 21 30 65 31 22 32 23 33 24 34 59 35
REMARK SMILES IDX 25 36 64 37 58 38 60 39 26 40 63 41 57 42 56 43 27 45 49 46
REMARK SMILES IDX 34 47 48 48 35 49 38 50 47 51 61 52 36 53 37 54 46 56 62 57
REMARK SMILES IDX 39 58 28 59 29 60 33 61 30 62 32 63 31 64 50 65 51 66 55 67
REMARK SMILES IDX 52 68 54 69 53 70 40 71 41 72 45 73 42 74 44 75 43 76
REMARK H PARENT 11 6 16 25 60 44 38 55
REMARK Flexibility Score: inf
ROOT
ATOM      1  C   UNL A   1      32.369  28.759  26.929  1.00  0.00     0.023 C 
ENDROOT
BRANCH   1   2
ATOM      2  C   UNL A   1      33.557  28.450  26.025  1.00  0.00     0.116 C 
BRANCH   2   3
ATOM      3  N   UNL A   1      33.886  27.039  26.007  1.00  0.00    -0.354 N 
ATOM      4  C   UNL A   1      33.704  26.087  25.046  1.00  0.00     0.242 C 
ATOM      5  O   UNL A   1      34.302  25.020  25.237  1.00  0.00    -0.273 OA
ATOM      6  H   UNL A   1      34.316  26.711  26.829  1.00  0.00     0.163 HD
BRANCH   4   7
ATOM      7  C   UNL A   1      32.818  26.281  23.791  1.00  0.00     0.169 C 
ATOM      8  C   UNL A   1      33.237  25.365  22.639  1.00  0.00     0.042 C 
BRANCH   7   9
ATOM      9  N   UNL A   1      31.346  26.264  24.026  1.00  0.00    -0.348 N 
ATOM     10  C   UNL A   1      30.735  25.438  25.052  1.00  0.00     0.146 C 
BRANCH   9  11
ATOM     11  C   UNL A   1      30.593  27.272  23.426  1.00  0.00     0.129 A 
ATOM     12  C   UNL A   1      26.977  28.433  23.344  1.00  0.00     0.052 C 
ATOM     13  C   UNL A   1      28.455  28.434  23.072  1.00  0.00     0.032 A 
ATOM     14  C   UNL A   1      29.199  27.337  23.551  1.00  0.00     0.057 A 
ATOM     15  C   UNL A   1      29.158  29.424  22.386  1.00  0.00     0.290 A 
ATOM     16  C   UNL A   1      30.528  29.285  22.241  1.00  0.00     0.199 A 
ATOM     17  N   UNL A   1      31.236  28.240  22.738  1.00  0.00    -0.232 NA
BRANCH  15  18
ATOM     18  N   UNL A   1      28.539  30.601  21.800  1.00  0.00     0.064 N 
ATOM     19  O   UNL A   1      28.039  30.479  20.673  1.00  0.00    -0.258 OA
ATOM     20  O   UNL A   1      28.522  31.643  22.469  1.00  0.00    -0.258 OA
ENDBRANCH  15  18
ENDBRANCH   9  11
ENDBRANCH   7   9
ENDBRANCH   4   7
ENDBRANCH   2   3
ENDBRANCH   1   2
BRANCH   1  21
ATOM     21  C   UNL A   1      31.935  30.228  26.942  1.00  0.00     0.023 C 
BRANCH  21  22
ATOM     22  C   UNL A   1      33.046  31.247  27.184  1.00  0.00     0.116 C 
BRANCH  22  23
ATOM     23  N   UNL A   1      32.552  32.598  27.414  1.00  0.00    -0.352 N 
ATOM     24  C   UNL A   1      33.112  33.623  28.140  1.00  0.00     0.251 C 
ATOM     25  H   UNL A   1      31.689  32.807  26.988  1.00  0.00     0.163 HD
ATOM     26  O   UNL A   1      32.505  34.672  28.309  1.00  0.00    -0.269 OA
BRANCH  24  27
ATOM     27  C   UNL A   1      34.440  33.426  28.754  1.00  0.00     0.039 A 
ATOM     28  C   UNL A   1      34.521  32.777  29.988  1.00  0.00     0.014 A 
ATOM     29  C   UNL A   1      35.598  33.815  28.076  1.00  0.00     0.014 A 
ATOM     30  C   UNL A   1      35.770  32.416  30.493  1.00  0.00     0.010 A 
ATOM     31  C   UNL A   1      36.838  33.395  28.548  1.00  0.00     0.010 A 
ATOM     32  C   UNL A   1      36.932  32.669  29.746  1.00  0.00    -0.014 A 
BRANCH  32  33
ATOM     33  C   UNL A   1      38.253  32.135  30.163  1.00  0.00     0.031 A 
ATOM     34  C   UNL A   1      38.742  30.819  29.629  1.00  0.00     0.074 A 
ATOM     35  C   UNL A   1      38.966  32.789  31.100  1.00  0.00     0.049 A 
ATOM     36  N   UNL A   1      39.806  30.137  29.968  1.00  0.00    -0.248 NA
ATOM     37  C   UNL A   1      37.912  30.177  28.599  1.00  0.00     0.031 C 
ATOM     38  C   UNL A   1      38.589  34.061  31.723  1.00  0.00     0.029 A 
ATOM     39  N   UNL A   1      40.155  32.465  31.706  1.00  0.00    -0.354 N 
ATOM     40  C   UNL A   1      39.765  28.978  29.206  1.00  0.00     0.074 A 
ATOM     41  C   UNL A   1      38.551  29.030  28.419  1.00  0.00     0.031 C 
ATOM     42  C   UNL A   1      39.538  34.419  32.602  1.00  0.00     0.029 A 
ATOM     43  C   UNL A   1      40.563  33.383  32.643  1.00  0.00     0.049 A 
ATOM     44  H   UNL A   1      40.665  31.652  31.489  1.00  0.00     0.167 HD
ATOM     45  C   UNL A   1      40.664  27.966  29.154  1.00  0.00     0.031 A 
ATOM     46  C   UNL A   1      41.637  33.384  33.456  1.00  0.00     0.031 A 
ATOM     47  C   UNL A   1      41.874  27.915  29.930  1.00  0.00     0.049 A 
ATOM     48  C   UNL A   1      42.597  32.230  33.410  1.00  0.00     0.074 A 
ATOM     49  C   UNL A   1      42.874  26.958  29.906  1.00  0.00     0.029 A 
ATOM     50  N   UNL A   1      42.244  28.859  30.876  1.00  0.00    -0.354 N 
ATOM     51  N   UNL A   1      42.572  31.166  32.646  1.00  0.00    -0.248 NA
ATOM     52  C   UNL A   1      43.733  32.278  34.342  1.00  0.00     0.031 C 
ATOM     53  C   UNL A   1      43.829  27.301  30.869  1.00  0.00     0.029 A 
ATOM     54  C   UNL A   1      43.445  28.494  31.460  1.00  0.00     0.049 A 
ATOM     55  H   UNL A   1      41.731  29.668  31.098  1.00  0.00     0.167 HD
ATOM     56  C   UNL A   1      43.697  30.428  32.988  1.00  0.00     0.074 A 
ATOM     57  C   UNL A   1      44.390  31.172  34.020  1.00  0.00     0.031 C 
ATOM     58  C   UNL A   1      44.119  29.242  32.489  1.00  0.00     0.031 A 
BRANCH  45  59
ATOM     59  C   UNL A   1      40.359  26.826  28.225  1.00  0.00    -0.014 A 
ATOM     60  C   UNL A   1      40.837  26.819  26.905  1.00  0.00     0.009 A 
ATOM     61  C   UNL A   1      39.601  25.736  28.680  1.00  0.00     0.009 A 
ATOM     62  C   UNL A   1      40.527  25.762  26.047  1.00  0.00     0.001 A 
ATOM     63  C   UNL A   1      39.315  24.668  27.828  1.00  0.00     0.001 A 
ATOM     64  C   UNL A   1      39.770  24.687  26.509  1.00  0.00     0.000 A 
ENDBRANCH  45  59
BRANCH  46  65
ATOM     65  C   UNL A   1      41.866  34.522  34.382  1.00  0.00    -0.014 A 
ATOM     66  C   UNL A   1      41.354  34.483  35.688  1.00  0.00     0.009 A 
ATOM     67  C   UNL A   1      42.594  35.649  33.969  1.00  0.00     0.009 A 
ATOM     68  C   UNL A   1      41.550  35.558  36.557  1.00  0.00     0.001 A 
ATOM     69  C   UNL A   1      42.809  36.713  34.849  1.00  0.00     0.001 A 
ATOM     70  C   UNL A   1      42.281  36.669  36.139  1.00  0.00     0.000 A 
ENDBRANCH  46  65
BRANCH  58  71
ATOM     71  C   UNL A   1      45.402  28.686  33.034  1.00  0.00    -0.014 A 
ATOM     72  C   UNL A   1      45.405  27.806  34.127  1.00  0.00     0.009 A 
ATOM     73  C   UNL A   1      46.620  29.013  32.417  1.00  0.00     0.009 A 
ATOM     74  C   UNL A   1      46.607  27.281  34.605  1.00  0.00     0.001 A 
ATOM     75  C   UNL A   1      47.817  28.468  32.884  1.00  0.00     0.001 A 
ATOM     76  C   UNL A   1      47.810  27.608  33.980  1.00  0.00     0.000 A 
ENDBRANCH  58  71
ENDBRANCH  32  33
ENDBRANCH  24  27
ENDBRANCH  22  23
ENDBRANCH  21  22
ENDBRANCH   1  21
TORSDOF 14
ENDMDL
MODEL 2
REMARK VINA RESULT:     -10.3      0.549      6.015
REMARK SMILES Cc1cc(N(C)[C@H](C)C(=O)NCCCCNC(=O)c2ccc(-c3c4nc(c(-c5ccccc5)c5ccc([nH]5)c(-c5ccccc5)c5nc(c(-c6ccccc6)c6ccc3[nH]6)C=C5)C=C4)cc2)ncc1[N+](=O)[O-]
REMARK SMILES IDX 13 1 12 2 11 3 9 4 10 5 7 7 8 8 5 9 6 10 4 11 1 12 2 13 3 14
REMARK SMILES IDX 69 15 68 16 67 17 70 18 71 19 72 20 14 21 15 22 16 23 17 24
REMARK SMILES IDX 18 26 19 27 20 28 66 29 21 30 65 31 22 32 23 33 24 34 59 35
REMARK SMILES IDX 25 36 64 37 58 38 60 39 26 40 63 41 57 42 56 43 27 45 49 46
REMARK SMILES IDX 34 47 48 48 35 49 38 50 47 51 61 52 36 53 37 54 46 56 62 57
REMARK SMILES IDX 39 58 28 59 29 60 33 61 30 62 32 63 31 64 50 65 51 66 55 67
REMARK SMILES IDX 52 68 54 69 53 70 40 71 41 72 45 73 42 74 44 75 43 76
REMARK H PARENT 11 6 16 25 60 44 38 55
REMARK Flexibility Score: inf
ROOT
ATOM      1  C   UNL A   1      32.051  29.666  27.109  1.00  0.00     0.023 C 
ENDROOT
BRANCH   1   2
ATOM      2  C   UNL A   1      32.101  28.825  25.838  1.00  0.00     0.116 C 
BRANCH   2   3
ATOM      3  N   UNL A   1      32.667  27.511  26.066  1.00  0.00    -0.354 N 
ATOM      4  C   UNL A   1      33.031  26.527  25.194  1.00  0.00     0.242 C 
ATOM      5  O   UNL A   1      33.702  25.608  25.681  1.00  0.00    -0.273 OA
ATOM      6  H   UNL A   1      32.817  27.291  27.014  1.00  0.00     0.163 HD
BRANCH   4   7
ATOM      7  C   UNL A   1      32.650  26.515  23.694  1.00  0.00     0.169 C 
ATOM      8  C   UNL A   1      33.594  25.641  22.863  1.00  0.00     0.042 C 
BRANCH   7   9
ATOM      9  N   UNL A   1      31.214  26.251  23.389  1.00  0.00    -0.348 N 
ATOM     10  C   UNL A   1      30.564  25.004  23.747  1.00  0.00     0.146 C 
BRANCH   9  11
ATOM     11  C   UNL A   1      30.434  27.340  23.005  1.00  0.00     0.129 A 
ATOM     12  C   UNL A   1      26.855  28.542  23.422  1.00  0.00     0.052 C 
ATOM     13  C   UNL A   1      28.301  28.564  23.015  1.00  0.00     0.032 A 
ATOM     14  C   UNL A   1      29.060  27.403  23.268  1.00  0.00     0.057 A 
ATOM     15  C   UNL A   1      28.961  29.631  22.406  1.00  0.00     0.290 A 
ATOM     16  C   UNL A   1      30.309  29.498  22.116  1.00  0.00     0.199 A 
ATOM     17  N   UNL A   1      31.034  28.387  22.398  1.00  0.00    -0.232 NA
BRANCH  15  18
ATOM     18  N   UNL A   1      28.320  30.885  22.047  1.00  0.00     0.064 N 
ATOM     19  O   UNL A   1      27.785  30.950  20.932  1.00  0.00    -0.258 OA
ATOM     20  O   UNL A   1      28.321  31.798  22.882  1.00  0.00    -0.258 OA
ENDBRANCH  15  18
ENDBRANCH   9  11
ENDBRANCH   7   9
ENDBRANCH   4   7
ENDBRANCH   2   3
ENDBRANCH   1   2
BRANCH   1  21
ATOM     21  C   UNL A   1      31.836  31.165  26.880  1.00  0.00     0.023 C 
BRANCH  21  22
ATOM     22  C   UNL A   1      33.020  32.067  27.225  1.00  0.00     0.116 C 
BRANCH  22  23
ATOM     23  N   UNL A   1      32.629  33.426  27.571  1.00  0.00    -0.352 N 
ATOM     24  C   UNL A   1      33.225  34.314  28.438  1.00  0.00     0.251 C 
ATOM     25  H   UNL A   1      31.820  33.758  27.119  1.00  0.00     0.163 HD
ATOM     26  O   UNL A   1      32.701  35.392  28.683  1.00  0.00    -0.269 OA
BRANCH  24  27
ATOM     27  C   UNL A   1      34.485  33.931  29.105  1.00  0.00     0.039 A 
ATOM     28  C   UNL A   1      34.421  33.206  30.297  1.00  0.00     0.014 A 
ATOM     29  C   UNL A   1      35.716  34.225  28.515  1.00  0.00     0.014 A 
ATOM     30  C   UNL A   1      35.591  32.676  30.841  1.00  0.00     0.010 A 
ATOM     31  C   UNL A   1      36.872  33.640  29.021  1.00  0.00     0.010 A 
ATOM     32  C   UNL A   1      36.815  32.838  30.173  1.00  0.00    -0.014 A 
BRANCH  32  33
ATOM     33  C   UNL A   1      38.042  32.134  30.621  1.00  0.00     0.031 A 
ATOM     34  C   UNL A   1      38.946  32.760  31.643  1.00  0.00     0.074 A 
ATOM     35  C   UNL A   1      38.393  30.974  30.030  1.00  0.00     0.049 A 
ATOM     36  N   UNL A   1      40.117  32.356  32.066  1.00  0.00    -0.248 NA
ATOM     37  C   UNL A   1      38.483  34.018  32.250  1.00  0.00     0.031 C 
ATOM     38  C   UNL A   1      37.620  30.275  29.001  1.00  0.00     0.029 A 
ATOM     39  N   UNL A   1      39.503  30.185  30.202  1.00  0.00    -0.354 N 
ATOM     40  C   UNL A   1      40.539  33.316  32.975  1.00  0.00     0.074 A 
ATOM     41  C   UNL A   1      39.519  34.343  33.011  1.00  0.00     0.031 C 
ATOM     42  C   UNL A   1      38.266  29.151  28.652  1.00  0.00     0.029 A 
ATOM     43  C   UNL A   1      39.520  29.075  29.394  1.00  0.00     0.049 A 
ATOM     44  H   UNL A   1      40.219  30.395  30.844  1.00  0.00     0.167 HD
ATOM     45  C   UNL A   1      41.667  33.336  33.724  1.00  0.00     0.031 A 
ATOM     46  C   UNL A   1      40.447  28.109  29.253  1.00  0.00     0.031 A 
ATOM     47  C   UNL A   1      42.678  32.314  33.695  1.00  0.00     0.049 A 
ATOM     48  C   UNL A   1      41.709  28.175  30.063  1.00  0.00     0.074 A 
ATOM     49  C   UNL A   1      43.830  32.219  34.458  1.00  0.00     0.029 A 
ATOM     50  N   UNL A   1      42.662  31.213  32.854  1.00  0.00    -0.354 N 
ATOM     51  N   UNL A   1      42.070  29.063  30.957  1.00  0.00    -0.248 NA
ATOM     52  C   UNL A   1      42.694  27.106  29.843  1.00  0.00     0.031 C 
ATOM     53  C   UNL A   1      44.533  31.081  34.046  1.00  0.00     0.029 A 
ATOM     54  C   UNL A   1      43.796  30.445  33.059  1.00  0.00     0.049 A 
ATOM     55  H   UNL A   1      41.949  31.006  32.207  1.00  0.00     0.167 HD
ATOM     56  C   UNL A   1      43.311  28.650  31.422  1.00  0.00     0.074 A 
ATOM     57  C   UNL A   1      43.636  27.425  30.720  1.00  0.00     0.031 C 
ATOM     58  C   UNL A   1      44.108  29.232  32.350  1.00  0.00     0.031 A 
BRANCH  45  59
ATOM     59  C   UNL A   1      41.864  34.514  34.635  1.00  0.00    -0.014 A 
ATOM     60  C   UNL A   1      42.526  35.670  34.191  1.00  0.00     0.009 A 
ATOM     61  C   UNL A   1      41.367  34.476  35.947  1.00  0.00     0.009 A 
ATOM     62  C   UNL A   1      42.720  36.748  35.057  1.00  0.00     0.001 A 
ATOM     63  C   UNL A   1      41.540  35.566  36.801  1.00  0.00     0.001 A 
ATOM     64  C   UNL A   1      42.225  36.697  36.358  1.00  0.00     0.000 A 
ENDBRANCH  45  59
BRANCH  46  65
ATOM     65  C   UNL A   1      40.214  26.987  28.308  1.00  0.00    -0.014 A 
ATOM     66  C   UNL A   1      39.460  25.873  28.708  1.00  0.00     0.009 A 
ATOM     67  C   UNL A   1      40.739  27.022  27.007  1.00  0.00     0.009 A 
ATOM     68  C   UNL A   1      39.253  24.807  27.830  1.00  0.00     0.001 A 
ATOM     69  C   UNL A   1      40.510  25.964  26.123  1.00  0.00     0.001 A 
ATOM     70  C   UNL A   1      39.774  24.856  26.538  1.00  0.00     0.000 A 
ENDBRANCH  46  65
BRANCH  58  71
ATOM     71  C   UNL A   1      45.398  28.539  32.678  1.00  0.00    -0.014 A 
ATOM     72  C   UNL A   1      45.456  27.544  33.665  1.00  0.00     0.009 A 
ATOM     73  C   UNL A   1      46.560  28.855  31.956  1.00  0.00     0.009 A 
ATOM     74  C   UNL A   1      46.661  26.894  33.939  1.00  0.00     0.001 A 
ATOM     75  C   UNL A   1      47.757  28.187  32.217  1.00  0.00     0.001 A 
ATOM     76  C   UNL A   1      47.808  27.211  33.212  1.00  0.00     0.000 A 
ENDBRANCH  58  71
ENDBRANCH  32  33
ENDBRANCH  24  27
ENDBRANCH  22  23
ENDBRANCH  21  22
ENDBRANCH   1  21
TORSDOF 14
ENDMDL
MODEL 3
REMARK VINA RESULT:     -10.2      2.519      6.952
REMARK SMILES Cc1cc(N(C)[C@H](C)C(=O)NCCCCNC(=O)c2ccc(-c3c4nc(c(-c5ccccc5)c5ccc([nH]5)c(-c5ccccc5)c5nc(c(-c6ccccc6)c6ccc3[nH]6)C=C5)C=C4)cc2)ncc1[N+](=O)[O-]
REMARK SMILES IDX 13 1 12 2 11 3 9 4 10 5 7 7 8 8 5 9 6 10 4 11 1 12 2 13 3 14
REMARK SMILES IDX 69 15 68 16 67 17 70 18 71 19 72 20 14 21 15 22 16 23 17 24
REMARK SMILES IDX 18 26 19 27 20 28 66 29 21 30 65 31 22 32 23 33 24 34 59 35
REMARK SMILES IDX 25 36 64 37 58 38 60 39 26 40 63 41 57 42 56 43 27 45 49 46
REMARK SMILES IDX 34 47 48 48 35 49 38 50 47 51 61 52 36 53 37 54 46 56 62 57
REMARK SMILES IDX 39 58 28 59 29 60 33 61 30 62 32 63 31 64 50 65 51 66 55 67
REMARK SMILES IDX 52 68 54 69 53 70 40 71 41 72 45 73 42 74 44 75 43 76
REMARK H PARENT 11 6 16 25 60 44 38 55
REMARK Flexibility Score: inf
ROOT
ATOM      1  C   UNL A   1      32.708  27.515  26.447  1.00  0.00     0.023 C 
ENDROOT
BRANCH   1   2
ATOM      2  C   UNL A   1      33.674  27.548  25.268  1.00  0.00     0.116 C 
BRANCH   2   3
ATOM      3  N   UNL A   1      33.980  26.225  24.765  1.00  0.00    -0.354 N 
ATOM      4  C   UNL A   1      33.656  25.615  23.588  1.00  0.00     0.242 C 
ATOM      5  O   UNL A   1      34.261  24.560  23.353  1.00  0.00    -0.273 OA
ATOM      6  H   UNL A   1      34.514  25.670  25.377  1.00  0.00     0.163 HD
BRANCH   4   7
ATOM      7  C   UNL A   1      32.609  26.162  22.588  1.00  0.00     0.169 C 
ATOM      8  C   UNL A   1      32.750  25.534  21.199  1.00  0.00     0.042 C 
BRANCH   7   9
ATOM      9  N   UNL A   1      31.197  26.174  23.066  1.00  0.00    -0.348 N 
ATOM     10  C   UNL A   1      30.650  25.113  23.891  1.00  0.00     0.146 C 
BRANCH   9  11
ATOM     11  C   UNL A   1      30.492  27.370  22.940  1.00  0.00     0.129 A 
ATOM     12  C   UNL A   1      26.933  28.616  23.395  1.00  0.00     0.052 C 
ATOM     13  C   UNL A   1      28.409  28.665  23.123  1.00  0.00     0.032 A 
ATOM     14  C   UNL A   1      29.102  27.438  23.103  1.00  0.00     0.057 A 
ATOM     15  C   UNL A   1      29.158  29.818  22.885  1.00  0.00     0.290 A 
ATOM     16  C   UNL A   1      30.521  29.692  22.674  1.00  0.00     0.199 A 
ATOM     17  N   UNL A   1      31.180  28.506  22.693  1.00  0.00    -0.232 NA
BRANCH  15  18
ATOM     18  N   UNL A   1      28.595  31.157  22.838  1.00  0.00     0.064 N 
ATOM     19  O   UNL A   1      27.884  31.440  21.864  1.00  0.00    -0.258 OA
ATOM     20  O   UNL A   1      28.832  31.921  23.782  1.00  0.00    -0.258 OA
ENDBRANCH  15  18
ENDBRANCH   9  11
ENDBRANCH   7   9
ENDBRANCH   4   7
ENDBRANCH   2   3
ENDBRANCH   1   2
BRANCH   1  21
ATOM     21  C   UNL A   1      32.658  28.802  27.276  1.00  0.00     0.023 C 
BRANCH  21  22
ATOM     22  C   UNL A   1      33.726  29.844  26.950  1.00  0.00     0.116 C 
BRANCH  22  23
ATOM     23  N   UNL A   1      33.784  30.934  27.915  1.00  0.00    -0.352 N 
ATOM     24  C   UNL A   1      34.760  31.236  28.836  1.00  0.00     0.251 C 
ATOM     25  H   UNL A   1      33.010  31.543  27.907  1.00  0.00     0.163 HD
ATOM     26  O   UNL A   1      34.598  32.141  29.642  1.00  0.00    -0.269 OA
BRANCH  24  27
ATOM     27  C   UNL A   1      35.991  30.421  28.872  1.00  0.00     0.039 A 
ATOM     28  C   UNL A   1      36.860  30.469  27.780  1.00  0.00     0.014 A 
ATOM     29  C   UNL A   1      36.315  29.678  30.009  1.00  0.00     0.014 A 
ATOM     30  C   UNL A   1      38.112  29.858  27.871  1.00  0.00     0.010 A 
ATOM     31  C   UNL A   1      37.588  29.127  30.124  1.00  0.00     0.010 A 
ATOM     32  C   UNL A   1      38.506  29.236  29.067  1.00  0.00    -0.014 A 
BRANCH  32  33
ATOM     33  C   UNL A   1      39.892  28.743  29.263  1.00  0.00     0.031 A 
ATOM     34  C   UNL A   1      40.954  29.657  29.800  1.00  0.00     0.074 A 
ATOM     35  C   UNL A   1      40.215  27.498  28.860  1.00  0.00     0.049 A 
ATOM     36  N   UNL A   1      42.239  29.444  29.925  1.00  0.00    -0.248 NA
ATOM     37  C   UNL A   1      40.516  30.994  30.230  1.00  0.00     0.031 C 
ATOM     38  C   UNL A   1      39.284  26.519  28.292  1.00  0.00     0.029 A 
ATOM     39  N   UNL A   1      41.423  26.846  28.854  1.00  0.00    -0.354 N 
ATOM     40  C   UNL A   1      42.767  30.624  30.430  1.00  0.00     0.074 A 
ATOM     41  C   UNL A   1      41.670  31.563  30.550  1.00  0.00     0.031 C 
ATOM     42  C   UNL A   1      39.950  25.386  28.017  1.00  0.00     0.029 A 
ATOM     43  C   UNL A   1      41.360  25.574  28.341  1.00  0.00     0.049 A 
ATOM     44  H   UNL A   1      42.256  27.253  29.186  1.00  0.00     0.167 HD
ATOM     45  C   UNL A   1      44.046  30.900  30.779  1.00  0.00     0.031 A 
ATOM     46  C   UNL A   1      42.331  24.663  28.139  1.00  0.00     0.031 A 
ATOM     47  C   UNL A   1      45.136  29.968  30.666  1.00  0.00     0.049 A 
ATOM     48  C   UNL A   1      43.749  25.007  28.492  1.00  0.00     0.074 A 
ATOM     49  C   UNL A   1      46.457  30.136  31.045  1.00  0.00     0.029 A 
ATOM     50  N   UNL A   1      45.032  28.693  30.130  1.00  0.00    -0.354 N 
ATOM     51  N   UNL A   1      44.224  26.109  29.019  1.00  0.00    -0.248 NA
ATOM     52  C   UNL A   1      44.766  23.980  28.222  1.00  0.00     0.031 C 
ATOM     53  C   UNL A   1      47.162  28.979  30.697  1.00  0.00     0.029 A 
ATOM     54  C   UNL A   1      46.270  28.074  30.144  1.00  0.00     0.049 A 
ATOM     55  H   UNL A   1      44.201  28.289  29.792  1.00  0.00     0.167 HD
ATOM     56  C   UNL A   1      45.589  25.902  29.163  1.00  0.00     0.074 A 
ATOM     57  C   UNL A   1      45.865  24.565  28.680  1.00  0.00     0.031 C 
ATOM     58  C   UNL A   1      46.529  26.745  29.655  1.00  0.00     0.031 A 
BRANCH  45  59
ATOM     59  C   UNL A   1      44.332  32.276  31.307  1.00  0.00    -0.014 A 
ATOM     60  C   UNL A   1      44.361  32.531  32.688  1.00  0.00     0.009 A 
ATOM     61  C   UNL A   1      44.592  33.328  30.416  1.00  0.00     0.009 A 
ATOM     62  C   UNL A   1      44.606  33.820  33.163  1.00  0.00     0.001 A 
ATOM     63  C   UNL A   1      44.864  34.611  30.895  1.00  0.00     0.001 A 
ATOM     64  C   UNL A   1      44.860  34.857  32.268  1.00  0.00     0.000 A 
ENDBRANCH  45  59
BRANCH  46  65
ATOM     65  C   UNL A   1      41.994  23.330  27.577  1.00  0.00    -0.014 A 
ATOM     66  C   UNL A   1      41.521  22.311  28.416  1.00  0.00     0.009 A 
ATOM     67  C   UNL A   1      42.142  23.070  26.206  1.00  0.00     0.009 A 
ATOM     68  C   UNL A   1      41.220  21.050  27.897  1.00  0.00     0.001 A 
ATOM     69  C   UNL A   1      41.817  21.814  25.685  1.00  0.00     0.001 A 
ATOM     70  C   UNL A   1      41.364  20.804  26.533  1.00  0.00     0.000 A 
ENDBRANCH  46  65
BRANCH  58  71
ATOM     71  C   UNL A   1      47.939  26.236  29.718  1.00  0.00    -0.014 A 
ATOM     72  C   UNL A   1      48.762  26.237  28.581  1.00  0.00     0.009 A 
ATOM     73  C   UNL A   1      48.465  25.794  30.941  1.00  0.00     0.009 A 
ATOM     74  C   UNL A   1      50.079  25.782  28.665  1.00  0.00     0.001 A 
ATOM     75  C   UNL A   1      49.789  25.361  31.027  1.00  0.00     0.001 A 
ATOM     76  C   UNL A   1      50.593  25.350  29.888  1.00  0.00     0.000 A 
ENDBRANCH  58  71
ENDBRANCH  32  33
ENDBRANCH  24  27
ENDBRANCH  22  23
ENDBRANCH  21  22
ENDBRANCH   1  21
TORSDOF 14
ENDMDL
