MODEL 1
REMARK VINA RESULT:     -11.1      0.000      0.000
REMARK SMILES C[C@@H]1[C@@H](C(=O)NCCCCNC(=O)c2ccc(-c3c4nc(c(-c5ccccc5)c5ccc([nH]5)c(-c5ccccc5)c5nc(c(-c6ccccc6)c6ccc3[nH]6)C=C5)C=C4)cc2)CC[N@@H+]1C[C@H]1Cc2ccccc2O1
REMARK SMILES IDX 8 1 7 2 6 3 4 4 5 5 3 7 1 8 2 9 64 10 62 11 63 12 65 14
REMARK SMILES IDX 66 15 67 16 74 17 68 18 73 19 69 20 72 21 70 22 71 23 9 24
REMARK SMILES IDX 10 25 11 26 12 27 13 29 14 30 15 31 61 32 16 33 60 34 17 35
REMARK SMILES IDX 18 36 19 37 54 38 20 39 59 40 53 41 55 42 21 43 58 44 52 45
REMARK SMILES IDX 51 46 22 48 44 49 29 50 43 51 30 52 33 53 42 54 56 55 31 56
REMARK SMILES IDX 32 57 41 59 57 60 34 61 23 62 24 63 28 64 25 65 27 66 26 67
REMARK SMILES IDX 45 68 46 69 50 70 47 71 49 72 48 73 35 74 36 75 40 76 37 77
REMARK SMILES IDX 39 78 38 79
REMARK H PARENT 6 6 64 13 11 28 55 47 33 58
REMARK Flexibility Score: inf
ROOT
ATOM      1  C   UNL A   1      31.721  29.966  25.846  1.00  0.00     0.023 C 
ENDROOT
BRANCH   1   2
ATOM      2  C   UNL A   1      31.298  29.649  24.412  1.00  0.00     0.116 C 
BRANCH   2   3
ATOM      3  N   UNL A   1      32.422  29.348  23.549  1.00  0.00    -0.356 N 
ATOM      4  C   UNL A   1      32.746  28.256  22.815  1.00  0.00     0.229 C 
ATOM      5  O   UNL A   1      33.753  28.364  22.104  1.00  0.00    -0.275 OA
ATOM      6  H   UNL A   1      33.079  30.080  23.484  1.00  0.00     0.163 HD
BRANCH   4   7
ATOM      7  C   UNL A   1      32.030  26.907  22.878  1.00  0.00     0.142 C 
ATOM      8  C   UNL A   1      30.718  25.802  24.729  1.00  0.00     0.076 C 
ATOM      9  C   UNL A   1      32.117  26.081  24.170  1.00  0.00     0.193 C 
ATOM     10  N   UNL A   1      32.898  24.894  23.806  1.00  0.00    -0.329 N 
ATOM     11  C   UNL A   1      32.469  25.969  21.763  1.00  0.00     0.081 C 
ATOM     12  C   UNL A   1      33.353  24.947  22.435  1.00  0.00     0.263 C 
ATOM     13  H   UNL A   1      33.697  25.000  24.430  1.00  0.00     0.348 HD
BRANCH  10  14
ATOM     14  C   UNL A   1      32.735  23.601  24.451  1.00  0.00     0.308 C 
BRANCH  14  15
ATOM     15  C   UNL A   1      33.980  22.998  25.131  1.00  0.00     0.232 C 
ATOM     16  C   UNL A   1      34.687  21.910  24.313  1.00  0.00     0.090 C 
ATOM     17  O   UNL A   1      34.972  24.033  25.401  1.00  0.00    -0.484 OA
ATOM     18  C   UNL A   1      36.041  22.059  24.876  1.00  0.00    -0.002 A 
ATOM     19  C   UNL A   1      36.143  23.313  25.458  1.00  0.00     0.123 A 
ATOM     20  C   UNL A   1      37.104  21.179  24.848  1.00  0.00     0.007 A 
ATOM     21  C   UNL A   1      37.317  23.744  26.032  1.00  0.00     0.047 A 
ATOM     22  C   UNL A   1      38.292  21.583  25.453  1.00  0.00     0.001 A 
ATOM     23  C   UNL A   1      38.398  22.858  26.038  1.00  0.00     0.004 A 
ENDBRANCH  14  15
ENDBRANCH  10  14
ENDBRANCH   4   7
ENDBRANCH   2   3
ENDBRANCH   1   2
BRANCH   1  24
ATOM     24  C   UNL A   1      32.374  28.834  26.621  1.00  0.00     0.023 C 
BRANCH  24  25
ATOM     25  C   UNL A   1      33.691  29.183  27.290  1.00  0.00     0.116 C 
BRANCH  25  26
ATOM     26  N   UNL A   1      33.707  30.462  27.983  1.00  0.00    -0.352 N 
ATOM     27  C   UNL A   1      34.766  31.026  28.668  1.00  0.00     0.251 C 
ATOM     28  H   UNL A   1      32.871  30.983  27.963  1.00  0.00     0.163 HD
ATOM     29  O   UNL A   1      34.653  32.085  29.261  1.00  0.00    -0.269 OA
BRANCH  27  30
ATOM     30  C   UNL A   1      36.035  30.270  28.706  1.00  0.00     0.039 A 
ATOM     31  C   UNL A   1      36.883  30.316  27.598  1.00  0.00     0.014 A 
ATOM     32  C   UNL A   1      36.434  29.642  29.887  1.00  0.00     0.014 A 
ATOM     33  C   UNL A   1      38.176  29.804  27.708  1.00  0.00     0.010 A 
ATOM     34  C   UNL A   1      37.749  29.226  30.025  1.00  0.00     0.010 A 
ATOM     35  C   UNL A   1      38.632  29.297  28.937  1.00  0.00    -0.014 A 
BRANCH  35  36
ATOM     36  C   UNL A   1      40.022  28.809  29.108  1.00  0.00     0.031 A 
ATOM     37  C   UNL A   1      41.067  29.735  29.667  1.00  0.00     0.074 A 
ATOM     38  C   UNL A   1      40.364  27.575  28.689  1.00  0.00     0.049 A 
ATOM     39  N   UNL A   1      42.352  29.540  29.813  1.00  0.00    -0.248 NA
ATOM     40  C   UNL A   1      40.611  31.072  30.081  1.00  0.00     0.031 C 
ATOM     41  C   UNL A   1      39.458  26.599  28.079  1.00  0.00     0.029 A 
ATOM     42  N   UNL A   1      41.577  26.933  28.710  1.00  0.00    -0.354 N 
ATOM     43  C   UNL A   1      42.858  30.738  30.300  1.00  0.00     0.074 A 
ATOM     44  C   UNL A   1      41.755  31.670  30.372  1.00  0.00     0.031 C 
ATOM     45  C   UNL A   1      40.140  25.471  27.816  1.00  0.00     0.029 A 
ATOM     46  C   UNL A   1      41.534  25.655  28.207  1.00  0.00     0.049 A 
ATOM     47  H   UNL A   1      42.401  27.349  29.054  1.00  0.00     0.167 HD
ATOM     48  C   UNL A   1      44.122  31.032  30.682  1.00  0.00     0.031 A 
ATOM     49  C   UNL A   1      42.509  24.736  28.081  1.00  0.00     0.031 A 
ATOM     50  C   UNL A   1      45.212  30.097  30.648  1.00  0.00     0.049 A 
ATOM     51  C   UNL A   1      43.899  25.072  28.544  1.00  0.00     0.074 A 
ATOM     52  C   UNL A   1      46.515  30.273  31.073  1.00  0.00     0.029 A 
ATOM     53  N   UNL A   1      45.115  28.800  30.169  1.00  0.00    -0.354 N 
ATOM     54  N   UNL A   1      44.349  26.190  29.062  1.00  0.00    -0.248 NA
ATOM     55  C   UNL A   1      44.912  24.015  28.418  1.00  0.00     0.031 C 
ATOM     56  C   UNL A   1      47.219  29.090  30.821  1.00  0.00     0.029 A 
ATOM     57  C   UNL A   1      46.340  28.166  30.280  1.00  0.00     0.049 A 
ATOM     58  H   UNL A   1      44.298  28.390  29.803  1.00  0.00     0.167 HD
ATOM     59  C   UNL A   1      45.687  25.960  29.352  1.00  0.00     0.074 A 
ATOM     60  C   UNL A   1      45.973  24.594  28.962  1.00  0.00     0.031 C 
ATOM     61  C   UNL A   1      46.599  26.803  29.895  1.00  0.00     0.031 A 
BRANCH  48  62
ATOM     62  C   UNL A   1      44.380  32.428  31.175  1.00  0.00    -0.014 A 
ATOM     63  C   UNL A   1      44.248  32.755  32.535  1.00  0.00     0.009 A 
ATOM     64  C   UNL A   1      44.760  33.430  30.269  1.00  0.00     0.009 A 
ATOM     65  C   UNL A   1      44.443  34.067  32.969  1.00  0.00     0.001 A 
ATOM     66  C   UNL A   1      44.984  34.734  30.712  1.00  0.00     0.001 A 
ATOM     67  C   UNL A   1      44.815  35.055  32.058  1.00  0.00     0.000 A 
ENDBRANCH  48  62
BRANCH  49  68
ATOM     68  C   UNL A   1      42.200  23.390  27.533  1.00  0.00    -0.014 A 
ATOM     69  C   UNL A   1      42.491  23.090  26.192  1.00  0.00     0.009 A 
ATOM     70  C   UNL A   1      41.612  22.403  28.336  1.00  0.00     0.009 A 
ATOM     71  C   UNL A   1      42.175  21.838  25.661  1.00  0.00     0.001 A 
ATOM     72  C   UNL A   1      41.320  21.142  27.809  1.00  0.00     0.001 A 
ATOM     73  C   UNL A   1      41.592  20.864  26.471  1.00  0.00     0.000 A 
ENDBRANCH  49  68
BRANCH  61  74
ATOM     74  C   UNL A   1      47.975  26.258  30.142  1.00  0.00    -0.014 A 
ATOM     75  C   UNL A   1      48.955  26.272  29.138  1.00  0.00     0.009 A 
ATOM     76  C   UNL A   1      48.306  25.767  31.414  1.00  0.00     0.009 A 
ATOM     77  C   UNL A   1      50.234  25.776  29.398  1.00  0.00     0.001 A 
ATOM     78  C   UNL A   1      49.593  25.296  31.678  1.00  0.00     0.001 A 
ATOM     79  C   UNL A   1      50.552  25.293  30.667  1.00  0.00     0.000 A 
ENDBRANCH  61  74
ENDBRANCH  35  36
ENDBRANCH  27  30
ENDBRANCH  25  26
ENDBRANCH  24  25
ENDBRANCH   1  24
TORSDOF 13
ENDMDL
MODEL 2
REMARK VINA RESULT:     -11.0      1.790      7.758
REMARK SMILES C[C@@H]1[C@@H](C(=O)NCCCCNC(=O)c2ccc(-c3c4nc(c(-c5ccccc5)c5ccc([nH]5)c(-c5ccccc5)c5nc(c(-c6ccccc6)c6ccc3[nH]6)C=C5)C=C4)cc2)CC[N@@H+]1C[C@H]1Cc2ccccc2O1
REMARK SMILES IDX 8 1 7 2 6 3 4 4 5 5 3 7 1 8 2 9 64 10 62 11 63 12 65 14
REMARK SMILES IDX 66 15 67 16 74 17 68 18 73 19 69 20 72 21 70 22 71 23 9 24
REMARK SMILES IDX 10 25 11 26 12 27 13 29 14 30 15 31 61 32 16 33 60 34 17 35
REMARK SMILES IDX 18 36 19 37 54 38 20 39 59 40 53 41 55 42 21 43 58 44 52 45
REMARK SMILES IDX 51 46 22 48 44 49 29 50 43 51 30 52 33 53 42 54 56 55 31 56
REMARK SMILES IDX 32 57 41 59 57 60 34 61 23 62 24 63 28 64 25 65 27 66 26 67
REMARK SMILES IDX 45 68 46 69 50 70 47 71 49 72 48 73 35 74 36 75 40 76 37 77
REMARK SMILES IDX 39 78 38 79
REMARK H PARENT 6 6 64 13 11 28 55 47 33 58
REMARK Flexibility Score: inf
ROOT
ATOM      1  C   UNL A   1      37.066  21.787  24.532  1.00  0.00     0.023 C 
ENDROOT
BRANCH   1   2
ATOM      2  C   UNL A   1      36.608  22.739  25.635  1.00  0.00     0.116 C 
BRANCH   2   3
ATOM      3  N   UNL A   1      35.652  22.132  26.539  1.00  0.00    -0.356 N 
ATOM      4  C   UNL A   1      34.365  21.737  26.380  1.00  0.00     0.229 C 
ATOM      5  O   UNL A   1      33.856  21.160  27.350  1.00  0.00    -0.275 OA
ATOM      6  H   UNL A   1      36.007  21.978  27.445  1.00  0.00     0.163 HD
BRANCH   4   7
ATOM      7  C   UNL A   1      33.496  22.032  25.159  1.00  0.00     0.142 C 
ATOM      8  C   UNL A   1      33.696  23.789  23.358  1.00  0.00     0.076 C 
ATOM      9  C   UNL A   1      33.218  23.496  24.783  1.00  0.00     0.193 C 
ATOM     10  N   UNL A   1      31.781  23.676  25.016  1.00  0.00    -0.329 N 
ATOM     11  C   UNL A   1      32.131  21.366  25.248  1.00  0.00     0.081 C 
ATOM     12  C   UNL A   1      31.167  22.485  25.559  1.00  0.00     0.263 C 
ATOM     13  H   UNL A   1      31.798  24.402  25.731  1.00  0.00     0.348 HD
BRANCH  10  14
ATOM     14  C   UNL A   1      30.962  24.619  24.269  1.00  0.00     0.308 C 
BRANCH  14  15
ATOM     15  C   UNL A   1      30.938  26.075  24.775  1.00  0.00     0.232 C 
ATOM     16  C   UNL A   1      31.022  26.220  26.299  1.00  0.00     0.090 C 
ATOM     17  O   UNL A   1      32.053  26.833  24.217  1.00  0.00    -0.484 OA
ATOM     18  C   UNL A   1      31.614  27.570  26.357  1.00  0.00    -0.002 A 
ATOM     19  C   UNL A   1      32.215  27.842  25.137  1.00  0.00     0.123 A 
ATOM     20  C   UNL A   1      31.650  28.467  27.405  1.00  0.00     0.007 A 
ATOM     21  C   UNL A   1      32.885  29.023  24.916  1.00  0.00     0.047 A 
ATOM     22  C   UNL A   1      32.296  29.682  27.190  1.00  0.00     0.001 A 
ATOM     23  C   UNL A   1      32.911  29.957  25.955  1.00  0.00     0.004 A 
ENDBRANCH  14  15
ENDBRANCH  10  14
ENDBRANCH   4   7
ENDBRANCH   2   3
ENDBRANCH   1   2
BRANCH   1  24
ATOM     24  C   UNL A   1      37.722  20.494  24.987  1.00  0.00     0.023 C 
BRANCH  24  25
ATOM     25  C   UNL A   1      38.979  20.665  25.822  1.00  0.00     0.116 C 
BRANCH  25  26
ATOM     26  N   UNL A   1      39.919  19.556  25.747  1.00  0.00    -0.352 N 
ATOM     27  C   UNL A   1      41.256  19.572  26.097  1.00  0.00     0.251 C 
ATOM     28  H   UNL A   1      39.564  18.701  25.410  1.00  0.00     0.163 HD
ATOM     29  O   UNL A   1      41.968  18.595  25.943  1.00  0.00    -0.269 OA
BRANCH  27  30
ATOM     30  C   UNL A   1      41.811  20.839  26.615  1.00  0.00     0.039 A 
ATOM     31  C   UNL A   1      42.241  21.810  25.708  1.00  0.00     0.014 A 
ATOM     32  C   UNL A   1      41.768  21.107  27.985  1.00  0.00     0.014 A 
ATOM     33  C   UNL A   1      42.546  23.089  26.174  1.00  0.00     0.010 A 
ATOM     34  C   UNL A   1      41.975  22.404  28.430  1.00  0.00     0.010 A 
ATOM     35  C   UNL A   1      42.371  23.407  27.531  1.00  0.00    -0.014 A 
BRANCH  35  36
ATOM     36  C   UNL A   1      42.619  24.775  28.048  1.00  0.00     0.031 A 
ATOM     37  C   UNL A   1      44.007  25.159  28.482  1.00  0.00     0.074 A 
ATOM     38  C   UNL A   1      41.596  25.636  28.206  1.00  0.00     0.049 A 
ATOM     39  N   UNL A   1      44.421  26.266  29.044  1.00  0.00    -0.248 NA
ATOM     40  C   UNL A   1      45.062  24.150  28.293  1.00  0.00     0.031 C 
ATOM     41  C   UNL A   1      40.195  25.367  27.876  1.00  0.00     0.029 A 
ATOM     42  N   UNL A   1      41.581  26.919  28.693  1.00  0.00    -0.354 N 
ATOM     43  C   UNL A   1      45.770  26.068  29.306  1.00  0.00     0.074 A 
ATOM     44  C   UNL A   1      46.093  24.721  28.895  1.00  0.00     0.031 C 
ATOM     45  C   UNL A   1      39.463  26.464  28.138  1.00  0.00     0.029 A 
ATOM     46  C   UNL A   1      40.335  27.499  28.683  1.00  0.00     0.049 A 
ATOM     47  H   UNL A   1      42.387  27.381  29.019  1.00  0.00     0.167 HD
ATOM     48  C   UNL A   1      46.671  26.940  29.817  1.00  0.00     0.031 A 
ATOM     49  C   UNL A   1      39.944  28.728  29.068  1.00  0.00     0.031 A 
ATOM     50  C   UNL A   1      46.361  28.291  30.192  1.00  0.00     0.049 A 
ATOM     51  C   UNL A   1      40.968  29.691  29.601  1.00  0.00     0.074 A 
ATOM     52  C   UNL A   1      47.213  29.275  30.658  1.00  0.00     0.029 A 
ATOM     53  N   UNL A   1      45.094  28.851  30.128  1.00  0.00    -0.354 N 
ATOM     54  N   UNL A   1      42.253  29.511  29.784  1.00  0.00    -0.248 NA
ATOM     55  C   UNL A   1      40.488  31.031  29.966  1.00  0.00     0.031 C 
ATOM     56  C   UNL A   1      46.454  30.424  30.908  1.00  0.00     0.029 A 
ATOM     57  C   UNL A   1      45.140  30.166  30.555  1.00  0.00     0.049 A 
ATOM     58  H   UNL A   1      44.283  28.382  29.825  1.00  0.00     0.167 HD
ATOM     59  C   UNL A   1      42.741  30.722  30.256  1.00  0.00     0.074 A 
ATOM     60  C   UNL A   1      41.615  31.632  30.320  1.00  0.00     0.031 C 
ATOM     61  C   UNL A   1      44.009  31.055  30.602  1.00  0.00     0.031 A 
BRANCH  48  62
ATOM     62  C   UNL A   1      48.078  26.444  29.992  1.00  0.00    -0.014 A 
ATOM     63  C   UNL A   1      49.023  26.560  28.958  1.00  0.00     0.009 A 
ATOM     64  C   UNL A   1      48.466  25.851  31.203  1.00  0.00     0.009 A 
ATOM     65  C   UNL A   1      50.313  26.050  29.118  1.00  0.00     0.001 A 
ATOM     66  C   UNL A   1      49.765  25.370  31.370  1.00  0.00     0.001 A 
ATOM     67  C   UNL A   1      50.684  25.459  30.325  1.00  0.00     0.000 A 
ENDBRANCH  48  62
BRANCH  49  68
ATOM     68  C   UNL A   1      38.523  29.139  28.922  1.00  0.00    -0.014 A 
ATOM     69  C   UNL A   1      38.045  29.601  27.686  1.00  0.00     0.009 A 
ATOM     70  C   UNL A   1      37.641  29.076  30.011  1.00  0.00     0.009 A 
ATOM     71  C   UNL A   1      36.719  30.017  27.550  1.00  0.00     0.001 A 
ATOM     72  C   UNL A   1      36.309  29.470  29.865  1.00  0.00     0.001 A 
ATOM     73  C   UNL A   1      35.852  29.950  28.639  1.00  0.00     0.000 A 
ENDBRANCH  49  68
BRANCH  61  74
ATOM     74  C   UNL A   1      44.252  32.470  31.036  1.00  0.00    -0.014 A 
ATOM     75  C   UNL A   1      44.561  33.475  30.108  1.00  0.00     0.009 A 
ATOM     76  C   UNL A   1      44.121  32.809  32.392  1.00  0.00     0.009 A 
ATOM     77  C   UNL A   1      44.765  34.789  30.535  1.00  0.00     0.001 A 
ATOM     78  C   UNL A   1      44.300  34.128  32.812  1.00  0.00     0.001 A 
ATOM     79  C   UNL A   1      44.629  35.114  31.884  1.00  0.00     0.000 A 
ENDBRANCH  61  74
ENDBRANCH  35  36
ENDBRANCH  27  30
ENDBRANCH  25  26
ENDBRANCH  24  25
ENDBRANCH   1  24
TORSDOF 13
ENDMDL
MODEL 3
REMARK VINA RESULT:     -10.9      2.773      7.608
REMARK SMILES C[C@@H]1[C@@H](C(=O)NCCCCNC(=O)c2ccc(-c3c4nc(c(-c5ccccc5)c5ccc([nH]5)c(-c5ccccc5)c5nc(c(-c6ccccc6)c6ccc3[nH]6)C=C5)C=C4)cc2)CC[N@@H+]1C[C@H]1Cc2ccccc2O1
REMARK SMILES IDX 8 1 7 2 6 3 4 4 5 5 3 7 1 8 2 9 64 10 62 11 63 12 65 14
REMARK SMILES IDX 66 15 67 16 74 17 68 18 73 19 69 20 72 21 70 22 71 23 9 24
REMARK SMILES IDX 10 25 11 26 12 27 13 29 14 30 15 31 61 32 16 33 60 34 17 35
REMARK SMILES IDX 18 36 19 37 54 38 20 39 59 40 53 41 55 42 21 43 58 44 52 45
REMARK SMILES IDX 51 46 22 48 44 49 29 50 43 51 30 52 33 53 42 54 56 55 31 56
REMARK SMILES IDX 32 57 41 59 57 60 34 61 23 62 24 63 28 64 25 65 27 66 26 67
REMARK SMILES IDX 45 68 46 69 50 70 47 71 49 72 48 73 35 74 36 75 40 76 37 77
REMARK SMILES IDX 39 78 38 79
REMARK H PARENT 6 6 64 13 11 28 55 47 33 58
REMARK Flexibility Score: inf
ROOT
ATOM      1  C   UNL A   1      37.029  20.403  24.938  1.00  0.00     0.023 C 
ENDROOT
BRANCH   1   2
ATOM      2  C   UNL A   1      37.015  21.736  24.192  1.00  0.00     0.116 C 
BRANCH   2   3
ATOM      3  N   UNL A   1      37.570  22.823  24.974  1.00  0.00    -0.356 N 
ATOM      4  C   UNL A   1      37.029  23.655  25.897  1.00  0.00     0.229 C 
ATOM      5  O   UNL A   1      37.820  24.430  26.452  1.00  0.00    -0.275 OA
ATOM      6  H   UNL A   1      38.525  22.989  24.800  1.00  0.00     0.163 HD
BRANCH   4   7
ATOM      7  C   UNL A   1      35.539  23.767  26.219  1.00  0.00     0.142 C 
ATOM      8  C   UNL A   1      34.061  22.413  27.752  1.00  0.00     0.076 C 
ATOM      9  C   UNL A   1      34.714  22.480  26.368  1.00  0.00     0.193 C 
ATOM     10  N   UNL A   1      33.786  22.496  25.233  1.00  0.00    -0.329 N 
ATOM     11  C   UNL A   1      34.792  24.618  25.203  1.00  0.00     0.081 C 
ATOM     12  C   UNL A   1      34.008  23.634  24.369  1.00  0.00     0.263 C 
ATOM     13  H   UNL A   1      34.069  21.645  24.749  1.00  0.00     0.348 HD
BRANCH  10  14
ATOM     14  C   UNL A   1      32.470  21.878  25.268  1.00  0.00     0.308 C 
BRANCH  14  15
ATOM     15  C   UNL A   1      32.366  20.429  24.751  1.00  0.00     0.232 C 
ATOM     16  C   UNL A   1      33.519  19.995  23.838  1.00  0.00     0.090 C 
ATOM     17  O   UNL A   1      32.333  19.486  25.864  1.00  0.00    -0.484 OA
ATOM     18  C   UNL A   1      33.462  18.543  24.089  1.00  0.00    -0.002 A 
ATOM     19  C   UNL A   1      32.794  18.327  25.284  1.00  0.00     0.123 A 
ATOM     20  C   UNL A   1      33.983  17.504  23.345  1.00  0.00     0.007 A 
ATOM     21  C   UNL A   1      32.625  17.059  25.791  1.00  0.00     0.047 A 
ATOM     22  C   UNL A   1      33.795  16.210  23.825  1.00  0.00     0.001 A 
ATOM     23  C   UNL A   1      33.123  15.990  25.041  1.00  0.00     0.004 A 
ENDBRANCH  14  15
ENDBRANCH  10  14
ENDBRANCH   4   7
ENDBRANCH   2   3
ENDBRANCH   1   2
BRANCH   1  24
ATOM     24  C   UNL A   1      38.295  19.573  24.810  1.00  0.00     0.023 C 
BRANCH  24  25
ATOM     25  C   UNL A   1      39.222  19.616  26.011  1.00  0.00     0.116 C 
BRANCH  25  26
ATOM     26  N   UNL A   1      40.464  18.873  25.853  1.00  0.00    -0.352 N 
ATOM     27  C   UNL A   1      41.747  19.335  26.079  1.00  0.00     0.251 C 
ATOM     28  H   UNL A   1      40.381  17.938  25.554  1.00  0.00     0.163 HD
ATOM     29  O   UNL A   1      42.724  18.639  25.863  1.00  0.00    -0.269 OA
BRANCH  27  30
ATOM     30  C   UNL A   1      41.898  20.730  26.539  1.00  0.00     0.039 A 
ATOM     31  C   UNL A   1      42.018  20.983  27.906  1.00  0.00     0.014 A 
ATOM     32  C   UNL A   1      42.061  21.755  25.604  1.00  0.00     0.014 A 
ATOM     33  C   UNL A   1      42.392  22.257  28.334  1.00  0.00     0.010 A 
ATOM     34  C   UNL A   1      42.530  22.991  26.026  1.00  0.00     0.010 A 
ATOM     35  C   UNL A   1      42.695  23.256  27.394  1.00  0.00    -0.014 A 
BRANCH  35  36
ATOM     36  C   UNL A   1      43.163  24.600  27.811  1.00  0.00     0.031 A 
ATOM     37  C   UNL A   1      42.153  25.652  28.179  1.00  0.00     0.074 A 
ATOM     38  C   UNL A   1      44.476  24.902  27.780  1.00  0.00     0.049 A 
ATOM     39  N   UNL A   1      42.343  26.911  28.482  1.00  0.00    -0.248 NA
ATOM     40  C   UNL A   1      40.739  25.244  28.167  1.00  0.00     0.031 C 
ATOM     41  C   UNL A   1      45.552  23.990  27.389  1.00  0.00     0.029 A 
ATOM     42  N   UNL A   1      45.127  26.072  28.081  1.00  0.00    -0.354 N 
ATOM     43  C   UNL A   1      41.074  27.446  28.659  1.00  0.00     0.074 A 
ATOM     44  C   UNL A   1      40.123  26.395  28.377  1.00  0.00     0.031 C 
ATOM     45  C   UNL A   1      46.731  24.624  27.507  1.00  0.00     0.029 A 
ATOM     46  C   UNL A   1      46.492  25.994  27.949  1.00  0.00     0.049 A 
ATOM     47  H   UNL A   1      44.659  26.891  28.365  1.00  0.00     0.167 HD
ATOM     48  C   UNL A   1      40.727  28.695  29.052  1.00  0.00     0.031 A 
ATOM     49  C   UNL A   1      47.442  26.922  28.166  1.00  0.00     0.031 A 
ATOM     50  C   UNL A   1      41.671  29.729  29.370  1.00  0.00     0.049 A 
ATOM     51  C   UNL A   1      47.036  28.292  28.633  1.00  0.00     0.074 A 
ATOM     52  C   UNL A   1      41.427  31.007  29.839  1.00  0.00     0.029 A 
ATOM     53  N   UNL A   1      43.047  29.595  29.262  1.00  0.00    -0.354 N 
ATOM     54  N   UNL A   1      45.835  28.765  28.858  1.00  0.00    -0.248 NA
ATOM     55  C   UNL A   1      48.121  29.251  28.892  1.00  0.00     0.031 C 
ATOM     56  C   UNL A   1      42.656  31.660  29.984  1.00  0.00     0.029 A 
ATOM     57  C   UNL A   1      43.665  30.771  29.648  1.00  0.00     0.049 A 
ATOM     58  H   UNL A   1      43.514  28.785  28.956  1.00  0.00     0.167 HD
ATOM     59  C   UNL A   1      46.019  30.065  29.313  1.00  0.00     0.074 A 
ATOM     60  C   UNL A   1      47.448  30.300  29.342  1.00  0.00     0.031 C 
ATOM     61  C   UNL A   1      45.089  30.980  29.678  1.00  0.00     0.031 A 
BRANCH  48  62
ATOM     62  C   UNL A   1      39.259  28.995  29.159  1.00  0.00    -0.014 A 
ATOM     63  C   UNL A   1      38.543  29.518  28.070  1.00  0.00     0.009 A 
ATOM     64  C   UNL A   1      38.583  28.754  30.364  1.00  0.00     0.009 A 
ATOM     65  C   UNL A   1      37.190  29.837  28.200  1.00  0.00     0.001 A 
ATOM     66  C   UNL A   1      37.223  29.045  30.482  1.00  0.00     0.001 A 
ATOM     67  C   UNL A   1      36.530  29.597  29.404  1.00  0.00     0.000 A 
ENDBRANCH  48  62
BRANCH  49  68
ATOM     68  C   UNL A   1      48.876  26.578  27.986  1.00  0.00    -0.014 A 
ATOM     69  C   UNL A   1      49.502  26.784  26.746  1.00  0.00     0.009 A 
ATOM     70  C   UNL A   1      49.626  26.043  29.043  1.00  0.00     0.009 A 
ATOM     71  C   UNL A   1      50.841  26.434  26.561  1.00  0.00     0.001 A 
ATOM     72  C   UNL A   1      50.973  25.717  28.862  1.00  0.00     0.001 A 
ATOM     73  C   UNL A   1      51.576  25.904  27.620  1.00  0.00     0.000 A 
ENDBRANCH  49  68
BRANCH  61  74
ATOM     74  C   UNL A   1      45.589  32.302  30.182  1.00  0.00    -0.014 A 
ATOM     75  C   UNL A   1      45.819  33.375  29.308  1.00  0.00     0.009 A 
ATOM     76  C   UNL A   1      45.787  32.487  31.559  1.00  0.00     0.009 A 
ATOM     77  C   UNL A   1      46.268  34.602  29.803  1.00  0.00     0.001 A 
ATOM     78  C   UNL A   1      46.210  33.721  32.053  1.00  0.00     0.001 A 
ATOM     79  C   UNL A   1      46.457  34.774  31.174  1.00  0.00     0.000 A 
ENDBRANCH  61  74
ENDBRANCH  35  36
ENDBRANCH  27  30
ENDBRANCH  25  26
ENDBRANCH  24  25
ENDBRANCH   1  24
TORSDOF 13
ENDMDL
