MODEL 1
REMARK VINA RESULT:     -11.7      0.000      0.000
REMARK SMILES Cc1ccccc1O[C@H](C)C(=O)Oc1cccc(C(=O)NCCCCNC(=O)c2ccc(-c3c4nc(c(-c5ccccc5)c5ccc([nH]5)c(-c5ccccc5)c5nc(c(-c6ccccc6)c6ccc3[nH]6)C=C5)C=C4)cc2)c1
REMARK SMILES IDX 22 1 21 2 19 3 20 4 18 6 14 7 15 8 77 9 16 10 17 11 13 12
REMARK SMILES IDX 11 13 12 14 9 15 10 16 8 17 7 18 1 19 2 20 3 21 4 22 6 23
REMARK SMILES IDX 5 24 23 25 24 26 25 27 26 28 27 29 28 31 29 32 30 33 76 34
REMARK SMILES IDX 31 35 75 36 32 37 33 38 34 39 69 40 35 41 74 42 68 43 70 44
REMARK SMILES IDX 36 45 73 46 67 47 66 48 37 50 59 51 44 52 58 53 45 54 48 55
REMARK SMILES IDX 57 56 71 57 46 58 47 59 56 61 72 62 49 63 38 64 39 65 43 66
REMARK SMILES IDX 40 67 42 68 41 69 60 70 61 71 65 72 62 73 64 74 63 75 50 76
REMARK SMILES IDX 51 77 55 78 52 79 54 80 53 81
REMARK H PARENT 21 5 26 30 70 49 48 60
REMARK Flexibility Score: inf
ROOT
ATOM      1  C   UNL A   1      37.156  22.453  25.546  1.00  0.00     0.116 C 
ENDROOT
BRANCH   1   2
ATOM      2  N   UNL A   1      36.049  22.097  26.415  1.00  0.00    -0.352 N 
ATOM      3  C   UNL A   1      34.706  21.906  26.214  1.00  0.00     0.251 C 
ATOM      4  O   UNL A   1      34.054  21.524  27.190  1.00  0.00    -0.269 OA
ATOM      5  H   UNL A   1      36.322  21.962  27.351  1.00  0.00     0.163 HD
BRANCH   3   6
ATOM      6  C   UNL A   1      33.995  22.112  24.918  1.00  0.00     0.043 A 
ATOM      7  C   UNL A   1      33.749  23.525  22.944  1.00  0.00     0.131 A 
ATOM      8  C   UNL A   1      32.853  22.622  22.386  1.00  0.00     0.047 A 
ATOM      9  C   UNL A   1      34.317  23.278  24.198  1.00  0.00     0.061 A 
ATOM     10  C   UNL A   1      32.526  21.466  23.091  1.00  0.00     0.005 A 
ATOM     11  C   UNL A   1      33.108  21.202  24.336  1.00  0.00     0.014 A 
BRANCH   7  12
ATOM     12  O   UNL A   1      34.246  24.661  22.262  1.00  0.00    -0.424 OA
BRANCH  12  13
ATOM     13  C   UNL A   1      33.452  25.712  21.805  1.00  0.00     0.352 C 
ATOM     14  O   UNL A   1      32.942  25.786  20.692  1.00  0.00    -0.247 OA
BRANCH  13  15
ATOM     15  C   UNL A   1      33.274  26.785  22.898  1.00  0.00     0.280 C 
ATOM     16  C   UNL A   1      33.713  28.184  22.474  1.00  0.00     0.066 C 
BRANCH  15  17
ATOM     17  O   UNL A   1      32.099  26.811  23.700  1.00  0.00    -0.479 OA
BRANCH  17  18
ATOM     18  C   UNL A   1      31.768  25.810  24.565  1.00  0.00     0.123 A 
ATOM     19  C   UNL A   1      33.487  26.845  26.144  1.00  0.00     0.048 C 
ATOM     20  C   UNL A   1      32.459  25.803  25.792  1.00  0.00    -0.009 A 
ATOM     21  C   UNL A   1      32.146  24.831  26.761  1.00  0.00     0.007 A 
ATOM     22  C   UNL A   1      31.167  23.874  26.516  1.00  0.00     0.001 A 
ATOM     23  C   UNL A   1      30.763  24.867  24.351  1.00  0.00     0.047 A 
ATOM     24  C   UNL A   1      30.474  23.894  25.312  1.00  0.00     0.004 A 
ENDBRANCH  17  18
ENDBRANCH  15  17
ENDBRANCH  13  15
ENDBRANCH  12  13
ENDBRANCH   7  12
ENDBRANCH   3   6
ENDBRANCH   1   2
BRANCH   1  25
ATOM     25  C   UNL A   1      38.112  21.272  25.309  1.00  0.00     0.023 C 
BRANCH  25  26
ATOM     26  C   UNL A   1      39.457  21.374  26.043  1.00  0.00     0.023 C 
BRANCH  26  27
ATOM     27  C   UNL A   1      39.660  22.686  26.790  1.00  0.00     0.116 C 
BRANCH  27  28
ATOM     28  N   UNL A   1      41.053  23.085  26.966  1.00  0.00    -0.352 N 
ATOM     29  C   UNL A   1      41.574  24.357  27.153  1.00  0.00     0.251 C 
ATOM     30  H   UNL A   1      41.711  22.353  26.949  1.00  0.00     0.163 HD
ATOM     31  O   UNL A   1      42.779  24.533  27.243  1.00  0.00    -0.269 OA
BRANCH  29  32
ATOM     32  C   UNL A   1      40.636  25.484  27.378  1.00  0.00     0.039 A 
ATOM     33  C   UNL A   1      40.795  26.623  26.583  1.00  0.00     0.014 A 
ATOM     34  C   UNL A   1      39.821  25.514  28.508  1.00  0.00     0.014 A 
ATOM     35  C   UNL A   1      40.366  27.851  27.073  1.00  0.00     0.010 A 
ATOM     36  C   UNL A   1      39.474  26.744  29.038  1.00  0.00     0.010 A 
ATOM     37  C   UNL A   1      39.827  27.915  28.358  1.00  0.00    -0.014 A 
BRANCH  37  38
ATOM     38  C   UNL A   1      39.789  29.158  29.123  1.00  0.00     0.031 A 
ATOM     39  C   UNL A   1      38.769  30.187  28.858  1.00  0.00     0.074 A 
ATOM     40  C   UNL A   1      40.711  29.379  30.086  1.00  0.00     0.049 A 
ATOM     41  N   UNL A   1      38.935  31.446  29.094  1.00  0.00    -0.248 NA
ATOM     42  C   UNL A   1      37.500  29.883  28.209  1.00  0.00     0.031 C 
ATOM     43  C   UNL A   1      40.710  30.425  31.105  1.00  0.00     0.029 A 
ATOM     44  N   UNL A   1      41.980  28.816  30.173  1.00  0.00    -0.354 N 
ATOM     45  C   UNL A   1      37.712  32.054  28.941  1.00  0.00     0.074 A 
ATOM     46  C   UNL A   1      36.904  31.078  28.248  1.00  0.00     0.031 C 
ATOM     47  C   UNL A   1      41.966  30.600  31.548  1.00  0.00     0.029 A 
ATOM     48  C   UNL A   1      42.837  29.778  30.724  1.00  0.00     0.049 A 
ATOM     49  H   UNL A   1      42.232  27.905  29.896  1.00  0.00     0.167 HD
ATOM     50  C   UNL A   1      37.473  33.240  29.569  1.00  0.00     0.031 A 
ATOM     51  C   UNL A   1      43.918  30.242  30.032  1.00  0.00     0.031 A 
ATOM     52  C   UNL A   1      38.691  33.810  30.153  1.00  0.00     0.049 A 
ATOM     53  C   UNL A   1      43.891  31.732  29.772  1.00  0.00     0.074 A 
ATOM     54  C   UNL A   1      39.149  33.939  31.454  1.00  0.00     0.029 A 
ATOM     55  N   UNL A   1      39.765  34.130  29.328  1.00  0.00    -0.354 N 
ATOM     56  N   UNL A   1      42.823  32.474  29.870  1.00  0.00    -0.248 NA
ATOM     57  C   UNL A   1      45.055  32.488  29.318  1.00  0.00     0.031 C 
ATOM     58  C   UNL A   1      40.526  34.282  31.406  1.00  0.00     0.029 A 
ATOM     59  C   UNL A   1      40.897  34.387  30.077  1.00  0.00     0.049 A 
ATOM     60  H   UNL A   1      39.724  34.167  28.344  1.00  0.00     0.167 HD
ATOM     61  C   UNL A   1      43.118  33.754  29.479  1.00  0.00     0.074 A 
ATOM     62  C   UNL A   1      44.535  33.719  29.166  1.00  0.00     0.031 C 
ATOM     63  C   UNL A   1      42.158  34.725  29.425  1.00  0.00     0.031 A 
BRANCH  50  64
ATOM     64  C   UNL A   1      36.081  33.744  29.913  1.00  0.00    -0.014 A 
ATOM     65  C   UNL A   1      35.254  34.251  28.892  1.00  0.00     0.009 A 
ATOM     66  C   UNL A   1      35.557  33.852  31.214  1.00  0.00     0.009 A 
ATOM     67  C   UNL A   1      34.034  34.891  29.160  1.00  0.00     0.001 A 
ATOM     68  C   UNL A   1      34.342  34.494  31.495  1.00  0.00     0.001 A 
ATOM     69  C   UNL A   1      33.585  35.028  30.467  1.00  0.00     0.000 A 
ENDBRANCH  50  64
BRANCH  51  70
ATOM     70  C   UNL A   1      44.511  29.249  29.092  1.00  0.00    -0.014 A 
ATOM     71  C   UNL A   1      45.335  28.232  29.614  1.00  0.00     0.009 A 
ATOM     72  C   UNL A   1      44.021  29.110  27.787  1.00  0.00     0.009 A 
ATOM     73  C   UNL A   1      45.572  27.060  28.891  1.00  0.00     0.001 A 
ATOM     74  C   UNL A   1      44.272  27.940  27.060  1.00  0.00     0.001 A 
ATOM     75  C   UNL A   1      45.018  26.905  27.623  1.00  0.00     0.000 A 
ENDBRANCH  51  70
BRANCH  63  76
ATOM     76  C   UNL A   1      42.307  36.102  28.817  1.00  0.00    -0.014 A 
ATOM     77  C   UNL A   1      42.980  37.174  29.419  1.00  0.00     0.009 A 
ATOM     78  C   UNL A   1      41.841  36.317  27.499  1.00  0.00     0.009 A 
ATOM     79  C   UNL A   1      43.134  38.405  28.764  1.00  0.00     0.001 A 
ATOM     80  C   UNL A   1      42.033  37.526  26.824  1.00  0.00     0.001 A 
ATOM     81  C   UNL A   1      42.671  38.579  27.465  1.00  0.00     0.000 A 
ENDBRANCH  63  76
ENDBRANCH  37  38
ENDBRANCH  29  32
ENDBRANCH  27  28
ENDBRANCH  26  27
ENDBRANCH  25  26
ENDBRANCH   1  25
TORSDOF 16
ENDMDL
MODEL 2
REMARK VINA RESULT:     -11.4      2.589      4.208
REMARK SMILES Cc1ccccc1O[C@H](C)C(=O)Oc1cccc(C(=O)NCCCCNC(=O)c2ccc(-c3c4nc(c(-c5ccccc5)c5ccc([nH]5)c(-c5ccccc5)c5nc(c(-c6ccccc6)c6ccc3[nH]6)C=C5)C=C4)cc2)c1
REMARK SMILES IDX 22 1 21 2 19 3 20 4 18 6 14 7 15 8 77 9 16 10 17 11 13 12
REMARK SMILES IDX 11 13 12 14 9 15 10 16 8 17 7 18 1 19 2 20 3 21 4 22 6 23
REMARK SMILES IDX 5 24 23 25 24 26 25 27 26 28 27 29 28 31 29 32 30 33 76 34
REMARK SMILES IDX 31 35 75 36 32 37 33 38 34 39 69 40 35 41 74 42 68 43 70 44
REMARK SMILES IDX 36 45 73 46 67 47 66 48 37 50 59 51 44 52 58 53 45 54 48 55
REMARK SMILES IDX 57 56 71 57 46 58 47 59 56 61 72 62 49 63 38 64 39 65 43 66
REMARK SMILES IDX 40 67 42 68 41 69 60 70 61 71 65 72 62 73 64 74 63 75 50 76
REMARK SMILES IDX 51 77 55 78 52 79 54 80 53 81
REMARK H PARENT 21 5 26 30 70 49 48 60
REMARK Flexibility Score: inf
ROOT
ATOM      1  C   UNL A   1      36.686  22.457  25.453  1.00  0.00     0.116 C 
ENDROOT
BRANCH   1   2
ATOM      2  N   UNL A   1      35.760  22.141  26.526  1.00  0.00    -0.352 N 
ATOM      3  C   UNL A   1      34.497  21.608  26.567  1.00  0.00     0.251 C 
ATOM      4  O   UNL A   1      34.025  21.402  27.688  1.00  0.00    -0.269 OA
ATOM      5  H   UNL A   1      36.117  22.357  27.418  1.00  0.00     0.163 HD
BRANCH   3   6
ATOM      6  C   UNL A   1      33.677  21.254  25.372  1.00  0.00     0.043 A 
ATOM      7  C   UNL A   1      32.650  22.057  23.309  1.00  0.00     0.131 A 
ATOM      8  C   UNL A   1      32.241  20.768  22.989  1.00  0.00     0.047 A 
ATOM      9  C   UNL A   1      33.361  22.303  24.488  1.00  0.00     0.061 A 
ATOM     10  C   UNL A   1      32.548  19.722  23.857  1.00  0.00     0.005 A 
ATOM     11  C   UNL A   1      33.278  19.960  25.028  1.00  0.00     0.014 A 
BRANCH   7  12
ATOM     12  O   UNL A   1      32.505  23.165  22.441  1.00  0.00    -0.424 OA
BRANCH  12  13
ATOM     13  C   UNL A   1      31.815  24.332  22.767  1.00  0.00     0.352 C 
ATOM     14  O   UNL A   1      30.778  24.387  23.420  1.00  0.00    -0.247 OA
BRANCH  13  15
ATOM     15  C   UNL A   1      32.540  25.575  22.212  1.00  0.00     0.280 C 
ATOM     16  C   UNL A   1      32.682  25.585  20.692  1.00  0.00     0.066 C 
BRANCH  15  17
ATOM     17  O   UNL A   1      32.259  26.869  22.733  1.00  0.00    -0.479 OA
BRANCH  17  18
ATOM     18  C   UNL A   1      32.486  27.210  24.034  1.00  0.00     0.123 A 
ATOM     19  C   UNL A   1      30.006  27.808  24.125  1.00  0.00     0.048 C 
ATOM     20  C   UNL A   1      31.372  27.692  24.747  1.00  0.00    -0.009 A 
ATOM     21  C   UNL A   1      31.508  28.025  26.108  1.00  0.00     0.007 A 
ATOM     22  C   UNL A   1      32.732  27.888  26.754  1.00  0.00     0.001 A 
ATOM     23  C   UNL A   1      33.696  27.043  24.706  1.00  0.00     0.047 A 
ATOM     24  C   UNL A   1      33.826  27.394  26.052  1.00  0.00     0.004 A 
ENDBRANCH  17  18
ENDBRANCH  15  17
ENDBRANCH  13  15
ENDBRANCH  12  13
ENDBRANCH   7  12
ENDBRANCH   3   6
ENDBRANCH   1   2
BRANCH   1  25
ATOM     25  C   UNL A   1      37.906  21.521  25.445  1.00  0.00     0.023 C 
BRANCH  25  26
ATOM     26  C   UNL A   1      39.218  22.169  25.909  1.00  0.00     0.023 C 
BRANCH  26  27
ATOM     27  C   UNL A   1      40.077  21.272  26.792  1.00  0.00     0.116 C 
BRANCH  27  28
ATOM     28  N   UNL A   1      41.020  20.421  26.073  1.00  0.00    -0.352 N 
ATOM     29  C   UNL A   1      42.394  20.564  25.947  1.00  0.00     0.251 C 
ATOM     30  H   UNL A   1      40.629  19.643  25.615  1.00  0.00     0.163 HD
ATOM     31  O   UNL A   1      43.046  19.784  25.269  1.00  0.00    -0.269 OA
BRANCH  29  32
ATOM     32  C   UNL A   1      43.079  21.599  26.759  1.00  0.00     0.039 A 
ATOM     33  C   UNL A   1      42.884  21.567  28.143  1.00  0.00     0.014 A 
ATOM     34  C   UNL A   1      43.660  22.709  26.149  1.00  0.00     0.014 A 
ATOM     35  C   UNL A   1      43.011  22.746  28.869  1.00  0.00     0.010 A 
ATOM     36  C   UNL A   1      43.701  23.901  26.851  1.00  0.00     0.010 A 
ATOM     37  C   UNL A   1      43.291  23.931  28.188  1.00  0.00    -0.014 A 
BRANCH  37  38
ATOM     38  C   UNL A   1      42.987  25.242  28.755  1.00  0.00     0.031 A 
ATOM     39  C   UNL A   1      41.824  26.022  28.296  1.00  0.00     0.074 A 
ATOM     40  C   UNL A   1      43.789  25.760  29.711  1.00  0.00     0.049 A 
ATOM     41  N   UNL A   1      41.754  27.310  28.347  1.00  0.00    -0.248 NA
ATOM     42  C   UNL A   1      40.674  25.404  27.649  1.00  0.00     0.031 C 
ATOM     43  C   UNL A   1      43.539  26.921  30.560  1.00  0.00     0.029 A 
ATOM     44  N   UNL A   1      45.129  25.453  29.934  1.00  0.00    -0.354 N 
ATOM     45  C   UNL A   1      40.457  27.658  28.054  1.00  0.00     0.074 A 
ATOM     46  C   UNL A   1      39.879  26.465  27.483  1.00  0.00     0.031 C 
ATOM     47  C   UNL A   1      44.713  27.381  31.023  1.00  0.00     0.029 A 
ATOM     48  C   UNL A   1      45.767  26.623  30.369  1.00  0.00     0.049 A 
ATOM     49  H   UNL A   1      45.552  24.574  29.808  1.00  0.00     0.167 HD
ATOM     50  C   UNL A   1      39.974  28.858  28.485  1.00  0.00     0.031 A 
ATOM     51  C   UNL A   1      46.795  27.173  29.660  1.00  0.00     0.031 A 
ATOM     52  C   UNL A   1      41.033  29.716  29.027  1.00  0.00     0.049 A 
ATOM     53  C   UNL A   1      46.528  28.581  29.177  1.00  0.00     0.074 A 
ATOM     54  C   UNL A   1      41.373  30.108  30.311  1.00  0.00     0.029 A 
ATOM     55  N   UNL A   1      42.089  30.105  28.208  1.00  0.00    -0.354 N 
ATOM     56  N   UNL A   1      45.344  29.124  29.118  1.00  0.00    -0.248 NA
ATOM     57  C   UNL A   1      47.572  29.465  28.663  1.00  0.00     0.031 C 
ATOM     58  C   UNL A   1      42.671  30.684  30.269  1.00  0.00     0.029 A 
ATOM     59  C   UNL A   1      43.106  30.667  28.955  1.00  0.00     0.049 A 
ATOM     60  H   UNL A   1      42.109  29.995  27.228  1.00  0.00     0.167 HD
ATOM     61  C   UNL A   1      45.438  30.369  28.551  1.00  0.00     0.074 A 
ATOM     62  C   UNL A   1      46.858  30.547  28.307  1.00  0.00     0.031 C 
ATOM     63  C   UNL A   1      44.330  31.131  28.312  1.00  0.00     0.031 A 
BRANCH  50  64
ATOM     64  C   UNL A   1      38.496  29.145  28.692  1.00  0.00    -0.014 A 
ATOM     65  C   UNL A   1      37.734  29.663  27.627  1.00  0.00     0.009 A 
ATOM     66  C   UNL A   1      37.813  29.035  29.916  1.00  0.00     0.009 A 
ATOM     67  C   UNL A   1      36.416  30.114  27.795  1.00  0.00     0.001 A 
ATOM     68  C   UNL A   1      36.498  29.487  30.098  1.00  0.00     0.001 A 
ATOM     69  C   UNL A   1      35.802  30.042  29.038  1.00  0.00     0.000 A 
ENDBRANCH  50  64
BRANCH  51  70
ATOM     70  C   UNL A   1      47.613  26.182  28.906  1.00  0.00    -0.014 A 
ATOM     71  C   UNL A   1      47.355  25.997  27.532  1.00  0.00     0.009 A 
ATOM     72  C   UNL A   1      48.811  25.684  29.435  1.00  0.00     0.009 A 
ATOM     73  C   UNL A   1      48.317  25.428  26.693  1.00  0.00     0.001 A 
ATOM     74  C   UNL A   1      49.766  25.101  28.593  1.00  0.00     0.001 A 
ATOM     75  C   UNL A   1      49.532  25.004  27.221  1.00  0.00     0.000 A 
ENDBRANCH  51  70
BRANCH  63  76
ATOM     76  C   UNL A   1      44.279  32.414  27.511  1.00  0.00    -0.014 A 
ATOM     77  C   UNL A   1      44.311  32.486  26.112  1.00  0.00     0.009 A 
ATOM     78  C   UNL A   1      44.070  33.634  28.195  1.00  0.00     0.009 A 
ATOM     79  C   UNL A   1      44.192  33.710  25.437  1.00  0.00     0.001 A 
ATOM     80  C   UNL A   1      43.905  34.850  27.526  1.00  0.00     0.001 A 
ATOM     81  C   UNL A   1      43.979  34.889  26.142  1.00  0.00     0.000 A 
ENDBRANCH  63  76
ENDBRANCH  37  38
ENDBRANCH  29  32
ENDBRANCH  27  28
ENDBRANCH  26  27
ENDBRANCH  25  26
ENDBRANCH   1  25
TORSDOF 16
ENDMDL
MODEL 3
REMARK VINA RESULT:     -11.4      3.066      8.048
REMARK SMILES Cc1ccccc1O[C@H](C)C(=O)Oc1cccc(C(=O)NCCCCNC(=O)c2ccc(-c3c4nc(c(-c5ccccc5)c5ccc([nH]5)c(-c5ccccc5)c5nc(c(-c6ccccc6)c6ccc3[nH]6)C=C5)C=C4)cc2)c1
REMARK SMILES IDX 22 1 21 2 19 3 20 4 18 6 14 7 15 8 77 9 16 10 17 11 13 12
REMARK SMILES IDX 11 13 12 14 9 15 10 16 8 17 7 18 1 19 2 20 3 21 4 22 6 23
REMARK SMILES IDX 5 24 23 25 24 26 25 27 26 28 27 29 28 31 29 32 30 33 76 34
REMARK SMILES IDX 31 35 75 36 32 37 33 38 34 39 69 40 35 41 74 42 68 43 70 44
REMARK SMILES IDX 36 45 73 46 67 47 66 48 37 50 59 51 44 52 58 53 45 54 48 55
REMARK SMILES IDX 57 56 71 57 46 58 47 59 56 61 72 62 49 63 38 64 39 65 43 66
REMARK SMILES IDX 40 67 42 68 41 69 60 70 61 71 65 72 62 73 64 74 63 75 50 76
REMARK SMILES IDX 51 77 55 78 52 79 54 80 53 81
REMARK H PARENT 21 5 26 30 70 49 48 60
REMARK Flexibility Score: inf
ROOT
ATOM      1  C   UNL A   1      32.068  28.514  25.381  1.00  0.00     0.116 C 
ENDROOT
BRANCH   1   2
ATOM      2  N   UNL A   1      32.940  28.666  24.230  1.00  0.00    -0.352 N 
ATOM      3  C   UNL A   1      33.238  27.872  23.151  1.00  0.00     0.251 C 
ATOM      4  O   UNL A   1      33.986  28.361  22.301  1.00  0.00    -0.269 OA
ATOM      5  H   UNL A   1      33.422  29.524  24.222  1.00  0.00     0.163 HD
BRANCH   3   6
ATOM      6  C   UNL A   1      32.717  26.490  22.934  1.00  0.00     0.043 A 
ATOM      7  C   UNL A   1      33.284  24.155  22.515  1.00  0.00     0.131 A 
ATOM      8  C   UNL A   1      31.947  23.792  22.616  1.00  0.00     0.047 A 
ATOM      9  C   UNL A   1      33.671  25.489  22.671  1.00  0.00     0.061 A 
ATOM     10  C   UNL A   1      30.994  24.775  22.876  1.00  0.00     0.005 A 
ATOM     11  C   UNL A   1      31.379  26.109  23.054  1.00  0.00     0.014 A 
BRANCH   7  12
ATOM     12  O   UNL A   1      34.342  23.224  22.384  1.00  0.00    -0.424 OA
BRANCH  12  13
ATOM     13  C   UNL A   1      35.325  23.011  23.351  1.00  0.00     0.352 C 
ATOM     14  O   UNL A   1      36.469  23.451  23.311  1.00  0.00    -0.247 OA
BRANCH  13  15
ATOM     15  C   UNL A   1      34.781  22.153  24.511  1.00  0.00     0.280 C 
ATOM     16  C   UNL A   1      35.540  20.847  24.728  1.00  0.00     0.066 C 
BRANCH  15  17
ATOM     17  O   UNL A   1      34.394  22.758  25.738  1.00  0.00    -0.479 OA
BRANCH  17  18
ATOM     18  C   UNL A   1      33.112  23.141  26.006  1.00  0.00     0.123 A 
ATOM     19  C   UNL A   1      34.029  25.521  26.101  1.00  0.00     0.048 C 
ATOM     20  C   UNL A   1      32.909  24.521  26.201  1.00  0.00    -0.009 A 
ATOM     21  C   UNL A   1      31.610  25.006  26.437  1.00  0.00     0.007 A 
ATOM     22  C   UNL A   1      30.524  24.137  26.486  1.00  0.00     0.001 A 
ATOM     23  C   UNL A   1      32.009  22.288  26.020  1.00  0.00     0.047 A 
ATOM     24  C   UNL A   1      30.725  22.778  26.275  1.00  0.00     0.004 A 
ENDBRANCH  17  18
ENDBRANCH  15  17
ENDBRANCH  13  15
ENDBRANCH  12  13
ENDBRANCH   7  12
ENDBRANCH   3   6
ENDBRANCH   1   2
BRANCH   1  25
ATOM     25  C   UNL A   1      32.802  28.785  26.705  1.00  0.00     0.023 C 
BRANCH  25  26
ATOM     26  C   UNL A   1      34.212  29.372  26.551  1.00  0.00     0.023 C 
BRANCH  26  27
ATOM     27  C   UNL A   1      34.590  30.374  27.635  1.00  0.00     0.116 C 
BRANCH  27  28
ATOM     28  N   UNL A   1      33.800  31.602  27.640  1.00  0.00    -0.352 N 
ATOM     29  C   UNL A   1      34.011  32.764  28.367  1.00  0.00     0.251 C 
ATOM     30  H   UNL A   1      33.013  31.604  27.050  1.00  0.00     0.163 HD
ATOM     31  O   UNL A   1      33.227  33.699  28.293  1.00  0.00    -0.269 OA
BRANCH  29  32
ATOM     32  C   UNL A   1      35.273  32.907  29.132  1.00  0.00     0.039 A 
ATOM     33  C   UNL A   1      36.320  33.606  28.523  1.00  0.00     0.014 A 
ATOM     34  C   UNL A   1      35.498  32.147  30.278  1.00  0.00     0.014 A 
ATOM     35  C   UNL A   1      37.628  33.319  28.897  1.00  0.00     0.010 A 
ATOM     36  C   UNL A   1      36.798  31.794  30.590  1.00  0.00     0.010 A 
ATOM     37  C   UNL A   1      37.857  32.316  29.839  1.00  0.00    -0.014 A 
BRANCH  37  38
ATOM     38  C   UNL A   1      39.142  31.632  29.947  1.00  0.00     0.031 A 
ATOM     39  C   UNL A   1      39.369  30.325  29.306  1.00  0.00     0.074 A 
ATOM     40  C   UNL A   1      40.144  32.198  30.657  1.00  0.00     0.049 A 
ATOM     41  N   UNL A   1      40.222  29.452  29.729  1.00  0.00    -0.248 NA
ATOM     42  C   UNL A   1      38.573  29.858  28.179  1.00  0.00     0.031 C 
ATOM     43  C   UNL A   1      41.549  31.805  30.695  1.00  0.00     0.029 A 
ATOM     44  N   UNL A   1      40.016  33.121  31.691  1.00  0.00    -0.354 N 
ATOM     45  C   UNL A   1      40.317  28.477  28.764  1.00  0.00     0.074 A 
ATOM     46  C   UNL A   1      39.173  28.695  27.911  1.00  0.00     0.031 C 
ATOM     47  C   UNL A   1      42.102  32.280  31.823  1.00  0.00     0.029 A 
ATOM     48  C   UNL A   1      41.035  32.865  32.619  1.00  0.00     0.049 A 
ATOM     49  H   UNL A   1      39.334  33.827  31.759  1.00  0.00     0.167 HD
ATOM     50  C   UNL A   1      41.442  27.711  28.700  1.00  0.00     0.031 A 
ATOM     51  C   UNL A   1      40.748  32.520  33.908  1.00  0.00     0.031 A 
ATOM     52  C   UNL A   1      42.315  27.912  29.861  1.00  0.00     0.049 A 
ATOM     53  C   UNL A   1      41.278  31.164  34.317  1.00  0.00     0.074 A 
ATOM     54  C   UNL A   1      43.528  28.556  30.036  1.00  0.00     0.029 A 
ATOM     55  N   UNL A   1      41.839  27.623  31.136  1.00  0.00    -0.354 N 
ATOM     56  N   UNL A   1      41.668  30.246  33.477  1.00  0.00    -0.248 NA
ATOM     57  C   UNL A   1      41.350  30.716  35.705  1.00  0.00     0.031 C 
ATOM     58  C   UNL A   1      43.752  28.707  31.430  1.00  0.00     0.029 A 
ATOM     59  C   UNL A   1      42.688  28.129  32.101  1.00  0.00     0.049 A 
ATOM     60  H   UNL A   1      41.010  27.125  31.326  1.00  0.00     0.167 HD
ATOM     61  C   UNL A   1      42.001  29.108  34.166  1.00  0.00     0.074 A 
ATOM     62  C   UNL A   1      41.809  29.461  35.560  1.00  0.00     0.031 C 
ATOM     63  C   UNL A   1      42.383  27.967  33.519  1.00  0.00     0.031 A 
BRANCH  50  64
ATOM     64  C   UNL A   1      41.902  26.995  27.440  1.00  0.00    -0.014 A 
ATOM     65  C   UNL A   1      41.307  25.769  27.083  1.00  0.00     0.009 A 
ATOM     66  C   UNL A   1      42.970  27.401  26.621  1.00  0.00     0.009 A 
ATOM     67  C   UNL A   1      41.799  24.971  26.038  1.00  0.00     0.001 A 
ATOM     68  C   UNL A   1      43.473  26.610  25.578  1.00  0.00     0.001 A 
ATOM     69  C   UNL A   1      42.896  25.384  25.295  1.00  0.00     0.000 A 
ENDBRANCH  50  64
BRANCH  51  70
ATOM     70  C   UNL A   1      39.476  33.101  34.424  1.00  0.00    -0.014 A 
ATOM     71  C   UNL A   1      38.259  32.484  34.072  1.00  0.00     0.009 A 
ATOM     72  C   UNL A   1      39.480  34.018  35.484  1.00  0.00     0.009 A 
ATOM     73  C   UNL A   1      37.103  32.696  34.828  1.00  0.00     0.001 A 
ATOM     74  C   UNL A   1      38.316  34.239  36.230  1.00  0.00     0.001 A 
ATOM     75  C   UNL A   1      37.140  33.555  35.922  1.00  0.00     0.000 A 
ENDBRANCH  51  70
BRANCH  63  76
ATOM     76  C   UNL A   1      42.570  26.601  34.142  1.00  0.00    -0.014 A 
ATOM     77  C   UNL A   1      43.716  25.807  34.002  1.00  0.00     0.009 A 
ATOM     78  C   UNL A   1      41.579  26.118  35.028  1.00  0.00     0.009 A 
ATOM     79  C   UNL A   1      43.844  24.578  34.667  1.00  0.00     0.001 A 
ATOM     80  C   UNL A   1      41.721  24.916  35.728  1.00  0.00     0.001 A 
ATOM     81  C   UNL A   1      42.853  24.137  35.536  1.00  0.00     0.000 A 
ENDBRANCH  63  76
ENDBRANCH  37  38
ENDBRANCH  29  32
ENDBRANCH  27  28
ENDBRANCH  26  27
ENDBRANCH  25  26
ENDBRANCH   1  25
TORSDOF 16
ENDMDL
