MODEL 1
REMARK VINA RESULT:     -12.1      0.000      0.000
REMARK SMILES C[NH+]1CCC([NH+]2CCC(Oc3ccc4ccccc4c3)(C(=O)NCCCCNC(=O)c3ccc(-c4c5nc(c(-c6ccccc6)c6ccc([nH]6)c(-c6ccccc6)c6nc(c(-c7ccccc7)c7ccc4[nH]7)C=C6)C=C5)cc3)CC2)CC1
REMARK SMILES IDX 25 1 24 2 23 3 21 4 22 5 9 7 6 8 7 9 80 10 8 12 79 13 5 14
REMARK SMILES IDX 1 15 2 16 3 17 82 18 4 20 81 21 10 22 11 23 12 24 20 25
REMARK SMILES IDX 13 26 19 27 14 28 18 29 15 30 17 31 16 32 26 33 27 34 28 35
REMARK SMILES IDX 29 36 30 38 31 39 32 40 78 41 33 42 77 43 34 44 35 45 36 46
REMARK SMILES IDX 71 47 37 48 76 49 70 50 72 51 38 52 75 53 69 54 68 55 39 57
REMARK SMILES IDX 61 58 46 59 60 60 47 61 50 62 59 63 73 64 48 65 49 66 58 68
REMARK SMILES IDX 74 69 51 70 40 71 41 72 45 73 42 74 44 75 43 76 62 77 63 78
REMARK SMILES IDX 67 79 64 80 66 81 65 82 52 83 53 84 57 85 54 86 56 87 55 88
REMARK H PARENT 23 6 6 11 2 19 28 37 72 56 50 67
REMARK Flexibility Score: inf
ROOT
ATOM      1  C   UNL A   1      39.223  22.752  26.444  1.00  0.00     0.023 C 
ENDROOT
BRANCH   1   2
ATOM      2  C   UNL A   1      37.964  23.525  26.048  1.00  0.00     0.116 C 
BRANCH   2   3
ATOM      3  N   UNL A   1      37.621  23.298  24.659  1.00  0.00    -0.353 N 
ATOM      4  C   UNL A   1      36.401  23.288  24.041  1.00  0.00     0.264 C 
ATOM      5  O   UNL A   1      36.420  23.126  22.817  1.00  0.00    -0.270 OA
ATOM      6  H   UNL A   1      38.388  23.123  24.066  1.00  0.00     0.163 HD
BRANCH   4   7
ATOM      7  C   UNL A   1      35.078  23.471  24.846  1.00  0.00     0.197 C 
ATOM      8  N   UNL A   1      33.870  20.786  24.896  1.00  0.00    -0.332 N 
ATOM      9  C   UNL A   1      35.085  21.090  25.655  1.00  0.00     0.267 C 
ATOM     10  C   UNL A   1      33.786  21.597  23.668  1.00  0.00     0.267 C 
ATOM     11  H   UNL A   1      33.085  21.053  25.489  1.00  0.00     0.348 HD
ATOM     12  C   UNL A   1      35.040  22.550  26.069  1.00  0.00     0.120 C 
ATOM     13  C   UNL A   1      33.875  23.110  23.948  1.00  0.00     0.120 C 
BRANCH   8  14
ATOM     14  C   UNL A   1      33.675  19.336  24.646  1.00  0.00     0.195 C 
ATOM     15  C   UNL A   1      33.542  15.085  25.372  1.00  0.00     0.332 C 
ATOM     16  N   UNL A   1      33.741  16.529  25.475  1.00  0.00    -0.337 N 
ATOM     17  C   UNL A   1      32.456  17.237  25.407  1.00  0.00     0.268 C 
ATOM     18  C   UNL A   1      34.652  17.009  24.430  1.00  0.00     0.268 C 
ATOM     19  H   UNL A   1      34.166  16.725  26.381  1.00  0.00     0.347 HD
ATOM     20  C   UNL A   1      32.660  18.733  25.641  1.00  0.00     0.126 C 
ATOM     21  C   UNL A   1      34.963  18.493  24.626  1.00  0.00     0.126 C 
ENDBRANCH   8  14
BRANCH   7  22
ATOM     22  O   UNL A   1      35.139  24.891  25.137  1.00  0.00    -0.477 OA
BRANCH  22  23
ATOM     23  C   UNL A   1      34.004  25.639  25.072  1.00  0.00     0.121 A 
ATOM     24  C   UNL A   1      33.106  25.735  26.129  1.00  0.00     0.047 A 
ATOM     25  C   UNL A   1      33.845  26.456  23.955  1.00  0.00     0.055 A 
ATOM     26  C   UNL A   1      31.976  26.545  26.020  1.00  0.00     0.012 A 
ATOM     27  C   UNL A   1      32.739  27.314  23.845  1.00  0.00    -0.015 A 
ATOM     28  C   UNL A   1      31.775  27.335  24.881  1.00  0.00    -0.018 A 
ATOM     29  C   UNL A   1      32.567  28.158  22.737  1.00  0.00     0.009 A 
ATOM     30  C   UNL A   1      30.649  28.162  24.763  1.00  0.00     0.009 A 
ATOM     31  C   UNL A   1      31.452  28.992  22.644  1.00  0.00     0.001 A 
ATOM     32  C   UNL A   1      30.489  28.985  23.649  1.00  0.00     0.001 A 
ENDBRANCH  22  23
ENDBRANCH   7  22
ENDBRANCH   4   7
ENDBRANCH   2   3
ENDBRANCH   1   2
BRANCH   1  33
ATOM     33  C   UNL A   1      39.363  21.384  25.778  1.00  0.00     0.023 C 
BRANCH  33  34
ATOM     34  C   UNL A   1      40.031  20.321  26.637  1.00  0.00     0.116 C 
BRANCH  34  35
ATOM     35  N   UNL A   1      41.210  19.744  26.011  1.00  0.00    -0.352 N 
ATOM     36  C   UNL A   1      42.422  20.333  25.755  1.00  0.00     0.251 C 
ATOM     37  H   UNL A   1      41.127  18.804  25.733  1.00  0.00     0.163 HD
ATOM     38  O   UNL A   1      43.267  19.741  25.087  1.00  0.00    -0.269 OA
BRANCH  36  39
ATOM     39  C   UNL A   1      42.698  21.692  26.262  1.00  0.00     0.039 A 
ATOM     40  C   UNL A   1      42.835  22.737  25.346  1.00  0.00     0.014 A 
ATOM     41  C   UNL A   1      42.818  21.936  27.633  1.00  0.00     0.014 A 
ATOM     42  C   UNL A   1      43.058  24.035  25.808  1.00  0.00     0.010 A 
ATOM     43  C   UNL A   1      42.949  23.241  28.095  1.00  0.00     0.010 A 
ATOM     44  C   UNL A   1      43.096  24.300  27.188  1.00  0.00    -0.014 A 
BRANCH  44  45
ATOM     45  C   UNL A   1      43.339  25.673  27.694  1.00  0.00     0.031 A 
ATOM     46  C   UNL A   1      42.175  26.573  28.013  1.00  0.00     0.074 A 
ATOM     47  C   UNL A   1      44.600  26.124  27.834  1.00  0.00     0.049 A 
ATOM     48  N   UNL A   1      42.178  27.806  28.455  1.00  0.00    -0.248 NA
ATOM     49  C   UNL A   1      40.827  26.026  27.779  1.00  0.00     0.031 C 
ATOM     50  C   UNL A   1      45.814  25.368  27.518  1.00  0.00     0.029 A 
ATOM     51  N   UNL A   1      45.069  27.332  28.284  1.00  0.00    -0.354 N 
ATOM     52  C   UNL A   1      40.844  28.182  28.535  1.00  0.00     0.074 A 
ATOM     53  C   UNL A   1      40.060  27.074  28.037  1.00  0.00     0.031 C 
ATOM     54  C   UNL A   1      46.887  26.115  27.822  1.00  0.00     0.029 A 
ATOM     55  C   UNL A   1      46.439  27.413  28.316  1.00  0.00     0.049 A 
ATOM     56  H   UNL A   1      44.479  28.071  28.560  1.00  0.00     0.167 HD
ATOM     57  C   UNL A   1      40.312  29.335  29.008  1.00  0.00     0.031 A 
ATOM     58  C   UNL A   1      47.244  28.419  28.704  1.00  0.00     0.031 A 
ATOM     59  C   UNL A   1      41.091  30.433  29.513  1.00  0.00     0.049 A 
ATOM     60  C   UNL A   1      46.630  29.692  29.218  1.00  0.00     0.074 A 
ATOM     61  C   UNL A   1      40.648  31.624  30.061  1.00  0.00     0.029 A 
ATOM     62  N   UNL A   1      42.476  30.474  29.531  1.00  0.00    -0.354 N 
ATOM     63  N   UNL A   1      45.364  30.006  29.355  1.00  0.00    -0.248 NA
ATOM     64  C   UNL A   1      47.561  30.743  29.650  1.00  0.00     0.031 C 
ATOM     65  C   UNL A   1      41.766  32.409  30.360  1.00  0.00     0.029 A 
ATOM     66  C   UNL A   1      42.906  31.679  30.061  1.00  0.00     0.049 A 
ATOM     67  H   UNL A   1      43.067  29.753  29.214  1.00  0.00     0.167 HD
ATOM     68  C   UNL A   1      45.348  31.275  29.920  1.00  0.00     0.074 A 
ATOM     69  C   UNL A   1      46.729  31.661  30.119  1.00  0.00     0.031 C 
ATOM     70  C   UNL A   1      44.284  32.051  30.247  1.00  0.00     0.031 A 
BRANCH  57  71
ATOM     71  C   UNL A   1      38.813  29.461  28.989  1.00  0.00    -0.014 A 
ATOM     72  C   UNL A   1      38.045  29.229  30.143  1.00  0.00     0.009 A 
ATOM     73  C   UNL A   1      38.158  29.837  27.806  1.00  0.00     0.009 A 
ATOM     74  C   UNL A   1      36.653  29.328  30.101  1.00  0.00     0.001 A 
ATOM     75  C   UNL A   1      36.768  29.968  27.776  1.00  0.00     0.001 A 
ATOM     76  C   UNL A   1      36.016  29.702  28.919  1.00  0.00     0.000 A 
ENDBRANCH  57  71
BRANCH  58  77
ATOM     77  C   UNL A   1      48.722  28.260  28.649  1.00  0.00    -0.014 A 
ATOM     78  C   UNL A   1      49.435  28.608  27.491  1.00  0.00     0.009 A 
ATOM     79  C   UNL A   1      49.426  27.739  29.746  1.00  0.00     0.009 A 
ATOM     80  C   UNL A   1      50.815  28.405  27.420  1.00  0.00     0.001 A 
ATOM     81  C   UNL A   1      50.810  27.569  29.685  1.00  0.00     0.001 A 
ATOM     82  C   UNL A   1      51.502  27.889  28.517  1.00  0.00     0.000 A 
ENDBRANCH  58  77
BRANCH  70  83
ATOM     83  C   UNL A   1      44.580  33.378  30.893  1.00  0.00    -0.014 A 
ATOM     84  C   UNL A   1      44.741  34.546  30.131  1.00  0.00     0.009 A 
ATOM     85  C   UNL A   1      44.687  33.457  32.290  1.00  0.00     0.009 A 
ATOM     86  C   UNL A   1      45.054  35.756  30.754  1.00  0.00     0.001 A 
ATOM     87  C   UNL A   1      44.963  34.676  32.913  1.00  0.00     0.001 A 
ATOM     88  C   UNL A   1      45.162  35.821  32.143  1.00  0.00     0.000 A 
ENDBRANCH  70  83
ENDBRANCH  44  45
ENDBRANCH  36  39
ENDBRANCH  34  35
ENDBRANCH  33  34
ENDBRANCH   1  33
TORSDOF 14
ENDMDL
MODEL 2
REMARK VINA RESULT:     -11.9      1.040      5.759
REMARK SMILES C[NH+]1CCC([NH+]2CCC(Oc3ccc4ccccc4c3)(C(=O)NCCCCNC(=O)c3ccc(-c4c5nc(c(-c6ccccc6)c6ccc([nH]6)c(-c6ccccc6)c6nc(c(-c7ccccc7)c7ccc4[nH]7)C=C6)C=C5)cc3)CC2)CC1
REMARK SMILES IDX 25 1 24 2 23 3 21 4 22 5 9 7 6 8 7 9 80 10 8 12 79 13 5 14
REMARK SMILES IDX 1 15 2 16 3 17 82 18 4 20 81 21 10 22 11 23 12 24 20 25
REMARK SMILES IDX 13 26 19 27 14 28 18 29 15 30 17 31 16 32 26 33 27 34 28 35
REMARK SMILES IDX 29 36 30 38 31 39 32 40 78 41 33 42 77 43 34 44 35 45 36 46
REMARK SMILES IDX 71 47 37 48 76 49 70 50 72 51 38 52 75 53 69 54 68 55 39 57
REMARK SMILES IDX 61 58 46 59 60 60 47 61 50 62 59 63 73 64 48 65 49 66 58 68
REMARK SMILES IDX 74 69 51 70 40 71 41 72 45 73 42 74 44 75 43 76 62 77 63 78
REMARK SMILES IDX 67 79 64 80 66 81 65 82 52 83 53 84 57 85 54 86 56 87 55 88
REMARK H PARENT 23 6 6 11 2 19 28 37 72 56 50 67
REMARK Flexibility Score: inf
ROOT
ATOM      1  C   UNL A   1      38.882  22.397  26.129  1.00  0.00     0.023 C 
ENDROOT
BRANCH   1   2
ATOM      2  C   UNL A   1      37.648  23.238  25.800  1.00  0.00     0.116 C 
BRANCH   2   3
ATOM      3  N   UNL A   1      37.307  23.147  24.396  1.00  0.00    -0.353 N 
ATOM      4  C   UNL A   1      36.094  23.252  23.773  1.00  0.00     0.264 C 
ATOM      5  O   UNL A   1      36.116  23.193  22.539  1.00  0.00    -0.270 OA
ATOM      6  H   UNL A   1      38.069  22.984  23.794  1.00  0.00     0.163 HD
BRANCH   4   7
ATOM      7  C   UNL A   1      34.774  23.433  24.584  1.00  0.00     0.197 C 
ATOM      8  N   UNL A   1      33.649  20.718  24.774  1.00  0.00    -0.332 N 
ATOM      9  C   UNL A   1      34.862  21.095  25.504  1.00  0.00     0.267 C 
ATOM     10  C   UNL A   1      33.528  21.468  23.511  1.00  0.00     0.267 C 
ATOM     11  H   UNL A   1      32.862  20.990  25.363  1.00  0.00     0.348 HD
ATOM     12  C   UNL A   1      34.777  22.570  25.849  1.00  0.00     0.120 C 
ATOM     13  C   UNL A   1      33.574  22.994  23.718  1.00  0.00     0.120 C 
BRANCH   8  14
ATOM     14  C   UNL A   1      33.496  19.253  24.595  1.00  0.00     0.195 C 
ATOM     15  C   UNL A   1      33.569  15.035  25.499  1.00  0.00     0.332 C 
ATOM     16  N   UNL A   1      33.718  16.489  25.531  1.00  0.00    -0.337 N 
ATOM     17  C   UNL A   1      32.405  17.146  25.512  1.00  0.00     0.268 C 
ATOM     18  C   UNL A   1      34.547  16.956  24.415  1.00  0.00     0.268 C 
ATOM     19  H   UNL A   1      34.188  16.738  26.402  1.00  0.00     0.347 HD
ATOM     20  C   UNL A   1      32.565  18.657  25.672  1.00  0.00     0.126 C 
ATOM     21  C   UNL A   1      34.811  18.457  24.532  1.00  0.00     0.126 C 
ENDBRANCH   8  14
BRANCH   7  22
ATOM     22  O   UNL A   1      34.795  24.867  24.806  1.00  0.00    -0.477 OA
BRANCH  22  23
ATOM     23  C   UNL A   1      33.839  25.649  24.235  1.00  0.00     0.121 A 
ATOM     24  C   UNL A   1      34.060  26.373  23.069  1.00  0.00     0.047 A 
ATOM     25  C   UNL A   1      32.554  25.571  24.767  1.00  0.00     0.055 A 
ATOM     26  C   UNL A   1      33.033  27.130  22.507  1.00  0.00     0.012 A 
ATOM     27  C   UNL A   1      31.494  26.289  24.189  1.00  0.00    -0.015 A 
ATOM     28  C   UNL A   1      31.746  27.104  23.060  1.00  0.00    -0.018 A 
ATOM     29  C   UNL A   1      30.188  26.212  24.697  1.00  0.00     0.009 A 
ATOM     30  C   UNL A   1      30.701  27.851  22.498  1.00  0.00     0.009 A 
ATOM     31  C   UNL A   1      29.154  26.946  24.114  1.00  0.00     0.001 A 
ATOM     32  C   UNL A   1      29.412  27.772  23.024  1.00  0.00     0.001 A 
ENDBRANCH  22  23
ENDBRANCH   7  22
ENDBRANCH   4   7
ENDBRANCH   2   3
ENDBRANCH   1   2
BRANCH   1  33
ATOM     33  C   UNL A   1      38.939  21.048  25.414  1.00  0.00     0.023 C 
BRANCH  33  34
ATOM     34  C   UNL A   1      39.388  19.883  26.282  1.00  0.00     0.116 C 
BRANCH  34  35
ATOM     35  N   UNL A   1      40.611  19.258  25.804  1.00  0.00    -0.352 N 
ATOM     36  C   UNL A   1      41.881  19.775  25.760  1.00  0.00     0.251 C 
ATOM     37  H   UNL A   1      40.515  18.339  25.465  1.00  0.00     0.163 HD
ATOM     38  O   UNL A   1      42.780  19.160  25.191  1.00  0.00    -0.269 OA
BRANCH  36  39
ATOM     39  C   UNL A   1      42.158  21.089  26.376  1.00  0.00     0.039 A 
ATOM     40  C   UNL A   1      42.497  22.161  25.550  1.00  0.00     0.014 A 
ATOM     41  C   UNL A   1      42.082  21.262  27.761  1.00  0.00     0.014 A 
ATOM     42  C   UNL A   1      42.726  23.419  26.111  1.00  0.00     0.010 A 
ATOM     43  C   UNL A   1      42.219  22.533  28.308  1.00  0.00     0.010 A 
ATOM     44  C   UNL A   1      42.568  23.619  27.492  1.00  0.00    -0.014 A 
BRANCH  44  45
ATOM     45  C   UNL A   1      42.813  24.948  28.104  1.00  0.00     0.031 A 
ATOM     46  C   UNL A   1      44.201  25.325  28.548  1.00  0.00     0.074 A 
ATOM     47  C   UNL A   1      41.788  25.801  28.293  1.00  0.00     0.049 A 
ATOM     48  N   UNL A   1      44.617  26.432  29.112  1.00  0.00    -0.248 NA
ATOM     49  C   UNL A   1      45.258  24.317  28.360  1.00  0.00     0.031 C 
ATOM     50  C   UNL A   1      40.389  25.538  27.946  1.00  0.00     0.029 A 
ATOM     51  N   UNL A   1      41.768  27.066  28.820  1.00  0.00    -0.354 N 
ATOM     52  C   UNL A   1      45.971  26.244  29.357  1.00  0.00     0.074 A 
ATOM     53  C   UNL A   1      46.295  24.898  28.943  1.00  0.00     0.031 C 
ATOM     54  C   UNL A   1      39.655  26.624  28.235  1.00  0.00     0.029 A 
ATOM     55  C   UNL A   1      40.522  27.643  28.820  1.00  0.00     0.049 A 
ATOM     56  H   UNL A   1      42.571  27.519  29.166  1.00  0.00     0.167 HD
ATOM     57  C   UNL A   1      46.875  27.122  29.856  1.00  0.00     0.031 A 
ATOM     58  C   UNL A   1      40.123  28.857  29.240  1.00  0.00     0.031 A 
ATOM     59  C   UNL A   1      46.556  28.465  30.259  1.00  0.00     0.049 A 
ATOM     60  C   UNL A   1      41.144  29.811  29.797  1.00  0.00     0.074 A 
ATOM     61  C   UNL A   1      47.407  29.448  30.730  1.00  0.00     0.029 A 
ATOM     62  N   UNL A   1      45.282  29.011  30.240  1.00  0.00    -0.354 N 
ATOM     63  N   UNL A   1      42.435  29.645  29.956  1.00  0.00    -0.248 NA
ATOM     64  C   UNL A   1      40.651  31.131  30.214  1.00  0.00     0.031 C 
ATOM     65  C   UNL A   1      46.639  30.574  31.048  1.00  0.00     0.029 A 
ATOM     66  C   UNL A   1      45.320  30.313  30.711  1.00  0.00     0.049 A 
ATOM     67  H   UNL A   1      44.471  28.543  29.936  1.00  0.00     0.167 HD
ATOM     68  C   UNL A   1      42.913  30.848  30.459  1.00  0.00     0.074 A 
ATOM     69  C   UNL A   1      41.776  31.741  30.557  1.00  0.00     0.031 C 
ATOM     70  C   UNL A   1      44.179  31.186  30.808  1.00  0.00     0.031 A 
BRANCH  57  71
ATOM     71  C   UNL A   1      48.294  26.643  29.998  1.00  0.00    -0.014 A 
ATOM     72  C   UNL A   1      48.728  25.973  31.155  1.00  0.00     0.009 A 
ATOM     73  C   UNL A   1      49.209  26.848  28.953  1.00  0.00     0.009 A 
ATOM     74  C   UNL A   1      50.055  25.556  31.278  1.00  0.00     0.001 A 
ATOM     75  C   UNL A   1      50.527  26.401  29.066  1.00  0.00     0.001 A 
ATOM     76  C   UNL A   1      50.952  25.766  30.232  1.00  0.00     0.000 A 
ENDBRANCH  57  71
BRANCH  58  77
ATOM     77  C   UNL A   1      38.695  29.258  29.127  1.00  0.00    -0.014 A 
ATOM     78  C   UNL A   1      38.195  29.791  27.928  1.00  0.00     0.009 A 
ATOM     79  C   UNL A   1      37.828  29.129  30.222  1.00  0.00     0.009 A 
ATOM     80  C   UNL A   1      36.869  30.218  27.840  1.00  0.00     0.001 A 
ATOM     81  C   UNL A   1      36.494  29.526  30.122  1.00  0.00     0.001 A 
ATOM     82  C   UNL A   1      36.018  30.082  28.935  1.00  0.00     0.000 A 
ENDBRANCH  58  77
BRANCH  70  83
ATOM     83  C   UNL A   1      44.403  32.595  31.287  1.00  0.00    -0.014 A 
ATOM     84  C   UNL A   1      44.303  32.934  32.645  1.00  0.00     0.009 A 
ATOM     85  C   UNL A   1      44.732  33.596  30.359  1.00  0.00     0.009 A 
ATOM     86  C   UNL A   1      44.477  34.258  33.056  1.00  0.00     0.001 A 
ATOM     87  C   UNL A   1      44.942  34.911  30.778  1.00  0.00     0.001 A 
ATOM     88  C   UNL A   1      44.799  35.243  32.124  1.00  0.00     0.000 A 
ENDBRANCH  70  83
ENDBRANCH  44  45
ENDBRANCH  36  39
ENDBRANCH  34  35
ENDBRANCH  33  34
ENDBRANCH   1  33
TORSDOF 14
ENDMDL
MODEL 3
REMARK VINA RESULT:     -11.5      3.712      9.520
REMARK SMILES C[NH+]1CCC([NH+]2CCC(Oc3ccc4ccccc4c3)(C(=O)NCCCCNC(=O)c3ccc(-c4c5nc(c(-c6ccccc6)c6ccc([nH]6)c(-c6ccccc6)c6nc(c(-c7ccccc7)c7ccc4[nH]7)C=C6)C=C5)cc3)CC2)CC1
REMARK SMILES IDX 25 1 24 2 23 3 21 4 22 5 9 7 6 8 7 9 80 10 8 12 79 13 5 14
REMARK SMILES IDX 1 15 2 16 3 17 82 18 4 20 81 21 10 22 11 23 12 24 20 25
REMARK SMILES IDX 13 26 19 27 14 28 18 29 15 30 17 31 16 32 26 33 27 34 28 35
REMARK SMILES IDX 29 36 30 38 31 39 32 40 78 41 33 42 77 43 34 44 35 45 36 46
REMARK SMILES IDX 71 47 37 48 76 49 70 50 72 51 38 52 75 53 69 54 68 55 39 57
REMARK SMILES IDX 61 58 46 59 60 60 47 61 50 62 59 63 73 64 48 65 49 66 58 68
REMARK SMILES IDX 74 69 51 70 40 71 41 72 45 73 42 74 44 75 43 76 62 77 63 78
REMARK SMILES IDX 67 79 64 80 66 81 65 82 52 83 53 84 57 85 54 86 56 87 55 88
REMARK H PARENT 23 6 6 11 2 19 28 37 72 56 50 67
REMARK Flexibility Score: inf
ROOT
ATOM      1  C   UNL A   1      34.319  30.981  27.497  1.00  0.00     0.023 C 
ENDROOT
BRANCH   1   2
ATOM      2  C   UNL A   1      34.248  29.496  27.137  1.00  0.00     0.116 C 
BRANCH   2   3
ATOM      3  N   UNL A   1      34.508  29.282  25.729  1.00  0.00    -0.353 N 
ATOM      4  C   UNL A   1      33.902  28.441  24.836  1.00  0.00     0.264 C 
ATOM      5  O   UNL A   1      34.299  28.519  23.669  1.00  0.00    -0.270 OA
ATOM      6  H   UNL A   1      35.237  29.829  25.354  1.00  0.00     0.163 HD
BRANCH   4   7
ATOM      7  C   UNL A   1      32.783  27.451  25.281  1.00  0.00     0.197 C 
ATOM      8  N   UNL A   1      30.308  28.585  24.157  1.00  0.00    -0.332 N 
ATOM      9  C   UNL A   1      31.334  27.989  23.298  1.00  0.00     0.267 C 
ATOM     10  C   UNL A   1      30.902  29.190  25.362  1.00  0.00     0.267 C 
ATOM     11  H   UNL A   1      29.711  27.818  24.467  1.00  0.00     0.348 HD
ATOM     12  C   UNL A   1      32.030  26.886  24.073  1.00  0.00     0.120 C 
ATOM     13  C   UNL A   1      31.760  28.194  26.167  1.00  0.00     0.120 C 
BRANCH   8  14
ATOM     14  C   UNL A   1      29.394  29.506  23.437  1.00  0.00     0.195 C 
ATOM     15  C   UNL A   1      28.074  32.703  20.859  1.00  0.00     0.332 C 
ATOM     16  N   UNL A   1      28.865  31.767  21.656  1.00  0.00    -0.337 N 
ATOM     17  C   UNL A   1      28.707  30.396  21.156  1.00  0.00     0.268 C 
ATOM     18  C   UNL A   1      28.497  31.847  23.074  1.00  0.00     0.268 C 
ATOM     19  H   UNL A   1      29.847  32.029  21.567  1.00  0.00     0.347 HD
ATOM     20  C   UNL A   1      29.630  29.444  21.913  1.00  0.00     0.126 C 
ATOM     21  C   UNL A   1      29.419  30.967  23.919  1.00  0.00     0.126 C 
ENDBRANCH   8  14
BRANCH   7  22
ATOM     22  O   UNL A   1      33.565  26.488  26.034  1.00  0.00    -0.477 OA
BRANCH  22  23
ATOM     23  C   UNL A   1      33.790  25.252  25.512  1.00  0.00     0.121 A 
ATOM     24  C   UNL A   1      34.678  25.028  24.467  1.00  0.00     0.047 A 
ATOM     25  C   UNL A   1      33.220  24.169  26.178  1.00  0.00     0.055 A 
ATOM     26  C   UNL A   1      34.897  23.734  23.995  1.00  0.00     0.012 A 
ATOM     27  C   UNL A   1      33.464  22.854  25.748  1.00  0.00    -0.015 A 
ATOM     28  C   UNL A   1      34.291  22.638  24.621  1.00  0.00    -0.018 A 
ATOM     29  C   UNL A   1      32.915  21.747  26.414  1.00  0.00     0.009 A 
ATOM     30  C   UNL A   1      34.511  21.331  24.164  1.00  0.00     0.009 A 
ATOM     31  C   UNL A   1      33.160  20.450  25.960  1.00  0.00     0.001 A 
ATOM     32  C   UNL A   1      33.948  20.243  24.831  1.00  0.00     0.001 A 
ENDBRANCH  22  23
ENDBRANCH   7  22
ENDBRANCH   4   7
ENDBRANCH   2   3
ENDBRANCH   1   2
BRANCH   1  33
ATOM     33  C   UNL A   1      32.962  31.675  27.598  1.00  0.00     0.023 C 
BRANCH  33  34
ATOM     34  C   UNL A   1      32.917  33.077  27.010  1.00  0.00     0.116 C 
BRANCH  34  35
ATOM     35  N   UNL A   1      32.539  34.088  27.984  1.00  0.00    -0.352 N 
ATOM     36  C   UNL A   1      33.181  34.449  29.142  1.00  0.00     0.251 C 
ATOM     37  H   UNL A   1      31.710  34.581  27.786  1.00  0.00     0.163 HD
ATOM     38  O   UNL A   1      32.648  35.230  29.926  1.00  0.00    -0.269 OA
BRANCH  36  39
ATOM     39  C   UNL A   1      34.504  33.873  29.455  1.00  0.00     0.039 A 
ATOM     40  C   UNL A   1      34.613  32.974  30.518  1.00  0.00     0.014 A 
ATOM     41  C   UNL A   1      35.633  34.216  28.704  1.00  0.00     0.014 A 
ATOM     42  C   UNL A   1      35.848  32.391  30.805  1.00  0.00     0.010 A 
ATOM     43  C   UNL A   1      36.840  33.566  28.932  1.00  0.00     0.010 A 
ATOM     44  C   UNL A   1      36.967  32.667  30.001  1.00  0.00    -0.014 A 
BRANCH  44  45
ATOM     45  C   UNL A   1      38.287  32.060  30.298  1.00  0.00     0.031 A 
ATOM     46  C   UNL A   1      39.250  32.766  31.215  1.00  0.00     0.074 A 
ATOM     47  C   UNL A   1      38.637  30.895  29.717  1.00  0.00     0.049 A 
ATOM     48  N   UNL A   1      40.452  32.405  31.589  1.00  0.00    -0.248 NA
ATOM     49  C   UNL A   1      38.817  34.062  31.764  1.00  0.00     0.031 C 
ATOM     50  C   UNL A   1      37.814  30.133  28.776  1.00  0.00     0.029 A 
ATOM     51  N   UNL A   1      39.780  30.147  29.841  1.00  0.00    -0.354 N 
ATOM     52  C   UNL A   1      40.918  33.432  32.399  1.00  0.00     0.074 A 
ATOM     53  C   UNL A   1      39.901  34.459  32.411  1.00  0.00     0.031 C 
ATOM     54  C   UNL A   1      38.463  29.007  28.439  1.00  0.00     0.029 A 
ATOM     55  C   UNL A   1      39.760  28.987  29.108  1.00  0.00     0.049 A 
ATOM     56  H   UNL A   1      40.543  30.416  30.403  1.00  0.00     0.167 HD
ATOM     57  C   UNL A   1      42.078  33.506  33.096  1.00  0.00     0.031 A 
ATOM     58  C   UNL A   1      40.681  28.013  28.991  1.00  0.00     0.031 A 
ATOM     59  C   UNL A   1      43.087  32.481  33.093  1.00  0.00     0.049 A 
ATOM     60  C   UNL A   1      41.963  28.121  29.769  1.00  0.00     0.074 A 
ATOM     61  C   UNL A   1      44.273  32.436  33.802  1.00  0.00     0.029 A 
ATOM     62  N   UNL A   1      43.026  31.319  32.339  1.00  0.00    -0.354 N 
ATOM     63  N   UNL A   1      42.360  29.065  30.587  1.00  0.00    -0.248 NA
ATOM     64  C   UNL A   1      42.918  27.013  29.619  1.00  0.00     0.031 C 
ATOM     65  C   UNL A   1      44.957  31.272  33.437  1.00  0.00     0.029 A 
ATOM     66  C   UNL A   1      44.164  30.559  32.550  1.00  0.00     0.049 A 
ATOM     67  H   UNL A   1      42.283  31.071  31.742  1.00  0.00     0.167 HD
ATOM     68  C   UNL A   1      43.592  28.650  31.076  1.00  0.00     0.074 A 
ATOM     69  C   UNL A   1      43.865  27.360  30.478  1.00  0.00     0.031 C 
ATOM     70  C   UNL A   1      44.424  29.280  31.943  1.00  0.00     0.031 A 
BRANCH  57  71
ATOM     71  C   UNL A   1      42.314  34.747  33.913  1.00  0.00    -0.014 A 
ATOM     72  C   UNL A   1      42.902  35.893  33.350  1.00  0.00     0.009 A 
ATOM     73  C   UNL A   1      41.925  34.782  35.261  1.00  0.00     0.009 A 
ATOM     74  C   UNL A   1      43.134  37.028  34.129  1.00  0.00     0.001 A 
ATOM     75  C   UNL A   1      42.127  35.930  36.029  1.00  0.00     0.001 A 
ATOM     76  C   UNL A   1      42.742  37.047  35.466  1.00  0.00     0.000 A 
ENDBRANCH  57  71
BRANCH  58  77
ATOM     77  C   UNL A   1      40.418  26.833  28.124  1.00  0.00    -0.014 A 
ATOM     78  C   UNL A   1      39.677  25.742  28.607  1.00  0.00     0.009 A 
ATOM     79  C   UNL A   1      40.923  26.780  26.816  1.00  0.00     0.009 A 
ATOM     80  C   UNL A   1      39.479  24.612  27.812  1.00  0.00     0.001 A 
ATOM     81  C   UNL A   1      40.695  25.663  26.012  1.00  0.00     0.001 A 
ATOM     82  C   UNL A   1      39.984  24.573  26.514  1.00  0.00     0.000 A 
ENDBRANCH  58  77
BRANCH  70  83
ATOM     83  C   UNL A   1      45.687  28.556  32.326  1.00  0.00    -0.014 A 
ATOM     84  C   UNL A   1      46.881  28.733  31.610  1.00  0.00     0.009 A 
ATOM     85  C   UNL A   1      45.679  27.693  33.432  1.00  0.00     0.009 A 
ATOM     86  C   UNL A   1      48.027  28.017  31.963  1.00  0.00     0.001 A 
ATOM     87  C   UNL A   1      46.837  27.008  33.807  1.00  0.00     0.001 A 
ATOM     88  C   UNL A   1      48.005  27.160  33.062  1.00  0.00     0.000 A 
ENDBRANCH  70  83
ENDBRANCH  44  45
ENDBRANCH  36  39
ENDBRANCH  34  35
ENDBRANCH  33  34
ENDBRANCH   1  33
TORSDOF 14
ENDMDL
