MODEL 1
REMARK VINA RESULT:     -10.8      0.000      0.000
REMARK SMILES CC(C)C[C@H](CNC(=O)c1ccc(O)cc1O)C(=O)NCCCCNC(=O)c1ccc(-c2c3nc(c(-c4ccccc4)c4ccc([nH]4)c(-c4ccccc4)c4nc(c(-c5ccccc5)c5ccc2[nH]5)C=C4)C=C3)cc1
REMARK SMILES IDX 21 1 20 2 18 3 19 4 5 6 4 7 2 8 1 9 3 10 6 11 7 12 8 13 9 15
REMARK SMILES IDX 10 16 11 17 16 18 12 19 15 20 13 21 17 22 14 24 22 26 23 27
REMARK SMILES IDX 24 28 25 29 26 30 27 32 28 33 29 34 75 35 30 36 74 37 31 38
REMARK SMILES IDX 32 39 33 40 68 41 34 42 73 43 67 44 69 45 35 46 72 47 66 48
REMARK SMILES IDX 65 49 36 51 58 52 43 53 57 54 44 55 47 56 56 57 70 58 45 59
REMARK SMILES IDX 46 60 55 62 71 63 48 64 37 65 38 66 42 67 39 68 41 69 40 70
REMARK SMILES IDX 59 71 60 72 64 73 61 74 63 75 62 76 49 77 50 78 54 79 51 80
REMARK SMILES IDX 53 81 52 82
REMARK H PARENT 20 5 7 14 17 23 14 25 25 31 69 50 47 61
REMARK Flexibility Score: inf
ROOT
ATOM      1  C   UNL A   1      35.508  22.258  24.396  1.00  0.00     0.116 C 
ENDROOT
BRANCH   1   2
ATOM      2  N   UNL A   1      35.106  22.131  25.782  1.00  0.00    -0.356 N 
ATOM      3  C   UNL A   1      34.192  21.328  26.380  1.00  0.00     0.224 C 
ATOM      4  O   UNL A   1      34.065  21.453  27.603  1.00  0.00    -0.275 OA
ATOM      5  H   UNL A   1      35.580  22.734  26.398  1.00  0.00     0.163 HD
BRANCH   3   6
ATOM      6  C   UNL A   1      33.292  20.351  25.628  1.00  0.00     0.098 C 
BRANCH   6   7
ATOM      7  C   UNL A   1      33.911  19.273  24.712  1.00  0.00     0.018 C 
BRANCH   7   8
ATOM      8  C   UNL A   1      33.047  18.107  24.185  1.00  0.00    -0.017 C 
ATOM      9  C   UNL A   1      33.750  17.157  23.221  1.00  0.00     0.007 C 
ATOM     10  C   UNL A   1      32.497  17.312  25.377  1.00  0.00     0.007 C 
ENDBRANCH   7   8
ENDBRANCH   6   7
BRANCH   6  11
ATOM     11  C   UNL A   1      32.093  21.089  24.976  1.00  0.00     0.129 C 
BRANCH  11  12
ATOM     12  N   UNL A   1      31.345  21.925  25.906  1.00  0.00    -0.351 N 
ATOM     13  C   UNL A   1      31.460  23.273  26.125  1.00  0.00     0.255 C 
ATOM     14  H   UNL A   1      30.666  21.461  26.447  1.00  0.00     0.163 HD
ATOM     15  O   UNL A   1      31.334  23.740  27.254  1.00  0.00    -0.269 OA
BRANCH  13  16
ATOM     16  C   UNL A   1      31.714  24.190  25.003  1.00  0.00     0.081 A 
ATOM     17  C   UNL A   1      30.729  24.357  24.022  1.00  0.00     0.021 A 
ATOM     18  C   UNL A   1      32.860  24.994  24.990  1.00  0.00     0.132 A 
ATOM     19  C   UNL A   1      30.907  25.301  23.011  1.00  0.00     0.047 A 
ATOM     20  C   UNL A   1      33.052  25.916  23.965  1.00  0.00     0.093 A 
ATOM     21  C   UNL A   1      32.070  26.067  22.990  1.00  0.00     0.119 A 
BRANCH  18  22
ATOM     22  O   UNL A   1      33.817  24.936  25.966  1.00  0.00    -0.507 OA
ATOM     23  H   UNL A   1      34.548  24.357  25.871  1.00  0.00     0.293 HD
ENDBRANCH  18  22
BRANCH  21  24
ATOM     24  O   UNL A   1      32.273  27.009  22.025  1.00  0.00    -0.508 OA
ATOM     25  H   UNL A   1      32.791  26.803  21.271  1.00  0.00     0.293 HD
ENDBRANCH  21  24
ENDBRANCH  13  16
ENDBRANCH  11  12
ENDBRANCH   6  11
ENDBRANCH   3   6
ENDBRANCH   1   2
BRANCH   1  26
ATOM     26  C   UNL A   1      37.018  22.101  24.240  1.00  0.00     0.023 C 
BRANCH  26  27
ATOM     27  C   UNL A   1      37.566  20.775  24.755  1.00  0.00     0.023 C 
BRANCH  27  28
ATOM     28  C   UNL A   1      38.729  20.903  25.728  1.00  0.00     0.116 C 
BRANCH  28  29
ATOM     29  N   UNL A   1      39.657  19.781  25.678  1.00  0.00    -0.352 N 
ATOM     30  C   UNL A   1      40.987  19.768  26.026  1.00  0.00     0.251 C 
ATOM     31  H   UNL A   1      39.287  18.927  25.357  1.00  0.00     0.163 HD
ATOM     32  O   UNL A   1      41.684  18.775  25.854  1.00  0.00    -0.269 OA
BRANCH  30  33
ATOM     33  C   UNL A   1      41.569  21.005  26.572  1.00  0.00     0.039 A 
ATOM     34  C   UNL A   1      42.055  21.971  25.690  1.00  0.00     0.014 A 
ATOM     35  C   UNL A   1      41.514  21.246  27.948  1.00  0.00     0.014 A 
ATOM     36  C   UNL A   1      42.418  23.222  26.185  1.00  0.00     0.010 A 
ATOM     37  C   UNL A   1      41.796  22.519  28.425  1.00  0.00     0.010 A 
ATOM     38  C   UNL A   1      42.249  23.518  27.548  1.00  0.00    -0.014 A 
BRANCH  38  39
ATOM     39  C   UNL A   1      42.545  24.866  28.086  1.00  0.00     0.031 A 
ATOM     40  C   UNL A   1      43.946  25.207  28.508  1.00  0.00     0.074 A 
ATOM     41  C   UNL A   1      41.545  25.751  28.266  1.00  0.00     0.049 A 
ATOM     42  N   UNL A   1      44.396  26.300  29.068  1.00  0.00    -0.248 NA
ATOM     43  C   UNL A   1      44.971  24.169  28.305  1.00  0.00     0.031 C 
ATOM     44  C   UNL A   1      40.134  25.520  27.945  1.00  0.00     0.029 A 
ATOM     45  N   UNL A   1      41.566  27.026  28.772  1.00  0.00    -0.354 N 
ATOM     46  C   UNL A   1      45.744  26.069  29.309  1.00  0.00     0.074 A 
ATOM     47  C   UNL A   1      46.028  24.717  28.884  1.00  0.00     0.031 C 
ATOM     48  C   UNL A   1      39.433  26.630  28.228  1.00  0.00     0.029 A 
ATOM     49  C   UNL A   1      40.334  27.633  28.784  1.00  0.00     0.049 A 
ATOM     50  H   UNL A   1      42.386  27.465  29.096  1.00  0.00     0.167 HD
ATOM     51  C   UNL A   1      46.669  26.915  29.820  1.00  0.00     0.031 A 
ATOM     52  C   UNL A   1      39.973  28.863  29.197  1.00  0.00     0.031 A 
ATOM     53  C   UNL A   1      46.394  28.268  30.212  1.00  0.00     0.049 A 
ATOM     54  C   UNL A   1      41.022  29.789  29.744  1.00  0.00     0.074 A 
ATOM     55  C   UNL A   1      47.276  29.230  30.670  1.00  0.00     0.029 A 
ATOM     56  N   UNL A   1      45.137  28.853  30.188  1.00  0.00    -0.354 N 
ATOM     57  N   UNL A   1      42.308  29.581  29.899  1.00  0.00    -0.248 NA
ATOM     58  C   UNL A   1      40.573  31.124  30.163  1.00  0.00     0.031 C 
ATOM     59  C   UNL A   1      46.546  30.386  30.962  1.00  0.00     0.029 A 
ATOM     60  C   UNL A   1      45.217  30.158  30.642  1.00  0.00     0.049 A 
ATOM     61  H   UNL A   1      44.311  28.407  29.893  1.00  0.00     0.167 HD
ATOM     62  C   UNL A   1      42.824  30.766  30.405  1.00  0.00     0.074 A 
ATOM     63  C   UNL A   1      41.716  31.692  30.521  1.00  0.00     0.031 C 
ATOM     64  C   UNL A   1      44.103  31.063  30.746  1.00  0.00     0.031 A 
BRANCH  51  65
ATOM     65  C   UNL A   1      48.067  26.388  29.978  1.00  0.00    -0.014 A 
ATOM     66  C   UNL A   1      49.002  26.479  28.935  1.00  0.00     0.009 A 
ATOM     67  C   UNL A   1      48.459  25.805  31.193  1.00  0.00     0.009 A 
ATOM     68  C   UNL A   1      50.289  25.960  29.091  1.00  0.00     0.001 A 
ATOM     69  C   UNL A   1      49.755  25.313  31.356  1.00  0.00     0.001 A 
ATOM     70  C   UNL A   1      50.665  25.381  30.302  1.00  0.00     0.000 A 
ENDBRANCH  51  65
BRANCH  52  71
ATOM     71  C   UNL A   1      38.560  29.306  29.080  1.00  0.00    -0.014 A 
ATOM     72  C   UNL A   1      37.692  29.195  30.178  1.00  0.00     0.009 A 
ATOM     73  C   UNL A   1      38.068  29.831  27.875  1.00  0.00     0.009 A 
ATOM     74  C   UNL A   1      36.354  29.579  30.064  1.00  0.00     0.001 A 
ATOM     75  C   UNL A   1      36.736  30.237  27.773  1.00  0.00     0.001 A 
ATOM     76  C   UNL A   1      35.877  30.102  28.863  1.00  0.00     0.000 A 
ENDBRANCH  52  71
BRANCH  64  77
ATOM     77  C   UNL A   1      44.375  32.454  31.240  1.00  0.00    -0.014 A 
ATOM     78  C   UNL A   1      44.332  32.761  32.607  1.00  0.00     0.009 A 
ATOM     79  C   UNL A   1      44.723  33.459  30.323  1.00  0.00     0.009 A 
ATOM     80  C   UNL A   1      44.606  34.058  33.046  1.00  0.00     0.001 A 
ATOM     81  C   UNL A   1      45.021  34.747  30.767  1.00  0.00     0.001 A 
ATOM     82  C   UNL A   1      44.955  35.047  32.127  1.00  0.00     0.000 A 
ENDBRANCH  64  77
ENDBRANCH  38  39
ENDBRANCH  30  33
ENDBRANCH  28  29
ENDBRANCH  27  28
ENDBRANCH  26  27
ENDBRANCH   1  26
TORSDOF 18
ENDMDL
MODEL 2
REMARK VINA RESULT:     -10.7      3.168      8.517
REMARK SMILES CC(C)C[C@H](CNC(=O)c1ccc(O)cc1O)C(=O)NCCCCNC(=O)c1ccc(-c2c3nc(c(-c4ccccc4)c4ccc([nH]4)c(-c4ccccc4)c4nc(c(-c5ccccc5)c5ccc2[nH]5)C=C4)C=C3)cc1
REMARK SMILES IDX 21 1 20 2 18 3 19 4 5 6 4 7 2 8 1 9 3 10 6 11 7 12 8 13 9 15
REMARK SMILES IDX 10 16 11 17 16 18 12 19 15 20 13 21 17 22 14 24 22 26 23 27
REMARK SMILES IDX 24 28 25 29 26 30 27 32 28 33 29 34 75 35 30 36 74 37 31 38
REMARK SMILES IDX 32 39 33 40 68 41 34 42 73 43 67 44 69 45 35 46 72 47 66 48
REMARK SMILES IDX 65 49 36 51 58 52 43 53 57 54 44 55 47 56 56 57 70 58 45 59
REMARK SMILES IDX 46 60 55 62 71 63 48 64 37 65 38 66 42 67 39 68 41 69 40 70
REMARK SMILES IDX 59 71 60 72 64 73 61 74 63 75 62 76 49 77 50 78 54 79 51 80
REMARK SMILES IDX 53 81 52 82
REMARK H PARENT 20 5 7 14 17 23 14 25 25 31 69 50 47 61
REMARK Flexibility Score: inf
ROOT
ATOM      1  C   UNL A   1      32.238  27.706  26.741  1.00  0.00     0.116 C 
ENDROOT
BRANCH   1   2
ATOM      2  N   UNL A   1      31.256  26.647  26.859  1.00  0.00    -0.356 N 
ATOM      3  C   UNL A   1      30.588  25.935  25.918  1.00  0.00     0.224 C 
ATOM      4  O   UNL A   1      29.794  25.084  26.332  1.00  0.00    -0.275 OA
ATOM      5  H   UNL A   1      31.035  26.401  27.786  1.00  0.00     0.163 HD
BRANCH   3   6
ATOM      6  C   UNL A   1      30.719  26.174  24.416  1.00  0.00     0.098 C 
BRANCH   6   7
ATOM      7  C   UNL A   1      29.888  27.279  23.729  1.00  0.00     0.018 C 
BRANCH   7   8
ATOM      8  C   UNL A   1      30.501  28.674  23.479  1.00  0.00    -0.017 C 
ATOM      9  C   UNL A   1      31.974  28.678  23.084  1.00  0.00     0.007 C 
ATOM     10  C   UNL A   1      29.681  29.397  22.402  1.00  0.00     0.007 C 
ENDBRANCH   7   8
ENDBRANCH   6   7
BRANCH   6  11
ATOM     11  C   UNL A   1      30.706  24.831  23.638  1.00  0.00     0.129 C 
BRANCH  11  12
ATOM     12  N   UNL A   1      31.590  24.818  22.479  1.00  0.00    -0.351 N 
ATOM     13  C   UNL A   1      32.957  24.905  22.447  1.00  0.00     0.255 C 
ATOM     14  H   UNL A   1      31.146  24.735  21.604  1.00  0.00     0.163 HD
ATOM     15  O   UNL A   1      33.528  25.521  21.550  1.00  0.00    -0.269 OA
BRANCH  13  16
ATOM     16  C   UNL A   1      33.769  24.237  23.475  1.00  0.00     0.081 A 
ATOM     17  C   UNL A   1      34.030  22.866  23.357  1.00  0.00     0.021 A 
ATOM     18  C   UNL A   1      34.395  24.984  24.480  1.00  0.00     0.132 A 
ATOM     19  C   UNL A   1      34.885  22.239  24.263  1.00  0.00     0.047 A 
ATOM     20  C   UNL A   1      35.226  24.354  25.402  1.00  0.00     0.093 A 
ATOM     21  C   UNL A   1      35.470  22.989  25.280  1.00  0.00     0.119 A 
BRANCH  18  22
ATOM     22  O   UNL A   1      34.247  26.340  24.596  1.00  0.00    -0.507 OA
ATOM     23  H   UNL A   1      34.777  26.915  24.078  1.00  0.00     0.293 HD
ENDBRANCH  18  22
BRANCH  21  24
ATOM     24  O   UNL A   1      36.322  22.413  26.176  1.00  0.00    -0.508 OA
ATOM     25  H   UNL A   1      36.729  21.593  25.975  1.00  0.00     0.293 HD
ENDBRANCH  21  24
ENDBRANCH  13  16
ENDBRANCH  11  12
ENDBRANCH   6  11
ENDBRANCH   3   6
ENDBRANCH   1   2
BRANCH   1  26
ATOM     26  C   UNL A   1      31.746  28.994  27.396  1.00  0.00     0.023 C 
BRANCH  26  27
ATOM     27  C   UNL A   1      31.960  30.246  26.554  1.00  0.00     0.023 C 
BRANCH  27  28
ATOM     28  C   UNL A   1      32.988  31.220  27.111  1.00  0.00     0.116 C 
BRANCH  28  29
ATOM     29  N   UNL A   1      32.456  32.556  27.350  1.00  0.00    -0.352 N 
ATOM     30  C   UNL A   1      33.022  33.571  28.084  1.00  0.00     0.251 C 
ATOM     31  H   UNL A   1      31.585  32.755  26.937  1.00  0.00     0.163 HD
ATOM     32  O   UNL A   1      32.428  34.625  28.283  1.00  0.00    -0.269 OA
BRANCH  30  33
ATOM     33  C   UNL A   1      34.354  33.341  28.668  1.00  0.00     0.039 A 
ATOM     34  C   UNL A   1      34.448  32.701  29.904  1.00  0.00     0.014 A 
ATOM     35  C   UNL A   1      35.497  33.652  27.927  1.00  0.00     0.014 A 
ATOM     36  C   UNL A   1      35.699  32.298  30.367  1.00  0.00     0.010 A 
ATOM     37  C   UNL A   1      36.730  33.175  28.351  1.00  0.00     0.010 A 
ATOM     38  C   UNL A   1      36.842  32.494  29.574  1.00  0.00    -0.014 A 
BRANCH  38  39
ATOM     39  C   UNL A   1      38.171  31.999  30.002  1.00  0.00     0.031 A 
ATOM     40  C   UNL A   1      38.681  30.687  29.478  1.00  0.00     0.074 A 
ATOM     41  C   UNL A   1      38.881  32.690  30.915  1.00  0.00     0.049 A 
ATOM     42  N   UNL A   1      39.779  30.047  29.784  1.00  0.00    -0.248 NA
ATOM     43  C   UNL A   1      37.825  29.984  28.508  1.00  0.00     0.031 C 
ATOM     44  C   UNL A   1      38.471  33.951  31.538  1.00  0.00     0.029 A 
ATOM     45  N   UNL A   1      40.100  32.420  31.484  1.00  0.00    -0.354 N 
ATOM     46  C   UNL A   1      39.731  28.858  29.069  1.00  0.00     0.074 A 
ATOM     47  C   UNL A   1      38.475  28.840  28.355  1.00  0.00     0.031 C 
ATOM     48  C   UNL A   1      39.439  34.362  32.375  1.00  0.00     0.029 A 
ATOM     49  C   UNL A   1      40.516  33.379  32.376  1.00  0.00     0.049 A 
ATOM     50  H   UNL A   1      40.628  31.616  31.273  1.00  0.00     0.167 HD
ATOM     51  C   UNL A   1      40.660  27.877  28.995  1.00  0.00     0.031 A 
ATOM     52  C   UNL A   1      41.642  33.455  33.110  1.00  0.00     0.031 A 
ATOM     53  C   UNL A   1      41.922  27.909  29.679  1.00  0.00     0.049 A 
ATOM     54  C   UNL A   1      42.665  32.361  32.997  1.00  0.00     0.074 A 
ATOM     55  C   UNL A   1      42.964  27.001  29.612  1.00  0.00     0.029 A 
ATOM     56  N   UNL A   1      42.315  28.908  30.556  1.00  0.00    -0.354 N 
ATOM     57  N   UNL A   1      42.638  31.277  32.260  1.00  0.00    -0.248 NA
ATOM     58  C   UNL A   1      43.881  32.507  33.810  1.00  0.00     0.031 C 
ATOM     59  C   UNL A   1      43.972  27.431  30.480  1.00  0.00     0.029 A 
ATOM     60  C   UNL A   1      43.576  28.630  31.052  1.00  0.00     0.049 A 
ATOM     61  H   UNL A   1      41.777  29.698  30.791  1.00  0.00     0.167 HD
ATOM     62  C   UNL A   1      43.842  30.627  32.498  1.00  0.00     0.074 A 
ATOM     63  C   UNL A   1      44.582  31.444  33.439  1.00  0.00     0.031 C 
ATOM     64  C   UNL A   1      44.296  29.458  31.984  1.00  0.00     0.031 A 
BRANCH  51  65
ATOM     65  C   UNL A   1      40.335  26.686  28.139  1.00  0.00    -0.014 A 
ATOM     66  C   UNL A   1      39.550  25.630  28.628  1.00  0.00     0.009 A 
ATOM     67  C   UNL A   1      40.808  26.627  26.819  1.00  0.00     0.009 A 
ATOM     68  C   UNL A   1      39.280  24.519  27.827  1.00  0.00     0.001 A 
ATOM     69  C   UNL A   1      40.512  25.527  26.010  1.00  0.00     0.001 A 
ATOM     70  C   UNL A   1      39.758  24.471  26.518  1.00  0.00     0.000 A 
ENDBRANCH  51  65
BRANCH  52  71
ATOM     71  C   UNL A   1      41.879  34.625  33.995  1.00  0.00    -0.014 A 
ATOM     72  C   UNL A   1      42.507  35.775  33.492  1.00  0.00     0.009 A 
ATOM     73  C   UNL A   1      41.488  34.599  35.342  1.00  0.00     0.009 A 
ATOM     74  C   UNL A   1      42.762  36.865  34.327  1.00  0.00     0.001 A 
ATOM     75  C   UNL A   1      41.722  35.700  36.167  1.00  0.00     0.001 A 
ATOM     76  C   UNL A   1      42.366  36.829  35.662  1.00  0.00     0.000 A 
ENDBRANCH  52  71
BRANCH  64  77
ATOM     77  C   UNL A   1      45.667  29.013  32.401  1.00  0.00    -0.014 A 
ATOM     78  C   UNL A   1      46.803  29.362  31.656  1.00  0.00     0.009 A 
ATOM     79  C   UNL A   1      45.825  28.270  33.582  1.00  0.00     0.009 A 
ATOM     80  C   UNL A   1      48.071  28.951  32.071  1.00  0.00     0.001 A 
ATOM     81  C   UNL A   1      47.096  27.884  34.009  1.00  0.00     0.001 A 
ATOM     82  C   UNL A   1      48.216  28.218  33.249  1.00  0.00     0.000 A 
ENDBRANCH  64  77
ENDBRANCH  38  39
ENDBRANCH  30  33
ENDBRANCH  28  29
ENDBRANCH  27  28
ENDBRANCH  26  27
ENDBRANCH   1  26
TORSDOF 18
ENDMDL
MODEL 3
REMARK VINA RESULT:     -10.6      2.025      7.644
REMARK SMILES CC(C)C[C@H](CNC(=O)c1ccc(O)cc1O)C(=O)NCCCCNC(=O)c1ccc(-c2c3nc(c(-c4ccccc4)c4ccc([nH]4)c(-c4ccccc4)c4nc(c(-c5ccccc5)c5ccc2[nH]5)C=C4)C=C3)cc1
REMARK SMILES IDX 21 1 20 2 18 3 19 4 5 6 4 7 2 8 1 9 3 10 6 11 7 12 8 13 9 15
REMARK SMILES IDX 10 16 11 17 16 18 12 19 15 20 13 21 17 22 14 24 22 26 23 27
REMARK SMILES IDX 24 28 25 29 26 30 27 32 28 33 29 34 75 35 30 36 74 37 31 38
REMARK SMILES IDX 32 39 33 40 68 41 34 42 73 43 67 44 69 45 35 46 72 47 66 48
REMARK SMILES IDX 65 49 36 51 58 52 43 53 57 54 44 55 47 56 56 57 70 58 45 59
REMARK SMILES IDX 46 60 55 62 71 63 48 64 37 65 38 66 42 67 39 68 41 69 40 70
REMARK SMILES IDX 59 71 60 72 64 73 61 74 63 75 62 76 49 77 50 78 54 79 51 80
REMARK SMILES IDX 53 81 52 82
REMARK H PARENT 20 5 7 14 17 23 14 25 25 31 69 50 47 61
REMARK Flexibility Score: inf
ROOT
ATOM      1  C   UNL A   1      31.232  29.131  24.218  1.00  0.00     0.116 C 
ENDROOT
BRANCH   1   2
ATOM      2  N   UNL A   1      30.041  28.333  24.007  1.00  0.00    -0.356 N 
ATOM      3  C   UNL A   1      29.879  27.002  23.802  1.00  0.00     0.224 C 
ATOM      4  O   UNL A   1      28.719  26.606  23.647  1.00  0.00    -0.275 OA
ATOM      5  H   UNL A   1      29.202  28.846  24.016  1.00  0.00     0.163 HD
BRANCH   3   6
ATOM      6  C   UNL A   1      31.033  26.009  23.691  1.00  0.00     0.098 C 
BRANCH   6   7
ATOM      7  C   UNL A   1      31.937  26.005  22.440  1.00  0.00     0.018 C 
BRANCH   7   8
ATOM      8  C   UNL A   1      33.425  26.400  22.552  1.00  0.00    -0.017 C 
ATOM      9  C   UNL A   1      33.772  27.792  22.034  1.00  0.00     0.007 C 
ATOM     10  C   UNL A   1      33.869  26.273  24.016  1.00  0.00     0.007 C 
ENDBRANCH   7   8
ENDBRANCH   6   7
BRANCH   6  11
ATOM     11  C   UNL A   1      30.585  24.587  24.123  1.00  0.00     0.129 C 
BRANCH  11  12
ATOM     12  N   UNL A   1      30.337  24.461  25.553  1.00  0.00    -0.351 N 
ATOM     13  C   UNL A   1      30.828  23.525  26.426  1.00  0.00     0.255 C 
ATOM     14  H   UNL A   1      29.738  25.138  25.945  1.00  0.00     0.163 HD
ATOM     15  O   UNL A   1      30.131  23.090  27.340  1.00  0.00    -0.269 OA
BRANCH  13  16
ATOM     16  C   UNL A   1      32.211  23.042  26.297  1.00  0.00     0.081 A 
ATOM     17  C   UNL A   1      33.266  23.889  26.661  1.00  0.00     0.021 A 
ATOM     18  C   UNL A   1      32.468  21.709  25.957  1.00  0.00     0.132 A 
ATOM     19  C   UNL A   1      34.577  23.412  26.647  1.00  0.00     0.047 A 
ATOM     20  C   UNL A   1      33.778  21.240  25.916  1.00  0.00     0.093 A 
ATOM     21  C   UNL A   1      34.820  22.093  26.270  1.00  0.00     0.119 A 
BRANCH  18  22
ATOM     22  O   UNL A   1      31.474  20.812  25.675  1.00  0.00    -0.507 OA
ATOM     23  H   UNL A   1      31.223  20.656  24.785  1.00  0.00     0.293 HD
ENDBRANCH  18  22
BRANCH  21  24
ATOM     24  O   UNL A   1      36.086  21.589  26.258  1.00  0.00    -0.508 OA
ATOM     25  H   UNL A   1      36.576  21.570  25.459  1.00  0.00     0.293 HD
ENDBRANCH  21  24
ENDBRANCH  13  16
ENDBRANCH  11  12
ENDBRANCH   6  11
ENDBRANCH   3   6
ENDBRANCH   1   2
BRANCH   1  26
ATOM     26  C   UNL A   1      31.750  28.988  25.646  1.00  0.00     0.023 C 
BRANCH  26  27
ATOM     27  C   UNL A   1      33.203  29.411  25.830  1.00  0.00     0.023 C 
BRANCH  27  28
ATOM     28  C   UNL A   1      33.721  29.302  27.257  1.00  0.00     0.116 C 
BRANCH  28  29
ATOM     29  N   UNL A   1      33.749  30.575  27.966  1.00  0.00    -0.352 N 
ATOM     30  C   UNL A   1      34.780  31.110  28.701  1.00  0.00     0.251 C 
ATOM     31  H   UNL A   1      32.930  31.118  27.913  1.00  0.00     0.163 HD
ATOM     32  O   UNL A   1      34.645  32.156  29.325  1.00  0.00    -0.269 OA
BRANCH  30  33
ATOM     33  C   UNL A   1      36.048  30.364  28.756  1.00  0.00     0.039 A 
ATOM     34  C   UNL A   1      36.899  30.396  27.651  1.00  0.00     0.014 A 
ATOM     35  C   UNL A   1      36.435  29.743  29.946  1.00  0.00     0.014 A 
ATOM     36  C   UNL A   1      38.184  29.867  27.766  1.00  0.00     0.010 A 
ATOM     37  C   UNL A   1      37.741  29.294  30.084  1.00  0.00     0.010 A 
ATOM     38  C   UNL A   1      38.627  29.352  28.996  1.00  0.00    -0.014 A 
BRANCH  38  39
ATOM     39  C   UNL A   1      40.014  28.863  29.172  1.00  0.00     0.031 A 
ATOM     40  C   UNL A   1      41.058  29.777  29.747  1.00  0.00     0.074 A 
ATOM     41  C   UNL A   1      40.348  27.629  28.745  1.00  0.00     0.049 A 
ATOM     42  N   UNL A   1      42.338  29.565  29.913  1.00  0.00    -0.248 NA
ATOM     43  C   UNL A   1      40.611  31.119  30.156  1.00  0.00     0.031 C 
ATOM     44  C   UNL A   1      39.437  26.665  28.123  1.00  0.00     0.029 A 
ATOM     45  N   UNL A   1      41.555  26.977  28.767  1.00  0.00    -0.354 N 
ATOM     46  C   UNL A   1      42.850  30.753  30.417  1.00  0.00     0.074 A 
ATOM     47  C   UNL A   1      41.757  31.696  30.481  1.00  0.00     0.031 C 
ATOM     48  C   UNL A   1      40.110  25.534  27.855  1.00  0.00     0.029 A 
ATOM     49  C   UNL A   1      41.503  25.705  28.252  1.00  0.00     0.049 A 
ATOM     50  H   UNL A   1      42.381  27.382  29.120  1.00  0.00     0.167 HD
ATOM     51  C   UNL A   1      44.115  31.029  30.813  1.00  0.00     0.031 A 
ATOM     52  C   UNL A   1      42.473  24.780  28.116  1.00  0.00     0.031 A 
ATOM     53  C   UNL A   1      45.194  30.082  30.779  1.00  0.00     0.049 A 
ATOM     54  C   UNL A   1      43.864  25.105  28.578  1.00  0.00     0.074 A 
ATOM     55  C   UNL A   1      46.493  30.239  31.226  1.00  0.00     0.029 A 
ATOM     56  N   UNL A   1      45.095  28.796  30.270  1.00  0.00    -0.354 N 
ATOM     57  N   UNL A   1      44.319  26.209  29.121  1.00  0.00    -0.248 NA
ATOM     58  C   UNL A   1      44.876  24.051  28.419  1.00  0.00     0.031 C 
ATOM     59  C   UNL A   1      47.193  29.059  30.951  1.00  0.00     0.029 A 
ATOM     60  C   UNL A   1      46.316  28.154  30.374  1.00  0.00     0.049 A 
ATOM     61  H   UNL A   1      44.279  28.399  29.890  1.00  0.00     0.167 HD
ATOM     62  C   UNL A   1      45.659  25.973  29.394  1.00  0.00     0.074 A 
ATOM     63  C   UNL A   1      45.942  24.617  28.968  1.00  0.00     0.031 C 
ATOM     64  C   UNL A   1      46.575  26.804  29.948  1.00  0.00     0.031 A 
BRANCH  51  65
ATOM     65  C   UNL A   1      44.390  32.417  31.316  1.00  0.00    -0.014 A 
ATOM     66  C   UNL A   1      44.266  32.735  32.678  1.00  0.00     0.009 A 
ATOM     67  C   UNL A   1      44.792  33.418  30.419  1.00  0.00     0.009 A 
ATOM     68  C   UNL A   1      44.498  34.037  33.125  1.00  0.00     0.001 A 
ATOM     69  C   UNL A   1      45.052  34.713  30.873  1.00  0.00     0.001 A 
ATOM     70  C   UNL A   1      44.895  35.023  32.223  1.00  0.00     0.000 A 
ENDBRANCH  51  65
BRANCH  52  71
ATOM     71  C   UNL A   1      42.156  23.445  27.545  1.00  0.00    -0.014 A 
ATOM     72  C   UNL A   1      41.660  22.424  28.370  1.00  0.00     0.009 A 
ATOM     73  C   UNL A   1      42.354  23.181  26.181  1.00  0.00     0.009 A 
ATOM     74  C   UNL A   1      41.392  21.158  27.846  1.00  0.00     0.001 A 
ATOM     75  C   UNL A   1      42.061  21.921  25.656  1.00  0.00     0.001 A 
ATOM     76  C   UNL A   1      41.590  20.908  26.489  1.00  0.00     0.000 A 
ENDBRANCH  52  71
BRANCH  64  77
ATOM     77  C   UNL A   1      47.957  26.258  30.157  1.00  0.00    -0.014 A 
ATOM     78  C   UNL A   1      48.917  26.295  29.135  1.00  0.00     0.009 A 
ATOM     79  C   UNL A   1      48.315  25.739  31.413  1.00  0.00     0.009 A 
ATOM     80  C   UNL A   1      50.202  25.797  29.357  1.00  0.00     0.001 A 
ATOM     81  C   UNL A   1      49.607  25.267  31.639  1.00  0.00     0.001 A 
ATOM     82  C   UNL A   1      50.547  25.288  30.609  1.00  0.00     0.000 A 
ENDBRANCH  64  77
ENDBRANCH  38  39
ENDBRANCH  30  33
ENDBRANCH  28  29
ENDBRANCH  27  28
ENDBRANCH  26  27
ENDBRANCH   1  26
TORSDOF 18
ENDMDL
