MODEL 1
REMARK VINA RESULT:     -11.4      0.000      0.000
REMARK SMILES Cc1cc(NC(=O)c2ccc(Br)nc2)sc1C(=O)NCCCCNC(=O)c1ccc(-c2c3nc(c(-c4ccccc4)c4ccc([nH]4)c(-c4ccccc4)c4nc(c(-c5ccccc5)c5ccc2[nH]5)C=C4)C=C3)cc1
REMARK SMILES IDX 21 1 20 2 19 3 17 4 18 5 16 7 1 8 2 9 3 10 4 11 15 12 5 13
REMARK SMILES IDX 6 14 7 16 8 17 9 18 14 19 10 20 13 21 11 22 12 23 22 24
REMARK SMILES IDX 23 25 24 26 25 27 26 29 27 30 28 31 74 32 29 33 73 34 30 35
REMARK SMILES IDX 31 36 32 37 67 38 33 39 72 40 66 41 68 42 34 43 71 44 65 45
REMARK SMILES IDX 64 46 35 48 57 49 42 50 56 51 43 52 46 53 55 54 69 55 44 56
REMARK SMILES IDX 45 57 54 59 70 60 47 61 36 62 37 63 41 64 38 65 40 66 39 67
REMARK SMILES IDX 58 68 59 69 63 70 60 71 62 72 61 73 48 74 49 75 53 76 50 77
REMARK SMILES IDX 52 78 51 79
REMARK H PARENT 19 6 5 15 24 28 68 47 46 58
REMARK Flexibility Score: inf
ROOT
ATOM      1  C   UNL A   1      35.641  21.764  26.288  1.00  0.00     0.023 C 
ENDROOT
BRANCH   1   2
ATOM      2  C   UNL A   1      34.406  21.576  27.167  1.00  0.00     0.116 C 
BRANCH   2   3
ATOM      3  N   UNL A   1      33.493  20.615  26.607  1.00  0.00    -0.351 N 
ATOM      4  C   UNL A   1      32.588  20.642  25.577  1.00  0.00     0.261 C 
ATOM      5  O   UNL A   1      32.119  19.519  25.344  1.00  0.00    -0.268 OA
ATOM      6  H   UNL A   1      33.525  19.744  27.064  1.00  0.00     0.163 HD
BRANCH   4   7
ATOM      7  C   UNL A   1      32.178  21.833  24.818  1.00  0.00     0.097 A 
ATOM      8  C   UNL A   1      30.461  23.393  26.094  1.00  0.00     0.046 C 
ATOM      9  C   UNL A   1      31.290  22.905  24.959  1.00  0.00    -0.025 A 
ATOM     10  C   UNL A   1      31.145  23.616  23.722  1.00  0.00     0.042 A 
ATOM     11  C   UNL A   1      32.170  23.385  22.856  1.00  0.00     0.096 A 
ATOM     12  S   UNL A   1      32.999  21.979  23.259  1.00  0.00    -0.112 S 
BRANCH  11  13
ATOM     13  N   UNL A   1      32.611  24.069  21.749  1.00  0.00    -0.313 N 
ATOM     14  C   UNL A   1      32.945  25.412  21.704  1.00  0.00     0.257 C 
ATOM     15  H   UNL A   1      32.698  23.559  20.913  1.00  0.00     0.171 HD
ATOM     16  O   UNL A   1      33.138  25.990  20.639  1.00  0.00    -0.269 OA
BRANCH  14  17
ATOM     17  C   UNL A   1      33.139  26.169  22.957  1.00  0.00     0.058 A 
ATOM     18  C   UNL A   1      33.997  25.716  23.964  1.00  0.00     0.018 A 
ATOM     19  C   UNL A   1      32.356  27.286  23.204  1.00  0.00     0.126 A 
ATOM     20  C   UNL A   1      33.976  26.350  25.206  1.00  0.00     0.037 A 
ATOM     21  N   UNL A   1      32.316  27.914  24.405  1.00  0.00    -0.249 NA
ATOM     22  C   UNL A   1      33.115  27.426  25.383  1.00  0.00     0.106 A 
ATOM     23  Br  UNL A   1      32.989  28.218  27.101  1.00  0.00    -0.029 Br
ENDBRANCH  14  17
ENDBRANCH  11  13
ENDBRANCH   4   7
ENDBRANCH   2   3
ENDBRANCH   1   2
BRANCH   1  24
ATOM     24  C   UNL A   1      36.015  23.210  25.979  1.00  0.00     0.023 C 
BRANCH  24  25
ATOM     25  C   UNL A   1      37.239  23.366  25.087  1.00  0.00     0.116 C 
BRANCH  25  26
ATOM     26  N   UNL A   1      38.370  22.525  25.458  1.00  0.00    -0.352 N 
ATOM     27  C   UNL A   1      39.448  22.864  26.247  1.00  0.00     0.251 C 
ATOM     28  H   UNL A   1      38.363  21.607  25.104  1.00  0.00     0.163 HD
ATOM     29  O   UNL A   1      40.361  22.076  26.442  1.00  0.00    -0.269 OA
BRANCH  27  30
ATOM     30  C   UNL A   1      39.502  24.231  26.798  1.00  0.00     0.039 A 
ATOM     31  C   UNL A   1      39.010  24.455  28.085  1.00  0.00     0.014 A 
ATOM     32  C   UNL A   1      40.146  25.249  26.091  1.00  0.00     0.014 A 
ATOM     33  C   UNL A   1      39.248  25.682  28.703  1.00  0.00     0.010 A 
ATOM     34  C   UNL A   1      40.454  26.438  26.736  1.00  0.00     0.010 A 
ATOM     35  C   UNL A   1      40.017  26.662  28.051  1.00  0.00    -0.014 A 
BRANCH  35  36
ATOM     36  C   UNL A   1      40.393  27.924  28.729  1.00  0.00     0.031 A 
ATOM     37  C   UNL A   1      41.755  28.065  29.346  1.00  0.00     0.074 A 
ATOM     38  C   UNL A   1      39.481  28.906  28.868  1.00  0.00     0.049 A 
ATOM     39  N   UNL A   1      42.240  29.050  30.056  1.00  0.00    -0.248 NA
ATOM     40  C   UNL A   1      42.681  26.934  29.169  1.00  0.00     0.031 C 
ATOM     41  C   UNL A   1      38.106  28.868  28.363  1.00  0.00     0.029 A 
ATOM     42  N   UNL A   1      39.572  30.126  29.487  1.00  0.00    -0.354 N 
ATOM     43  C   UNL A   1      43.515  28.647  30.432  1.00  0.00     0.074 A 
ATOM     44  C   UNL A   1      43.711  27.311  29.913  1.00  0.00     0.031 C 
ATOM     45  C   UNL A   1      37.493  30.024  28.667  1.00  0.00     0.029 A 
ATOM     46  C   UNL A   1      38.417  30.866  29.419  1.00  0.00     0.049 A 
ATOM     47  H   UNL A   1      40.388  30.440  29.939  1.00  0.00     0.167 HD
ATOM     48  C   UNL A   1      44.449  29.334  31.130  1.00  0.00     0.031 A 
ATOM     49  C   UNL A   1      38.135  32.089  29.907  1.00  0.00     0.031 A 
ATOM     50  C   UNL A   1      44.266  30.672  31.622  1.00  0.00     0.049 A 
ATOM     51  C   UNL A   1      39.196  32.842  30.659  1.00  0.00     0.074 A 
ATOM     52  C   UNL A   1      45.175  31.480  32.282  1.00  0.00     0.029 A 
ATOM     53  N   UNL A   1      43.093  31.401  31.500  1.00  0.00    -0.354 N 
ATOM     54  N   UNL A   1      40.420  32.474  30.948  1.00  0.00    -0.248 NA
ATOM     55  C   UNL A   1      38.839  34.184  31.140  1.00  0.00     0.031 C 
ATOM     56  C   UNL A   1      44.541  32.687  32.591  1.00  0.00     0.029 A 
ATOM     57  C   UNL A   1      43.251  32.645  32.084  1.00  0.00     0.049 A 
ATOM     58  H   UNL A   1      42.271  31.081  31.064  1.00  0.00     0.167 HD
ATOM     59  C   UNL A   1      40.989  33.547  31.619  1.00  0.00     0.074 A 
ATOM     60  C   UNL A   1      39.980  34.584  31.685  1.00  0.00     0.031 C 
ATOM     61  C   UNL A   1      42.237  33.665  32.132  1.00  0.00     0.031 A 
BRANCH  48  62
ATOM     62  C   UNL A   1      45.754  28.642  31.396  1.00  0.00    -0.014 A 
ATOM     63  C   UNL A   1      45.937  27.854  32.544  1.00  0.00     0.009 A 
ATOM     64  C   UNL A   1      46.808  28.763  30.479  1.00  0.00     0.009 A 
ATOM     65  C   UNL A   1      47.163  27.234  32.787  1.00  0.00     0.001 A 
ATOM     66  C   UNL A   1      48.024  28.119  30.711  1.00  0.00     0.001 A 
ATOM     67  C   UNL A   1      48.204  27.363  31.869  1.00  0.00     0.000 A 
ENDBRANCH  48  62
BRANCH  49  68
ATOM     68  C   UNL A   1      36.799  32.694  29.674  1.00  0.00    -0.014 A 
ATOM     69  C   UNL A   1      36.538  33.396  28.487  1.00  0.00     0.009 A 
ATOM     70  C   UNL A   1      35.782  32.576  30.633  1.00  0.00     0.009 A 
ATOM     71  C   UNL A   1      35.293  33.991  28.276  1.00  0.00     0.001 A 
ATOM     72  C   UNL A   1      34.529  33.152  30.408  1.00  0.00     0.001 A 
ATOM     73  C   UNL A   1      34.288  33.866  29.235  1.00  0.00     0.000 A 
ENDBRANCH  49  68
BRANCH  61  74
ATOM     74  C   UNL A   1      42.593  34.974  32.775  1.00  0.00    -0.014 A 
ATOM     75  C   UNL A   1      42.267  35.239  34.114  1.00  0.00     0.009 A 
ATOM     76  C   UNL A   1      43.310  35.932  32.042  1.00  0.00     0.009 A 
ATOM     77  C   UNL A   1      42.631  36.454  34.698  1.00  0.00     0.001 A 
ATOM     78  C   UNL A   1      43.693  37.135  32.636  1.00  0.00     0.001 A 
ATOM     79  C   UNL A   1      43.346  37.398  33.961  1.00  0.00     0.000 A 
ENDBRANCH  61  74
ENDBRANCH  35  36
ENDBRANCH  27  30
ENDBRANCH  25  26
ENDBRANCH  24  25
ENDBRANCH   1  24
TORSDOF 13
ENDMDL
MODEL 2
REMARK VINA RESULT:     -11.3      2.645      7.744
REMARK SMILES Cc1cc(NC(=O)c2ccc(Br)nc2)sc1C(=O)NCCCCNC(=O)c1ccc(-c2c3nc(c(-c4ccccc4)c4ccc([nH]4)c(-c4ccccc4)c4nc(c(-c5ccccc5)c5ccc2[nH]5)C=C4)C=C3)cc1
REMARK SMILES IDX 21 1 20 2 19 3 17 4 18 5 16 7 1 8 2 9 3 10 4 11 15 12 5 13
REMARK SMILES IDX 6 14 7 16 8 17 9 18 14 19 10 20 13 21 11 22 12 23 22 24
REMARK SMILES IDX 23 25 24 26 25 27 26 29 27 30 28 31 74 32 29 33 73 34 30 35
REMARK SMILES IDX 31 36 32 37 67 38 33 39 72 40 66 41 68 42 34 43 71 44 65 45
REMARK SMILES IDX 64 46 35 48 57 49 42 50 56 51 43 52 46 53 55 54 69 55 44 56
REMARK SMILES IDX 45 57 54 59 70 60 47 61 36 62 37 63 41 64 38 65 40 66 39 67
REMARK SMILES IDX 58 68 59 69 63 70 60 71 62 72 61 73 48 74 49 75 53 76 50 77
REMARK SMILES IDX 52 78 51 79
REMARK H PARENT 19 6 5 15 24 28 68 47 46 58
REMARK Flexibility Score: inf
ROOT
ATOM      1  C   UNL A   1      33.281  29.387  24.965  1.00  0.00     0.023 C 
ENDROOT
BRANCH   1   2
ATOM      2  C   UNL A   1      33.511  28.988  23.509  1.00  0.00     0.116 C 
BRANCH   2   3
ATOM      3  N   UNL A   1      32.279  28.950  22.766  1.00  0.00    -0.351 N 
ATOM      4  C   UNL A   1      31.228  28.072  22.701  1.00  0.00     0.261 C 
ATOM      5  O   UNL A   1      30.291  28.521  22.026  1.00  0.00    -0.268 OA
ATOM      6  H   UNL A   1      32.165  29.727  22.172  1.00  0.00     0.163 HD
BRANCH   4   7
ATOM      7  C   UNL A   1      31.174  26.740  23.324  1.00  0.00     0.097 A 
ATOM      8  C   UNL A   1      30.618  26.778  25.913  1.00  0.00     0.046 C 
ATOM      9  C   UNL A   1      31.004  26.193  24.600  1.00  0.00    -0.025 A 
ATOM     10  C   UNL A   1      31.326  24.795  24.605  1.00  0.00     0.042 A 
ATOM     11  C   UNL A   1      31.298  24.243  23.361  1.00  0.00     0.096 A 
ATOM     12  S   UNL A   1      31.413  25.423  22.169  1.00  0.00    -0.112 S 
BRANCH  11  13
ATOM     13  N   UNL A   1      31.211  22.939  22.935  1.00  0.00    -0.313 N 
ATOM     14  C   UNL A   1      32.254  22.031  22.882  1.00  0.00     0.257 C 
ATOM     15  H   UNL A   1      30.327  22.622  22.642  1.00  0.00     0.171 HD
ATOM     16  O   UNL A   1      32.139  20.953  22.307  1.00  0.00    -0.269 OA
BRANCH  14  17
ATOM     17  C   UNL A   1      33.523  22.320  23.580  1.00  0.00     0.058 A 
ATOM     18  C   UNL A   1      34.521  23.107  22.996  1.00  0.00     0.018 A 
ATOM     19  C   UNL A   1      33.792  21.694  24.787  1.00  0.00     0.126 A 
ATOM     20  C   UNL A   1      35.776  23.167  23.601  1.00  0.00     0.037 A 
ATOM     21  N   UNL A   1      35.006  21.734  25.390  1.00  0.00    -0.249 NA
ATOM     22  C   UNL A   1      35.975  22.458  24.780  1.00  0.00     0.106 A 
ATOM     23  Br  UNL A   1      37.708  22.433  25.546  1.00  0.00    -0.029 Br
ENDBRANCH  14  17
ENDBRANCH  11  13
ENDBRANCH   4   7
ENDBRANCH   2   3
ENDBRANCH   1   2
BRANCH   1  24
ATOM     24  C   UNL A   1      33.815  28.409  26.007  1.00  0.00     0.023 C 
BRANCH  24  25
ATOM     25  C   UNL A   1      33.410  28.731  27.439  1.00  0.00     0.116 C 
BRANCH  25  26
ATOM     26  N   UNL A   1      33.499  30.143  27.790  1.00  0.00    -0.352 N 
ATOM     27  C   UNL A   1      34.607  30.832  28.232  1.00  0.00     0.251 C 
ATOM     28  H   UNL A   1      32.670  30.665  27.702  1.00  0.00     0.163 HD
ATOM     29  O   UNL A   1      34.536  32.011  28.543  1.00  0.00    -0.269 OA
BRANCH  27  30
ATOM     30  C   UNL A   1      35.872  30.088  28.383  1.00  0.00     0.039 A 
ATOM     31  C   UNL A   1      36.776  30.081  27.318  1.00  0.00     0.014 A 
ATOM     32  C   UNL A   1      36.206  29.510  29.610  1.00  0.00     0.014 A 
ATOM     33  C   UNL A   1      38.060  29.572  27.517  1.00  0.00     0.010 A 
ATOM     34  C   UNL A   1      37.507  29.081  29.829  1.00  0.00     0.010 A 
ATOM     35  C   UNL A   1      38.449  29.118  28.789  1.00  0.00    -0.014 A 
BRANCH  35  36
ATOM     36  C   UNL A   1      39.840  28.689  29.062  1.00  0.00     0.031 A 
ATOM     37  C   UNL A   1      40.806  29.646  29.700  1.00  0.00     0.074 A 
ATOM     38  C   UNL A   1      40.257  27.474  28.656  1.00  0.00     0.049 A 
ATOM     39  N   UNL A   1      42.082  29.493  29.939  1.00  0.00    -0.248 NA
ATOM     40  C   UNL A   1      40.272  30.962  30.090  1.00  0.00     0.031 C 
ATOM     41  C   UNL A   1      39.432  26.474  27.974  1.00  0.00     0.029 A 
ATOM     42  N   UNL A   1      41.490  26.878  28.748  1.00  0.00    -0.354 N 
ATOM     43  C   UNL A   1      42.509  30.698  30.480  1.00  0.00     0.074 A 
ATOM     44  C   UNL A   1      41.369  31.588  30.492  1.00  0.00     0.031 C 
ATOM     45  C   UNL A   1      40.173  25.379  27.738  1.00  0.00     0.029 A 
ATOM     46  C   UNL A   1      41.531  25.613  28.215  1.00  0.00     0.049 A 
ATOM     47  H   UNL A   1      42.270  27.318  29.157  1.00  0.00     0.167 HD
ATOM     48  C   UNL A   1      43.735  31.030  30.946  1.00  0.00     0.031 A 
ATOM     49  C   UNL A   1      42.551  24.739  28.124  1.00  0.00     0.031 A 
ATOM     50  C   UNL A   1      44.862  30.137  30.961  1.00  0.00     0.049 A 
ATOM     51  C   UNL A   1      43.897  25.122  28.669  1.00  0.00     0.074 A 
ATOM     52  C   UNL A   1      46.128  30.356  31.473  1.00  0.00     0.029 A 
ATOM     53  N   UNL A   1      44.852  28.851  30.445  1.00  0.00    -0.354 N 
ATOM     54  N   UNL A   1      44.268  26.242  29.240  1.00  0.00    -0.248 NA
ATOM     55  C   UNL A   1      44.963  24.114  28.568  1.00  0.00     0.031 C 
ATOM     56  C   UNL A   1      46.897  29.213  31.236  1.00  0.00     0.029 A 
ATOM     57  C   UNL A   1      46.095  28.268  30.615  1.00  0.00     0.049 A 
ATOM     58  H   UNL A   1      44.077  28.418  30.021  1.00  0.00     0.167 HD
ATOM     59  C   UNL A   1      45.598  26.065  29.592  1.00  0.00     0.074 A 
ATOM     60  C   UNL A   1      45.968  24.726  29.179  1.00  0.00     0.031 C 
ATOM     61  C   UNL A   1      46.440  26.932  30.205  1.00  0.00     0.031 A 
BRANCH  48  62
ATOM     62  C   UNL A   1      43.913  32.421  31.481  1.00  0.00    -0.014 A 
ATOM     63  C   UNL A   1      44.307  33.476  30.642  1.00  0.00     0.009 A 
ATOM     64  C   UNL A   1      43.665  32.685  32.836  1.00  0.00     0.009 A 
ATOM     65  C   UNL A   1      44.488  34.759  31.158  1.00  0.00     0.001 A 
ATOM     66  C   UNL A   1      43.820  33.977  33.344  1.00  0.00     0.001 A 
ATOM     67  C   UNL A   1      44.240  35.010  32.507  1.00  0.00     0.000 A 
ENDBRANCH  48  62
BRANCH  49  68
ATOM     68  C   UNL A   1      42.332  23.401  27.517  1.00  0.00    -0.014 A 
ATOM     69  C   UNL A   1      41.812  22.352  28.290  1.00  0.00     0.009 A 
ATOM     70  C   UNL A   1      42.643  23.165  26.170  1.00  0.00     0.009 A 
ATOM     71  C   UNL A   1      41.632  21.084  27.732  1.00  0.00     0.001 A 
ATOM     72  C   UNL A   1      42.439  21.902  25.608  1.00  0.00     0.001 A 
ATOM     73  C   UNL A   1      41.942  20.861  26.391  1.00  0.00     0.000 A 
ENDBRANCH  49  68
BRANCH  61  74
ATOM     74  C   UNL A   1      47.829  26.447  30.501  1.00  0.00    -0.014 A 
ATOM     75  C   UNL A   1      48.149  25.868  31.737  1.00  0.00     0.009 A 
ATOM     76  C   UNL A   1      48.815  26.525  29.504  1.00  0.00     0.009 A 
ATOM     77  C   UNL A   1      49.442  25.401  31.981  1.00  0.00     0.001 A 
ATOM     78  C   UNL A   1      50.100  26.036  29.743  1.00  0.00     0.001 A 
ATOM     79  C   UNL A   1      50.413  25.480  30.983  1.00  0.00     0.000 A 
ENDBRANCH  61  74
ENDBRANCH  35  36
ENDBRANCH  27  30
ENDBRANCH  25  26
ENDBRANCH  24  25
ENDBRANCH   1  24
TORSDOF 13
ENDMDL
MODEL 3
REMARK VINA RESULT:     -11.2      2.233      6.813
REMARK SMILES Cc1cc(NC(=O)c2ccc(Br)nc2)sc1C(=O)NCCCCNC(=O)c1ccc(-c2c3nc(c(-c4ccccc4)c4ccc([nH]4)c(-c4ccccc4)c4nc(c(-c5ccccc5)c5ccc2[nH]5)C=C4)C=C3)cc1
REMARK SMILES IDX 21 1 20 2 19 3 17 4 18 5 16 7 1 8 2 9 3 10 4 11 15 12 5 13
REMARK SMILES IDX 6 14 7 16 8 17 9 18 14 19 10 20 13 21 11 22 12 23 22 24
REMARK SMILES IDX 23 25 24 26 25 27 26 29 27 30 28 31 74 32 29 33 73 34 30 35
REMARK SMILES IDX 31 36 32 37 67 38 33 39 72 40 66 41 68 42 34 43 71 44 65 45
REMARK SMILES IDX 64 46 35 48 57 49 42 50 56 51 43 52 46 53 55 54 69 55 44 56
REMARK SMILES IDX 45 57 54 59 70 60 47 61 36 62 37 63 41 64 38 65 40 66 39 67
REMARK SMILES IDX 58 68 59 69 63 70 60 71 62 72 61 73 48 74 49 75 53 76 50 77
REMARK SMILES IDX 52 78 51 79
REMARK H PARENT 19 6 5 15 24 28 68 47 46 58
REMARK Flexibility Score: inf
ROOT
ATOM      1  C   UNL A   1      36.360  20.565  25.002  1.00  0.00     0.023 C 
ENDROOT
BRANCH   1   2
ATOM      2  C   UNL A   1      35.307  21.089  25.978  1.00  0.00     0.116 C 
BRANCH   2   3
ATOM      3  N   UNL A   1      34.088  20.328  25.905  1.00  0.00    -0.351 N 
ATOM      4  C   UNL A   1      32.875  20.520  25.297  1.00  0.00     0.261 C 
ATOM      5  O   UNL A   1      32.153  19.516  25.375  1.00  0.00    -0.268 OA
ATOM      6  H   UNL A   1      34.135  19.480  26.404  1.00  0.00     0.163 HD
BRANCH   4   7
ATOM      7  C   UNL A   1      32.428  21.754  24.631  1.00  0.00     0.097 A 
ATOM      8  C   UNL A   1      30.655  23.151  26.015  1.00  0.00     0.046 C 
ATOM      9  C   UNL A   1      31.504  22.781  24.850  1.00  0.00    -0.025 A 
ATOM     10  C   UNL A   1      31.340  23.582  23.672  1.00  0.00     0.042 A 
ATOM     11  C   UNL A   1      32.375  23.454  22.797  1.00  0.00     0.096 A 
ATOM     12  S   UNL A   1      33.249  22.048  23.093  1.00  0.00    -0.112 S 
BRANCH  11  13
ATOM     13  N   UNL A   1      32.797  24.237  21.750  1.00  0.00    -0.313 N 
ATOM     14  C   UNL A   1      32.904  25.617  21.759  1.00  0.00     0.257 C 
ATOM     15  H   UNL A   1      33.046  23.775  20.918  1.00  0.00     0.171 HD
ATOM     16  O   UNL A   1      33.096  26.254  20.728  1.00  0.00    -0.269 OA
BRANCH  14  17
ATOM     17  C   UNL A   1      32.849  26.354  23.038  1.00  0.00     0.058 A 
ATOM     18  C   UNL A   1      33.818  26.179  24.030  1.00  0.00     0.018 A 
ATOM     19  C   UNL A   1      31.744  27.141  23.321  1.00  0.00     0.126 A 
ATOM     20  C   UNL A   1      33.602  26.730  25.293  1.00  0.00     0.037 A 
ATOM     21  N   UNL A   1      31.510  27.681  24.543  1.00  0.00    -0.249 NA
ATOM     22  C   UNL A   1      32.436  27.454  25.505  1.00  0.00     0.106 A 
ATOM     23  Br  UNL A   1      32.072  28.104  27.248  1.00  0.00    -0.029 Br
ENDBRANCH  14  17
ENDBRANCH  11  13
ENDBRANCH   4   7
ENDBRANCH   2   3
ENDBRANCH   1   2
BRANCH   1  24
ATOM     24  C   UNL A   1      37.612  21.424  24.861  1.00  0.00     0.023 C 
BRANCH  24  25
ATOM     25  C   UNL A   1      38.655  21.201  25.947  1.00  0.00     0.116 C 
BRANCH  25  26
ATOM     26  N   UNL A   1      39.490  20.022  25.751  1.00  0.00    -0.352 N 
ATOM     27  C   UNL A   1      40.837  19.892  26.012  1.00  0.00     0.251 C 
ATOM     28  H   UNL A   1      39.038  19.225  25.391  1.00  0.00     0.163 HD
ATOM     29  O   UNL A   1      41.433  18.857  25.755  1.00  0.00    -0.269 OA
BRANCH  27  30
ATOM     30  C   UNL A   1      41.555  21.062  26.552  1.00  0.00     0.039 A 
ATOM     31  C   UNL A   1      42.086  21.993  25.657  1.00  0.00     0.014 A 
ATOM     32  C   UNL A   1      41.590  21.291  27.929  1.00  0.00     0.014 A 
ATOM     33  C   UNL A   1      42.573  23.206  26.143  1.00  0.00     0.010 A 
ATOM     34  C   UNL A   1      41.998  22.530  28.403  1.00  0.00     0.010 A 
ATOM     35  C   UNL A   1      42.483  23.502  27.515  1.00  0.00    -0.014 A 
BRANCH  35  36
ATOM     36  C   UNL A   1      42.875  24.829  28.044  1.00  0.00     0.031 A 
ATOM     37  C   UNL A   1      41.828  25.879  28.280  1.00  0.00     0.074 A 
ATOM     38  C   UNL A   1      44.179  25.117  28.227  1.00  0.00     0.049 A 
ATOM     39  N   UNL A   1      41.978  27.124  28.653  1.00  0.00    -0.248 NA
ATOM     40  C   UNL A   1      40.430  25.488  28.031  1.00  0.00     0.031 C 
ATOM     41  C   UNL A   1      45.296  24.202  27.980  1.00  0.00     0.029 A 
ATOM     42  N   UNL A   1      44.785  26.271  28.653  1.00  0.00    -0.354 N 
ATOM     43  C   UNL A   1      40.702  27.669  28.657  1.00  0.00     0.074 A 
ATOM     44  C   UNL A   1      39.795  26.637  28.206  1.00  0.00     0.031 C 
ATOM     45  C   UNL A   1      46.448  24.821  28.288  1.00  0.00     0.029 A 
ATOM     46  C   UNL A   1      46.155  26.183  28.716  1.00  0.00     0.049 A 
ATOM     47  H   UNL A   1      44.285  27.086  28.890  1.00  0.00     0.167 HD
ATOM     48  C   UNL A   1      40.313  28.913  29.024  1.00  0.00     0.031 A 
ATOM     49  C   UNL A   1      47.070  27.101  29.080  1.00  0.00     0.031 A 
ATOM     50  C   UNL A   1      41.210  29.931  29.500  1.00  0.00     0.049 A 
ATOM     51  C   UNL A   1      46.613  28.467  29.505  1.00  0.00     0.074 A 
ATOM     52  C   UNL A   1      40.907  31.200  29.959  1.00  0.00     0.029 A 
ATOM     53  N   UNL A   1      42.586  29.789  29.583  1.00  0.00    -0.354 N 
ATOM     54  N   UNL A   1      45.395  28.946  29.568  1.00  0.00    -0.248 NA
ATOM     55  C   UNL A   1      47.658  29.414  29.921  1.00  0.00     0.031 C 
ATOM     56  C   UNL A   1      42.105  31.841  30.289  1.00  0.00     0.029 A 
ATOM     57  C   UNL A   1      43.148  30.954  30.075  1.00  0.00     0.049 A 
ATOM     58  H   UNL A   1      43.088  28.982  29.330  1.00  0.00     0.167 HD
ATOM     59  C   UNL A   1      45.523  30.239  30.057  1.00  0.00     0.074 A 
ATOM     60  C   UNL A   1      46.935  30.465  30.284  1.00  0.00     0.031 C 
ATOM     61  C   UNL A   1      44.555  31.156  30.300  1.00  0.00     0.031 A 
BRANCH  48  62
ATOM     62  C   UNL A   1      38.850  29.232  28.924  1.00  0.00    -0.014 A 
ATOM     63  C   UNL A   1      38.290  29.704  27.726  1.00  0.00     0.009 A 
ATOM     64  C   UNL A   1      38.017  29.041  30.037  1.00  0.00     0.009 A 
ATOM     65  C   UNL A   1      36.932  30.016  27.656  1.00  0.00     0.001 A 
ATOM     66  C   UNL A   1      36.653  29.328  29.955  1.00  0.00     0.001 A 
ATOM     67  C   UNL A   1      36.114  29.824  28.768  1.00  0.00     0.000 A 
ENDBRANCH  48  62
BRANCH  49  68
ATOM     68  C   UNL A   1      48.513  26.748  29.089  1.00  0.00    -0.014 A 
ATOM     69  C   UNL A   1      49.085  26.141  30.217  1.00  0.00     0.009 A 
ATOM     70  C   UNL A   1      49.324  27.017  27.976  1.00  0.00     0.009 A 
ATOM     71  C   UNL A   1      50.447  25.834  30.242  1.00  0.00     0.001 A 
ATOM     72  C   UNL A   1      50.681  26.687  27.995  1.00  0.00     0.001 A 
ATOM     73  C   UNL A   1      51.244  26.104  29.129  1.00  0.00     0.000 A 
ENDBRANCH  49  68
BRANCH  61  74
ATOM     74  C   UNL A   1      44.989  32.473  30.874  1.00  0.00    -0.014 A 
ATOM     75  C   UNL A   1      45.304  33.560  30.045  1.00  0.00     0.009 A 
ATOM     76  C   UNL A   1      45.031  32.640  32.267  1.00  0.00     0.009 A 
ATOM     77  C   UNL A   1      45.680  34.784  30.602  1.00  0.00     0.001 A 
ATOM     78  C   UNL A   1      45.385  33.871  32.821  1.00  0.00     0.001 A 
ATOM     79  C   UNL A   1      45.715  34.938  31.988  1.00  0.00     0.000 A 
ENDBRANCH  61  74
ENDBRANCH  35  36
ENDBRANCH  27  30
ENDBRANCH  25  26
ENDBRANCH  24  25
ENDBRANCH   1  24
TORSDOF 13
ENDMDL
