MODEL 1
REMARK VINA RESULT:     -12.8      0.000      0.000
REMARK SMILES C[C@H]1c2ccc(O)cc2OC(=O)[C@@H]1CC(=O)N[C@@H](CC1=c2ccccc2=NC1)C(=O)NCCCCNC(=O)c1ccc(-c2c3nc(c(-c4ccccc4)c4ccc([nH]4)c(-c4ccccc4)c4nc(c(-c5ccccc5)c5ccc2[nH]5)C=C4)C=C3)cc1
REMARK SMILES IDX 32 1 31 2 29 3 30 4 18 6 17 7 15 8 16 9 14 11 13 12 1 13
REMARK SMILES IDX 2 14 3 15 4 16 9 17 11 18 5 19 8 20 10 21 12 22 6 23 7 24
REMARK SMILES IDX 19 26 20 27 21 28 28 29 22 30 26 31 27 32 23 33 25 34 24 35
REMARK SMILES IDX 33 36 34 37 35 38 36 39 37 40 38 42 39 43 40 44 86 45 41 46
REMARK SMILES IDX 85 47 42 48 43 49 44 50 79 51 45 52 84 53 78 54 80 55 46 56
REMARK SMILES IDX 83 57 77 58 76 59 47 61 69 62 54 63 68 64 55 65 58 66 67 67
REMARK SMILES IDX 81 68 56 69 57 70 66 72 82 73 59 74 48 75 49 76 53 77 50 78
REMARK SMILES IDX 52 79 51 80 70 81 71 82 75 83 72 84 74 85 73 86 60 87 61 88
REMARK SMILES IDX 65 89 62 90 64 91 63 92
REMARK H PARENT 31 5 17 10 7 25 36 41 80 60 58 71
REMARK Flexibility Score: inf
ROOT
ATOM      1  C   UNL A   1      35.535  22.191  26.270  1.00  0.00     0.116 C 
ENDROOT
BRANCH   1   2
ATOM      2  N   UNL A   1      34.519  22.942  26.947  1.00  0.00    -0.354 N 
ATOM      3  C   UNL A   1      33.181  22.688  26.744  1.00  0.00     0.242 C 
ATOM      4  O   UNL A   1      32.456  22.672  27.745  1.00  0.00    -0.273 OA
ATOM      5  H   UNL A   1      34.785  23.656  27.570  1.00  0.00     0.163 HD
BRANCH   3   6
ATOM      6  C   UNL A   1      32.576  22.359  25.333  1.00  0.00     0.175 C 
BRANCH   6   7
ATOM      7  N   UNL A   1      33.192  22.983  24.156  1.00  0.00    -0.344 N 
ATOM      8  C   UNL A   1      33.305  24.300  23.823  1.00  0.00     0.221 C 
ATOM      9  O   UNL A   1      33.820  24.588  22.741  1.00  0.00    -0.275 OA
ATOM     10  H   UNL A   1      33.583  22.355  23.507  1.00  0.00     0.164 HD
BRANCH   8  11
ATOM     11  C   UNL A   1      32.816  25.393  24.758  1.00  0.00     0.116 C 
BRANCH  11  12
ATOM     12  C   UNL A   1      31.279  25.559  24.751  1.00  0.00     0.116 C 
ATOM     13  C   UNL A   1      29.280  26.988  24.047  1.00  0.00     0.014 C 
ATOM     14  C   UNL A   1      30.807  26.926  24.209  1.00  0.00     0.034 C 
ATOM     15  C   UNL A   1      31.295  28.007  25.144  1.00  0.00    -0.001 A 
ATOM     16  C   UNL A   1      31.583  29.301  24.704  1.00  0.00     0.011 A 
ATOM     17  C   UNL A   1      31.507  27.695  26.492  1.00  0.00     0.138 A 
ATOM     18  C   UNL A   1      30.702  25.460  26.142  1.00  0.00     0.315 C 
ATOM     19  C   UNL A   1      32.143  30.231  25.587  1.00  0.00     0.047 A 
ATOM     20  C   UNL A   1      32.093  28.597  27.372  1.00  0.00     0.093 A 
ATOM     21  O   UNL A   1      31.103  26.456  27.019  1.00  0.00    -0.426 OA
ATOM     22  O   UNL A   1      29.975  24.540  26.498  1.00  0.00    -0.251 OA
ATOM     23  C   UNL A   1      32.420  29.861  26.904  1.00  0.00     0.119 A 
BRANCH  23  24
ATOM     24  O   UNL A   1      33.013  30.725  27.774  1.00  0.00    -0.508 OA
ATOM     25  H   UNL A   1      33.407  30.402  28.561  1.00  0.00     0.293 HD
ENDBRANCH  23  24
ENDBRANCH  11  12
ENDBRANCH   8  11
ENDBRANCH   6   7
BRANCH   6  26
ATOM     26  C   UNL A   1      32.076  20.901  25.047  1.00  0.00     0.068 C 
BRANCH  26  27
ATOM     27  C   UNL A   1      32.877  19.917  24.207  1.00  0.00    -0.037 C 
ATOM     28  C   UNL A   1      33.506  18.853  24.737  1.00  0.00     0.001 A 
ATOM     29  C   UNL A   1      32.342  19.579  22.855  1.00  0.00     0.174 C 
ATOM     30  C   UNL A   1      34.914  18.483  24.569  1.00  0.00     0.010 A 
ATOM     31  C   UNL A   1      32.726  17.800  24.022  1.00  0.00     0.065 A 
ATOM     32  N   UNL A   1      32.105  18.119  22.933  1.00  0.00    -0.280 NA
ATOM     33  C   UNL A   1      35.225  17.168  24.620  1.00  0.00     0.001 A 
ATOM     34  C   UNL A   1      32.899  16.454  24.593  1.00  0.00     0.028 A 
ATOM     35  C   UNL A   1      34.181  16.180  24.889  1.00  0.00     0.002 A 
ENDBRANCH  26  27
ENDBRANCH   6  26
ENDBRANCH   3   6
ENDBRANCH   1   2
BRANCH   1  36
ATOM     36  C   UNL A   1      36.586  22.891  25.427  1.00  0.00     0.023 C 
BRANCH  36  37
ATOM     37  C   UNL A   1      37.778  22.041  24.972  1.00  0.00     0.023 C 
BRANCH  37  38
ATOM     38  C   UNL A   1      38.869  21.658  25.979  1.00  0.00     0.116 C 
BRANCH  38  39
ATOM     39  N   UNL A   1      39.559  20.389  25.751  1.00  0.00    -0.352 N 
ATOM     40  C   UNL A   1      40.871  20.043  26.025  1.00  0.00     0.251 C 
ATOM     41  H   UNL A   1      39.012  19.679  25.345  1.00  0.00     0.163 HD
ATOM     42  O   UNL A   1      41.314  18.923  25.784  1.00  0.00    -0.269 OA
BRANCH  40  43
ATOM     43  C   UNL A   1      41.770  21.076  26.580  1.00  0.00     0.039 A 
ATOM     44  C   UNL A   1      41.925  21.176  27.961  1.00  0.00     0.014 A 
ATOM     45  C   UNL A   1      42.309  22.048  25.735  1.00  0.00     0.014 A 
ATOM     46  C   UNL A   1      42.334  22.388  28.500  1.00  0.00     0.010 A 
ATOM     47  C   UNL A   1      42.839  23.217  26.287  1.00  0.00     0.010 A 
ATOM     48  C   UNL A   1      42.756  23.443  27.670  1.00  0.00    -0.014 A 
BRANCH  48  49
ATOM     49  C   UNL A   1      43.009  24.785  28.270  1.00  0.00     0.031 A 
ATOM     50  C   UNL A   1      44.418  25.262  28.546  1.00  0.00     0.074 A 
ATOM     51  C   UNL A   1      41.977  25.629  28.468  1.00  0.00     0.049 A 
ATOM     52  N   UNL A   1      44.818  26.420  29.016  1.00  0.00    -0.248 NA
ATOM     53  C   UNL A   1      45.522  24.329  28.263  1.00  0.00     0.031 C 
ATOM     54  C   UNL A   1      40.571  25.312  28.209  1.00  0.00     0.029 A 
ATOM     55  N   UNL A   1      41.952  26.938  28.883  1.00  0.00    -0.354 N 
ATOM     56  C   UNL A   1      46.203  26.339  29.114  1.00  0.00     0.074 A 
ATOM     57  C   UNL A   1      46.580  25.013  28.679  1.00  0.00     0.031 C 
ATOM     58  C   UNL A   1      39.834  26.416  28.385  1.00  0.00     0.029 A 
ATOM     59  C   UNL A   1      40.696  27.496  28.854  1.00  0.00     0.049 A 
ATOM     60  H   UNL A   1      42.754  27.429  29.171  1.00  0.00     0.167 HD
ATOM     61  C   UNL A   1      47.086  27.285  29.519  1.00  0.00     0.031 A 
ATOM     62  C   UNL A   1      40.272  28.733  29.177  1.00  0.00     0.031 A 
ATOM     63  C   UNL A   1      46.722  28.618  29.920  1.00  0.00     0.049 A 
ATOM     64  C   UNL A   1      41.263  29.749  29.662  1.00  0.00     0.074 A 
ATOM     65  C   UNL A   1      47.553  29.648  30.326  1.00  0.00     0.029 A 
ATOM     66  N   UNL A   1      45.427  29.111  29.956  1.00  0.00    -0.354 N 
ATOM     67  N   UNL A   1      42.565  29.644  29.763  1.00  0.00    -0.248 NA
ATOM     68  C   UNL A   1      40.727  31.051  30.087  1.00  0.00     0.031 C 
ATOM     69  C   UNL A   1      46.758  30.745  30.663  1.00  0.00     0.029 A 
ATOM     70  C   UNL A   1      45.437  30.421  30.403  1.00  0.00     0.049 A 
ATOM     71  H   UNL A   1      44.621  28.605  29.702  1.00  0.00     0.167 HD
ATOM     72  C   UNL A   1      43.006  30.865  30.257  1.00  0.00     0.074 A 
ATOM     73  C   UNL A   1      41.835  31.704  30.411  1.00  0.00     0.031 C 
ATOM     74  C   UNL A   1      44.269  31.249  30.560  1.00  0.00     0.031 A 
BRANCH  61  75
ATOM     75  C   UNL A   1      48.547  26.924  29.569  1.00  0.00    -0.014 A 
ATOM     76  C   UNL A   1      49.352  27.133  28.437  1.00  0.00     0.009 A 
ATOM     77  C   UNL A   1      49.103  26.280  30.685  1.00  0.00     0.009 A 
ATOM     78  C   UNL A   1      50.677  26.694  28.414  1.00  0.00     0.001 A 
ATOM     79  C   UNL A   1      50.438  25.866  30.670  1.00  0.00     0.001 A 
ATOM     80  C   UNL A   1      51.220  26.064  29.532  1.00  0.00     0.000 A 
ENDBRANCH  61  75
BRANCH  62  81
ATOM     81  C   UNL A   1      38.828  29.059  29.052  1.00  0.00    -0.014 A 
ATOM     82  C   UNL A   1      38.305  29.523  27.832  1.00  0.00     0.009 A 
ATOM     83  C   UNL A   1      37.977  28.971  30.163  1.00  0.00     0.009 A 
ATOM     84  C   UNL A   1      36.974  29.928  27.738  1.00  0.00     0.001 A 
ATOM     85  C   UNL A   1      36.635  29.345  30.057  1.00  0.00     0.001 A 
ATOM     86  C   UNL A   1      36.138  29.835  28.849  1.00  0.00     0.000 A 
ENDBRANCH  62  81
BRANCH  74  87
ATOM     87  C   UNL A   1      44.473  32.640  31.088  1.00  0.00    -0.014 A 
ATOM     88  C   UNL A   1      44.750  33.690  30.198  1.00  0.00     0.009 A 
ATOM     89  C   UNL A   1      44.494  32.893  32.468  1.00  0.00     0.009 A 
ATOM     90  C   UNL A   1      45.059  34.964  30.680  1.00  0.00     0.001 A 
ATOM     91  C   UNL A   1      44.777  34.174  32.945  1.00  0.00     0.001 A 
ATOM     92  C   UNL A   1      45.069  35.205  32.053  1.00  0.00     0.000 A 
ENDBRANCH  74  87
ENDBRANCH  48  49
ENDBRANCH  40  43
ENDBRANCH  38  39
ENDBRANCH  37  38
ENDBRANCH  36  37
ENDBRANCH   1  36
TORSDOF 17
ENDMDL
MODEL 2
REMARK VINA RESULT:     -12.8      0.194      5.505
REMARK SMILES C[C@H]1c2ccc(O)cc2OC(=O)[C@@H]1CC(=O)N[C@@H](CC1=c2ccccc2=NC1)C(=O)NCCCCNC(=O)c1ccc(-c2c3nc(c(-c4ccccc4)c4ccc([nH]4)c(-c4ccccc4)c4nc(c(-c5ccccc5)c5ccc2[nH]5)C=C4)C=C3)cc1
REMARK SMILES IDX 32 1 31 2 29 3 30 4 18 6 17 7 15 8 16 9 14 11 13 12 1 13
REMARK SMILES IDX 2 14 3 15 4 16 9 17 11 18 5 19 8 20 10 21 12 22 6 23 7 24
REMARK SMILES IDX 19 26 20 27 21 28 28 29 22 30 26 31 27 32 23 33 25 34 24 35
REMARK SMILES IDX 33 36 34 37 35 38 36 39 37 40 38 42 39 43 40 44 86 45 41 46
REMARK SMILES IDX 85 47 42 48 43 49 44 50 79 51 45 52 84 53 78 54 80 55 46 56
REMARK SMILES IDX 83 57 77 58 76 59 47 61 69 62 54 63 68 64 55 65 58 66 67 67
REMARK SMILES IDX 81 68 56 69 57 70 66 72 82 73 59 74 48 75 49 76 53 77 50 78
REMARK SMILES IDX 52 79 51 80 70 81 71 82 75 83 72 84 74 85 73 86 60 87 61 88
REMARK SMILES IDX 65 89 62 90 64 91 63 92
REMARK H PARENT 31 5 17 10 7 25 36 41 80 60 58 71
REMARK Flexibility Score: inf
ROOT
ATOM      1  C   UNL A   1      35.653  22.119  26.295  1.00  0.00     0.116 C 
ENDROOT
BRANCH   1   2
ATOM      2  N   UNL A   1      34.645  22.847  27.008  1.00  0.00    -0.354 N 
ATOM      3  C   UNL A   1      33.305  22.602  26.811  1.00  0.00     0.242 C 
ATOM      4  O   UNL A   1      32.591  22.553  27.819  1.00  0.00    -0.273 OA
ATOM      5  H   UNL A   1      34.919  23.538  27.653  1.00  0.00     0.163 HD
BRANCH   3   6
ATOM      6  C   UNL A   1      32.684  22.322  25.397  1.00  0.00     0.175 C 
BRANCH   6   7
ATOM      7  N   UNL A   1      33.320  22.945  24.229  1.00  0.00    -0.344 N 
ATOM      8  C   UNL A   1      33.432  24.261  23.892  1.00  0.00     0.221 C 
ATOM      9  O   UNL A   1      33.966  24.547  22.820  1.00  0.00    -0.275 OA
ATOM     10  H   UNL A   1      33.728  22.316  23.592  1.00  0.00     0.164 HD
BRANCH   8  11
ATOM     11  C   UNL A   1      32.917  25.355  24.812  1.00  0.00     0.116 C 
BRANCH  11  12
ATOM     12  C   UNL A   1      31.378  25.498  24.791  1.00  0.00     0.116 C 
ATOM     13  C   UNL A   1      29.363  26.892  24.061  1.00  0.00     0.014 C 
ATOM     14  C   UNL A   1      30.890  26.854  24.238  1.00  0.00     0.034 C 
ATOM     15  C   UNL A   1      31.352  27.947  25.172  1.00  0.00    -0.001 A 
ATOM     16  C   UNL A   1      31.623  29.243  24.729  1.00  0.00     0.011 A 
ATOM     17  C   UNL A   1      31.556  27.644  26.523  1.00  0.00     0.138 A 
ATOM     18  C   UNL A   1      30.790  25.395  26.176  1.00  0.00     0.315 C 
ATOM     19  C   UNL A   1      32.160  30.186  25.614  1.00  0.00     0.047 A 
ATOM     20  C   UNL A   1      32.120  28.559  27.405  1.00  0.00     0.093 A 
ATOM     21  O   UNL A   1      31.167  26.401  27.052  1.00  0.00    -0.426 OA
ATOM     22  O   UNL A   1      30.074  24.465  26.529  1.00  0.00    -0.251 OA
ATOM     23  C   UNL A   1      32.431  29.826  26.934  1.00  0.00     0.119 A 
BRANCH  23  24
ATOM     24  O   UNL A   1      33.002  30.703  27.806  1.00  0.00    -0.508 OA
ATOM     25  H   UNL A   1      32.465  31.292  28.299  1.00  0.00     0.293 HD
ENDBRANCH  23  24
ENDBRANCH  11  12
ENDBRANCH   8  11
ENDBRANCH   6   7
BRANCH   6  26
ATOM     26  C   UNL A   1      32.128  20.890  25.085  1.00  0.00     0.068 C 
BRANCH  26  27
ATOM     27  C   UNL A   1      32.899  19.885  24.242  1.00  0.00    -0.037 C 
ATOM     28  C   UNL A   1      33.510  18.810  24.770  1.00  0.00     0.001 A 
ATOM     29  C   UNL A   1      32.342  19.552  22.897  1.00  0.00     0.174 C 
ATOM     30  C   UNL A   1      34.908  18.409  24.589  1.00  0.00     0.010 A 
ATOM     31  C   UNL A   1      32.700  17.771  24.068  1.00  0.00     0.065 A 
ATOM     32  N   UNL A   1      32.074  18.099  22.985  1.00  0.00    -0.280 NA
ATOM     33  C   UNL A   1      35.191  17.088  24.643  1.00  0.00     0.001 A 
ATOM     34  C   UNL A   1      32.850  16.424  24.644  1.00  0.00     0.028 A 
ATOM     35  C   UNL A   1      34.128  16.124  24.928  1.00  0.00     0.002 A 
ENDBRANCH  26  27
ENDBRANCH   6  26
ENDBRANCH   3   6
ENDBRANCH   1   2
BRANCH   1  36
ATOM     36  C   UNL A   1      36.639  22.838  25.392  1.00  0.00     0.023 C 
BRANCH  36  37
ATOM     37  C   UNL A   1      37.908  22.068  25.010  1.00  0.00     0.023 C 
BRANCH  37  38
ATOM     38  C   UNL A   1      38.869  21.591  26.105  1.00  0.00     0.116 C 
BRANCH  38  39
ATOM     39  N   UNL A   1      39.558  20.323  25.871  1.00  0.00    -0.352 N 
ATOM     40  C   UNL A   1      40.883  19.990  26.093  1.00  0.00     0.251 C 
ATOM     41  H   UNL A   1      38.998  19.602  25.503  1.00  0.00     0.163 HD
ATOM     42  O   UNL A   1      41.323  18.870  25.853  1.00  0.00    -0.269 OA
BRANCH  40  43
ATOM     43  C   UNL A   1      41.798  21.040  26.589  1.00  0.00     0.039 A 
ATOM     44  C   UNL A   1      41.888  21.276  27.958  1.00  0.00     0.014 A 
ATOM     45  C   UNL A   1      42.421  21.897  25.679  1.00  0.00     0.014 A 
ATOM     46  C   UNL A   1      42.322  22.521  28.393  1.00  0.00     0.010 A 
ATOM     47  C   UNL A   1      42.975  23.096  26.138  1.00  0.00     0.010 A 
ATOM     48  C   UNL A   1      42.832  23.467  27.484  1.00  0.00    -0.014 A 
BRANCH  48  49
ATOM     49  C   UNL A   1      43.114  24.853  27.958  1.00  0.00     0.031 A 
ATOM     50  C   UNL A   1      41.989  25.833  28.213  1.00  0.00     0.074 A 
ATOM     51  C   UNL A   1      44.376  25.204  28.271  1.00  0.00     0.049 A 
ATOM     52  N   UNL A   1      42.055  27.058  28.677  1.00  0.00    -0.248 NA
ATOM     53  C   UNL A   1      40.617  25.390  27.912  1.00  0.00     0.031 C 
ATOM     54  C   UNL A   1      45.551  24.344  28.110  1.00  0.00     0.029 A 
ATOM     55  N   UNL A   1      44.879  26.352  28.833  1.00  0.00    -0.354 N 
ATOM     56  C   UNL A   1      40.749  27.536  28.689  1.00  0.00     0.074 A 
ATOM     57  C   UNL A   1      39.909  26.482  28.167  1.00  0.00     0.031 C 
ATOM     58  C   UNL A   1      46.618  24.956  28.641  1.00  0.00     0.029 A 
ATOM     59  C   UNL A   1      46.225  26.285  29.100  1.00  0.00     0.049 A 
ATOM     60  H   UNL A   1      44.329  27.144  29.026  1.00  0.00     0.167 HD
ATOM     61  C   UNL A   1      40.285  28.740  29.108  1.00  0.00     0.031 A 
ATOM     62  C   UNL A   1      47.064  27.190  29.641  1.00  0.00     0.031 A 
ATOM     63  C   UNL A   1      41.110  29.781  29.662  1.00  0.00     0.049 A 
ATOM     64  C   UNL A   1      46.534  28.529  30.059  1.00  0.00     0.074 A 
ATOM     65  C   UNL A   1      40.722  31.024  30.131  1.00  0.00     0.029 A 
ATOM     66  N   UNL A   1      42.483  29.699  29.834  1.00  0.00    -0.354 N 
ATOM     67  N   UNL A   1      45.298  28.966  30.045  1.00  0.00    -0.248 NA
ATOM     68  C   UNL A   1      47.514  29.506  30.557  1.00  0.00     0.031 C 
ATOM     69  C   UNL A   1      41.865  31.718  30.532  1.00  0.00     0.029 A 
ATOM     70  C   UNL A   1      42.958  30.881  30.377  1.00  0.00     0.049 A 
ATOM     71  H   UNL A   1      43.037  28.919  29.604  1.00  0.00     0.167 HD
ATOM     72  C   UNL A   1      45.350  30.263  30.536  1.00  0.00     0.074 A 
ATOM     73  C   UNL A   1      46.735  30.535  30.863  1.00  0.00     0.031 C 
ATOM     74  C   UNL A   1      44.337  31.149  30.694  1.00  0.00     0.031 A 
BRANCH  61  75
ATOM     75  C   UNL A   1      38.812  29.023  28.977  1.00  0.00    -0.014 A 
ATOM     76  C   UNL A   1      38.306  29.516  27.763  1.00  0.00     0.009 A 
ATOM     77  C   UNL A   1      37.946  28.909  30.075  1.00  0.00     0.009 A 
ATOM     78  C   UNL A   1      36.969  29.903  27.654  1.00  0.00     0.001 A 
ATOM     79  C   UNL A   1      36.601  29.271  29.955  1.00  0.00     0.001 A 
ATOM     80  C   UNL A   1      36.117  29.777  28.749  1.00  0.00     0.000 A 
ENDBRANCH  61  75
BRANCH  62  81
ATOM     81  C   UNL A   1      48.499  26.839  29.806  1.00  0.00    -0.014 A 
ATOM     82  C   UNL A   1      49.410  27.059  28.758  1.00  0.00     0.009 A 
ATOM     83  C   UNL A   1      48.954  26.226  30.982  1.00  0.00     0.009 A 
ATOM     84  C   UNL A   1      50.735  26.636  28.870  1.00  0.00     0.001 A 
ATOM     85  C   UNL A   1      50.290  25.835  31.104  1.00  0.00     0.001 A 
ATOM     86  C   UNL A   1      51.176  26.029  30.044  1.00  0.00     0.000 A 
ENDBRANCH  62  81
BRANCH  74  87
ATOM     87  C   UNL A   1      44.668  32.504  31.250  1.00  0.00    -0.014 A 
ATOM     88  C   UNL A   1      44.595  32.727  32.634  1.00  0.00     0.009 A 
ATOM     89  C   UNL A   1      44.953  33.583  30.400  1.00  0.00     0.009 A 
ATOM     90  C   UNL A   1      44.784  34.008  33.156  1.00  0.00     0.001 A 
ATOM     91  C   UNL A   1      45.168  34.858  30.927  1.00  0.00     0.001 A 
ATOM     92  C   UNL A   1      45.074  35.071  32.302  1.00  0.00     0.000 A 
ENDBRANCH  74  87
ENDBRANCH  48  49
ENDBRANCH  40  43
ENDBRANCH  38  39
ENDBRANCH  37  38
ENDBRANCH  36  37
ENDBRANCH   1  36
TORSDOF 17
ENDMDL
MODEL 3
REMARK VINA RESULT:     -12.7      2.326      6.491
REMARK SMILES C[C@H]1c2ccc(O)cc2OC(=O)[C@@H]1CC(=O)N[C@@H](CC1=c2ccccc2=NC1)C(=O)NCCCCNC(=O)c1ccc(-c2c3nc(c(-c4ccccc4)c4ccc([nH]4)c(-c4ccccc4)c4nc(c(-c5ccccc5)c5ccc2[nH]5)C=C4)C=C3)cc1
REMARK SMILES IDX 32 1 31 2 29 3 30 4 18 6 17 7 15 8 16 9 14 11 13 12 1 13
REMARK SMILES IDX 2 14 3 15 4 16 9 17 11 18 5 19 8 20 10 21 12 22 6 23 7 24
REMARK SMILES IDX 19 26 20 27 21 28 28 29 22 30 26 31 27 32 23 33 25 34 24 35
REMARK SMILES IDX 33 36 34 37 35 38 36 39 37 40 38 42 39 43 40 44 86 45 41 46
REMARK SMILES IDX 85 47 42 48 43 49 44 50 79 51 45 52 84 53 78 54 80 55 46 56
REMARK SMILES IDX 83 57 77 58 76 59 47 61 69 62 54 63 68 64 55 65 58 66 67 67
REMARK SMILES IDX 81 68 56 69 57 70 66 72 82 73 59 74 48 75 49 76 53 77 50 78
REMARK SMILES IDX 52 79 51 80 70 81 71 82 75 83 72 84 74 85 73 86 60 87 61 88
REMARK SMILES IDX 65 89 62 90 64 91 63 92
REMARK H PARENT 31 5 17 10 7 25 36 41 80 60 58 71
REMARK Flexibility Score: inf
ROOT
ATOM      1  C   UNL A   1      35.108  23.419  23.583  1.00  0.00     0.116 C 
ENDROOT
BRANCH   1   2
ATOM      2  N   UNL A   1      33.959  22.770  23.025  1.00  0.00    -0.354 N 
ATOM      3  C   UNL A   1      32.817  22.565  23.767  1.00  0.00     0.242 C 
ATOM      4  O   UNL A   1      31.738  22.794  23.208  1.00  0.00    -0.273 OA
ATOM      5  H   UNL A   1      33.988  22.463  22.090  1.00  0.00     0.163 HD
BRANCH   3   6
ATOM      6  C   UNL A   1      32.841  22.130  25.274  1.00  0.00     0.175 C 
BRANCH   6   7
ATOM      7  N   UNL A   1      31.638  22.369  26.081  1.00  0.00    -0.344 N 
ATOM      8  C   UNL A   1      31.183  23.519  26.653  1.00  0.00     0.221 C 
ATOM      9  O   UNL A   1      30.163  23.466  27.342  1.00  0.00    -0.275 OA
ATOM     10  H   UNL A   1      31.073  21.577  26.232  1.00  0.00     0.164 HD
BRANCH   8  11
ATOM     11  C   UNL A   1      31.905  24.840  26.447  1.00  0.00     0.116 C 
BRANCH  11  12
ATOM     12  C   UNL A   1      31.642  25.471  25.061  1.00  0.00     0.116 C 
ATOM     13  C   UNL A   1      32.617  26.712  23.050  1.00  0.00     0.014 C 
ATOM     14  C   UNL A   1      32.848  26.255  24.499  1.00  0.00     0.034 C 
ATOM     15  C   UNL A   1      33.115  27.436  25.401  1.00  0.00    -0.001 A 
ATOM     16  C   UNL A   1      34.392  27.976  25.567  1.00  0.00     0.011 A 
ATOM     17  C   UNL A   1      32.056  27.986  26.132  1.00  0.00     0.138 A 
ATOM     18  C   UNL A   1      30.507  26.464  25.107  1.00  0.00     0.315 C 
ATOM     19  C   UNL A   1      34.604  28.994  26.503  1.00  0.00     0.047 A 
ATOM     20  C   UNL A   1      32.256  28.973  27.089  1.00  0.00     0.093 A 
ATOM     21  O   UNL A   1      30.730  27.578  25.901  1.00  0.00    -0.426 OA
ATOM     22  O   UNL A   1      29.439  26.282  24.534  1.00  0.00    -0.251 OA
ATOM     23  C   UNL A   1      33.541  29.462  27.276  1.00  0.00     0.119 A 
BRANCH  23  24
ATOM     24  O   UNL A   1      33.724  30.415  28.233  1.00  0.00    -0.508 OA
ATOM     25  H   UNL A   1      34.381  31.073  28.120  1.00  0.00     0.293 HD
ENDBRANCH  23  24
ENDBRANCH  11  12
ENDBRANCH   8  11
ENDBRANCH   6   7
BRANCH   6  26
ATOM     26  C   UNL A   1      33.572  20.799  25.665  1.00  0.00     0.068 C 
BRANCH  26  27
ATOM     27  C   UNL A   1      33.600  19.588  24.746  1.00  0.00    -0.037 C 
ATOM     28  C   UNL A   1      34.057  18.386  25.142  1.00  0.00     0.001 A 
ATOM     29  C   UNL A   1      32.455  19.418  23.803  1.00  0.00     0.174 C 
ATOM     30  C   UNL A   1      35.074  17.564  24.481  1.00  0.00     0.010 A 
ATOM     31  C   UNL A   1      32.774  17.639  24.987  1.00  0.00     0.065 A 
ATOM     32  N   UNL A   1      31.862  18.123  24.208  1.00  0.00    -0.280 NA
ATOM     33  C   UNL A   1      34.978  16.222  24.615  1.00  0.00     0.001 A 
ATOM     34  C   UNL A   1      32.778  16.324  25.651  1.00  0.00     0.028 A 
ATOM     35  C   UNL A   1      33.918  15.645  25.442  1.00  0.00     0.002 A 
ENDBRANCH  26  27
ENDBRANCH   6  26
ENDBRANCH   3   6
ENDBRANCH   1   2
BRANCH   1  36
ATOM     36  C   UNL A   1      36.505  22.884  23.326  1.00  0.00     0.023 C 
BRANCH  36  37
ATOM     37  C   UNL A   1      37.086  21.942  24.387  1.00  0.00     0.023 C 
BRANCH  37  38
ATOM     38  C   UNL A   1      37.778  22.523  25.625  1.00  0.00     0.116 C 
BRANCH  38  39
ATOM     39  N   UNL A   1      39.185  22.176  25.816  1.00  0.00    -0.352 N 
ATOM     40  C   UNL A   1      40.200  22.917  26.397  1.00  0.00     0.251 C 
ATOM     41  H   UNL A   1      39.449  21.288  25.484  1.00  0.00     0.163 HD
ATOM     42  O   UNL A   1      41.346  22.487  26.497  1.00  0.00    -0.269 OA
BRANCH  40  43
ATOM     43  C   UNL A   1      39.893  24.285  26.865  1.00  0.00     0.039 A 
ATOM     44  C   UNL A   1      40.375  25.376  26.146  1.00  0.00     0.014 A 
ATOM     45  C   UNL A   1      39.283  24.468  28.107  1.00  0.00     0.014 A 
ATOM     46  C   UNL A   1      40.530  26.590  26.802  1.00  0.00     0.010 A 
ATOM     47  C   UNL A   1      39.328  25.728  28.713  1.00  0.00     0.010 A 
ATOM     48  C   UNL A   1      40.048  26.771  28.112  1.00  0.00    -0.014 A 
BRANCH  48  49
ATOM     49  C   UNL A   1      40.396  28.021  28.848  1.00  0.00     0.031 A 
ATOM     50  C   UNL A   1      39.384  29.133  29.016  1.00  0.00     0.074 A 
ATOM     51  C   UNL A   1      41.589  28.117  29.468  1.00  0.00     0.049 A 
ATOM     52  N   UNL A   1      39.505  30.263  29.672  1.00  0.00    -0.248 NA
ATOM     53  C   UNL A   1      38.071  28.965  28.370  1.00  0.00     0.031 C 
ATOM     54  C   UNL A   1      42.644  27.101  29.420  1.00  0.00     0.029 A 
ATOM     55  N   UNL A   1      42.098  29.086  30.297  1.00  0.00    -0.354 N 
ATOM     56  C   UNL A   1      38.306  30.945  29.488  1.00  0.00     0.074 A 
ATOM     57  C   UNL A   1      37.476  30.119  28.642  1.00  0.00     0.031 C 
ATOM     58  C   UNL A   1      43.631  27.457  30.252  1.00  0.00     0.029 A 
ATOM     59  C   UNL A   1      43.325  28.765  30.824  1.00  0.00     0.049 A 
ATOM     60  H   UNL A   1      41.628  29.928  30.496  1.00  0.00     0.167 HD
ATOM     61  C   UNL A   1      37.924  32.147  29.987  1.00  0.00     0.031 A 
ATOM     62  C   UNL A   1      44.130  29.443  31.665  1.00  0.00     0.031 A 
ATOM     63  C   UNL A   1      38.731  32.959  30.859  1.00  0.00     0.049 A 
ATOM     64  C   UNL A   1      43.702  30.788  32.170  1.00  0.00     0.074 A 
ATOM     65  C   UNL A   1      38.415  34.181  31.429  1.00  0.00     0.029 A 
ATOM     66  N   UNL A   1      40.004  32.631  31.298  1.00  0.00    -0.354 N 
ATOM     67  N   UNL A   1      42.573  31.421  31.969  1.00  0.00    -0.248 NA
ATOM     68  C   UNL A   1      44.663  31.520  33.010  1.00  0.00     0.031 C 
ATOM     69  C   UNL A   1      39.518  34.620  32.164  1.00  0.00     0.029 A 
ATOM     70  C   UNL A   1      40.496  33.641  32.108  1.00  0.00     0.049 A 
ATOM     71  H   UNL A   1      40.487  31.805  31.067  1.00  0.00     0.167 HD
ATOM     72  C   UNL A   1      42.682  32.621  32.660  1.00  0.00     0.074 A 
ATOM     73  C   UNL A   1      43.979  32.616  33.307  1.00  0.00     0.031 C 
ATOM     74  C   UNL A   1      41.788  33.634  32.743  1.00  0.00     0.031 A 
BRANCH  61  75
ATOM     75  C   UNL A   1      36.572  32.683  29.600  1.00  0.00    -0.014 A 
ATOM     76  C   UNL A   1      36.402  33.298  28.348  1.00  0.00     0.009 A 
ATOM     77  C   UNL A   1      35.499  32.682  30.504  1.00  0.00     0.009 A 
ATOM     78  C   UNL A   1      35.195  33.914  28.015  1.00  0.00     0.001 A 
ATOM     79  C   UNL A   1      34.281  33.274  30.157  1.00  0.00     0.001 A 
ATOM     80  C   UNL A   1      34.133  33.898  28.918  1.00  0.00     0.000 A 
ENDBRANCH  61  75
BRANCH  62  81
ATOM     81  C   UNL A   1      45.429  28.842  32.066  1.00  0.00    -0.014 A 
ATOM     82  C   UNL A   1      45.578  28.247  33.331  1.00  0.00     0.009 A 
ATOM     83  C   UNL A   1      46.543  28.916  31.217  1.00  0.00     0.009 A 
ATOM     84  C   UNL A   1      46.821  27.776  33.752  1.00  0.00     0.001 A 
ATOM     85  C   UNL A   1      47.779  28.412  31.629  1.00  0.00     0.001 A 
ATOM     86  C   UNL A   1      47.921  27.854  32.899  1.00  0.00     0.000 A 
ENDBRANCH  62  81
BRANCH  74  87
ATOM     87  C   UNL A   1      42.160  34.835  33.564  1.00  0.00    -0.014 A 
ATOM     88  C   UNL A   1      42.881  35.886  32.975  1.00  0.00     0.009 A 
ATOM     89  C   UNL A   1      41.888  34.882  34.940  1.00  0.00     0.009 A 
ATOM     90  C   UNL A   1      43.338  36.953  33.752  1.00  0.00     0.001 A 
ATOM     91  C   UNL A   1      42.323  35.964  35.708  1.00  0.00     0.001 A 
ATOM     92  C   UNL A   1      43.055  36.993  35.116  1.00  0.00     0.000 A 
ENDBRANCH  74  87
ENDBRANCH  48  49
ENDBRANCH  40  43
ENDBRANCH  38  39
ENDBRANCH  37  38
ENDBRANCH  36  37
ENDBRANCH   1  36
TORSDOF 17
ENDMDL
