MODEL 1
REMARK VINA RESULT:     -11.9      0.000      0.000
REMARK SMILES CS(=O)(=O)c1ccc(/C=C(/C(=O)NCCCCNC(=O)c2ccc(-c3c4nc(c(-c5ccccc5)c5ccc([nH]5)c(-c5ccccc5)c5nc(c(-c6ccccc6)c6ccc3[nH]6)C=C5)C=C4)cc2)c2ccc(F)cc2)cc1
REMARK SMILES IDX 15 1 14 2 13 3 11 4 12 5 10 7 9 8 8 9 5 10 6 11 77 12 7 13
REMARK SMILES IDX 76 14 2 15 1 16 3 17 4 18 69 19 70 20 75 21 71 22 74 23
REMARK SMILES IDX 72 24 73 25 16 26 17 27 18 28 19 29 20 31 21 32 22 33 68 34
REMARK SMILES IDX 23 35 67 36 24 37 25 38 26 39 61 40 27 41 66 42 60 43 62 44
REMARK SMILES IDX 28 45 65 46 59 47 58 48 29 50 51 51 36 52 50 53 37 54 40 55
REMARK SMILES IDX 49 56 63 57 38 58 39 59 48 61 64 62 41 63 30 64 31 65 35 66
REMARK SMILES IDX 32 67 34 68 33 69 52 70 53 71 57 72 54 73 56 74 55 75 42 76
REMARK SMILES IDX 43 77 47 78 44 79 46 80 45 81
REMARK H PARENT 13 6 18 30 62 49 40 60
REMARK Flexibility Score: inf
ROOT
ATOM      1  C   UNL A   1      34.695  23.845  24.545  1.00  0.00     0.023 C 
ENDROOT
BRANCH   1   2
ATOM      2  C   UNL A   1      33.369  23.087  24.429  1.00  0.00     0.116 C 
BRANCH   2   3
ATOM      3  N   UNL A   1      32.680  23.074  25.705  1.00  0.00    -0.352 N 
ATOM      4  C   UNL A   1      31.906  23.983  26.361  1.00  0.00     0.251 C 
ATOM      5  O   UNL A   1      31.496  23.644  27.473  1.00  0.00    -0.269 OA
ATOM      6  H   UNL A   1      32.796  22.233  26.202  1.00  0.00     0.163 HD
BRANCH   4   7
ATOM      7  C   UNL A   1      31.480  25.303  25.761  1.00  0.00     0.047 C 
ATOM      8  C   UNL A   1      30.705  25.376  24.656  1.00  0.00     0.022 C 
BRANCH   8   9
ATOM      9  C   UNL A   1      30.121  26.566  24.004  1.00  0.00    -0.025 A 
ATOM     10  C   UNL A   1      28.869  28.817  22.896  1.00  0.00     0.067 A 
ATOM     11  C   UNL A   1      30.261  28.711  22.866  1.00  0.00     0.021 A 
ATOM     12  C   UNL A   1      28.092  27.787  23.425  1.00  0.00     0.021 A 
ATOM     13  C   UNL A   1      30.879  27.579  23.407  1.00  0.00     0.009 A 
ATOM     14  C   UNL A   1      28.719  26.667  23.976  1.00  0.00     0.009 A 
BRANCH  10  15
ATOM     15  S   UNL A   1      28.082  30.270  22.245  1.00  0.00     0.175 S 
ATOM     16  C   UNL A   1      29.246  31.575  22.544  1.00  0.00     0.163 C 
ATOM     17  O   UNL A   1      26.915  30.539  23.060  1.00  0.00    -0.224 OA
ATOM     18  O   UNL A   1      27.967  30.077  20.810  1.00  0.00    -0.224 OA
ENDBRANCH  10  15
ENDBRANCH   8   9
BRANCH   7  19
ATOM     19  C   UNL A   1      32.093  26.532  26.327  1.00  0.00    -0.013 A 
ATOM     20  C   UNL A   1      33.427  26.832  25.995  1.00  0.00     0.012 A 
ATOM     21  C   UNL A   1      31.362  27.440  27.104  1.00  0.00     0.012 A 
ATOM     22  C   UNL A   1      34.010  28.031  26.405  1.00  0.00     0.040 A 
ATOM     23  C   UNL A   1      31.946  28.645  27.507  1.00  0.00     0.040 A 
ATOM     24  C   UNL A   1      33.259  28.931  27.148  1.00  0.00     0.123 A 
ATOM     25  F   UNL A   1      33.804  30.098  27.513  1.00  0.00    -0.207 F 
ENDBRANCH   7  19
ENDBRANCH   4   7
ENDBRANCH   2   3
ENDBRANCH   1   2
BRANCH   1  26
ATOM     26  C   UNL A   1      35.937  22.948  24.605  1.00  0.00     0.023 C 
BRANCH  26  27
ATOM     27  C   UNL A   1      37.214  23.634  25.079  1.00  0.00     0.116 C 
BRANCH  27  28
ATOM     28  N   UNL A   1      38.282  22.699  25.393  1.00  0.00    -0.352 N 
ATOM     29  C   UNL A   1      39.428  22.912  26.118  1.00  0.00     0.251 C 
ATOM     30  H   UNL A   1      38.169  21.789  25.036  1.00  0.00     0.163 HD
ATOM     31  O   UNL A   1      40.281  22.035  26.199  1.00  0.00    -0.269 OA
BRANCH  29  32
ATOM     32  C   UNL A   1      39.651  24.220  26.769  1.00  0.00     0.039 A 
ATOM     33  C   UNL A   1      39.161  24.417  28.063  1.00  0.00     0.014 A 
ATOM     34  C   UNL A   1      40.346  25.241  26.114  1.00  0.00     0.014 A 
ATOM     35  C   UNL A   1      39.423  25.615  28.727  1.00  0.00     0.010 A 
ATOM     36  C   UNL A   1      40.656  26.414  26.799  1.00  0.00     0.010 A 
ATOM     37  C   UNL A   1      40.202  26.610  28.111  1.00  0.00    -0.014 A 
BRANCH  37  38
ATOM     38  C   UNL A   1      40.559  27.857  28.830  1.00  0.00     0.031 A 
ATOM     39  C   UNL A   1      39.555  28.966  28.968  1.00  0.00     0.074 A 
ATOM     40  C   UNL A   1      41.812  28.017  29.298  1.00  0.00     0.049 A 
ATOM     41  N   UNL A   1      39.703  30.149  29.506  1.00  0.00    -0.248 NA
ATOM     42  C   UNL A   1      38.216  28.721  28.408  1.00  0.00     0.031 C 
ATOM     43  C   UNL A   1      42.891  27.033  29.190  1.00  0.00     0.029 A 
ATOM     44  N   UNL A   1      42.390  29.075  29.952  1.00  0.00    -0.354 N 
ATOM     45  C   UNL A   1      38.486  30.796  29.331  1.00  0.00     0.074 A 
ATOM     46  C   UNL A   1      37.625  29.891  28.603  1.00  0.00     0.031 C 
ATOM     47  C   UNL A   1      43.993  27.526  29.777  1.00  0.00     0.029 A 
ATOM     48  C   UNL A   1      43.710  28.868  30.272  1.00  0.00     0.049 A 
ATOM     49  H   UNL A   1      41.906  29.904  30.171  1.00  0.00     0.167 HD
ATOM     50  C   UNL A   1      38.114  32.028  29.753  1.00  0.00     0.031 A 
ATOM     51  C   UNL A   1      44.594  29.673  30.892  1.00  0.00     0.031 A 
ATOM     52  C   UNL A   1      38.963  32.924  30.491  1.00  0.00     0.049 A 
ATOM     53  C   UNL A   1      44.154  31.033  31.354  1.00  0.00     0.074 A 
ATOM     54  C   UNL A   1      38.657  34.169  31.013  1.00  0.00     0.029 A 
ATOM     55  N   UNL A   1      40.287  32.670  30.812  1.00  0.00    -0.354 N 
ATOM     56  N   UNL A   1      42.981  31.604  31.237  1.00  0.00    -0.248 NA
ATOM     57  C   UNL A   1      45.160  31.852  32.044  1.00  0.00     0.031 C 
ATOM     58  C   UNL A   1      39.809  34.685  31.617  1.00  0.00     0.029 A 
ATOM     59  C   UNL A   1      40.818  33.741  31.510  1.00  0.00     0.049 A 
ATOM     60  H   UNL A   1      40.777  31.849  30.578  1.00  0.00     0.167 HD
ATOM     61  C   UNL A   1      43.099  32.839  31.860  1.00  0.00     0.074 A 
ATOM     62  C   UNL A   1      44.454  32.928  32.365  1.00  0.00     0.031 C 
ATOM     63  C   UNL A   1      42.168  33.813  32.004  1.00  0.00     0.031 A 
BRANCH  50  64
ATOM     64  C   UNL A   1      36.721  32.479  29.417  1.00  0.00    -0.014 A 
ATOM     65  C   UNL A   1      35.656  32.267  30.306  1.00  0.00     0.009 A 
ATOM     66  C   UNL A   1      36.476  33.150  28.209  1.00  0.00     0.009 A 
ATOM     67  C   UNL A   1      34.365  32.685  29.976  1.00  0.00     0.001 A 
ATOM     68  C   UNL A   1      35.188  33.590  27.893  1.00  0.00     0.001 A 
ATOM     69  C   UNL A   1      34.133  33.348  28.773  1.00  0.00     0.000 A 
ENDBRANCH  50  64
BRANCH  51  70
ATOM     70  C   UNL A   1      45.982  29.204  31.131  1.00  0.00    -0.014 A 
ATOM     71  C   UNL A   1      46.985  29.447  30.180  1.00  0.00     0.009 A 
ATOM     72  C   UNL A   1      46.311  28.510  32.305  1.00  0.00     0.009 A 
ATOM     73  C   UNL A   1      48.286  28.984  30.390  1.00  0.00     0.001 A 
ATOM     74  C   UNL A   1      47.618  28.069  32.523  1.00  0.00     0.001 A 
ATOM     75  C   UNL A   1      48.601  28.299  31.562  1.00  0.00     0.000 A 
ENDBRANCH  51  70
BRANCH  63  76
ATOM     76  C   UNL A   1      42.574  35.042  32.763  1.00  0.00    -0.014 A 
ATOM     77  C   UNL A   1      43.286  36.079  32.140  1.00  0.00     0.009 A 
ATOM     78  C   UNL A   1      42.207  35.180  34.111  1.00  0.00     0.009 A 
ATOM     79  C   UNL A   1      43.647  37.218  32.862  1.00  0.00     0.001 A 
ATOM     80  C   UNL A   1      42.549  36.329  34.823  1.00  0.00     0.001 A 
ATOM     81  C   UNL A   1      43.276  37.344  34.200  1.00  0.00     0.000 A 
ENDBRANCH  63  76
ENDBRANCH  37  38
ENDBRANCH  29  32
ENDBRANCH  27  28
ENDBRANCH  26  27
ENDBRANCH   1  26
TORSDOF 14
ENDMDL
MODEL 2
REMARK VINA RESULT:     -11.9      3.446      8.224
REMARK SMILES CS(=O)(=O)c1ccc(/C=C(/C(=O)NCCCCNC(=O)c2ccc(-c3c4nc(c(-c5ccccc5)c5ccc([nH]5)c(-c5ccccc5)c5nc(c(-c6ccccc6)c6ccc3[nH]6)C=C5)C=C4)cc2)c2ccc(F)cc2)cc1
REMARK SMILES IDX 15 1 14 2 13 3 11 4 12 5 10 7 9 8 8 9 5 10 6 11 77 12 7 13
REMARK SMILES IDX 76 14 2 15 1 16 3 17 4 18 69 19 70 20 75 21 71 22 74 23
REMARK SMILES IDX 72 24 73 25 16 26 17 27 18 28 19 29 20 31 21 32 22 33 68 34
REMARK SMILES IDX 23 35 67 36 24 37 25 38 26 39 61 40 27 41 66 42 60 43 62 44
REMARK SMILES IDX 28 45 65 46 59 47 58 48 29 50 51 51 36 52 50 53 37 54 40 55
REMARK SMILES IDX 49 56 63 57 38 58 39 59 48 61 64 62 41 63 30 64 31 65 35 66
REMARK SMILES IDX 32 67 34 68 33 69 52 70 53 71 57 72 54 73 56 74 55 75 42 76
REMARK SMILES IDX 43 77 47 78 44 79 46 80 45 81
REMARK H PARENT 13 6 18 30 62 49 40 60
REMARK Flexibility Score: inf
ROOT
ATOM      1  C   UNL A   1      32.143  26.703  26.450  1.00  0.00     0.023 C 
ENDROOT
BRANCH   1   2
ATOM      2  C   UNL A   1      31.251  26.356  25.254  1.00  0.00     0.116 C 
BRANCH   2   3
ATOM      3  N   UNL A   1      31.958  26.588  24.010  1.00  0.00    -0.352 N 
ATOM      4  C   UNL A   1      32.813  25.835  23.264  1.00  0.00     0.251 C 
ATOM      5  O   UNL A   1      33.265  26.371  22.250  1.00  0.00    -0.269 OA
ATOM      6  H   UNL A   1      31.786  27.477  23.625  1.00  0.00     0.163 HD
BRANCH   4   7
ATOM      7  C   UNL A   1      33.145  24.394  23.576  1.00  0.00     0.047 C 
ATOM      8  C   UNL A   1      32.197  23.431  23.631  1.00  0.00     0.022 C 
BRANCH   8   9
ATOM      9  C   UNL A   1      32.359  21.975  23.821  1.00  0.00    -0.025 A 
ATOM     10  C   UNL A   1      32.734  19.203  24.002  1.00  0.00     0.067 A 
ATOM     11  C   UNL A   1      32.869  19.997  25.141  1.00  0.00     0.021 A 
ATOM     12  C   UNL A   1      32.362  19.769  22.783  1.00  0.00     0.021 A 
ATOM     13  C   UNL A   1      32.666  21.378  25.049  1.00  0.00     0.009 A 
ATOM     14  C   UNL A   1      32.175  21.150  22.697  1.00  0.00     0.009 A 
BRANCH  10  15
ATOM     15  S   UNL A   1      33.029  17.454  24.107  1.00  0.00     0.175 S 
ATOM     16  C   UNL A   1      34.735  17.320  24.574  1.00  0.00     0.163 C 
ATOM     17  O   UNL A   1      32.903  16.907  22.773  1.00  0.00    -0.224 OA
ATOM     18  O   UNL A   1      32.213  16.957  25.202  1.00  0.00    -0.224 OA
ENDBRANCH  10  15
ENDBRANCH   8   9
BRANCH   7  19
ATOM     19  C   UNL A   1      34.537  24.098  24.002  1.00  0.00    -0.013 A 
ATOM     20  C   UNL A   1      34.940  24.477  25.296  1.00  0.00     0.012 A 
ATOM     21  C   UNL A   1      35.428  23.381  23.191  1.00  0.00     0.012 A 
ATOM     22  C   UNL A   1      36.196  24.119  25.783  1.00  0.00     0.040 A 
ATOM     23  C   UNL A   1      36.684  23.016  23.686  1.00  0.00     0.040 A 
ATOM     24  C   UNL A   1      37.052  23.382  24.977  1.00  0.00     0.123 A 
ATOM     25  F   UNL A   1      38.245  23.006  25.454  1.00  0.00    -0.207 F 
ENDBRANCH   7  19
ENDBRANCH   4   7
ENDBRANCH   2   3
ENDBRANCH   1   2
BRANCH   1  26
ATOM     26  C   UNL A   1      32.224  28.202  26.768  1.00  0.00     0.023 C 
BRANCH  26  27
ATOM     27  C   UNL A   1      33.576  28.685  27.283  1.00  0.00     0.116 C 
BRANCH  27  28
ATOM     28  N   UNL A   1      33.554  30.067  27.734  1.00  0.00    -0.352 N 
ATOM     29  C   UNL A   1      34.552  30.793  28.336  1.00  0.00     0.251 C 
ATOM     30  H   UNL A   1      32.708  30.548  27.590  1.00  0.00     0.163 HD
ATOM     31  O   UNL A   1      34.329  31.926  28.751  1.00  0.00    -0.269 OA
BRANCH  29  32
ATOM     32  C   UNL A   1      35.888  30.189  28.521  1.00  0.00     0.039 A 
ATOM     33  C   UNL A   1      36.792  30.224  27.456  1.00  0.00     0.014 A 
ATOM     34  C   UNL A   1      36.251  29.602  29.736  1.00  0.00     0.014 A 
ATOM     35  C   UNL A   1      38.085  29.728  27.629  1.00  0.00     0.010 A 
ATOM     36  C   UNL A   1      37.558  29.160  29.926  1.00  0.00     0.010 A 
ATOM     37  C   UNL A   1      38.487  29.222  28.876  1.00  0.00    -0.014 A 
BRANCH  37  38
ATOM     38  C   UNL A   1      39.879  28.764  29.104  1.00  0.00     0.031 A 
ATOM     39  C   UNL A   1      40.894  29.695  29.705  1.00  0.00     0.074 A 
ATOM     40  C   UNL A   1      40.245  27.531  28.706  1.00  0.00     0.049 A 
ATOM     41  N   UNL A   1      42.169  29.495  29.921  1.00  0.00    -0.248 NA
ATOM     42  C   UNL A   1      40.419  31.034  30.091  1.00  0.00     0.031 C 
ATOM     43  C   UNL A   1      39.364  26.547  28.072  1.00  0.00     0.029 A 
ATOM     44  N   UNL A   1      41.461  26.899  28.769  1.00  0.00    -0.354 N 
ATOM     45  C   UNL A   1      42.652  30.686  30.449  1.00  0.00     0.074 A 
ATOM     46  C   UNL A   1      41.544  31.615  30.481  1.00  0.00     0.031 C 
ATOM     47  C   UNL A   1      40.064  25.428  27.824  1.00  0.00     0.029 A 
ATOM     48  C   UNL A   1      41.445  25.627  28.250  1.00  0.00     0.049 A 
ATOM     49  H   UNL A   1      42.267  27.316  29.149  1.00  0.00     0.167 HD
ATOM     50  C   UNL A   1      43.902  30.975  30.881  1.00  0.00     0.031 A 
ATOM     51  C   UNL A   1      42.435  24.722  28.128  1.00  0.00     0.031 A 
ATOM     52  C   UNL A   1      45.001  30.048  30.865  1.00  0.00     0.049 A 
ATOM     53  C   UNL A   1      43.812  25.066  28.620  1.00  0.00     0.074 A 
ATOM     54  C   UNL A   1      46.290  30.230  31.336  1.00  0.00     0.029 A 
ATOM     55  N   UNL A   1      44.940  28.764  30.349  1.00  0.00    -0.354 N 
ATOM     56  N   UNL A   1      44.237  26.175  29.175  1.00  0.00    -0.248 NA
ATOM     57  C   UNL A   1      44.842  24.027  28.479  1.00  0.00     0.031 C 
ATOM     58  C   UNL A   1      47.021  29.066  31.070  1.00  0.00     0.029 A 
ATOM     59  C   UNL A   1      46.173  28.146  30.474  1.00  0.00     0.049 A 
ATOM     60  H   UNL A   1      44.139  28.351  29.952  1.00  0.00     0.167 HD
ATOM     61  C   UNL A   1      45.576  25.960  29.473  1.00  0.00     0.074 A 
ATOM     62  C   UNL A   1      45.889  24.610  29.049  1.00  0.00     0.031 C 
ATOM     63  C   UNL A   1      46.467  26.803  30.047  1.00  0.00     0.031 A 
BRANCH  50  64
ATOM     64  C   UNL A   1      44.145  32.362  31.407  1.00  0.00    -0.014 A 
ATOM     65  C   UNL A   1      43.974  32.662  32.767  1.00  0.00     0.009 A 
ATOM     66  C   UNL A   1      44.578  33.373  30.536  1.00  0.00     0.009 A 
ATOM     67  C   UNL A   1      44.196  33.957  33.238  1.00  0.00     0.001 A 
ATOM     68  C   UNL A   1      44.825  34.661  31.015  1.00  0.00     0.001 A 
ATOM     69  C   UNL A   1      44.624  34.954  32.364  1.00  0.00     0.000 A 
ENDBRANCH  50  64
BRANCH  51  70
ATOM     70  C   UNL A   1      42.156  23.392  27.531  1.00  0.00    -0.014 A 
ATOM     71  C   UNL A   1      41.588  22.372  28.310  1.00  0.00     0.009 A 
ATOM     72  C   UNL A   1      42.457  23.133  26.185  1.00  0.00     0.009 A 
ATOM     73  C   UNL A   1      41.349  21.111  27.758  1.00  0.00     0.001 A 
ATOM     74  C   UNL A   1      42.194  21.879  25.630  1.00  0.00     0.001 A 
ATOM     75  C   UNL A   1      41.649  20.868  26.419  1.00  0.00     0.000 A 
ENDBRANCH  51  70
BRANCH  63  76
ATOM     76  C   UNL A   1      47.854  26.279  30.279  1.00  0.00    -0.014 A 
ATOM     77  C   UNL A   1      48.835  26.351  29.278  1.00  0.00     0.009 A 
ATOM     78  C   UNL A   1      48.193  25.740  31.530  1.00  0.00     0.009 A 
ATOM     79  C   UNL A   1      50.122  25.865  29.517  1.00  0.00     0.001 A 
ATOM     80  C   UNL A   1      49.486  25.278  31.774  1.00  0.00     0.001 A 
ATOM     81  C   UNL A   1      50.448  25.333  30.765  1.00  0.00     0.000 A 
ENDBRANCH  63  76
ENDBRANCH  37  38
ENDBRANCH  29  32
ENDBRANCH  27  28
ENDBRANCH  26  27
ENDBRANCH   1  26
TORSDOF 14
ENDMDL
MODEL 3
REMARK VINA RESULT:     -11.8      0.449      5.905
REMARK SMILES CS(=O)(=O)c1ccc(/C=C(/C(=O)NCCCCNC(=O)c2ccc(-c3c4nc(c(-c5ccccc5)c5ccc([nH]5)c(-c5ccccc5)c5nc(c(-c6ccccc6)c6ccc3[nH]6)C=C5)C=C4)cc2)c2ccc(F)cc2)cc1
REMARK SMILES IDX 15 1 14 2 13 3 11 4 12 5 10 7 9 8 8 9 5 10 6 11 77 12 7 13
REMARK SMILES IDX 76 14 2 15 1 16 3 17 4 18 69 19 70 20 75 21 71 22 74 23
REMARK SMILES IDX 72 24 73 25 16 26 17 27 18 28 19 29 20 31 21 32 22 33 68 34
REMARK SMILES IDX 23 35 67 36 24 37 25 38 26 39 61 40 27 41 66 42 60 43 62 44
REMARK SMILES IDX 28 45 65 46 59 47 58 48 29 50 51 51 36 52 50 53 37 54 40 55
REMARK SMILES IDX 49 56 63 57 38 58 39 59 48 61 64 62 41 63 30 64 31 65 35 66
REMARK SMILES IDX 32 67 34 68 33 69 52 70 53 71 57 72 54 73 56 74 55 75 42 76
REMARK SMILES IDX 43 77 47 78 44 79 46 80 45 81
REMARK H PARENT 13 6 18 30 62 49 40 60
REMARK Flexibility Score: inf
ROOT
ATOM      1  C   UNL A   1      34.956  23.869  23.757  1.00  0.00     0.023 C 
ENDROOT
BRANCH   1   2
ATOM      2  C   UNL A   1      33.602  23.152  23.784  1.00  0.00     0.116 C 
BRANCH   2   3
ATOM      3  N   UNL A   1      33.075  23.115  25.135  1.00  0.00    -0.352 N 
ATOM      4  C   UNL A   1      32.370  24.002  25.890  1.00  0.00     0.251 C 
ATOM      5  O   UNL A   1      32.107  23.646  27.040  1.00  0.00    -0.269 OA
ATOM      6  H   UNL A   1      33.270  22.273  25.605  1.00  0.00     0.163 HD
BRANCH   4   7
ATOM      7  C   UNL A   1      31.845  25.317  25.359  1.00  0.00     0.047 C 
ATOM      8  C   UNL A   1      31.022  25.386  24.290  1.00  0.00     0.022 C 
BRANCH   8   9
ATOM      9  C   UNL A   1      30.345  26.564  23.709  1.00  0.00    -0.025 A 
ATOM     10  C   UNL A   1      28.940  28.796  22.759  1.00  0.00     0.067 A 
ATOM     11  C   UNL A   1      30.307  28.676  22.504  1.00  0.00     0.021 A 
ATOM     12  C   UNL A   1      28.255  27.789  23.437  1.00  0.00     0.021 A 
ATOM     13  C   UNL A   1      31.001  27.553  22.968  1.00  0.00     0.009 A 
ATOM     14  C   UNL A   1      28.958  26.678  23.908  1.00  0.00     0.009 A 
BRANCH  10  15
ATOM     15  S   UNL A   1      28.064  30.239  22.205  1.00  0.00     0.175 S 
ATOM     16  C   UNL A   1      29.181  31.581  22.517  1.00  0.00     0.163 C 
ATOM     17  O   UNL A   1      26.921  30.419  23.075  1.00  0.00    -0.224 OA
ATOM     18  O   UNL A   1      27.900  30.103  20.768  1.00  0.00    -0.224 OA
ENDBRANCH  10  15
ENDBRANCH   8   9
BRANCH   7  19
ATOM     19  C   UNL A   1      32.411  26.557  25.949  1.00  0.00    -0.013 A 
ATOM     20  C   UNL A   1      31.589  27.346  26.774  1.00  0.00     0.012 A 
ATOM     21  C   UNL A   1      33.756  26.916  25.780  1.00  0.00     0.012 A 
ATOM     22  C   UNL A   1      32.107  28.454  27.444  1.00  0.00     0.040 A 
ATOM     23  C   UNL A   1      34.275  28.022  26.459  1.00  0.00     0.040 A 
ATOM     24  C   UNL A   1      33.449  28.775  27.288  1.00  0.00     0.123 A 
ATOM     25  F   UNL A   1      33.957  29.817  27.957  1.00  0.00    -0.207 F 
ENDBRANCH   7  19
ENDBRANCH   4   7
ENDBRANCH   2   3
ENDBRANCH   1   2
BRANCH   1  26
ATOM     26  C   UNL A   1      36.158  22.969  24.070  1.00  0.00     0.023 C 
BRANCH  26  27
ATOM     27  C   UNL A   1      37.177  23.559  25.039  1.00  0.00     0.116 C 
BRANCH  27  28
ATOM     28  N   UNL A   1      38.255  22.639  25.364  1.00  0.00    -0.352 N 
ATOM     29  C   UNL A   1      39.394  22.870  26.094  1.00  0.00     0.251 C 
ATOM     30  H   UNL A   1      38.156  21.726  25.011  1.00  0.00     0.163 HD
ATOM     31  O   UNL A   1      40.258  22.004  26.185  1.00  0.00    -0.269 OA
BRANCH  29  32
ATOM     32  C   UNL A   1      39.598  24.184  26.739  1.00  0.00     0.039 A 
ATOM     33  C   UNL A   1      39.106  24.378  28.033  1.00  0.00     0.014 A 
ATOM     34  C   UNL A   1      40.275  25.213  26.080  1.00  0.00     0.014 A 
ATOM     35  C   UNL A   1      39.350  25.584  28.692  1.00  0.00     0.010 A 
ATOM     36  C   UNL A   1      40.567  26.393  26.759  1.00  0.00     0.010 A 
ATOM     37  C   UNL A   1      40.112  26.588  28.071  1.00  0.00    -0.014 A 
BRANCH  37  38
ATOM     38  C   UNL A   1      40.450  27.843  28.784  1.00  0.00     0.031 A 
ATOM     39  C   UNL A   1      41.779  27.991  29.468  1.00  0.00     0.074 A 
ATOM     40  C   UNL A   1      39.531  28.824  28.873  1.00  0.00     0.049 A 
ATOM     41  N   UNL A   1      42.228  28.986  30.190  1.00  0.00    -0.248 NA
ATOM     42  C   UNL A   1      42.718  26.864  29.344  1.00  0.00     0.031 C 
ATOM     43  C   UNL A   1      38.189  28.785  28.288  1.00  0.00     0.029 A 
ATOM     44  N   UNL A   1      39.587  30.043  29.499  1.00  0.00    -0.354 N 
ATOM     45  C   UNL A   1      43.490  28.598  30.622  1.00  0.00     0.074 A 
ATOM     46  C   UNL A   1      43.718  27.262  30.117  1.00  0.00     0.031 C 
ATOM     47  C   UNL A   1      37.557  29.937  28.565  1.00  0.00     0.029 A 
ATOM     48  C   UNL A   1      38.434  30.779  29.372  1.00  0.00     0.049 A 
ATOM     49  H   UNL A   1      40.377  30.361  29.992  1.00  0.00     0.167 HD
ATOM     50  C   UNL A   1      44.384  29.296  31.362  1.00  0.00     0.031 A 
ATOM     51  C   UNL A   1      38.117  31.995  29.855  1.00  0.00     0.031 A 
ATOM     52  C   UNL A   1      44.166  30.630  31.852  1.00  0.00     0.049 A 
ATOM     53  C   UNL A   1      39.129  32.751  30.668  1.00  0.00     0.074 A 
ATOM     54  C   UNL A   1      45.036  31.442  32.559  1.00  0.00     0.029 A 
ATOM     55  N   UNL A   1      42.992  31.348  31.686  1.00  0.00    -0.354 N 
ATOM     56  N   UNL A   1      40.342  32.396  31.014  1.00  0.00    -0.248 NA
ATOM     57  C   UNL A   1      38.730  34.082  31.146  1.00  0.00     0.031 C 
ATOM     58  C   UNL A   1      44.373  32.639  32.855  1.00  0.00     0.029 A 
ATOM     59  C   UNL A   1      43.107  32.587  32.292  1.00  0.00     0.049 A 
ATOM     60  H   UNL A   1      42.194  31.024  31.208  1.00  0.00     0.167 HD
ATOM     61  C   UNL A   1      40.861  33.467  31.728  1.00  0.00     0.074 A 
ATOM     62  C   UNL A   1      39.835  34.491  31.754  1.00  0.00     0.031 C 
ATOM     63  C   UNL A   1      42.078  33.593  32.309  1.00  0.00     0.031 A 
BRANCH  50  64
ATOM     64  C   UNL A   1      45.685  28.620  31.687  1.00  0.00    -0.014 A 
ATOM     65  C   UNL A   1      46.802  28.751  30.847  1.00  0.00     0.009 A 
ATOM     66  C   UNL A   1      45.805  27.865  32.865  1.00  0.00     0.009 A 
ATOM     67  C   UNL A   1      48.001  28.109  31.159  1.00  0.00     0.001 A 
ATOM     68  C   UNL A   1      47.014  27.246  33.188  1.00  0.00     0.001 A 
ATOM     69  C   UNL A   1      48.108  27.361  32.331  1.00  0.00     0.000 A 
ENDBRANCH  50  64
BRANCH  51  70
ATOM     70  C   UNL A   1      36.786  32.585  29.565  1.00  0.00    -0.014 A 
ATOM     71  C   UNL A   1      35.732  32.439  30.480  1.00  0.00     0.009 A 
ATOM     72  C   UNL A   1      36.560  33.292  28.374  1.00  0.00     0.009 A 
ATOM     73  C   UNL A   1      34.471  32.969  30.197  1.00  0.00     0.001 A 
ATOM     74  C   UNL A   1      35.305  33.842  28.105  1.00  0.00     0.001 A 
ATOM     75  C   UNL A   1      34.261  33.673  29.013  1.00  0.00     0.000 A 
ENDBRANCH  51  70
BRANCH  63  76
ATOM     76  C   UNL A   1      42.378  34.895  32.993  1.00  0.00    -0.014 A 
ATOM     77  C   UNL A   1      41.916  35.156  34.293  1.00  0.00     0.009 A 
ATOM     78  C   UNL A   1      43.165  35.858  32.342  1.00  0.00     0.009 A 
ATOM     79  C   UNL A   1      42.213  36.370  34.915  1.00  0.00     0.001 A 
ATOM     80  C   UNL A   1      43.480  37.060  32.975  1.00  0.00     0.001 A 
ATOM     81  C   UNL A   1      42.997  37.319  34.258  1.00  0.00     0.000 A 
ENDBRANCH  63  76
ENDBRANCH  37  38
ENDBRANCH  29  32
ENDBRANCH  27  28
ENDBRANCH  26  27
ENDBRANCH   1  26
TORSDOF 14
ENDMDL
