MODEL 1
REMARK VINA RESULT:     -11.8      0.000      0.000
REMARK SMILES Cc1ccc2oc(C(=O)N[C@@H]3C=C[C@H](C(=O)NCCCCNC(=O)c4ccc(-c5c6nc(c(-c7ccccc7)c7ccc([nH]7)c(-c7ccccc7)c7nc(c(-c8ccccc8)c8ccc5[nH]8)C=C7)C=C6)cc4)C3)cc2c1
REMARK SMILES IDX 19 1 18 2 17 3 15 4 16 5 14 7 11 8 12 9 73 10 13 11 10 12
REMARK SMILES IDX 8 13 9 14 7 16 1 17 2 18 3 19 76 20 4 21 75 22 5 23 74 24
REMARK SMILES IDX 6 25 20 26 21 27 22 28 23 29 24 31 25 32 26 33 72 34 27 35
REMARK SMILES IDX 71 36 28 37 29 38 30 39 65 40 31 41 70 42 64 43 66 44 32 45
REMARK SMILES IDX 69 46 63 47 62 48 33 50 55 51 40 52 54 53 41 54 44 55 53 56
REMARK SMILES IDX 67 57 42 58 43 59 52 61 68 62 45 63 34 64 35 65 39 66 36 67
REMARK SMILES IDX 38 68 37 69 56 70 57 71 61 72 58 73 60 74 59 75 46 76 47 77
REMARK SMILES IDX 51 78 48 79 50 80 49 81
REMARK H PARENT 17 6 10 15 22 30 66 49 44 60
REMARK Flexibility Score: inf
ROOT
ATOM      1  C   UNL A   1      38.265  22.617  25.791  1.00  0.00     0.023 C 
ENDROOT
BRANCH   1   2
ATOM      2  C   UNL A   1      36.967  23.420  25.691  1.00  0.00     0.116 C 
BRANCH   2   3
ATOM      3  N   UNL A   1      35.928  22.984  26.602  1.00  0.00    -0.356 N 
ATOM      4  C   UNL A   1      34.929  22.067  26.495  1.00  0.00     0.227 C 
ATOM      5  O   UNL A   1      34.377  21.789  27.567  1.00  0.00    -0.274 OA
ATOM      6  H   UNL A   1      35.949  23.444  27.471  1.00  0.00     0.163 HD
BRANCH   4   7
ATOM      7  C   UNL A   1      34.386  21.489  25.157  1.00  0.00     0.103 C 
ATOM      8  C   UNL A   1      31.912  21.471  24.909  1.00  0.00     0.106 C 
ATOM      9  C   UNL A   1      32.464  20.099  24.968  1.00  0.00    -0.006 C 
ATOM     10  C   UNL A   1      33.169  22.330  24.685  1.00  0.00     0.047 C 
ATOM     11  C   UNL A   1      33.805  20.103  25.060  1.00  0.00    -0.016 C 
BRANCH   8  12
ATOM     12  N   UNL A   1      31.038  21.901  26.000  1.00  0.00    -0.343 N 
ATOM     13  C   UNL A   1      30.607  23.030  26.660  1.00  0.00     0.287 C 
ATOM     14  O   UNL A   1      29.857  22.801  27.619  1.00  0.00    -0.266 OA
ATOM     15  H   UNL A   1      30.610  21.110  26.402  1.00  0.00     0.164 HD
BRANCH  13  16
ATOM     16  C   UNL A   1      31.014  24.372  26.312  1.00  0.00     0.192 A 
ATOM     17  C   UNL A   1      32.855  30.077  25.747  1.00  0.00     0.044 C 
ATOM     18  C   UNL A   1      32.191  28.749  25.517  1.00  0.00    -0.050 A 
ATOM     19  C   UNL A   1      31.214  28.566  24.525  1.00  0.00     0.007 A 
ATOM     20  C   UNL A   1      32.519  27.686  26.362  1.00  0.00     0.015 A 
ATOM     21  C   UNL A   1      30.529  27.344  24.365  1.00  0.00     0.048 A 
ATOM     22  C   UNL A   1      31.883  26.453  26.178  1.00  0.00     0.021 A 
ATOM     23  C   UNL A   1      30.883  26.316  25.235  1.00  0.00     0.135 A 
ATOM     24  C   UNL A   1      32.037  25.179  26.734  1.00  0.00     0.065 A 
ATOM     25  O   UNL A   1      30.336  25.060  25.315  1.00  0.00    -0.451 OA
ENDBRANCH  13  16
ENDBRANCH   8  12
ENDBRANCH   4   7
ENDBRANCH   2   3
ENDBRANCH   1   2
BRANCH   1  26
ATOM     26  C   UNL A   1      38.306  21.271  25.049  1.00  0.00     0.023 C 
BRANCH  26  27
ATOM     27  C   UNL A   1      38.404  19.999  25.898  1.00  0.00     0.116 C 
BRANCH  27  28
ATOM     28  N   UNL A   1      39.635  19.253  25.688  1.00  0.00    -0.352 N 
ATOM     29  C   UNL A   1      40.951  19.570  25.933  1.00  0.00     0.251 C 
ATOM     30  H   UNL A   1      39.501  18.358  25.300  1.00  0.00     0.163 HD
ATOM     31  O   UNL A   1      41.819  18.767  25.593  1.00  0.00    -0.269 OA
BRANCH  29  32
ATOM     32  C   UNL A   1      41.362  20.854  26.557  1.00  0.00     0.039 A 
ATOM     33  C   UNL A   1      41.944  21.830  25.735  1.00  0.00     0.014 A 
ATOM     34  C   UNL A   1      41.253  21.101  27.928  1.00  0.00     0.014 A 
ATOM     35  C   UNL A   1      42.340  23.064  26.265  1.00  0.00     0.010 A 
ATOM     36  C   UNL A   1      41.597  22.357  28.448  1.00  0.00     0.010 A 
ATOM     37  C   UNL A   1      42.135  23.356  27.623  1.00  0.00    -0.014 A 
BRANCH  37  38
ATOM     38  C   UNL A   1      42.456  24.706  28.169  1.00  0.00     0.031 A 
ATOM     39  C   UNL A   1      43.855  25.063  28.594  1.00  0.00     0.074 A 
ATOM     40  C   UNL A   1      41.471  25.616  28.310  1.00  0.00     0.049 A 
ATOM     41  N   UNL A   1      44.303  26.189  29.095  1.00  0.00    -0.248 NA
ATOM     42  C   UNL A   1      44.881  24.020  28.453  1.00  0.00     0.031 C 
ATOM     43  C   UNL A   1      40.063  25.403  27.972  1.00  0.00     0.029 A 
ATOM     44  N   UNL A   1      41.506  26.909  28.778  1.00  0.00    -0.354 N 
ATOM     45  C   UNL A   1      45.658  25.989  29.331  1.00  0.00     0.074 A 
ATOM     46  C   UNL A   1      45.948  24.621  28.960  1.00  0.00     0.031 C 
ATOM     47  C   UNL A   1      39.375  26.530  28.215  1.00  0.00     0.029 A 
ATOM     48  C   UNL A   1      40.284  27.537  28.756  1.00  0.00     0.049 A 
ATOM     49  H   UNL A   1      42.329  27.343  29.099  1.00  0.00     0.167 HD
ATOM     50  C   UNL A   1      46.582  26.865  29.795  1.00  0.00     0.031 A 
ATOM     51  C   UNL A   1      39.929  28.782  29.125  1.00  0.00     0.031 A 
ATOM     52  C   UNL A   1      46.309  28.228  30.169  1.00  0.00     0.049 A 
ATOM     53  C   UNL A   1      40.971  29.729  29.648  1.00  0.00     0.074 A 
ATOM     54  C   UNL A   1      47.192  29.191  30.630  1.00  0.00     0.029 A 
ATOM     55  N   UNL A   1      45.059  28.823  30.125  1.00  0.00    -0.354 N 
ATOM     56  N   UNL A   1      42.256  29.534  29.817  1.00  0.00    -0.248 NA
ATOM     57  C   UNL A   1      40.513  31.076  30.019  1.00  0.00     0.031 C 
ATOM     58  C   UNL A   1      46.470  30.361  30.892  1.00  0.00     0.029 A 
ATOM     59  C   UNL A   1      45.146  30.138  30.556  1.00  0.00     0.049 A 
ATOM     60  H   UNL A   1      44.232  28.378  29.831  1.00  0.00     0.167 HD
ATOM     61  C   UNL A   1      42.763  30.740  30.285  1.00  0.00     0.074 A 
ATOM     62  C   UNL A   1      41.652  31.665  30.359  1.00  0.00     0.031 C 
ATOM     63  C   UNL A   1      44.037  31.051  30.624  1.00  0.00     0.031 A 
BRANCH  50  64
ATOM     64  C   UNL A   1      47.996  26.370  29.921  1.00  0.00    -0.014 A 
ATOM     65  C   UNL A   1      48.896  26.487  28.849  1.00  0.00     0.009 A 
ATOM     66  C   UNL A   1      48.447  25.823  31.132  1.00  0.00     0.009 A 
ATOM     67  C   UNL A   1      50.211  26.036  28.979  1.00  0.00     0.001 A 
ATOM     68  C   UNL A   1      49.770  25.396  31.266  1.00  0.00     0.001 A 
ATOM     69  C   UNL A   1      50.648  25.495  30.187  1.00  0.00     0.000 A 
ENDBRANCH  50  64
BRANCH  51  70
ATOM     70  C   UNL A   1      38.518  29.227  28.994  1.00  0.00    -0.014 A 
ATOM     71  C   UNL A   1      38.043  29.734  27.774  1.00  0.00     0.009 A 
ATOM     72  C   UNL A   1      37.648  29.175  30.094  1.00  0.00     0.009 A 
ATOM     73  C   UNL A   1      36.735  30.211  27.667  1.00  0.00     0.001 A 
ATOM     74  C   UNL A   1      36.332  29.627  29.976  1.00  0.00     0.001 A 
ATOM     75  C   UNL A   1      35.880  30.154  28.767  1.00  0.00     0.000 A 
ENDBRANCH  51  70
BRANCH  63  76
ATOM     76  C   UNL A   1      44.301  32.462  31.067  1.00  0.00    -0.014 A 
ATOM     77  C   UNL A   1      44.629  33.466  30.143  1.00  0.00     0.009 A 
ATOM     78  C   UNL A   1      44.206  32.792  32.427  1.00  0.00     0.009 A 
ATOM     79  C   UNL A   1      44.893  34.766  30.579  1.00  0.00     0.001 A 
ATOM     80  C   UNL A   1      44.446  34.097  32.857  1.00  0.00     0.001 A 
ATOM     81  C   UNL A   1      44.800  35.081  31.936  1.00  0.00     0.000 A 
ENDBRANCH  63  76
ENDBRANCH  37  38
ENDBRANCH  29  32
ENDBRANCH  27  28
ENDBRANCH  26  27
ENDBRANCH   1  26
TORSDOF 13
ENDMDL
MODEL 2
REMARK VINA RESULT:     -11.6      2.307      4.497
REMARK SMILES Cc1ccc2oc(C(=O)N[C@@H]3C=C[C@H](C(=O)NCCCCNC(=O)c4ccc(-c5c6nc(c(-c7ccccc7)c7ccc([nH]7)c(-c7ccccc7)c7nc(c(-c8ccccc8)c8ccc5[nH]8)C=C7)C=C6)cc4)C3)cc2c1
REMARK SMILES IDX 19 1 18 2 17 3 15 4 16 5 14 7 11 8 12 9 73 10 13 11 10 12
REMARK SMILES IDX 8 13 9 14 7 16 1 17 2 18 3 19 76 20 4 21 75 22 5 23 74 24
REMARK SMILES IDX 6 25 20 26 21 27 22 28 23 29 24 31 25 32 26 33 72 34 27 35
REMARK SMILES IDX 71 36 28 37 29 38 30 39 65 40 31 41 70 42 64 43 66 44 32 45
REMARK SMILES IDX 69 46 63 47 62 48 33 50 55 51 40 52 54 53 41 54 44 55 53 56
REMARK SMILES IDX 67 57 42 58 43 59 52 61 68 62 45 63 34 64 35 65 39 66 36 67
REMARK SMILES IDX 38 68 37 69 56 70 57 71 61 72 58 73 60 74 59 75 46 76 47 77
REMARK SMILES IDX 51 78 48 79 50 80 49 81
REMARK H PARENT 17 6 10 15 22 30 66 49 44 60
REMARK Flexibility Score: inf
ROOT
ATOM      1  C   UNL A   1      33.952  22.956  26.370  1.00  0.00     0.023 C 
ENDROOT
BRANCH   1   2
ATOM      2  C   UNL A   1      33.724  24.429  26.027  1.00  0.00     0.116 C 
BRANCH   2   3
ATOM      3  N   UNL A   1      32.432  24.940  26.435  1.00  0.00    -0.356 N 
ATOM      4  C   UNL A   1      31.906  26.194  26.486  1.00  0.00     0.227 C 
ATOM      5  O   UNL A   1      30.682  26.225  26.662  1.00  0.00    -0.274 OA
ATOM      6  H   UNL A   1      31.809  24.240  26.737  1.00  0.00     0.163 HD
BRANCH   4   7
ATOM      7  C   UNL A   1      32.734  27.511  26.472  1.00  0.00     0.103 C 
ATOM      8  C   UNL A   1      31.881  29.310  24.984  1.00  0.00     0.106 C 
ATOM      9  C   UNL A   1      33.191  28.797  24.523  1.00  0.00    -0.006 C 
ATOM     10  C   UNL A   1      31.771  28.727  26.402  1.00  0.00     0.047 C 
ATOM     11  C   UNL A   1      33.676  27.853  25.348  1.00  0.00    -0.016 C 
BRANCH   8  12
ATOM     12  N   UNL A   1      30.723  29.092  24.117  1.00  0.00    -0.343 N 
ATOM     13  C   UNL A   1      30.124  28.129  23.335  1.00  0.00     0.287 C 
ATOM     14  O   UNL A   1      29.117  28.523  22.730  1.00  0.00    -0.266 OA
ATOM     15  H   UNL A   1      30.187  29.917  24.080  1.00  0.00     0.164 HD
BRANCH  13  16
ATOM     16  C   UNL A   1      30.629  26.784  23.184  1.00  0.00     0.192 A 
ATOM     17  C   UNL A   1      32.346  21.016  23.357  1.00  0.00     0.044 C 
ATOM     18  C   UNL A   1      32.264  22.485  23.053  1.00  0.00    -0.050 A 
ATOM     19  C   UNL A   1      33.295  23.167  22.388  1.00  0.00     0.007 A 
ATOM     20  C   UNL A   1      31.148  23.195  23.503  1.00  0.00     0.015 A 
ATOM     21  C   UNL A   1      33.257  24.561  22.179  1.00  0.00     0.048 A 
ATOM     22  C   UNL A   1      31.076  24.571  23.254  1.00  0.00     0.021 A 
ATOM     23  C   UNL A   1      32.130  25.229  22.652  1.00  0.00     0.135 A 
ATOM     24  C   UNL A   1      30.095  25.550  23.443  1.00  0.00     0.065 A 
ATOM     25  O   UNL A   1      31.878  26.577  22.616  1.00  0.00    -0.451 OA
ENDBRANCH  13  16
ENDBRANCH   8  12
ENDBRANCH   4   7
ENDBRANCH   2   3
ENDBRANCH   1   2
BRANCH   1  26
ATOM     26  C   UNL A   1      35.196  22.287  25.761  1.00  0.00     0.023 C 
BRANCH  26  27
ATOM     27  C   UNL A   1      36.489  23.109  25.715  1.00  0.00     0.116 C 
BRANCH  27  28
ATOM     28  N   UNL A   1      37.694  22.303  25.821  1.00  0.00    -0.352 N 
ATOM     29  C   UNL A   1      38.965  22.609  26.250  1.00  0.00     0.251 C 
ATOM     30  H   UNL A   1      37.580  21.369  25.533  1.00  0.00     0.163 HD
ATOM     31  O   UNL A   1      39.833  21.741  26.173  1.00  0.00    -0.269 OA
BRANCH  29  32
ATOM     32  C   UNL A   1      39.335  23.952  26.768  1.00  0.00     0.039 A 
ATOM     33  C   UNL A   1      38.921  24.295  28.063  1.00  0.00     0.014 A 
ATOM     34  C   UNL A   1      40.015  24.900  26.001  1.00  0.00     0.014 A 
ATOM     35  C   UNL A   1      39.250  25.542  28.609  1.00  0.00     0.010 A 
ATOM     36  C   UNL A   1      40.394  26.126  26.567  1.00  0.00     0.010 A 
ATOM     37  C   UNL A   1      40.024  26.458  27.879  1.00  0.00    -0.014 A 
BRANCH  37  38
ATOM     38  C   UNL A   1      40.468  27.741  28.496  1.00  0.00     0.031 A 
ATOM     39  C   UNL A   1      41.893  27.940  28.942  1.00  0.00     0.074 A 
ATOM     40  C   UNL A   1      39.575  28.733  28.683  1.00  0.00     0.049 A 
ATOM     41  N   UNL A   1      42.443  28.990  29.502  1.00  0.00    -0.248 NA
ATOM     42  C   UNL A   1      42.815  26.812  28.748  1.00  0.00     0.031 C 
ATOM     43  C   UNL A   1      38.154  28.674  28.331  1.00  0.00     0.029 A 
ATOM     44  N   UNL A   1      39.730  29.990  29.219  1.00  0.00    -0.354 N 
ATOM     45  C   UNL A   1      43.770  28.649  29.730  1.00  0.00     0.074 A 
ATOM     46  C   UNL A   1      43.931  27.280  29.288  1.00  0.00     0.031 C 
ATOM     47  C   UNL A   1      37.576  29.848  28.631  1.00  0.00     0.029 A 
ATOM     48  C   UNL A   1      38.573  30.733  29.226  1.00  0.00     0.049 A 
ATOM     49  H   UNL A   1      40.588  30.326  29.563  1.00  0.00     0.167 HD
ATOM     50  C   UNL A   1      44.771  29.407  30.241  1.00  0.00     0.031 A 
ATOM     51  C   UNL A   1      38.337  31.985  29.660  1.00  0.00     0.031 A 
ATOM     52  C   UNL A   1      44.627  30.769  30.686  1.00  0.00     0.049 A 
ATOM     53  C   UNL A   1      39.461  32.800  30.234  1.00  0.00     0.074 A 
ATOM     54  C   UNL A   1      45.595  31.617  31.199  1.00  0.00     0.029 A 
ATOM     55  N   UNL A   1      43.439  31.482  30.671  1.00  0.00    -0.354 N 
ATOM     56  N   UNL A   1      40.720  32.474  30.395  1.00  0.00    -0.248 NA
ATOM     57  C   UNL A   1      39.131  34.163  30.675  1.00  0.00     0.031 C 
ATOM     58  C   UNL A   1      44.986  32.835  31.521  1.00  0.00     0.029 A 
ATOM     59  C   UNL A   1      43.649  32.758  31.171  1.00  0.00     0.049 A 
ATOM     60  H   UNL A   1      42.576  31.135  30.352  1.00  0.00     0.167 HD
ATOM     61  C   UNL A   1      41.336  33.600  30.927  1.00  0.00     0.074 A 
ATOM     62  C   UNL A   1      40.318  34.621  31.048  1.00  0.00     0.031 C 
ATOM     63  C   UNL A   1      42.632  33.769  31.284  1.00  0.00     0.031 A 
BRANCH  50  64
ATOM     64  C   UNL A   1      46.130  28.773  30.343  1.00  0.00    -0.014 A 
ATOM     65  C   UNL A   1      46.494  28.033  31.480  1.00  0.00     0.009 A 
ATOM     66  C   UNL A   1      47.039  28.876  29.279  1.00  0.00     0.009 A 
ATOM     67  C   UNL A   1      47.754  27.437  31.562  1.00  0.00     0.001 A 
ATOM     68  C   UNL A   1      48.288  28.257  29.354  1.00  0.00     0.001 A 
ATOM     69  C   UNL A   1      48.648  27.546  30.498  1.00  0.00     0.000 A 
ENDBRANCH  50  64
BRANCH  51  70
ATOM     70  C   UNL A   1      36.975  32.570  29.550  1.00  0.00    -0.014 A 
ATOM     71  C   UNL A   1      36.058  32.440  30.605  1.00  0.00     0.009 A 
ATOM     72  C   UNL A   1      36.577  33.235  28.380  1.00  0.00     0.009 A 
ATOM     73  C   UNL A   1      34.759  32.935  30.478  1.00  0.00     0.001 A 
ATOM     74  C   UNL A   1      35.285  33.752  28.267  1.00  0.00     0.001 A 
ATOM     75  C   UNL A   1      34.374  33.593  29.311  1.00  0.00     0.000 A 
ENDBRANCH  51  70
BRANCH  63  76
ATOM     76  C   UNL A   1      43.026  35.123  31.802  1.00  0.00    -0.014 A 
ATOM     77  C   UNL A   1      42.872  35.458  33.155  1.00  0.00     0.009 A 
ATOM     78  C   UNL A   1      43.573  36.070  30.923  1.00  0.00     0.009 A 
ATOM     79  C   UNL A   1      43.223  36.730  33.611  1.00  0.00     0.001 A 
ATOM     80  C   UNL A   1      43.947  37.332  31.387  1.00  0.00     0.001 A 
ATOM     81  C   UNL A   1      43.762  37.665  32.727  1.00  0.00     0.000 A 
ENDBRANCH  63  76
ENDBRANCH  37  38
ENDBRANCH  29  32
ENDBRANCH  27  28
ENDBRANCH  26  27
ENDBRANCH   1  26
TORSDOF 13
ENDMDL
MODEL 3
REMARK VINA RESULT:     -11.6      0.407      5.853
REMARK SMILES Cc1ccc2oc(C(=O)N[C@@H]3C=C[C@H](C(=O)NCCCCNC(=O)c4ccc(-c5c6nc(c(-c7ccccc7)c7ccc([nH]7)c(-c7ccccc7)c7nc(c(-c8ccccc8)c8ccc5[nH]8)C=C7)C=C6)cc4)C3)cc2c1
REMARK SMILES IDX 19 1 18 2 17 3 15 4 16 5 14 7 11 8 12 9 73 10 13 11 10 12
REMARK SMILES IDX 8 13 9 14 7 16 1 17 2 18 3 19 76 20 4 21 75 22 5 23 74 24
REMARK SMILES IDX 6 25 20 26 21 27 22 28 23 29 24 31 25 32 26 33 72 34 27 35
REMARK SMILES IDX 71 36 28 37 29 38 30 39 65 40 31 41 70 42 64 43 66 44 32 45
REMARK SMILES IDX 69 46 63 47 62 48 33 50 55 51 40 52 54 53 41 54 44 55 53 56
REMARK SMILES IDX 67 57 42 58 43 59 52 61 68 62 45 63 34 64 35 65 39 66 36 67
REMARK SMILES IDX 38 68 37 69 56 70 57 71 61 72 58 73 60 74 59 75 46 76 47 77
REMARK SMILES IDX 51 78 48 79 50 80 49 81
REMARK H PARENT 17 6 10 15 22 30 66 49 44 60
REMARK Flexibility Score: inf
ROOT
ATOM      1  C   UNL A   1      38.243  22.795  25.753  1.00  0.00     0.023 C 
ENDROOT
BRANCH   1   2
ATOM      2  C   UNL A   1      36.897  23.521  25.704  1.00  0.00     0.116 C 
BRANCH   2   3
ATOM      3  N   UNL A   1      35.885  22.954  26.571  1.00  0.00    -0.356 N 
ATOM      4  C   UNL A   1      34.947  21.987  26.390  1.00  0.00     0.227 C 
ATOM      5  O   UNL A   1      34.410  21.596  27.434  1.00  0.00    -0.274 OA
ATOM      6  H   UNL A   1      35.874  23.350  27.472  1.00  0.00     0.163 HD
BRANCH   4   7
ATOM      7  C   UNL A   1      34.446  21.475  25.008  1.00  0.00     0.103 C 
ATOM      8  C   UNL A   1      31.982  21.462  24.686  1.00  0.00     0.106 C 
ATOM      9  C   UNL A   1      32.538  20.090  24.692  1.00  0.00    -0.006 C 
ATOM     10  C   UNL A   1      33.240  22.335  24.544  1.00  0.00     0.047 C 
ATOM     11  C   UNL A   1      33.875  20.094  24.824  1.00  0.00    -0.016 C 
BRANCH   8  12
ATOM     12  N   UNL A   1      31.074  21.832  25.771  1.00  0.00    -0.343 N 
ATOM     13  C   UNL A   1      30.590  22.929  26.450  1.00  0.00     0.287 C 
ATOM     14  O   UNL A   1      29.832  22.650  27.389  1.00  0.00    -0.266 OA
ATOM     15  H   UNL A   1      30.668  21.017  26.146  1.00  0.00     0.164 HD
BRANCH  13  16
ATOM     16  C   UNL A   1      30.953  24.293  26.141  1.00  0.00     0.192 A 
ATOM     17  C   UNL A   1      32.584  30.075  25.747  1.00  0.00     0.044 C 
ATOM     18  C   UNL A   1      31.979  28.728  25.471  1.00  0.00    -0.050 A 
ATOM     19  C   UNL A   1      31.039  28.529  24.447  1.00  0.00     0.007 A 
ATOM     20  C   UNL A   1      32.325  27.661  26.303  1.00  0.00     0.015 A 
ATOM     21  C   UNL A   1      30.408  27.285  24.243  1.00  0.00     0.048 A 
ATOM     22  C   UNL A   1      31.743  26.408  26.075  1.00  0.00     0.021 A 
ATOM     23  C   UNL A   1      30.777  26.253  25.101  1.00  0.00     0.135 A 
ATOM     24  C   UNL A   1      31.931  25.130  26.609  1.00  0.00     0.065 A 
ATOM     25  O   UNL A   1      30.278  24.976  25.139  1.00  0.00    -0.451 OA
ENDBRANCH  13  16
ENDBRANCH   8  12
ENDBRANCH   4   7
ENDBRANCH   2   3
ENDBRANCH   1   2
BRANCH   1  26
ATOM     26  C   UNL A   1      38.330  21.444  25.023  1.00  0.00     0.023 C 
BRANCH  26  27
ATOM     27  C   UNL A   1      38.278  20.174  25.880  1.00  0.00     0.116 C 
BRANCH  27  28
ATOM     28  N   UNL A   1      39.461  19.338  25.751  1.00  0.00    -0.352 N 
ATOM     29  C   UNL A   1      40.788  19.582  26.017  1.00  0.00     0.251 C 
ATOM     30  H   UNL A   1      39.278  18.433  25.410  1.00  0.00     0.163 HD
ATOM     31  O   UNL A   1      41.609  18.705  25.751  1.00  0.00    -0.269 OA
BRANCH  29  32
ATOM     32  C   UNL A   1      41.269  20.871  26.580  1.00  0.00     0.039 A 
ATOM     33  C   UNL A   1      41.931  21.759  25.721  1.00  0.00     0.014 A 
ATOM     34  C   UNL A   1      41.144  21.202  27.931  1.00  0.00     0.014 A 
ATOM     35  C   UNL A   1      42.395  22.993  26.192  1.00  0.00     0.010 A 
ATOM     36  C   UNL A   1      41.558  22.461  28.391  1.00  0.00     0.010 A 
ATOM     37  C   UNL A   1      42.179  23.374  27.526  1.00  0.00    -0.014 A 
BRANCH  37  38
ATOM     38  C   UNL A   1      42.575  24.730  28.003  1.00  0.00     0.031 A 
ATOM     39  C   UNL A   1      41.551  25.816  28.205  1.00  0.00     0.074 A 
ATOM     40  C   UNL A   1      43.876  25.001  28.234  1.00  0.00     0.049 A 
ATOM     41  N   UNL A   1      41.726  27.051  28.609  1.00  0.00    -0.248 NA
ATOM     42  C   UNL A   1      40.153  25.476  27.903  1.00  0.00     0.031 C 
ATOM     43  C   UNL A   1      44.983  24.060  28.052  1.00  0.00     0.029 A 
ATOM     44  N   UNL A   1      44.488  26.151  28.673  1.00  0.00    -0.354 N 
ATOM     45  C   UNL A   1      40.465  27.635  28.605  1.00  0.00     0.074 A 
ATOM     46  C   UNL A   1      39.542  26.633  28.118  1.00  0.00     0.031 C 
ATOM     47  C   UNL A   1      46.133  24.660  28.403  1.00  0.00     0.029 A 
ATOM     48  C   UNL A   1      45.851  26.035  28.804  1.00  0.00     0.049 A 
ATOM     49  H   UNL A   1      43.995  26.979  28.874  1.00  0.00     0.167 HD
ATOM     50  C   UNL A   1      40.102  28.883  28.989  1.00  0.00     0.031 A 
ATOM     51  C   UNL A   1      46.774  26.930  29.203  1.00  0.00     0.031 A 
ATOM     52  C   UNL A   1      41.008  29.892  29.475  1.00  0.00     0.049 A 
ATOM     53  C   UNL A   1      46.346  28.311  29.612  1.00  0.00     0.074 A 
ATOM     54  C   UNL A   1      40.720  31.177  29.905  1.00  0.00     0.029 A 
ATOM     55  N   UNL A   1      42.378  29.728  29.595  1.00  0.00    -0.354 N 
ATOM     56  N   UNL A   1      45.142  28.827  29.647  1.00  0.00    -0.248 NA
ATOM     57  C   UNL A   1      47.408  29.229  30.049  1.00  0.00     0.031 C 
ATOM     58  C   UNL A   1      41.921  31.801  30.259  1.00  0.00     0.029 A 
ATOM     59  C   UNL A   1      42.950  30.891  30.087  1.00  0.00     0.049 A 
ATOM     60  H   UNL A   1      42.871  28.909  29.367  1.00  0.00     0.167 HD
ATOM     61  C   UNL A   1      45.299  30.117  30.137  1.00  0.00     0.074 A 
ATOM     62  C   UNL A   1      46.710  30.301  30.399  1.00  0.00     0.031 C 
ATOM     63  C   UNL A   1      44.354  31.065  30.349  1.00  0.00     0.031 A 
BRANCH  50  64
ATOM     64  C   UNL A   1      38.642  29.231  28.902  1.00  0.00    -0.014 A 
ATOM     65  C   UNL A   1      38.085  29.700  27.702  1.00  0.00     0.009 A 
ATOM     66  C   UNL A   1      37.806  29.047  30.014  1.00  0.00     0.009 A 
ATOM     67  C   UNL A   1      36.725  30.009  27.627  1.00  0.00     0.001 A 
ATOM     68  C   UNL A   1      36.441  29.333  29.928  1.00  0.00     0.001 A 
ATOM     69  C   UNL A   1      35.904  29.822  28.738  1.00  0.00     0.000 A 
ENDBRANCH  50  64
BRANCH  51  70
ATOM     70  C   UNL A   1      48.209  26.547  29.264  1.00  0.00    -0.014 A 
ATOM     71  C   UNL A   1      48.739  25.958  30.423  1.00  0.00     0.009 A 
ATOM     72  C   UNL A   1      49.060  26.796  28.177  1.00  0.00     0.009 A 
ATOM     73  C   UNL A   1      50.099  25.655  30.503  1.00  0.00     0.001 A 
ATOM     74  C   UNL A   1      50.415  26.468  28.251  1.00  0.00     0.001 A 
ATOM     75  C   UNL A   1      50.936  25.907  29.417  1.00  0.00     0.000 A 
ENDBRANCH  51  70
BRANCH  63  76
ATOM     76  C   UNL A   1      44.815  32.371  30.929  1.00  0.00    -0.014 A 
ATOM     77  C   UNL A   1      45.203  33.437  30.104  1.00  0.00     0.009 A 
ATOM     78  C   UNL A   1      44.848  32.540  32.322  1.00  0.00     0.009 A 
ATOM     79  C   UNL A   1      45.651  34.636  30.664  1.00  0.00     0.001 A 
ATOM     80  C   UNL A   1      45.272  33.747  32.878  1.00  0.00     0.001 A 
ATOM     81  C   UNL A   1      45.683  34.790  32.050  1.00  0.00     0.000 A 
ENDBRANCH  63  76
ENDBRANCH  37  38
ENDBRANCH  29  32
ENDBRANCH  27  28
ENDBRANCH  26  27
ENDBRANCH   1  26
TORSDOF 13
ENDMDL
