MODEL 1
REMARK VINA RESULT:     -12.1      0.000      0.000
REMARK SMILES Cc1ccccc1OCC(=O)N[C@@H](Cc1c[nH]c2ccccc12)C(=O)NCCCCNC(=O)c1ccc(-c2c3nc(c(-c4ccccc4)c4ccc([nH]4)c(-c4ccccc4)c4nc(c(-c5ccccc5)c5ccc2[nH]5)C=C4)C=C3)cc1
REMARK SMILES IDX 27 1 26 2 24 3 25 4 13 6 12 7 10 8 11 9 9 11 8 12 7 13 1 14
REMARK SMILES IDX 2 15 3 16 4 17 6 18 5 19 14 20 15 21 16 22 23 23 17 24 18 25
REMARK SMILES IDX 22 26 19 28 21 29 20 30 28 31 29 32 30 33 31 34 32 35 33 37
REMARK SMILES IDX 34 38 35 39 81 40 36 41 80 42 37 43 38 44 39 45 74 46 40 47
REMARK SMILES IDX 79 48 73 49 75 50 41 51 78 52 72 53 71 54 42 56 64 57 49 58
REMARK SMILES IDX 63 59 50 60 53 61 62 62 76 63 51 64 52 65 61 67 77 68 54 69
REMARK SMILES IDX 43 70 44 71 48 72 45 73 47 74 46 75 65 76 66 77 70 78 67 79
REMARK SMILES IDX 69 80 68 81 55 82 56 83 60 84 57 85 59 86 58 87
REMARK H PARENT 26 5 12 10 17 27 31 36 75 55 53 66
REMARK Flexibility Score: inf
ROOT
ATOM      1  C   UNL A   1      37.023  22.211  25.100  1.00  0.00     0.116 C 
ENDROOT
BRANCH   1   2
ATOM      2  N   UNL A   1      36.002  22.311  26.132  1.00  0.00    -0.354 N 
ATOM      3  C   UNL A   1      34.705  22.745  26.070  1.00  0.00     0.242 C 
ATOM      4  O   UNL A   1      33.942  22.325  26.950  1.00  0.00    -0.273 OA
ATOM      5  H   UNL A   1      36.293  22.016  27.025  1.00  0.00     0.163 HD
BRANCH   3   6
ATOM      6  C   UNL A   1      34.144  23.647  24.937  1.00  0.00     0.175 C 
BRANCH   6   7
ATOM      7  N   UNL A   1      32.785  23.245  24.572  1.00  0.00    -0.341 N 
ATOM      8  C   UNL A   1      32.283  23.179  23.307  1.00  0.00     0.258 C 
ATOM      9  O   UNL A   1      31.497  22.271  23.029  1.00  0.00    -0.271 OA
ATOM     10  H   UNL A   1      32.179  22.999  25.308  1.00  0.00     0.164 HD
BRANCH   8  11
ATOM     11  C   UNL A   1      32.697  24.235  22.280  1.00  0.00     0.329 C 
BRANCH  11  12
ATOM     12  O   UNL A   1      31.832  25.331  22.054  1.00  0.00    -0.484 OA
BRANCH  12  13
ATOM     13  C   UNL A   1      32.143  26.601  22.456  1.00  0.00     0.122 A 
ATOM     14  C   UNL A   1      29.938  27.400  23.572  1.00  0.00     0.048 C 
ATOM     15  C   UNL A   1      31.366  27.553  23.132  1.00  0.00    -0.009 A 
ATOM     16  C   UNL A   1      31.957  28.797  23.458  1.00  0.00     0.007 A 
ATOM     17  C   UNL A   1      33.255  29.119  23.071  1.00  0.00     0.001 A 
ATOM     18  C   UNL A   1      33.445  26.954  22.053  1.00  0.00     0.047 A 
ATOM     19  C   UNL A   1      34.000  28.197  22.355  1.00  0.00     0.004 A 
ENDBRANCH  12  13
ENDBRANCH  11  12
ENDBRANCH   8  11
ENDBRANCH   6   7
BRANCH   6  20
ATOM     20  C   UNL A   1      34.344  25.155  25.182  1.00  0.00     0.072 C 
BRANCH  20  21
ATOM     21  C   UNL A   1      33.255  25.832  25.948  1.00  0.00    -0.020 A 
ATOM     22  C   UNL A   1      32.041  25.277  26.309  1.00  0.00     0.087 A 
ATOM     23  C   UNL A   1      33.243  27.189  26.402  1.00  0.00     0.003 A 
ATOM     24  N   UNL A   1      31.266  26.260  26.866  1.00  0.00    -0.361 N 
ATOM     25  C   UNL A   1      31.955  27.452  26.871  1.00  0.00     0.046 A 
ATOM     26  C   UNL A   1      34.183  28.240  26.379  1.00  0.00     0.010 A 
ATOM     27  H   UNL A   1      30.352  26.133  27.210  1.00  0.00     0.166 HD
ATOM     28  C   UNL A   1      31.543  28.736  27.238  1.00  0.00     0.026 A 
ATOM     29  C   UNL A   1      33.798  29.518  26.796  1.00  0.00     0.001 A 
ATOM     30  C   UNL A   1      32.488  29.765  27.200  1.00  0.00     0.002 A 
ENDBRANCH  20  21
ENDBRANCH   6  20
ENDBRANCH   3   6
ENDBRANCH   1   2
BRANCH   1  31
ATOM     31  C   UNL A   1      37.975  21.023  25.242  1.00  0.00     0.023 C 
BRANCH  31  32
ATOM     32  C   UNL A   1      39.290  21.312  25.964  1.00  0.00     0.023 C 
BRANCH  32  33
ATOM     33  C   UNL A   1      39.415  22.711  26.555  1.00  0.00     0.116 C 
BRANCH  33  34
ATOM     34  N   UNL A   1      40.639  22.986  27.286  1.00  0.00    -0.352 N 
ATOM     35  C   UNL A   1      41.138  24.185  27.786  1.00  0.00     0.251 C 
ATOM     36  H   UNL A   1      41.205  22.199  27.455  1.00  0.00     0.163 HD
ATOM     37  O   UNL A   1      42.254  24.207  28.262  1.00  0.00    -0.269 OA
BRANCH  35  38
ATOM     38  C   UNL A   1      40.269  25.401  27.893  1.00  0.00     0.039 A 
ATOM     39  C   UNL A   1      40.504  26.441  26.978  1.00  0.00     0.014 A 
ATOM     40  C   UNL A   1      39.415  25.629  28.964  1.00  0.00     0.014 A 
ATOM     41  C   UNL A   1      40.130  27.744  27.298  1.00  0.00     0.010 A 
ATOM     42  C   UNL A   1      39.152  26.925  29.350  1.00  0.00     0.010 A 
ATOM     43  C   UNL A   1      39.589  27.983  28.557  1.00  0.00    -0.014 A 
BRANCH  43  44
ATOM     44  C   UNL A   1      39.604  29.282  29.209  1.00  0.00     0.031 A 
ATOM     45  C   UNL A   1      38.566  30.284  28.907  1.00  0.00     0.074 A 
ATOM     46  C   UNL A   1      40.510  29.486  30.193  1.00  0.00     0.049 A 
ATOM     47  N   UNL A   1      38.711  31.555  29.077  1.00  0.00    -0.248 NA
ATOM     48  C   UNL A   1      37.284  29.918  28.316  1.00  0.00     0.031 C 
ATOM     49  C   UNL A   1      40.512  30.543  31.198  1.00  0.00     0.029 A 
ATOM     50  N   UNL A   1      41.763  28.872  30.340  1.00  0.00    -0.354 N 
ATOM     51  C   UNL A   1      37.473  32.133  28.893  1.00  0.00     0.074 A 
ATOM     52  C   UNL A   1      36.645  31.089  28.335  1.00  0.00     0.031 C 
ATOM     53  C   UNL A   1      41.768  30.702  31.649  1.00  0.00     0.029 A 
ATOM     54  C   UNL A   1      42.626  29.874  30.814  1.00  0.00     0.049 A 
ATOM     55  H   UNL A   1      41.990  27.933  30.151  1.00  0.00     0.167 HD
ATOM     56  C   UNL A   1      37.232  33.385  29.373  1.00  0.00     0.031 A 
ATOM     57  C   UNL A   1      43.716  30.321  30.125  1.00  0.00     0.031 A 
ATOM     58  C   UNL A   1      38.423  33.966  29.983  1.00  0.00     0.049 A 
ATOM     59  C   UNL A   1      43.684  31.812  29.891  1.00  0.00     0.074 A 
ATOM     60  C   UNL A   1      38.846  34.039  31.300  1.00  0.00     0.029 A 
ATOM     61  N   UNL A   1      39.520  34.286  29.192  1.00  0.00    -0.354 N 
ATOM     62  N   UNL A   1      42.586  32.514  29.860  1.00  0.00    -0.248 NA
ATOM     63  C   UNL A   1      44.874  32.601  29.590  1.00  0.00     0.031 C 
ATOM     64  C   UNL A   1      40.234  34.323  31.295  1.00  0.00     0.029 A 
ATOM     65  C   UNL A   1      40.642  34.459  29.979  1.00  0.00     0.049 A 
ATOM     66  H   UNL A   1      39.500  34.376  28.212  1.00  0.00     0.167 HD
ATOM     67  C   UNL A   1      42.893  33.806  29.531  1.00  0.00     0.074 A 
ATOM     68  C   UNL A   1      44.337  33.814  29.377  1.00  0.00     0.031 C 
ATOM     69  C   UNL A   1      41.934  34.761  29.382  1.00  0.00     0.031 A 
BRANCH  56  70
ATOM     70  C   UNL A   1      35.839  33.935  29.581  1.00  0.00    -0.014 A 
ATOM     71  C   UNL A   1      35.173  34.555  28.506  1.00  0.00     0.009 A 
ATOM     72  C   UNL A   1      35.155  33.938  30.809  1.00  0.00     0.009 A 
ATOM     73  C   UNL A   1      33.957  35.231  28.672  1.00  0.00     0.001 A 
ATOM     74  C   UNL A   1      33.958  34.646  30.993  1.00  0.00     0.001 A 
ATOM     75  C   UNL A   1      33.365  35.305  29.925  1.00  0.00     0.000 A 
ENDBRANCH  56  70
BRANCH  57  76
ATOM     76  C   UNL A   1      44.262  29.376  29.115  1.00  0.00    -0.014 A 
ATOM     77  C   UNL A   1      45.073  28.311  29.539  1.00  0.00     0.009 A 
ATOM     78  C   UNL A   1      43.713  29.331  27.824  1.00  0.00     0.009 A 
ATOM     79  C   UNL A   1      45.235  27.177  28.737  1.00  0.00     0.001 A 
ATOM     80  C   UNL A   1      43.889  28.199  27.020  1.00  0.00     0.001 A 
ATOM     81  C   UNL A   1      44.618  27.110  27.491  1.00  0.00     0.000 A 
ENDBRANCH  57  76
BRANCH  69  82
ATOM     82  C   UNL A   1      42.145  36.098  28.725  1.00  0.00    -0.014 A 
ATOM     83  C   UNL A   1      42.702  37.205  29.379  1.00  0.00     0.009 A 
ATOM     84  C   UNL A   1      41.918  36.224  27.337  1.00  0.00     0.009 A 
ATOM     85  C   UNL A   1      42.970  38.398  28.694  1.00  0.00     0.001 A 
ATOM     86  C   UNL A   1      42.228  37.394  26.642  1.00  0.00     0.001 A 
ATOM     87  C   UNL A   1      42.743  38.487  27.324  1.00  0.00     0.000 A 
ENDBRANCH  69  82
ENDBRANCH  43  44
ENDBRANCH  35  38
ENDBRANCH  33  34
ENDBRANCH  32  33
ENDBRANCH  31  32
ENDBRANCH   1  31
TORSDOF 17
ENDMDL
MODEL 2
REMARK VINA RESULT:     -11.8      2.569      4.227
REMARK SMILES Cc1ccccc1OCC(=O)N[C@@H](Cc1c[nH]c2ccccc12)C(=O)NCCCCNC(=O)c1ccc(-c2c3nc(c(-c4ccccc4)c4ccc([nH]4)c(-c4ccccc4)c4nc(c(-c5ccccc5)c5ccc2[nH]5)C=C4)C=C3)cc1
REMARK SMILES IDX 27 1 26 2 24 3 25 4 13 6 12 7 10 8 11 9 9 11 8 12 7 13 1 14
REMARK SMILES IDX 2 15 3 16 4 17 6 18 5 19 14 20 15 21 16 22 23 23 17 24 18 25
REMARK SMILES IDX 22 26 19 28 21 29 20 30 28 31 29 32 30 33 31 34 32 35 33 37
REMARK SMILES IDX 34 38 35 39 81 40 36 41 80 42 37 43 38 44 39 45 74 46 40 47
REMARK SMILES IDX 79 48 73 49 75 50 41 51 78 52 72 53 71 54 42 56 64 57 49 58
REMARK SMILES IDX 63 59 50 60 53 61 62 62 76 63 51 64 52 65 61 67 77 68 54 69
REMARK SMILES IDX 43 70 44 71 48 72 45 73 47 74 46 75 65 76 66 77 70 78 67 79
REMARK SMILES IDX 69 80 68 81 55 82 56 83 60 84 57 85 59 86 58 87
REMARK H PARENT 26 5 12 10 17 27 31 36 75 55 53 66
REMARK Flexibility Score: inf
ROOT
ATOM      1  C   UNL A   1      35.361  21.966  26.033  1.00  0.00     0.116 C 
ENDROOT
BRANCH   1   2
ATOM      2  N   UNL A   1      34.663  22.310  27.262  1.00  0.00    -0.354 N 
ATOM      3  C   UNL A   1      33.330  22.501  27.512  1.00  0.00     0.242 C 
ATOM      4  O   UNL A   1      32.965  22.350  28.686  1.00  0.00    -0.273 OA
ATOM      5  H   UNL A   1      35.248  22.426  28.045  1.00  0.00     0.163 HD
BRANCH   3   6
ATOM      6  C   UNL A   1      32.275  22.810  26.416  1.00  0.00     0.175 C 
BRANCH   6   7
ATOM      7  N   UNL A   1      31.764  21.576  25.818  1.00  0.00    -0.341 N 
ATOM      8  C   UNL A   1      32.141  21.053  24.618  1.00  0.00     0.258 C 
ATOM      9  O   UNL A   1      32.226  19.828  24.507  1.00  0.00    -0.271 OA
ATOM     10  H   UNL A   1      31.086  21.078  26.330  1.00  0.00     0.164 HD
BRANCH   8  11
ATOM     11  C   UNL A   1      32.433  21.995  23.448  1.00  0.00     0.329 C 
BRANCH  11  12
ATOM     12  O   UNL A   1      33.560  22.846  23.534  1.00  0.00    -0.484 OA
BRANCH  12  13
ATOM     13  C   UNL A   1      33.522  24.151  23.126  1.00  0.00     0.122 A 
ATOM     14  C   UNL A   1      34.519  25.414  25.165  1.00  0.00     0.048 C 
ATOM     15  C   UNL A   1      33.934  25.319  23.785  1.00  0.00    -0.009 A 
ATOM     16  C   UNL A   1      33.807  26.555  23.108  1.00  0.00     0.007 A 
ATOM     17  C   UNL A   1      33.231  26.647  21.843  1.00  0.00     0.001 A 
ATOM     18  C   UNL A   1      32.921  24.267  21.858  1.00  0.00     0.047 A 
ATOM     19  C   UNL A   1      32.774  25.498  21.219  1.00  0.00     0.004 A 
ENDBRANCH  12  13
ENDBRANCH  11  12
ENDBRANCH   8  11
ENDBRANCH   6   7
BRANCH   6  20
ATOM     20  C   UNL A   1      31.203  23.828  26.850  1.00  0.00     0.072 C 
BRANCH  20  21
ATOM     21  C   UNL A   1      30.835  24.850  25.824  1.00  0.00    -0.020 A 
ATOM     22  C   UNL A   1      30.279  24.603  24.583  1.00  0.00     0.087 A 
ATOM     23  C   UNL A   1      31.039  26.264  25.913  1.00  0.00     0.003 A 
ATOM     24  N   UNL A   1      30.232  25.782  23.888  1.00  0.00    -0.361 N 
ATOM     25  C   UNL A   1      30.754  26.798  24.657  1.00  0.00     0.046 A 
ATOM     26  C   UNL A   1      31.519  27.125  26.922  1.00  0.00     0.010 A 
ATOM     27  H   UNL A   1      29.879  25.887  22.975  1.00  0.00     0.166 HD
ATOM     28  C   UNL A   1      31.007  28.136  24.340  1.00  0.00     0.026 A 
ATOM     29  C   UNL A   1      31.724  28.477  26.633  1.00  0.00     0.001 A 
ATOM     30  C   UNL A   1      31.490  28.970  25.352  1.00  0.00     0.002 A 
ENDBRANCH  20  21
ENDBRANCH   6  20
ENDBRANCH   3   6
ENDBRANCH   1   2
BRANCH   1  31
ATOM     31  C   UNL A   1      36.643  22.755  25.772  1.00  0.00     0.023 C 
BRANCH  31  32
ATOM     32  C   UNL A   1      37.811  21.951  25.203  1.00  0.00     0.023 C 
BRANCH  32  33
ATOM     33  C   UNL A   1      39.027  21.836  26.115  1.00  0.00     0.116 C 
BRANCH  33  34
ATOM     34  N   UNL A   1      39.847  20.651  25.936  1.00  0.00    -0.352 N 
ATOM     35  C   UNL A   1      41.227  20.493  26.013  1.00  0.00     0.251 C 
ATOM     36  H   UNL A   1      39.347  19.830  25.728  1.00  0.00     0.163 HD
ATOM     37  O   UNL A   1      41.717  19.427  25.701  1.00  0.00    -0.269 OA
BRANCH  35  38
ATOM     38  C   UNL A   1      42.096  21.551  26.621  1.00  0.00     0.039 A 
ATOM     39  C   UNL A   1      42.261  21.524  28.016  1.00  0.00     0.014 A 
ATOM     40  C   UNL A   1      42.552  22.656  25.912  1.00  0.00     0.014 A 
ATOM     41  C   UNL A   1      42.599  22.691  28.698  1.00  0.00     0.010 A 
ATOM     42  C   UNL A   1      42.762  23.842  26.580  1.00  0.00     0.010 A 
ATOM     43  C   UNL A   1      42.699  23.872  27.971  1.00  0.00    -0.014 A 
BRANCH  43  44
ATOM     44  C   UNL A   1      42.559  25.195  28.557  1.00  0.00     0.031 A 
ATOM     45  C   UNL A   1      41.383  26.029  28.250  1.00  0.00     0.074 A 
ATOM     46  C   UNL A   1      43.462  25.574  29.489  1.00  0.00     0.049 A 
ATOM     47  N   UNL A   1      41.357  27.315  28.350  1.00  0.00    -0.248 NA
ATOM     48  C   UNL A   1      40.143  25.460  27.733  1.00  0.00     0.031 C 
ATOM     49  C   UNL A   1      43.354  26.675  30.440  1.00  0.00     0.029 A 
ATOM     50  N   UNL A   1      44.792  25.144  29.614  1.00  0.00    -0.354 N 
ATOM     51  C   UNL A   1      40.046  27.709  28.190  1.00  0.00     0.074 A 
ATOM     52  C   UNL A   1      39.350  26.533  27.720  1.00  0.00     0.031 C 
ATOM     53  C   UNL A   1      44.592  27.028  30.828  1.00  0.00     0.029 A 
ATOM     54  C   UNL A   1      45.525  26.278  30.000  1.00  0.00     0.049 A 
ATOM     55  H   UNL A   1      45.139  24.236  29.462  1.00  0.00     0.167 HD
ATOM     56  C   UNL A   1      39.651  28.941  28.617  1.00  0.00     0.031 A 
ATOM     57  C   UNL A   1      46.518  26.831  29.244  1.00  0.00     0.031 A 
ATOM     58  C   UNL A   1      40.772  29.711  29.147  1.00  0.00     0.049 A 
ATOM     59  C   UNL A   1      46.273  28.288  28.937  1.00  0.00     0.074 A 
ATOM     60  C   UNL A   1      41.228  29.913  30.439  1.00  0.00     0.029 A 
ATOM     61  N   UNL A   1      41.786  30.132  28.295  1.00  0.00    -0.354 N 
ATOM     62  N   UNL A   1      45.088  28.832  28.918  1.00  0.00    -0.248 NA
ATOM     63  C   UNL A   1      47.331  29.213  28.548  1.00  0.00     0.031 C 
ATOM     64  C   UNL A   1      42.562  30.382  30.360  1.00  0.00     0.029 A 
ATOM     65  C   UNL A   1      42.901  30.499  29.023  1.00  0.00     0.049 A 
ATOM     66  H   UNL A   1      41.720  30.165  27.313  1.00  0.00     0.167 HD
ATOM     67  C   UNL A   1      45.203  30.134  28.513  1.00  0.00     0.074 A 
ATOM     68  C   UNL A   1      46.626  30.329  28.297  1.00  0.00     0.031 C 
ATOM     69  C   UNL A   1      44.117  30.941  28.358  1.00  0.00     0.031 A 
BRANCH  56  70
ATOM     70  C   UNL A   1      38.204  29.308  28.857  1.00  0.00    -0.014 A 
ATOM     71  C   UNL A   1      37.424  29.778  27.783  1.00  0.00     0.009 A 
ATOM     72  C   UNL A   1      37.569  29.280  30.110  1.00  0.00     0.009 A 
ATOM     73  C   UNL A   1      36.132  30.290  27.967  1.00  0.00     0.001 A 
ATOM     74  C   UNL A   1      36.293  29.829  30.311  1.00  0.00     0.001 A 
ATOM     75  C   UNL A   1      35.580  30.347  29.240  1.00  0.00     0.000 A 
ENDBRANCH  56  70
BRANCH  57  76
ATOM     76  C   UNL A   1      47.153  25.914  28.259  1.00  0.00    -0.014 A 
ATOM     77  C   UNL A   1      46.545  25.724  27.008  1.00  0.00     0.009 A 
ATOM     78  C   UNL A   1      48.490  25.521  28.425  1.00  0.00     0.009 A 
ATOM     79  C   UNL A   1      47.290  25.258  25.919  1.00  0.00     0.001 A 
ATOM     80  C   UNL A   1      49.227  25.043  27.336  1.00  0.00     0.001 A 
ATOM     81  C   UNL A   1      48.638  24.947  26.077  1.00  0.00     0.000 A 
ENDBRANCH  57  76
BRANCH  69  82
ATOM     82  C   UNL A   1      44.119  32.256  27.626  1.00  0.00    -0.014 A 
ATOM     83  C   UNL A   1      44.045  33.500  28.267  1.00  0.00     0.009 A 
ATOM     84  C   UNL A   1      44.357  32.266  26.235  1.00  0.00     0.009 A 
ATOM     85  C   UNL A   1      44.152  34.697  27.547  1.00  0.00     0.001 A 
ATOM     86  C   UNL A   1      44.511  33.456  25.522  1.00  0.00     0.001 A 
ATOM     87  C   UNL A   1      44.395  34.675  26.177  1.00  0.00     0.000 A 
ENDBRANCH  69  82
ENDBRANCH  43  44
ENDBRANCH  35  38
ENDBRANCH  33  34
ENDBRANCH  32  33
ENDBRANCH  31  32
ENDBRANCH   1  31
TORSDOF 17
ENDMDL
MODEL 3
REMARK VINA RESULT:     -11.7      3.495      8.878
REMARK SMILES Cc1ccccc1OCC(=O)N[C@@H](Cc1c[nH]c2ccccc12)C(=O)NCCCCNC(=O)c1ccc(-c2c3nc(c(-c4ccccc4)c4ccc([nH]4)c(-c4ccccc4)c4nc(c(-c5ccccc5)c5ccc2[nH]5)C=C4)C=C3)cc1
REMARK SMILES IDX 27 1 26 2 24 3 25 4 13 6 12 7 10 8 11 9 9 11 8 12 7 13 1 14
REMARK SMILES IDX 2 15 3 16 4 17 6 18 5 19 14 20 15 21 16 22 23 23 17 24 18 25
REMARK SMILES IDX 22 26 19 28 21 29 20 30 28 31 29 32 30 33 31 34 32 35 33 37
REMARK SMILES IDX 34 38 35 39 81 40 36 41 80 42 37 43 38 44 39 45 74 46 40 47
REMARK SMILES IDX 79 48 73 49 75 50 41 51 78 52 72 53 71 54 42 56 64 57 49 58
REMARK SMILES IDX 63 59 50 60 53 61 62 62 76 63 51 64 52 65 61 67 77 68 54 69
REMARK SMILES IDX 43 70 44 71 48 72 45 73 47 74 46 75 65 76 66 77 70 78 67 79
REMARK SMILES IDX 69 80 68 81 55 82 56 83 60 84 57 85 59 86 58 87
REMARK H PARENT 26 5 12 10 17 27 31 36 75 55 53 66
REMARK Flexibility Score: inf
ROOT
ATOM      1  C   UNL A   1      31.787  30.120  25.400  1.00  0.00     0.116 C 
ENDROOT
BRANCH   1   2
ATOM      2  N   UNL A   1      32.977  29.779  24.636  1.00  0.00    -0.354 N 
ATOM      3  C   UNL A   1      33.406  28.581  24.133  1.00  0.00     0.242 C 
ATOM      4  O   UNL A   1      34.189  28.636  23.175  1.00  0.00    -0.273 OA
ATOM      5  H   UNL A   1      33.574  30.539  24.450  1.00  0.00     0.163 HD
BRANCH   3   6
ATOM      6  C   UNL A   1      32.911  27.198  24.638  1.00  0.00     0.175 C 
BRANCH   6   7
ATOM      7  N   UNL A   1      32.565  26.324  23.517  1.00  0.00    -0.341 N 
ATOM      8  C   UNL A   1      31.614  26.572  22.574  1.00  0.00     0.258 C 
ATOM      9  O   UNL A   1      31.828  26.222  21.411  1.00  0.00    -0.271 OA
ATOM     10  H   UNL A   1      33.065  25.480  23.437  1.00  0.00     0.164 HD
BRANCH   8  11
ATOM     11  C   UNL A   1      30.311  27.261  22.985  1.00  0.00     0.329 C 
BRANCH  11  12
ATOM     12  O   UNL A   1      29.690  28.136  22.063  1.00  0.00    -0.484 OA
BRANCH  12  13
ATOM     13  C   UNL A   1      28.998  29.245  22.462  1.00  0.00     0.122 A 
ATOM     14  C   UNL A   1      26.844  28.227  23.498  1.00  0.00     0.048 C 
ATOM     15  C   UNL A   1      27.754  29.354  23.104  1.00  0.00    -0.009 A 
ATOM     16  C   UNL A   1      27.279  30.645  23.437  1.00  0.00     0.007 A 
ATOM     17  C   UNL A   1      27.978  31.799  23.092  1.00  0.00     0.001 A 
ATOM     18  C   UNL A   1      29.677  30.424  22.101  1.00  0.00     0.047 A 
ATOM     19  C   UNL A   1      29.178  31.689  22.408  1.00  0.00     0.004 A 
ENDBRANCH  12  13
ENDBRANCH  11  12
ENDBRANCH   8  11
ENDBRANCH   6   7
BRANCH   6  20
ATOM     20  C   UNL A   1      33.814  26.567  25.716  1.00  0.00     0.072 C 
BRANCH  20  21
ATOM     21  C   UNL A   1      33.652  25.094  25.907  1.00  0.00    -0.020 A 
ATOM     22  C   UNL A   1      32.520  24.447  26.365  1.00  0.00     0.087 A 
ATOM     23  C   UNL A   1      34.651  24.090  25.705  1.00  0.00     0.003 A 
ATOM     24  N   UNL A   1      32.821  23.123  26.542  1.00  0.00    -0.361 N 
ATOM     25  C   UNL A   1      34.137  22.895  26.208  1.00  0.00     0.046 A 
ATOM     26  C   UNL A   1      35.974  24.106  25.216  1.00  0.00     0.010 A 
ATOM     27  H   UNL A   1      32.191  22.437  26.861  1.00  0.00     0.166 HD
ATOM     28  C   UNL A   1      34.915  21.739  26.323  1.00  0.00     0.026 A 
ATOM     29  C   UNL A   1      36.744  22.940  25.275  1.00  0.00     0.001 A 
ATOM     30  C   UNL A   1      36.225  21.779  25.841  1.00  0.00     0.002 A 
ENDBRANCH  20  21
ENDBRANCH   6  20
ENDBRANCH   3   6
ENDBRANCH   1   2
BRANCH   1  31
ATOM     31  C   UNL A   1      32.036  30.473  26.866  1.00  0.00     0.023 C 
BRANCH  31  32
ATOM     32  C   UNL A   1      33.238  31.378  27.134  1.00  0.00     0.023 C 
BRANCH  32  33
ATOM     33  C   UNL A   1      34.365  30.740  27.938  1.00  0.00     0.116 C 
BRANCH  33  34
ATOM     34  N   UNL A   1      35.447  31.627  28.329  1.00  0.00    -0.352 N 
ATOM     35  C   UNL A   1      36.750  31.337  28.721  1.00  0.00     0.251 C 
ATOM     36  H   UNL A   1      35.222  32.585  28.316  1.00  0.00     0.163 HD
ATOM     37  O   UNL A   1      37.457  32.234  29.130  1.00  0.00    -0.269 OA
BRANCH  35  38
ATOM     38  C   UNL A   1      37.343  29.979  28.496  1.00  0.00     0.039 A 
ATOM     39  C   UNL A   1      37.404  29.114  29.601  1.00  0.00     0.014 A 
ATOM     40  C   UNL A   1      38.013  29.630  27.331  1.00  0.00     0.014 A 
ATOM     41  C   UNL A   1      38.348  28.089  29.628  1.00  0.00     0.010 A 
ATOM     42  C   UNL A   1      39.032  28.705  27.394  1.00  0.00     0.010 A 
ATOM     43  C   UNL A   1      39.251  27.998  28.575  1.00  0.00    -0.014 A 
BRANCH  43  44
ATOM     44  C   UNL A   1      40.544  27.341  28.674  1.00  0.00     0.031 A 
ATOM     45  C   UNL A   1      40.671  25.896  28.411  1.00  0.00     0.074 A 
ATOM     46  C   UNL A   1      41.634  28.116  28.876  1.00  0.00     0.049 A 
ATOM     47  N   UNL A   1      41.623  25.155  28.868  1.00  0.00    -0.248 NA
ATOM     48  C   UNL A   1      39.671  25.155  27.650  1.00  0.00     0.031 C 
ATOM     49  C   UNL A   1      43.034  27.752  28.683  1.00  0.00     0.029 A 
ATOM     50  N   UNL A   1      41.690  29.360  29.522  1.00  0.00    -0.354 N 
ATOM     51  C   UNL A   1      41.522  23.932  28.242  1.00  0.00     0.074 A 
ATOM     52  C   UNL A   1      40.245  23.953  27.568  1.00  0.00     0.031 C 
ATOM     53  C   UNL A   1      43.794  28.570  29.431  1.00  0.00     0.029 A 
ATOM     54  C   UNL A   1      42.888  29.357  30.255  1.00  0.00     0.049 A 
ATOM     55  H   UNL A   1      41.026  30.085  29.471  1.00  0.00     0.167 HD
ATOM     56  C   UNL A   1      42.592  23.087  28.228  1.00  0.00     0.031 A 
ATOM     57  C   UNL A   1      42.942  29.443  31.616  1.00  0.00     0.031 A 
ATOM     58  C   UNL A   1      43.715  23.629  28.984  1.00  0.00     0.049 A 
ATOM     59  C   UNL A   1      43.687  28.289  32.241  1.00  0.00     0.074 A 
ATOM     60  C   UNL A   1      44.844  24.329  28.591  1.00  0.00     0.029 A 
ATOM     61  N   UNL A   1      43.617  23.771  30.363  1.00  0.00    -0.354 N 
ATOM     62  N   UNL A   1      43.813  27.120  31.678  1.00  0.00    -0.248 NA
ATOM     63  C   UNL A   1      44.267  28.342  33.579  1.00  0.00     0.031 C 
ATOM     64  C   UNL A   1      45.380  24.967  29.737  1.00  0.00     0.029 A 
ATOM     65  C   UNL A   1      44.599  24.624  30.827  1.00  0.00     0.049 A 
ATOM     66  H   UNL A   1      42.944  23.327  30.928  1.00  0.00     0.167 HD
ATOM     67  C   UNL A   1      44.453  26.276  32.543  1.00  0.00     0.074 A 
ATOM     68  C   UNL A   1      44.722  27.086  33.718  1.00  0.00     0.031 C 
ATOM     69  C   UNL A   1      44.685  24.969  32.238  1.00  0.00     0.031 A 
BRANCH  56  70
ATOM     70  C   UNL A   1      42.723  21.937  27.255  1.00  0.00    -0.014 A 
ATOM     71  C   UNL A   1      41.985  20.758  27.477  1.00  0.00     0.009 A 
ATOM     72  C   UNL A   1      43.591  21.918  26.151  1.00  0.00     0.009 A 
ATOM     73  C   UNL A   1      42.183  19.599  26.714  1.00  0.00     0.001 A 
ATOM     74  C   UNL A   1      43.826  20.751  25.408  1.00  0.00     0.001 A 
ATOM     75  C   UNL A   1      43.131  19.586  25.699  1.00  0.00     0.000 A 
ENDBRANCH  56  70
BRANCH  57  76
ATOM     76  C   UNL A   1      41.752  30.057  32.263  1.00  0.00    -0.014 A 
ATOM     77  C   UNL A   1      40.573  29.305  32.385  1.00  0.00     0.009 A 
ATOM     78  C   UNL A   1      41.894  31.217  33.039  1.00  0.00     0.009 A 
ATOM     79  C   UNL A   1      39.611  29.640  33.343  1.00  0.00     0.001 A 
ATOM     80  C   UNL A   1      40.922  31.557  33.987  1.00  0.00     0.001 A 
ATOM     81  C   UNL A   1      39.801  30.749  34.164  1.00  0.00     0.000 A 
ENDBRANCH  57  76
BRANCH  69  82
ATOM     82  C   UNL A   1      45.085  23.911  33.230  1.00  0.00    -0.014 A 
ATOM     83  C   UNL A   1      46.316  23.902  33.900  1.00  0.00     0.009 A 
ATOM     84  C   UNL A   1      44.130  22.954  33.634  1.00  0.00     0.009 A 
ATOM     85  C   UNL A   1      46.600  22.951  34.889  1.00  0.00     0.001 A 
ATOM     86  C   UNL A   1      44.392  22.035  34.652  1.00  0.00     0.001 A 
ATOM     87  C   UNL A   1      45.634  22.025  35.272  1.00  0.00     0.000 A 
ENDBRANCH  69  82
ENDBRANCH  43  44
ENDBRANCH  35  38
ENDBRANCH  33  34
ENDBRANCH  32  33
ENDBRANCH  31  32
ENDBRANCH   1  31
TORSDOF 17
ENDMDL
