MODEL 1
REMARK VINA RESULT:     -13.0      0.000      0.000
REMARK SMILES Cc1ccccc1/C=C1\SC(=O)N(CC(=O)Nc2ccccc2C(=O)NCCCCNC(=O)c2ccc(-c3c4nc(c(-c5ccccc5)c5ccc([nH]5)c(-c5ccccc5)c5nc(c(-c6ccccc6)c6ccc3[nH]6)C=C5)C=C4)cc2)C1=O
REMARK SMILES IDX 27 1 26 2 24 3 25 4 23 6 18 7 19 8 20 9 22 10 21 11 17 12
REMARK SMILES IDX 15 13 16 14 14 16 13 17 8 18 9 19 10 20 82 21 11 22 83 23
REMARK SMILES IDX 12 24 7 25 1 26 2 27 3 28 4 29 6 30 5 31 28 32 29 33 30 34
REMARK SMILES IDX 31 35 32 36 33 38 34 39 35 40 81 41 36 42 80 43 37 44 38 45
REMARK SMILES IDX 39 46 74 47 40 48 79 49 73 50 75 51 41 52 78 53 72 54 71 55
REMARK SMILES IDX 42 57 64 58 49 59 63 60 50 61 53 62 62 63 76 64 51 65 52 66
REMARK SMILES IDX 61 68 77 69 54 70 43 71 44 72 48 73 45 74 47 75 46 76 65 77
REMARK SMILES IDX 66 78 70 79 67 80 69 81 68 82 55 83 56 84 60 85 57 86 59 87
REMARK SMILES IDX 58 88
REMARK H PARENT 26 5 17 15 31 37 75 56 53 67
REMARK Flexibility Score: inf
ROOT
ATOM      1  C   UNL A   1      36.311  23.413  25.666  1.00  0.00     0.116 C 
ENDROOT
BRANCH   1   2
ATOM      2  N   UNL A   1      35.460  22.995  26.784  1.00  0.00    -0.352 N 
ATOM      3  C   UNL A   1      34.391  22.119  26.919  1.00  0.00     0.253 C 
ATOM      4  O   UNL A   1      34.006  21.865  28.060  1.00  0.00    -0.269 OA
ATOM      5  H   UNL A   1      35.700  23.437  27.630  1.00  0.00     0.163 HD
BRANCH   3   6
ATOM      6  C   UNL A   1      33.682  21.482  25.778  1.00  0.00     0.063 A 
ATOM      7  C   UNL A   1      32.423  21.913  25.285  1.00  0.00     0.054 A 
ATOM      8  C   UNL A   1      31.788  21.149  24.282  1.00  0.00     0.027 A 
ATOM      9  C   UNL A   1      32.368  19.997  23.754  1.00  0.00     0.002 A 
ATOM     10  C   UNL A   1      34.168  20.242  25.321  1.00  0.00     0.016 A 
ATOM     11  C   UNL A   1      33.554  19.530  24.291  1.00  0.00     0.001 A 
BRANCH   7  12
ATOM     12  N   UNL A   1      31.544  22.833  25.891  1.00  0.00    -0.324 N 
ATOM     13  C   UNL A   1      31.561  24.172  26.119  1.00  0.00     0.244 C 
ATOM     14  O   UNL A   1      30.501  24.665  26.528  1.00  0.00    -0.273 OA
ATOM     15  H   UNL A   1      30.726  22.404  26.230  1.00  0.00     0.170 HD
BRANCH  13  16
ATOM     16  C   UNL A   1      32.731  25.080  25.792  1.00  0.00     0.230 C 
BRANCH  16  17
ATOM     17  N   UNL A   1      32.343  26.311  25.159  1.00  0.00    -0.259 N 
ATOM     18  C   UNL A   1      30.523  27.833  22.644  1.00  0.00     0.029 C 
ATOM     19  C   UNL A   1      31.515  27.741  23.536  1.00  0.00     0.083 C 
ATOM     20  S   UNL A   1      31.973  28.805  24.784  1.00  0.00    -0.022 SA
ATOM     21  C   UNL A   1      32.117  26.408  23.801  1.00  0.00     0.268 C 
ATOM     22  C   UNL A   1      32.383  27.482  25.845  1.00  0.00     0.294 C 
ATOM     23  O   UNL A   1      32.343  25.573  22.944  1.00  0.00    -0.268 OA
ATOM     24  O   UNL A   1      32.681  27.649  27.026  1.00  0.00    -0.261 OA
BRANCH  18  25
ATOM     25  C   UNL A   1      29.455  28.839  22.517  1.00  0.00    -0.021 A 
ATOM     26  C   UNL A   1      27.528  27.546  23.644  1.00  0.00     0.045 C 
ATOM     27  C   UNL A   1      28.163  28.774  23.057  1.00  0.00    -0.044 A 
ATOM     28  C   UNL A   1      27.371  29.930  23.008  1.00  0.00     0.004 A 
ATOM     29  C   UNL A   1      27.805  31.096  22.373  1.00  0.00     0.000 A 
ATOM     30  C   UNL A   1      29.861  30.016  21.843  1.00  0.00     0.008 A 
ATOM     31  C   UNL A   1      29.035  31.129  21.748  1.00  0.00     0.001 A 
ENDBRANCH  18  25
ENDBRANCH  16  17
ENDBRANCH  13  16
ENDBRANCH   7  12
ENDBRANCH   3   6
ENDBRANCH   1   2
BRANCH   1  32
ATOM     32  C   UNL A   1      37.833  23.427  25.868  1.00  0.00     0.023 C 
BRANCH  32  33
ATOM     33  C   UNL A   1      38.638  22.132  25.783  1.00  0.00     0.023 C 
BRANCH  33  34
ATOM     34  C   UNL A   1      39.933  22.053  26.568  1.00  0.00     0.116 C 
BRANCH  34  35
ATOM     35  N   UNL A   1      40.908  21.102  26.064  1.00  0.00    -0.352 N 
ATOM     36  C   UNL A   1      42.293  21.122  26.104  1.00  0.00     0.251 C 
ATOM     37  H   UNL A   1      40.521  20.312  25.620  1.00  0.00     0.163 HD
ATOM     38  O   UNL A   1      42.904  20.295  25.428  1.00  0.00    -0.269 OA
BRANCH  36  39
ATOM     39  C   UNL A   1      43.067  22.014  27.021  1.00  0.00     0.039 A 
ATOM     40  C   UNL A   1      42.825  21.961  28.411  1.00  0.00     0.014 A 
ATOM     41  C   UNL A   1      43.868  23.033  26.553  1.00  0.00     0.014 A 
ATOM     42  C   UNL A   1      43.057  23.090  29.219  1.00  0.00     0.010 A 
ATOM     43  C   UNL A   1      44.192  24.072  27.374  1.00  0.00     0.010 A 
ATOM     44  C   UNL A   1      43.610  24.205  28.620  1.00  0.00    -0.014 A 
BRANCH  44  45
ATOM     45  C   UNL A   1      43.397  25.631  28.885  1.00  0.00     0.031 A 
ATOM     46  C   UNL A   1      42.188  26.316  28.400  1.00  0.00     0.074 A 
ATOM     47  C   UNL A   1      43.947  26.055  30.058  1.00  0.00     0.049 A 
ATOM     48  N   UNL A   1      41.951  27.565  28.592  1.00  0.00    -0.248 NA
ATOM     49  C   UNL A   1      41.093  25.624  27.731  1.00  0.00     0.031 C 
ATOM     50  C   UNL A   1      43.540  27.130  30.965  1.00  0.00     0.029 A 
ATOM     51  N   UNL A   1      45.106  25.565  30.664  1.00  0.00    -0.354 N 
ATOM     52  C   UNL A   1      40.606  27.776  28.383  1.00  0.00     0.074 A 
ATOM     53  C   UNL A   1      40.136  26.560  27.761  1.00  0.00     0.031 C 
ATOM     54  C   UNL A   1      44.567  27.428  31.783  1.00  0.00     0.029 A 
ATOM     55  C   UNL A   1      45.708  26.654  31.332  1.00  0.00     0.049 A 
ATOM     56  H   UNL A   1      45.439  24.640  30.632  1.00  0.00     0.167 HD
ATOM     57  C   UNL A   1      40.043  28.919  28.874  1.00  0.00     0.031 A 
ATOM     58  C   UNL A   1      46.847  27.175  30.777  1.00  0.00     0.031 A 
ATOM     59  C   UNL A   1      41.054  29.773  29.520  1.00  0.00     0.049 A 
ATOM     60  C   UNL A   1      46.609  28.509  30.081  1.00  0.00     0.074 A 
ATOM     61  C   UNL A   1      41.344  30.130  30.826  1.00  0.00     0.029 A 
ATOM     62  N   UNL A   1      42.164  30.143  28.775  1.00  0.00    -0.354 N 
ATOM     63  N   UNL A   1      45.469  29.148  30.069  1.00  0.00    -0.248 NA
ATOM     64  C   UNL A   1      47.623  29.194  29.284  1.00  0.00     0.031 C 
ATOM     65  C   UNL A   1      42.680  30.644  30.855  1.00  0.00     0.029 A 
ATOM     66  C   UNL A   1      43.177  30.649  29.563  1.00  0.00     0.049 A 
ATOM     67  H   UNL A   1      42.221  30.055  27.796  1.00  0.00     0.167 HD
ATOM     68  C   UNL A   1      45.535  30.218  29.219  1.00  0.00     0.074 A 
ATOM     69  C   UNL A   1      46.914  30.209  28.756  1.00  0.00     0.031 C 
ATOM     70  C   UNL A   1      44.447  31.001  28.930  1.00  0.00     0.031 A 
BRANCH  57  71
ATOM     71  C   UNL A   1      38.563  29.239  28.911  1.00  0.00    -0.014 A 
ATOM     72  C   UNL A   1      37.923  29.679  27.735  1.00  0.00     0.009 A 
ATOM     73  C   UNL A   1      37.738  29.140  30.045  1.00  0.00     0.009 A 
ATOM     74  C   UNL A   1      36.565  30.037  27.706  1.00  0.00     0.001 A 
ATOM     75  C   UNL A   1      36.382  29.500  30.028  1.00  0.00     0.001 A 
ATOM     76  C   UNL A   1      35.795  29.956  28.858  1.00  0.00     0.000 A 
ENDBRANCH  57  71
BRANCH  58  77
ATOM     77  C   UNL A   1      47.738  26.058  30.304  1.00  0.00    -0.014 A 
ATOM     78  C   UNL A   1      47.628  25.702  28.938  1.00  0.00     0.009 A 
ATOM     79  C   UNL A   1      48.946  25.785  30.964  1.00  0.00     0.009 A 
ATOM     80  C   UNL A   1      48.750  25.290  28.210  1.00  0.00     0.001 A 
ATOM     81  C   UNL A   1      50.055  25.327  30.235  1.00  0.00     0.001 A 
ATOM     82  C   UNL A   1      49.973  25.143  28.854  1.00  0.00     0.000 A 
ENDBRANCH  58  77
BRANCH  70  83
ATOM     83  C   UNL A   1      44.485  32.166  27.966  1.00  0.00    -0.014 A 
ATOM     84  C   UNL A   1      44.429  33.499  28.390  1.00  0.00     0.009 A 
ATOM     85  C   UNL A   1      44.480  31.954  26.570  1.00  0.00     0.009 A 
ATOM     86  C   UNL A   1      44.478  34.559  27.475  1.00  0.00     0.001 A 
ATOM     87  C   UNL A   1      44.498  33.004  25.651  1.00  0.00     0.001 A 
ATOM     88  C   UNL A   1      44.522  34.312  26.106  1.00  0.00     0.000 A 
ENDBRANCH  70  83
ENDBRANCH  44  45
ENDBRANCH  36  39
ENDBRANCH  34  35
ENDBRANCH  33  34
ENDBRANCH  32  33
ENDBRANCH   1  32
TORSDOF 15
ENDMDL
MODEL 2
REMARK VINA RESULT:     -13.0      2.863      8.680
REMARK SMILES Cc1ccccc1/C=C1\SC(=O)N(CC(=O)Nc2ccccc2C(=O)NCCCCNC(=O)c2ccc(-c3c4nc(c(-c5ccccc5)c5ccc([nH]5)c(-c5ccccc5)c5nc(c(-c6ccccc6)c6ccc3[nH]6)C=C5)C=C4)cc2)C1=O
REMARK SMILES IDX 27 1 26 2 24 3 25 4 23 6 18 7 19 8 20 9 22 10 21 11 17 12
REMARK SMILES IDX 15 13 16 14 14 16 13 17 8 18 9 19 10 20 82 21 11 22 83 23
REMARK SMILES IDX 12 24 7 25 1 26 2 27 3 28 4 29 6 30 5 31 28 32 29 33 30 34
REMARK SMILES IDX 31 35 32 36 33 38 34 39 35 40 81 41 36 42 80 43 37 44 38 45
REMARK SMILES IDX 39 46 74 47 40 48 79 49 73 50 75 51 41 52 78 53 72 54 71 55
REMARK SMILES IDX 42 57 64 58 49 59 63 60 50 61 53 62 62 63 76 64 51 65 52 66
REMARK SMILES IDX 61 68 77 69 54 70 43 71 44 72 48 73 45 74 47 75 46 76 65 77
REMARK SMILES IDX 66 78 70 79 67 80 69 81 68 82 55 83 56 84 60 85 57 86 59 87
REMARK SMILES IDX 58 88
REMARK H PARENT 26 5 17 15 31 37 75 56 53 67
REMARK Flexibility Score: inf
ROOT
ATOM      1  C   UNL A   1      31.854  29.947  25.994  1.00  0.00     0.116 C 
ENDROOT
BRANCH   1   2
ATOM      2  N   UNL A   1      32.166  29.522  24.626  1.00  0.00    -0.352 N 
ATOM      3  C   UNL A   1      31.416  29.327  23.473  1.00  0.00     0.253 C 
ATOM      4  O   UNL A   1      32.029  29.130  22.425  1.00  0.00    -0.269 OA
ATOM      5  H   UNL A   1      33.122  29.331  24.496  1.00  0.00     0.163 HD
BRANCH   3   6
ATOM      6  C   UNL A   1      29.930  29.330  23.430  1.00  0.00     0.063 A 
ATOM      7  C   UNL A   1      29.134  28.156  23.373  1.00  0.00     0.054 A 
ATOM      8  C   UNL A   1      27.739  28.289  23.205  1.00  0.00     0.027 A 
ATOM      9  C   UNL A   1      27.123  29.535  23.110  1.00  0.00     0.002 A 
ATOM     10  C   UNL A   1      29.289  30.561  23.191  1.00  0.00     0.016 A 
ATOM     11  C   UNL A   1      27.904  30.675  23.081  1.00  0.00     0.001 A 
BRANCH   7  12
ATOM     12  N   UNL A   1      29.578  26.841  23.131  1.00  0.00    -0.324 N 
ATOM     13  C   UNL A   1      30.216  25.891  23.863  1.00  0.00     0.244 C 
ATOM     14  O   UNL A   1      30.278  24.764  23.352  1.00  0.00    -0.273 OA
ATOM     15  H   UNL A   1      29.381  26.541  22.215  1.00  0.00     0.170 HD
BRANCH  13  16
ATOM     16  C   UNL A   1      30.728  26.100  25.275  1.00  0.00     0.230 C 
BRANCH  16  17
ATOM     17  N   UNL A   1      31.906  25.335  25.578  1.00  0.00    -0.259 N 
ATOM     18  C   UNL A   1      33.226  22.258  26.441  1.00  0.00     0.029 C 
ATOM     19  C   UNL A   1      33.208  23.594  26.376  1.00  0.00     0.083 C 
ATOM     20  S   UNL A   1      34.363  24.679  25.753  1.00  0.00    -0.022 SA
ATOM     21  C   UNL A   1      31.904  24.298  26.489  1.00  0.00     0.268 C 
ATOM     22  C   UNL A   1      33.124  25.737  25.130  1.00  0.00     0.294 C 
ATOM     23  O   UNL A   1      31.013  23.977  27.253  1.00  0.00    -0.268 OA
ATOM     24  O   UNL A   1      33.378  26.704  24.415  1.00  0.00    -0.261 OA
BRANCH  18  25
ATOM     25  C   UNL A   1      34.209  21.298  25.912  1.00  0.00    -0.021 A 
ATOM     26  C   UNL A   1      32.601  19.422  25.171  1.00  0.00     0.045 C 
ATOM     27  C   UNL A   1      33.942  20.096  25.242  1.00  0.00    -0.044 A 
ATOM     28  C   UNL A   1      35.012  19.434  24.626  1.00  0.00     0.004 A 
ATOM     29  C   UNL A   1      36.326  19.898  24.731  1.00  0.00     0.000 A 
ATOM     30  C   UNL A   1      35.551  21.730  26.042  1.00  0.00     0.008 A 
ATOM     31  C   UNL A   1      36.606  21.023  25.479  1.00  0.00     0.001 A 
ENDBRANCH  18  25
ENDBRANCH  16  17
ENDBRANCH  13  16
ENDBRANCH   7  12
ENDBRANCH   3   6
ENDBRANCH   1   2
BRANCH   1  32
ATOM     32  C   UNL A   1      32.930  29.783  27.076  1.00  0.00     0.023 C 
BRANCH  32  33
ATOM     33  C   UNL A   1      34.117  30.743  27.140  1.00  0.00     0.023 C 
BRANCH  33  34
ATOM     34  C   UNL A   1      34.388  31.442  28.458  1.00  0.00     0.116 C 
BRANCH  34  35
ATOM     35  N   UNL A   1      35.615  32.216  28.510  1.00  0.00    -0.352 N 
ATOM     36  C   UNL A   1      36.922  31.822  28.750  1.00  0.00     0.251 C 
ATOM     37  H   UNL A   1      35.500  33.182  28.348  1.00  0.00     0.163 HD
ATOM     38  O   UNL A   1      37.765  32.698  28.941  1.00  0.00    -0.269 OA
BRANCH  36  39
ATOM     39  C   UNL A   1      37.370  30.399  28.661  1.00  0.00     0.039 A 
ATOM     40  C   UNL A   1      37.026  29.495  29.691  1.00  0.00     0.014 A 
ATOM     41  C   UNL A   1      38.279  29.972  27.717  1.00  0.00     0.014 A 
ATOM     42  C   UNL A   1      37.842  28.381  29.963  1.00  0.00     0.010 A 
ATOM     43  C   UNL A   1      38.986  28.825  27.926  1.00  0.00     0.010 A 
ATOM     44  C   UNL A   1      38.926  28.161  29.136  1.00  0.00    -0.014 A 
BRANCH  44  45
ATOM     45  C   UNL A   1      40.252  27.613  29.433  1.00  0.00     0.031 A 
ATOM     46  C   UNL A   1      40.718  26.374  28.786  1.00  0.00     0.074 A 
ATOM     47  C   UNL A   1      41.180  28.564  29.739  1.00  0.00     0.049 A 
ATOM     48  N   UNL A   1      41.865  25.840  29.013  1.00  0.00    -0.248 NA
ATOM     49  C   UNL A   1      39.959  25.680  27.753  1.00  0.00     0.031 C 
ATOM     50  C   UNL A   1      42.631  28.575  29.541  1.00  0.00     0.029 A 
ATOM     51  N   UNL A   1      40.948  29.781  30.383  1.00  0.00    -0.354 N 
ATOM     52  C   UNL A   1      42.135  24.968  27.982  1.00  0.00     0.074 A 
ATOM     53  C   UNL A   1      40.882  24.835  27.276  1.00  0.00     0.031 C 
ATOM     54  C   UNL A   1      43.172  29.533  30.317  1.00  0.00     0.029 A 
ATOM     55  C   UNL A   1      42.105  30.067  31.141  1.00  0.00     0.049 A 
ATOM     56  H   UNL A   1      40.137  30.333  30.320  1.00  0.00     0.167 HD
ATOM     57  C   UNL A   1      43.425  24.560  27.796  1.00  0.00     0.031 A 
ATOM     58  C   UNL A   1      42.010  29.928  32.500  1.00  0.00     0.031 A 
ATOM     59  C   UNL A   1      44.314  25.124  28.825  1.00  0.00     0.049 A 
ATOM     60  C   UNL A   1      42.711  28.678  33.017  1.00  0.00     0.074 A 
ATOM     61  C   UNL A   1      45.308  26.089  28.840  1.00  0.00     0.029 A 
ATOM     62  N   UNL A   1      43.994  24.897  30.156  1.00  0.00    -0.354 N 
ATOM     63  N   UNL A   1      43.403  27.854  32.276  1.00  0.00    -0.248 NA
ATOM     64  C   UNL A   1      42.628  28.223  34.403  1.00  0.00     0.031 C 
ATOM     65  C   UNL A   1      45.513  26.488  30.199  1.00  0.00     0.029 A 
ATOM     66  C   UNL A   1      44.686  25.730  31.010  1.00  0.00     0.049 A 
ATOM     67  H   UNL A   1      43.347  24.217  30.455  1.00  0.00     0.167 HD
ATOM     68  C   UNL A   1      43.753  26.747  33.000  1.00  0.00     0.074 A 
ATOM     69  C   UNL A   1      43.250  27.031  34.334  1.00  0.00     0.031 C 
ATOM     70  C   UNL A   1      44.390  25.669  32.441  1.00  0.00     0.031 A 
BRANCH  57  71
ATOM     71  C   UNL A   1      43.946  23.763  26.618  1.00  0.00    -0.014 A 
ATOM     72  C   UNL A   1      45.053  22.909  26.798  1.00  0.00     0.009 A 
ATOM     73  C   UNL A   1      43.418  23.798  25.315  1.00  0.00     0.009 A 
ATOM     74  C   UNL A   1      45.617  22.176  25.742  1.00  0.00     0.001 A 
ATOM     75  C   UNL A   1      43.979  23.074  24.252  1.00  0.00     0.001 A 
ATOM     76  C   UNL A   1      45.085  22.266  24.464  1.00  0.00     0.000 A 
ENDBRANCH  57  71
BRANCH  58  77
ATOM     77  C   UNL A   1      40.697  30.488  32.978  1.00  0.00    -0.014 A 
ATOM     78  C   UNL A   1      40.357  31.780  32.509  1.00  0.00     0.009 A 
ATOM     79  C   UNL A   1      39.657  29.629  33.365  1.00  0.00     0.009 A 
ATOM     80  C   UNL A   1      39.026  32.117  32.235  1.00  0.00     0.001 A 
ATOM     81  C   UNL A   1      38.322  29.994  33.129  1.00  0.00     0.001 A 
ATOM     82  C   UNL A   1      38.013  31.205  32.508  1.00  0.00     0.000 A 
ENDBRANCH  58  77
BRANCH  70  83
ATOM     83  C   UNL A   1      44.755  24.419  33.209  1.00  0.00    -0.014 A 
ATOM     84  C   UNL A   1      43.845  23.383  33.444  1.00  0.00     0.009 A 
ATOM     85  C   UNL A   1      46.024  24.286  33.816  1.00  0.00     0.009 A 
ATOM     86  C   UNL A   1      44.215  22.230  34.149  1.00  0.00     0.001 A 
ATOM     87  C   UNL A   1      46.391  23.153  34.546  1.00  0.00     0.001 A 
ATOM     88  C   UNL A   1      45.491  22.111  34.692  1.00  0.00     0.000 A 
ENDBRANCH  70  83
ENDBRANCH  44  45
ENDBRANCH  36  39
ENDBRANCH  34  35
ENDBRANCH  33  34
ENDBRANCH  32  33
ENDBRANCH   1  32
TORSDOF 15
ENDMDL
MODEL 3
REMARK VINA RESULT:     -12.9      3.449      7.285
REMARK SMILES Cc1ccccc1/C=C1\SC(=O)N(CC(=O)Nc2ccccc2C(=O)NCCCCNC(=O)c2ccc(-c3c4nc(c(-c5ccccc5)c5ccc([nH]5)c(-c5ccccc5)c5nc(c(-c6ccccc6)c6ccc3[nH]6)C=C5)C=C4)cc2)C1=O
REMARK SMILES IDX 27 1 26 2 24 3 25 4 23 6 18 7 19 8 20 9 22 10 21 11 17 12
REMARK SMILES IDX 15 13 16 14 14 16 13 17 8 18 9 19 10 20 82 21 11 22 83 23
REMARK SMILES IDX 12 24 7 25 1 26 2 27 3 28 4 29 6 30 5 31 28 32 29 33 30 34
REMARK SMILES IDX 31 35 32 36 33 38 34 39 35 40 81 41 36 42 80 43 37 44 38 45
REMARK SMILES IDX 39 46 74 47 40 48 79 49 73 50 75 51 41 52 78 53 72 54 71 55
REMARK SMILES IDX 42 57 64 58 49 59 63 60 50 61 53 62 62 63 76 64 51 65 52 66
REMARK SMILES IDX 61 68 77 69 54 70 43 71 44 72 48 73 45 74 47 75 46 76 65 77
REMARK SMILES IDX 66 78 70 79 67 80 69 81 68 82 55 83 56 84 60 85 57 86 59 87
REMARK SMILES IDX 58 88
REMARK H PARENT 26 5 17 15 31 37 75 56 53 67
REMARK Flexibility Score: inf
ROOT
ATOM      1  C   UNL A   1      35.928  23.100  26.075  1.00  0.00     0.116 C 
ENDROOT
BRANCH   1   2
ATOM      2  N   UNL A   1      35.409  21.747  25.856  1.00  0.00    -0.352 N 
ATOM      3  C   UNL A   1      34.152  21.218  25.590  1.00  0.00     0.253 C 
ATOM      4  O   UNL A   1      34.090  20.029  25.281  1.00  0.00    -0.269 OA
ATOM      5  H   UNL A   1      36.108  21.057  25.910  1.00  0.00     0.163 HD
BRANCH   3   6
ATOM      6  C   UNL A   1      32.885  21.992  25.666  1.00  0.00     0.063 A 
ATOM      7  C   UNL A   1      32.236  22.566  24.543  1.00  0.00     0.054 A 
ATOM      8  C   UNL A   1      31.108  23.389  24.756  1.00  0.00     0.027 A 
ATOM      9  C   UNL A   1      30.609  23.639  26.032  1.00  0.00     0.002 A 
ATOM     10  C   UNL A   1      32.436  22.380  26.943  1.00  0.00     0.016 A 
ATOM     11  C   UNL A   1      31.288  23.149  27.132  1.00  0.00     0.001 A 
BRANCH   7  12
ATOM     12  N   UNL A   1      32.755  22.700  23.239  1.00  0.00    -0.324 N 
ATOM     13  C   UNL A   1      33.651  23.526  22.641  1.00  0.00     0.244 C 
ATOM     14  O   UNL A   1      33.993  23.215  21.492  1.00  0.00    -0.273 OA
ATOM     15  H   UNL A   1      32.377  22.040  22.615  1.00  0.00     0.170 HD
BRANCH  13  16
ATOM     16  C   UNL A   1      34.324  24.699  23.329  1.00  0.00     0.230 C 
BRANCH  16  17
ATOM     17  N   UNL A   1      33.441  25.806  23.572  1.00  0.00    -0.259 N 
ATOM     18  C   UNL A   1      30.818  27.736  22.407  1.00  0.00     0.029 C 
ATOM     19  C   UNL A   1      31.917  27.494  23.131  1.00  0.00     0.083 C 
ATOM     20  S   UNL A   1      32.186  27.651  24.805  1.00  0.00    -0.022 SA
ATOM     21  C   UNL A   1      32.972  26.618  22.558  1.00  0.00     0.268 C 
ATOM     22  C   UNL A   1      33.193  26.227  24.839  1.00  0.00     0.294 C 
ATOM     23  O   UNL A   1      33.323  26.636  21.393  1.00  0.00    -0.268 OA
ATOM     24  O   UNL A   1      33.609  25.736  25.886  1.00  0.00    -0.261 OA
BRANCH  18  25
ATOM     25  C   UNL A   1      29.467  28.127  22.841  1.00  0.00    -0.021 A 
ATOM     26  C   UNL A   1      29.459  30.574  22.023  1.00  0.00     0.045 C 
ATOM     27  C   UNL A   1      28.810  29.337  22.574  1.00  0.00    -0.044 A 
ATOM     28  C   UNL A   1      27.447  29.428  22.888  1.00  0.00     0.004 A 
ATOM     29  C   UNL A   1      26.764  28.387  23.523  1.00  0.00     0.000 A 
ATOM     30  C   UNL A   1      28.769  27.100  23.519  1.00  0.00     0.008 A 
ATOM     31  C   UNL A   1      27.434  27.235  23.881  1.00  0.00     0.001 A 
ENDBRANCH  18  25
ENDBRANCH  16  17
ENDBRANCH  13  16
ENDBRANCH   7  12
ENDBRANCH   3   6
ENDBRANCH   1   2
BRANCH   1  32
ATOM     32  C   UNL A   1      37.435  23.342  25.915  1.00  0.00     0.023 C 
BRANCH  32  33
ATOM     33  C   UNL A   1      38.396  22.166  25.751  1.00  0.00     0.023 C 
BRANCH  33  34
ATOM     34  C   UNL A   1      39.673  22.179  26.568  1.00  0.00     0.116 C 
BRANCH  34  35
ATOM     35  N   UNL A   1      40.892  21.923  25.821  1.00  0.00    -0.352 N 
ATOM     36  C   UNL A   1      42.158  22.471  25.945  1.00  0.00     0.251 C 
ATOM     37  H   UNL A   1      40.803  21.249  25.108  1.00  0.00     0.163 HD
ATOM     38  O   UNL A   1      42.980  22.237  25.058  1.00  0.00    -0.269 OA
BRANCH  36  39
ATOM     39  C   UNL A   1      42.604  23.222  27.158  1.00  0.00     0.039 A 
ATOM     40  C   UNL A   1      42.542  24.633  27.166  1.00  0.00     0.014 A 
ATOM     41  C   UNL A   1      43.264  22.608  28.201  1.00  0.00     0.014 A 
ATOM     42  C   UNL A   1      43.424  25.380  27.967  1.00  0.00     0.010 A 
ATOM     43  C   UNL A   1      44.027  23.352  29.051  1.00  0.00     0.010 A 
ATOM     44  C   UNL A   1      44.279  24.687  28.801  1.00  0.00    -0.014 A 
BRANCH  44  45
ATOM     45  C   UNL A   1      45.650  24.989  29.223  1.00  0.00     0.031 A 
ATOM     46  C   UNL A   1      46.784  24.784  28.307  1.00  0.00     0.074 A 
ATOM     47  C   UNL A   1      45.730  26.010  30.124  1.00  0.00     0.049 A 
ATOM     48  N   UNL A   1      48.007  25.021  28.622  1.00  0.00    -0.248 NA
ATOM     49  C   UNL A   1      46.622  24.377  26.916  1.00  0.00     0.031 C 
ATOM     50  C   UNL A   1      46.798  26.982  30.366  1.00  0.00     0.029 A 
ATOM     51  N   UNL A   1      44.785  26.344  31.096  1.00  0.00    -0.354 N 
ATOM     52  C   UNL A   1      48.733  25.117  27.456  1.00  0.00     0.074 A 
ATOM     53  C   UNL A   1      47.846  24.617  26.431  1.00  0.00     0.031 C 
ATOM     54  C   UNL A   1      46.610  27.550  31.571  1.00  0.00     0.029 A 
ATOM     55  C   UNL A   1      45.500  26.859  32.199  1.00  0.00     0.049 A 
ATOM     56  H   UNL A   1      43.809  26.241  31.026  1.00  0.00     0.167 HD
ATOM     57  C   UNL A   1      49.959  25.718  27.499  1.00  0.00     0.031 A 
ATOM     58  C   UNL A   1      45.592  26.063  33.310  1.00  0.00     0.031 A 
ATOM     59  C   UNL A   1      50.303  26.120  28.873  1.00  0.00     0.049 A 
ATOM     60  C   UNL A   1      46.969  25.435  33.476  1.00  0.00     0.074 A 
ATOM     61  C   UNL A   1      50.409  27.329  29.542  1.00  0.00     0.029 A 
ATOM     62  N   UNL A   1      50.282  25.147  29.860  1.00  0.00    -0.354 N 
ATOM     63  N   UNL A   1      47.994  25.675  32.702  1.00  0.00    -0.248 NA
ATOM     64  C   UNL A   1      47.280  24.430  34.491  1.00  0.00     0.031 C 
ATOM     65  C   UNL A   1      50.369  27.058  30.947  1.00  0.00     0.029 A 
ATOM     66  C   UNL A   1      50.294  25.688  31.129  1.00  0.00     0.049 A 
ATOM     67  H   UNL A   1      50.263  24.179  29.676  1.00  0.00     0.167 HD
ATOM     68  C   UNL A   1      49.026  24.829  33.005  1.00  0.00     0.074 A 
ATOM     69  C   UNL A   1      48.530  24.072  34.144  1.00  0.00     0.031 C 
ATOM     70  C   UNL A   1      50.186  24.788  32.276  1.00  0.00     0.031 A 
BRANCH  57  71
ATOM     71  C   UNL A   1      50.814  26.082  26.304  1.00  0.00    -0.014 A 
ATOM     72  C   UNL A   1      50.439  27.172  25.494  1.00  0.00     0.009 A 
ATOM     73  C   UNL A   1      51.985  25.412  25.909  1.00  0.00     0.009 A 
ATOM     74  C   UNL A   1      51.158  27.538  24.345  1.00  0.00     0.001 A 
ATOM     75  C   UNL A   1      52.708  25.767  24.759  1.00  0.00     0.001 A 
ATOM     76  C   UNL A   1      52.290  26.828  23.971  1.00  0.00     0.000 A 
ENDBRANCH  57  71
BRANCH  58  77
ATOM     77  C   UNL A   1      44.264  25.406  33.575  1.00  0.00    -0.014 A 
ATOM     78  C   UNL A   1      44.188  24.016  33.317  1.00  0.00     0.009 A 
ATOM     79  C   UNL A   1      43.373  25.955  34.511  1.00  0.00     0.009 A 
ATOM     80  C   UNL A   1      43.403  23.179  34.118  1.00  0.00     0.001 A 
ATOM     81  C   UNL A   1      42.554  25.112  35.278  1.00  0.00     0.001 A 
ATOM     82  C   UNL A   1      42.618  23.726  35.126  1.00  0.00     0.000 A 
ENDBRANCH  58  77
BRANCH  70  83
ATOM     83  C   UNL A   1      51.326  23.838  32.568  1.00  0.00    -0.014 A 
ATOM     84  C   UNL A   1      51.134  22.466  32.772  1.00  0.00     0.009 A 
ATOM     85  C   UNL A   1      52.643  24.317  32.746  1.00  0.00     0.009 A 
ATOM     86  C   UNL A   1      52.211  21.607  33.028  1.00  0.00     0.001 A 
ATOM     87  C   UNL A   1      53.717  23.472  33.031  1.00  0.00     0.001 A 
ATOM     88  C   UNL A   1      53.504  22.109  33.148  1.00  0.00     0.000 A 
ENDBRANCH  70  83
ENDBRANCH  44  45
ENDBRANCH  36  39
ENDBRANCH  34  35
ENDBRANCH  33  34
ENDBRANCH  32  33
ENDBRANCH   1  32
TORSDOF 15
ENDMDL
