MODEL 1
REMARK VINA RESULT:     -10.5      0.000      0.000
REMARK SMILES O=C(NCCCCNC(=O)[C@H](CO)NC(=O)[C@H](CS)NC(=O)c1ccc(F)cc1)c1ccc(-c2c3nc(c(-c4ccccc4)c4ccc([nH]4)c(-c4ccccc4)c4nc(c(-c5ccccc5)c5ccc2[nH]5)C=C4)C=C3)cc1
REMARK SMILES IDX 6 1 5 2 4 3 3 4 1 5 2 6 30 8 31 9 77 10 32 11 76 12 33 13
REMARK SMILES IDX 34 14 35 15 70 16 36 17 75 18 69 19 71 20 37 21 74 22 68 23
REMARK SMILES IDX 67 24 38 26 60 27 45 28 59 29 46 30 49 31 58 32 72 33 47 34
REMARK SMILES IDX 48 35 57 37 73 38 50 39 39 40 40 41 44 42 41 43 43 44 42 45
REMARK SMILES IDX 61 46 62 47 66 48 63 49 65 50 64 51 51 52 52 53 56 54 53 55
REMARK SMILES IDX 55 56 54 57 7 58 8 59 9 60 10 62 11 63 14 64 15 65 16 67
REMARK SMILES IDX 17 68 20 69 21 70 22 72 23 73 24 74 29 75 25 76 28 77 26 78
REMARK SMILES IDX 27 79 18 80 19 81 12 83 13 84
REMARK H PARENT 3 7 71 25 49 36 8 61 14 66 20 71 19 82 13 85
REMARK Flexibility Score: inf
ROOT
ATOM      1  C   UNL A   1      37.223  21.414  24.330  1.00  0.00     0.023 C 
ENDROOT
BRANCH   1   2
ATOM      2  C   UNL A   1      37.806  20.178  24.983  1.00  0.00     0.023 C 
BRANCH   2   3
ATOM      3  C   UNL A   1      38.974  20.452  25.910  1.00  0.00     0.116 C 
BRANCH   3   4
ATOM      4  N   UNL A   1      40.034  19.455  25.825  1.00  0.00    -0.352 N 
ATOM      5  O   UNL A   1      42.165  18.683  25.884  1.00  0.00    -0.269 OA
ATOM      6  C   UNL A   1      41.376  19.597  26.091  1.00  0.00     0.251 C 
ATOM      7  H   UNL A   1      39.752  18.556  25.539  1.00  0.00     0.163 HD
BRANCH   6   8
ATOM      8  C   UNL A   1      41.857  20.894  26.599  1.00  0.00     0.039 A 
ATOM      9  C   UNL A   1      41.785  21.173  27.964  1.00  0.00     0.014 A 
ATOM     10  C   UNL A   1      42.300  21.860  25.694  1.00  0.00     0.014 A 
ATOM     11  C   UNL A   1      41.972  22.471  28.403  1.00  0.00     0.010 A 
ATOM     12  C   UNL A   1      42.605  23.139  26.158  1.00  0.00     0.010 A 
ATOM     13  C   UNL A   1      42.407  23.462  27.509  1.00  0.00    -0.014 A 
BRANCH  13  14
ATOM     14  C   UNL A   1      42.734  24.808  28.030  1.00  0.00     0.031 A 
ATOM     15  C   UNL A   1      44.132  25.173  28.430  1.00  0.00     0.074 A 
ATOM     16  C   UNL A   1      41.733  25.702  28.137  1.00  0.00     0.049 A 
ATOM     17  N   UNL A   1      44.566  26.287  28.964  1.00  0.00    -0.248 NA
ATOM     18  C   UNL A   1      45.177  24.160  28.217  1.00  0.00     0.031 C 
ATOM     19  C   UNL A   1      40.334  25.448  27.775  1.00  0.00     0.029 A 
ATOM     20  N   UNL A   1      41.733  27.000  28.572  1.00  0.00    -0.354 N 
ATOM     21  C   UNL A   1      45.923  26.096  29.187  1.00  0.00     0.074 A 
ATOM     22  C   UNL A   1      46.242  24.758  28.737  1.00  0.00     0.031 C 
ATOM     23  C   UNL A   1      39.621  26.563  27.968  1.00  0.00     0.029 A 
ATOM     24  C   UNL A   1      40.489  27.579  28.545  1.00  0.00     0.049 A 
ATOM     25  H   UNL A   1      42.543  27.469  28.874  1.00  0.00     0.167 HD
ATOM     26  C   UNL A   1      46.815  26.959  29.729  1.00  0.00     0.031 A 
ATOM     27  C   UNL A   1      40.076  28.782  28.979  1.00  0.00     0.031 A 
ATOM     28  C   UNL A   1      46.483  28.290  30.167  1.00  0.00     0.049 A 
ATOM     29  C   UNL A   1      41.075  29.708  29.594  1.00  0.00     0.074 A 
ATOM     30  C   UNL A   1      47.320  29.261  30.691  1.00  0.00     0.029 A 
ATOM     31  N   UNL A   1      45.207  28.834  30.140  1.00  0.00    -0.354 N 
ATOM     32  N   UNL A   1      42.359  29.522  29.779  1.00  0.00    -0.248 NA
ATOM     33  C   UNL A   1      40.572  31.004  30.064  1.00  0.00     0.031 C 
ATOM     34  C   UNL A   1      46.542  30.374  31.024  1.00  0.00     0.029 A 
ATOM     35  C   UNL A   1      45.228  30.117  30.663  1.00  0.00     0.049 A 
ATOM     36  H   UNL A   1      44.405  28.376  29.800  1.00  0.00     0.167 HD
ATOM     37  C   UNL A   1      42.824  30.679  30.384  1.00  0.00     0.074 A 
ATOM     38  C   UNL A   1      41.685  31.568  30.517  1.00  0.00     0.031 C 
ATOM     39  C   UNL A   1      44.080  30.977  30.794  1.00  0.00     0.031 A 
BRANCH  26  40
ATOM     40  C   UNL A   1      48.224  26.472  29.922  1.00  0.00    -0.014 A 
ATOM     41  C   UNL A   1      49.210  26.660  28.941  1.00  0.00     0.009 A 
ATOM     42  C   UNL A   1      48.576  25.833  31.122  1.00  0.00     0.009 A 
ATOM     43  C   UNL A   1      50.509  26.185  29.143  1.00  0.00     0.001 A 
ATOM     44  C   UNL A   1      49.881  25.382  31.332  1.00  0.00     0.001 A 
ATOM     45  C   UNL A   1      50.844  25.549  30.339  1.00  0.00     0.000 A 
ENDBRANCH  26  40
BRANCH  27  46
ATOM     46  C   UNL A   1      38.638  29.127  28.871  1.00  0.00    -0.014 A 
ATOM     47  C   UNL A   1      37.783  28.981  29.971  1.00  0.00     0.009 A 
ATOM     48  C   UNL A   1      38.137  29.697  27.688  1.00  0.00     0.009 A 
ATOM     49  C   UNL A   1      36.452  29.398  29.887  1.00  0.00     0.001 A 
ATOM     50  C   UNL A   1      36.815  30.138  27.617  1.00  0.00     0.001 A 
ATOM     51  C   UNL A   1      35.973  29.985  28.716  1.00  0.00     0.000 A 
ENDBRANCH  27  46
BRANCH  39  52
ATOM     52  C   UNL A   1      44.288  32.330  31.406  1.00  0.00    -0.014 A 
ATOM     53  C   UNL A   1      44.189  32.519  32.793  1.00  0.00     0.009 A 
ATOM     54  C   UNL A   1      44.630  33.417  30.588  1.00  0.00     0.009 A 
ATOM     55  C   UNL A   1      44.408  33.781  33.347  1.00  0.00     0.001 A 
ATOM     56  C   UNL A   1      44.872  34.671  31.149  1.00  0.00     0.001 A 
ATOM     57  C   UNL A   1      44.755  34.854  32.525  1.00  0.00     0.000 A 
ENDBRANCH  39  52
ENDBRANCH  13  14
ENDBRANCH   6   8
ENDBRANCH   3   4
ENDBRANCH   2   3
ENDBRANCH   1   2
BRANCH   1  58
ATOM     58  C   UNL A   1      36.519  22.392  25.267  1.00  0.00     0.116 C 
BRANCH  58  59
ATOM     59  N   UNL A   1      35.623  21.733  26.196  1.00  0.00    -0.354 N 
ATOM     60  C   UNL A   1      34.261  21.726  26.290  1.00  0.00     0.244 C 
ATOM     61  H   UNL A   1      36.078  21.192  26.882  1.00  0.00     0.163 HD
ATOM     62  O   UNL A   1      33.788  21.049  27.210  1.00  0.00    -0.273 OA
BRANCH  60  63
ATOM     63  C   UNL A   1      33.348  22.667  25.455  1.00  0.00     0.197 C 
BRANCH  63  64
ATOM     64  N   UNL A   1      33.578  22.647  24.008  1.00  0.00    -0.340 N 
ATOM     65  C   UNL A   1      33.353  23.578  23.038  1.00  0.00     0.244 C 
ATOM     66  H   UNL A   1      33.968  21.806  23.674  1.00  0.00     0.164 HD
ATOM     67  O   UNL A   1      33.746  23.320  21.896  1.00  0.00    -0.273 OA
BRANCH  65  68
ATOM     68  C   UNL A   1      32.742  24.958  23.368  1.00  0.00     0.181 C 
BRANCH  68  69
ATOM     69  N   UNL A   1      33.517  25.958  22.610  1.00  0.00    -0.339 N 
ATOM     70  C   UNL A   1      33.622  27.322  22.680  1.00  0.00     0.251 C 
ATOM     71  H   UNL A   1      34.078  25.561  21.904  1.00  0.00     0.164 HD
ATOM     72  O   UNL A   1      34.152  27.906  21.736  1.00  0.00    -0.269 OA
BRANCH  70  73
ATOM     73  C   UNL A   1      33.204  28.128  23.860  1.00  0.00     0.040 A 
ATOM     74  C   UNL A   1      32.025  28.877  23.875  1.00  0.00     0.017 A 
ATOM     75  C   UNL A   1      33.896  27.957  25.069  1.00  0.00     0.017 A 
ATOM     76  C   UNL A   1      31.553  29.476  25.045  1.00  0.00     0.040 A 
ATOM     77  C   UNL A   1      33.425  28.547  26.248  1.00  0.00     0.040 A 
ATOM     78  C   UNL A   1      32.260  29.304  26.225  1.00  0.00     0.123 A 
ATOM     79  F   UNL A   1      31.787  29.837  27.357  1.00  0.00    -0.207 F 
ENDBRANCH  70  73
ENDBRANCH  68  69
BRANCH  68  80
ATOM     80  C   UNL A   1      31.274  24.951  22.898  1.00  0.00     0.101 C 
BRANCH  80  81
ATOM     81  S   UNL A   1      30.174  25.689  24.154  1.00  0.00    -0.177 SA
ATOM     82  H   UNL A   1      29.275  26.507  23.545  1.00  0.00     0.102 HD
ENDBRANCH  80  81
ENDBRANCH  68  80
ENDBRANCH  65  68
ENDBRANCH  63  64
BRANCH  63  83
ATOM     83  C   UNL A   1      31.870  22.346  25.748  1.00  0.00     0.191 C 
BRANCH  83  84
ATOM     84  O   UNL A   1      31.591  20.969  25.505  1.00  0.00    -0.394 OA
ATOM     85  H   UNL A   1      30.835  20.691  26.046  1.00  0.00     0.210 HD
ENDBRANCH  83  84
ENDBRANCH  63  83
ENDBRANCH  60  63
ENDBRANCH  58  59
ENDBRANCH   1  58
TORSDOF 19
ENDMDL
MODEL 2
REMARK VINA RESULT:     -10.4      3.555      8.936
REMARK SMILES O=C(NCCCCNC(=O)[C@H](CO)NC(=O)[C@H](CS)NC(=O)c1ccc(F)cc1)c1ccc(-c2c3nc(c(-c4ccccc4)c4ccc([nH]4)c(-c4ccccc4)c4nc(c(-c5ccccc5)c5ccc2[nH]5)C=C4)C=C3)cc1
REMARK SMILES IDX 6 1 5 2 4 3 3 4 1 5 2 6 30 8 31 9 77 10 32 11 76 12 33 13
REMARK SMILES IDX 34 14 35 15 70 16 36 17 75 18 69 19 71 20 37 21 74 22 68 23
REMARK SMILES IDX 67 24 38 26 60 27 45 28 59 29 46 30 49 31 58 32 72 33 47 34
REMARK SMILES IDX 48 35 57 37 73 38 50 39 39 40 40 41 44 42 41 43 43 44 42 45
REMARK SMILES IDX 61 46 62 47 66 48 63 49 65 50 64 51 51 52 52 53 56 54 53 55
REMARK SMILES IDX 55 56 54 57 7 58 8 59 9 60 10 62 11 63 14 64 15 65 16 67
REMARK SMILES IDX 17 68 20 69 21 70 22 72 23 73 24 74 29 75 25 76 28 77 26 78
REMARK SMILES IDX 27 79 18 80 19 81 12 83 13 84
REMARK H PARENT 3 7 71 25 49 36 8 61 14 66 20 71 19 82 13 85
REMARK Flexibility Score: inf
ROOT
ATOM      1  C   UNL A   1      31.869  30.217  26.388  1.00  0.00     0.023 C 
ENDROOT
BRANCH   1   2
ATOM      2  C   UNL A   1      31.617  31.684  26.669  1.00  0.00     0.023 C 
BRANCH   2   3
ATOM      3  C   UNL A   1      32.792  32.412  27.293  1.00  0.00     0.116 C 
BRANCH   3   4
ATOM      4  N   UNL A   1      32.475  33.766  27.731  1.00  0.00    -0.352 N 
ATOM      5  O   UNL A   1      32.720  35.663  28.948  1.00  0.00    -0.269 OA
ATOM      6  C   UNL A   1      33.163  34.573  28.606  1.00  0.00     0.251 C 
ATOM      7  H   UNL A   1      31.657  34.157  27.347  1.00  0.00     0.163 HD
BRANCH   6   8
ATOM      8  C   UNL A   1      34.438  34.082  29.159  1.00  0.00     0.039 A 
ATOM      9  C   UNL A   1      35.634  34.363  28.497  1.00  0.00     0.014 A 
ATOM     10  C   UNL A   1      34.423  33.270  30.294  1.00  0.00     0.014 A 
ATOM     11  C   UNL A   1      36.783  33.680  28.852  1.00  0.00     0.010 A 
ATOM     12  C   UNL A   1      35.609  32.678  30.724  1.00  0.00     0.010 A 
ATOM     13  C   UNL A   1      36.789  32.850  29.984  1.00  0.00    -0.014 A 
BRANCH  13  14
ATOM     14  C   UNL A   1      38.065  32.242  30.424  1.00  0.00     0.031 A 
ATOM     15  C   UNL A   1      38.588  30.984  29.796  1.00  0.00     0.074 A 
ATOM     16  C   UNL A   1      38.746  32.851  31.411  1.00  0.00     0.049 A 
ATOM     17  N   UNL A   1      39.653  30.293  30.113  1.00  0.00    -0.248 NA
ATOM     18  C   UNL A   1      37.815  30.421  28.677  1.00  0.00     0.031 C 
ATOM     19  C   UNL A   1      38.324  34.081  32.091  1.00  0.00     0.029 A 
ATOM     20  N   UNL A   1      39.933  32.531  32.011  1.00  0.00    -0.354 N 
ATOM     21  C   UNL A   1      39.658  29.194  29.263  1.00  0.00     0.074 A 
ATOM     22  C   UNL A   1      38.488  29.307  28.420  1.00  0.00     0.031 C 
ATOM     23  C   UNL A   1      39.255  34.429  32.987  1.00  0.00     0.029 A 
ATOM     24  C   UNL A   1      40.291  33.407  33.005  1.00  0.00     0.049 A 
ATOM     25  H   UNL A   1      40.475  31.750  31.755  1.00  0.00     0.167 HD
ATOM     26  C   UNL A   1      40.557  28.183  29.205  1.00  0.00     0.031 A 
ATOM     27  C   UNL A   1      41.317  33.373  33.872  1.00  0.00     0.031 A 
ATOM     28  C   UNL A   1      41.720  28.089  30.048  1.00  0.00     0.049 A 
ATOM     29  C   UNL A   1      42.282  32.233  33.802  1.00  0.00     0.074 A 
ATOM     30  C   UNL A   1      42.716  27.127  30.042  1.00  0.00     0.029 A 
ATOM     31  N   UNL A   1      42.038  28.987  31.056  1.00  0.00    -0.354 N 
ATOM     32  N   UNL A   1      42.286  31.213  32.980  1.00  0.00    -0.248 NA
ATOM     33  C   UNL A   1      43.377  32.235  34.779  1.00  0.00     0.031 C 
ATOM     34  C   UNL A   1      43.610  27.419  31.077  1.00  0.00     0.029 A 
ATOM     35  C   UNL A   1      43.200  28.589  31.697  1.00  0.00     0.049 A 
ATOM     36  H   UNL A   1      41.515  29.790  31.283  1.00  0.00     0.167 HD
ATOM     37  C   UNL A   1      43.387  30.448  33.334  1.00  0.00     0.074 A 
ATOM     38  C   UNL A   1      44.036  31.135  34.434  1.00  0.00     0.031 C 
ATOM     39  C   UNL A   1      43.819  29.283  32.796  1.00  0.00     0.031 A 
BRANCH  26  40
ATOM     40  C   UNL A   1      40.288  27.072  28.228  1.00  0.00    -0.014 A 
ATOM     41  C   UNL A   1      40.812  27.092  26.926  1.00  0.00     0.009 A 
ATOM     42  C   UNL A   1      39.515  25.971  28.629  1.00  0.00     0.009 A 
ATOM     43  C   UNL A   1      40.536  26.051  26.036  1.00  0.00     0.001 A 
ATOM     44  C   UNL A   1      39.261  24.919  27.746  1.00  0.00     0.001 A 
ATOM     45  C   UNL A   1      39.763  24.965  26.446  1.00  0.00     0.000 A 
ENDBRANCH  26  40
BRANCH  27  46
ATOM     46  C   UNL A   1      41.428  34.443  34.893  1.00  0.00    -0.014 A 
ATOM     47  C   UNL A   1      42.131  35.623  34.620  1.00  0.00     0.009 A 
ATOM     48  C   UNL A   1      40.746  34.322  36.117  1.00  0.00     0.009 A 
ATOM     49  C   UNL A   1      42.150  36.662  35.553  1.00  0.00     0.001 A 
ATOM     50  C   UNL A   1      40.744  35.373  37.034  1.00  0.00     0.001 A 
ATOM     51  C   UNL A   1      41.448  36.541  36.753  1.00  0.00     0.000 A 
ENDBRANCH  27  46
BRANCH  39  52
ATOM     52  C   UNL A   1      45.066  28.690  33.382  1.00  0.00    -0.014 A 
ATOM     53  C   UNL A   1      45.000  27.742  34.414  1.00  0.00     0.009 A 
ATOM     54  C   UNL A   1      46.318  29.053  32.863  1.00  0.00     0.009 A 
ATOM     55  C   UNL A   1      46.170  27.184  34.932  1.00  0.00     0.001 A 
ATOM     56  C   UNL A   1      47.483  28.475  33.367  1.00  0.00     0.001 A 
ATOM     57  C   UNL A   1      47.409  27.547  34.404  1.00  0.00     0.000 A 
ENDBRANCH  39  52
ENDBRANCH  13  14
ENDBRANCH   6   8
ENDBRANCH   3   4
ENDBRANCH   2   3
ENDBRANCH   1   2
BRANCH   1  58
ATOM     58  C   UNL A   1      31.438  29.721  25.011  1.00  0.00     0.116 C 
BRANCH  58  59
ATOM     59  N   UNL A   1      32.560  29.470  24.128  1.00  0.00    -0.354 N 
ATOM     60  C   UNL A   1      32.903  28.375  23.388  1.00  0.00     0.244 C 
ATOM     61  H   UNL A   1      33.187  30.226  24.046  1.00  0.00     0.163 HD
ATOM     62  O   UNL A   1      33.939  28.479  22.721  1.00  0.00    -0.273 OA
BRANCH  60  63
ATOM     63  C   UNL A   1      32.186  27.002  23.521  1.00  0.00     0.197 C 
BRANCH  63  64
ATOM     64  N   UNL A   1      31.383  26.825  24.733  1.00  0.00    -0.340 N 
ATOM     65  C   UNL A   1      31.256  25.777  25.595  1.00  0.00     0.244 C 
ATOM     66  H   UNL A   1      30.833  27.608  24.970  1.00  0.00     0.164 HD
ATOM     67  O   UNL A   1      30.569  25.949  26.607  1.00  0.00    -0.273 OA
BRANCH  65  68
ATOM     68  C   UNL A   1      32.035  24.460  25.387  1.00  0.00     0.181 C 
BRANCH  68  69
ATOM     69  N   UNL A   1      32.188  23.842  26.718  1.00  0.00    -0.339 N 
ATOM     70  C   UNL A   1      32.986  22.842  27.208  1.00  0.00     0.251 C 
ATOM     71  H   UNL A   1      31.591  24.231  27.398  1.00  0.00     0.164 HD
ATOM     72  O   UNL A   1      32.701  22.365  28.305  1.00  0.00    -0.269 OA
BRANCH  70  73
ATOM     73  C   UNL A   1      34.218  22.354  26.528  1.00  0.00     0.040 A 
ATOM     74  C   UNL A   1      34.270  21.128  25.861  1.00  0.00     0.017 A 
ATOM     75  C   UNL A   1      35.291  23.243  26.363  1.00  0.00     0.017 A 
ATOM     76  C   UNL A   1      35.365  20.767  25.076  1.00  0.00     0.040 A 
ATOM     77  C   UNL A   1      36.390  22.893  25.570  1.00  0.00     0.040 A 
ATOM     78  C   UNL A   1      36.419  21.657  24.936  1.00  0.00     0.123 A 
ATOM     79  F   UNL A   1      37.450  21.334  24.147  1.00  0.00    -0.207 F 
ENDBRANCH  70  73
ENDBRANCH  68  69
BRANCH  68  80
ATOM     80  C   UNL A   1      31.193  23.550  24.470  1.00  0.00     0.101 C 
BRANCH  80  81
ATOM     81  S   UNL A   1      32.208  22.840  23.130  1.00  0.00    -0.177 SA
ATOM     82  H   UNL A   1      33.353  22.326  23.652  1.00  0.00     0.102 HD
ENDBRANCH  80  81
ENDBRANCH  68  80
ENDBRANCH  65  68
ENDBRANCH  63  64
BRANCH  63  83
ATOM     83  C   UNL A   1      31.310  26.754  22.279  1.00  0.00     0.191 C 
BRANCH  83  84
ATOM     84  O   UNL A   1      30.811  27.984  21.755  1.00  0.00    -0.394 OA
ATOM     85  H   UNL A   1      29.872  28.075  21.981  1.00  0.00     0.210 HD
ENDBRANCH  83  84
ENDBRANCH  63  83
ENDBRANCH  60  63
ENDBRANCH  58  59
ENDBRANCH   1  58
TORSDOF 19
ENDMDL
MODEL 3
REMARK VINA RESULT:     -10.3      0.687      5.918
REMARK SMILES O=C(NCCCCNC(=O)[C@H](CO)NC(=O)[C@H](CS)NC(=O)c1ccc(F)cc1)c1ccc(-c2c3nc(c(-c4ccccc4)c4ccc([nH]4)c(-c4ccccc4)c4nc(c(-c5ccccc5)c5ccc2[nH]5)C=C4)C=C3)cc1
REMARK SMILES IDX 6 1 5 2 4 3 3 4 1 5 2 6 30 8 31 9 77 10 32 11 76 12 33 13
REMARK SMILES IDX 34 14 35 15 70 16 36 17 75 18 69 19 71 20 37 21 74 22 68 23
REMARK SMILES IDX 67 24 38 26 60 27 45 28 59 29 46 30 49 31 58 32 72 33 47 34
REMARK SMILES IDX 48 35 57 37 73 38 50 39 39 40 40 41 44 42 41 43 43 44 42 45
REMARK SMILES IDX 61 46 62 47 66 48 63 49 65 50 64 51 51 52 52 53 56 54 53 55
REMARK SMILES IDX 55 56 54 57 7 58 8 59 9 60 10 62 11 63 14 64 15 65 16 67
REMARK SMILES IDX 17 68 20 69 21 70 22 72 23 73 24 74 29 75 25 76 28 77 26 78
REMARK SMILES IDX 27 79 18 80 19 81 12 83 13 84
REMARK H PARENT 3 7 71 25 49 36 8 61 14 66 20 71 19 82 13 85
REMARK Flexibility Score: inf
ROOT
ATOM      1  C   UNL A   1      37.667  21.697  24.829  1.00  0.00     0.023 C 
ENDROOT
BRANCH   1   2
ATOM      2  C   UNL A   1      38.138  20.258  24.807  1.00  0.00     0.023 C 
BRANCH   2   3
ATOM      3  C   UNL A   1      38.861  19.817  26.064  1.00  0.00     0.116 C 
BRANCH   3   4
ATOM      4  N   UNL A   1      40.128  19.143  25.805  1.00  0.00    -0.352 N 
ATOM      5  O   UNL A   1      42.380  18.962  25.614  1.00  0.00    -0.269 OA
ATOM      6  C   UNL A   1      41.407  19.620  25.965  1.00  0.00     0.251 C 
ATOM      7  H   UNL A   1      40.058  18.220  25.469  1.00  0.00     0.163 HD
BRANCH   6   8
ATOM      8  C   UNL A   1      41.589  20.966  26.536  1.00  0.00     0.039 A 
ATOM      9  C   UNL A   1      41.793  22.056  25.689  1.00  0.00     0.014 A 
ATOM     10  C   UNL A   1      41.638  21.119  27.923  1.00  0.00     0.014 A 
ATOM     11  C   UNL A   1      42.235  23.255  26.219  1.00  0.00     0.010 A 
ATOM     12  C   UNL A   1      41.966  22.363  28.460  1.00  0.00     0.010 A 
ATOM     13  C   UNL A   1      42.303  23.428  27.610  1.00  0.00    -0.014 A 
BRANCH  13  14
ATOM     14  C   UNL A   1      42.644  24.762  28.154  1.00  0.00     0.031 A 
ATOM     15  C   UNL A   1      41.589  25.798  28.403  1.00  0.00     0.074 A 
ATOM     16  C   UNL A   1      43.938  25.022  28.418  1.00  0.00     0.049 A 
ATOM     17  N   UNL A   1      41.734  27.032  28.813  1.00  0.00    -0.248 NA
ATOM     18  C   UNL A   1      40.193  25.407  28.150  1.00  0.00     0.031 C 
ATOM     19  C   UNL A   1      45.045  24.082  28.211  1.00  0.00     0.029 A 
ATOM     20  N   UNL A   1      44.543  26.142  28.921  1.00  0.00    -0.354 N 
ATOM     21  C   UNL A   1      40.458  27.578  28.830  1.00  0.00     0.074 A 
ATOM     22  C   UNL A   1      39.549  26.544  28.384  1.00  0.00     0.031 C 
ATOM     23  C   UNL A   1      46.187  24.651  28.618  1.00  0.00     0.029 A 
ATOM     24  C   UNL A   1      45.905  26.019  29.031  1.00  0.00     0.049 A 
ATOM     25  H   UNL A   1      44.049  26.954  29.178  1.00  0.00     0.167 HD
ATOM     26  C   UNL A   1      40.086  28.834  29.177  1.00  0.00     0.031 A 
ATOM     27  C   UNL A   1      46.839  26.919  29.382  1.00  0.00     0.031 A 
ATOM     28  C   UNL A   1      41.003  29.850  29.625  1.00  0.00     0.049 A 
ATOM     29  C   UNL A   1      46.405  28.304  29.739  1.00  0.00     0.074 A 
ATOM     30  C   UNL A   1      40.724  31.141  30.042  1.00  0.00     0.029 A 
ATOM     31  N   UNL A   1      42.378  29.691  29.705  1.00  0.00    -0.354 N 
ATOM     32  N   UNL A   1      45.192  28.801  29.771  1.00  0.00    -0.248 NA
ATOM     33  C   UNL A   1      47.463  29.254  30.102  1.00  0.00     0.031 C 
ATOM     34  C   UNL A   1      41.936  31.777  30.329  1.00  0.00     0.029 A 
ATOM     35  C   UNL A   1      42.967  30.869  30.138  1.00  0.00     0.049 A 
ATOM     36  H   UNL A   1      42.866  28.864  29.486  1.00  0.00     0.167 HD
ATOM     37  C   UNL A   1      45.336  30.122  30.163  1.00  0.00     0.074 A 
ATOM     38  C   UNL A   1      46.754  30.343  30.375  1.00  0.00     0.031 C 
ATOM     39  C   UNL A   1      44.380  31.066  30.331  1.00  0.00     0.031 A 
BRANCH  26  40
ATOM     40  C   UNL A   1      38.632  29.190  29.040  1.00  0.00    -0.014 A 
ATOM     41  C   UNL A   1      37.746  29.103  30.126  1.00  0.00     0.009 A 
ATOM     42  C   UNL A   1      38.145  29.645  27.805  1.00  0.00     0.009 A 
ATOM     43  C   UNL A   1      36.397  29.429  29.966  1.00  0.00     0.001 A 
ATOM     44  C   UNL A   1      36.802  29.995  27.653  1.00  0.00     0.001 A 
ATOM     45  C   UNL A   1      35.926  29.877  28.731  1.00  0.00     0.000 A 
ENDBRANCH  26  40
BRANCH  27  46
ATOM     46  C   UNL A   1      48.266  26.518  29.359  1.00  0.00    -0.014 A 
ATOM     47  C   UNL A   1      48.860  25.919  30.478  1.00  0.00     0.009 A 
ATOM     48  C   UNL A   1      49.015  26.648  28.176  1.00  0.00     0.009 A 
ATOM     49  C   UNL A   1      50.177  25.460  30.413  1.00  0.00     0.001 A 
ATOM     50  C   UNL A   1      50.321  26.163  28.107  1.00  0.00     0.001 A 
ATOM     51  C   UNL A   1      50.902  25.572  29.226  1.00  0.00     0.000 A 
ENDBRANCH  27  46
BRANCH  39  52
ATOM     52  C   UNL A   1      44.840  32.420  30.784  1.00  0.00    -0.014 A 
ATOM     53  C   UNL A   1      44.972  32.720  32.148  1.00  0.00     0.009 A 
ATOM     54  C   UNL A   1      45.185  33.391  29.831  1.00  0.00     0.009 A 
ATOM     55  C   UNL A   1      45.422  33.979  32.550  1.00  0.00     0.001 A 
ATOM     56  C   UNL A   1      45.657  34.639  30.237  1.00  0.00     0.001 A 
ATOM     57  C   UNL A   1      45.769  34.934  31.595  1.00  0.00     0.000 A 
ENDBRANCH  39  52
ENDBRANCH  13  14
ENDBRANCH   6   8
ENDBRANCH   3   4
ENDBRANCH   2   3
ENDBRANCH   1   2
BRANCH   1  58
ATOM     58  C   UNL A   1      36.278  21.933  25.415  1.00  0.00     0.116 C 
BRANCH  58  59
ATOM     59  N   UNL A   1      35.431  20.759  25.342  1.00  0.00    -0.354 N 
ATOM     60  C   UNL A   1      34.173  20.580  24.842  1.00  0.00     0.244 C 
ATOM     61  H   UNL A   1      35.835  19.944  25.721  1.00  0.00     0.163 HD
ATOM     62  O   UNL A   1      33.719  19.433  24.927  1.00  0.00    -0.273 OA
BRANCH  60  63
ATOM     63  C   UNL A   1      33.263  21.756  24.390  1.00  0.00     0.197 C 
BRANCH  63  64
ATOM     64  N   UNL A   1      33.440  22.192  23.001  1.00  0.00    -0.340 N 
ATOM     65  C   UNL A   1      33.319  23.414  22.410  1.00  0.00     0.244 C 
ATOM     66  H   UNL A   1      33.694  21.469  22.382  1.00  0.00     0.164 HD
ATOM     67  O   UNL A   1      33.631  23.505  21.218  1.00  0.00    -0.273 OA
BRANCH  65  68
ATOM     68  C   UNL A   1      32.924  24.669  23.218  1.00  0.00     0.181 C 
BRANCH  68  69
ATOM     69  N   UNL A   1      33.584  25.817  22.570  1.00  0.00    -0.339 N 
ATOM     70  C   UNL A   1      33.547  27.171  22.783  1.00  0.00     0.251 C 
ATOM     71  H   UNL A   1      34.177  25.557  21.828  1.00  0.00     0.164 HD
ATOM     72  O   UNL A   1      34.006  27.902  21.906  1.00  0.00    -0.269 OA
BRANCH  70  73
ATOM     73  C   UNL A   1      33.058  27.801  24.040  1.00  0.00     0.040 A 
ATOM     74  C   UNL A   1      33.830  27.849  25.203  1.00  0.00     0.017 A 
ATOM     75  C   UNL A   1      31.880  28.562  23.995  1.00  0.00     0.017 A 
ATOM     76  C   UNL A   1      33.438  28.600  26.312  1.00  0.00     0.040 A 
ATOM     77  C   UNL A   1      31.484  29.325  25.101  1.00  0.00     0.040 A 
ATOM     78  C   UNL A   1      32.265  29.334  26.250  1.00  0.00     0.123 A 
ATOM     79  F   UNL A   1      31.908  30.092  27.293  1.00  0.00    -0.207 F 
ENDBRANCH  70  73
ENDBRANCH  68  69
BRANCH  68  80
ATOM     80  C   UNL A   1      31.392  24.820  23.142  1.00  0.00     0.101 C 
BRANCH  80  81
ATOM     81  S   UNL A   1      30.659  24.993  24.804  1.00  0.00    -0.177 SA
ATOM     82  H   UNL A   1      30.848  26.262  25.253  1.00  0.00     0.102 HD
ENDBRANCH  80  81
ENDBRANCH  68  80
ENDBRANCH  65  68
ENDBRANCH  63  64
BRANCH  63  83
ATOM     83  C   UNL A   1      31.788  21.391  24.633  1.00  0.00     0.191 C 
BRANCH  83  84
ATOM     84  O   UNL A   1      31.519  21.264  26.029  1.00  0.00    -0.394 OA
ATOM     85  H   UNL A   1      31.259  22.126  26.389  1.00  0.00     0.210 HD
ENDBRANCH  83  84
ENDBRANCH  63  83
ENDBRANCH  60  63
ENDBRANCH  58  59
ENDBRANCH   1  58
TORSDOF 19
ENDMDL
