MODEL 1
REMARK VINA RESULT:     -11.5      0.000      0.000
REMARK SMILES C[NH2+][C@@]1(C(=O)NCCCCNC(=O)c2ccc(-c3c4nc(c(-c5ccccc5)c5ccc([nH]5)c(-c5ccccc5)c5nc(c(-c6ccccc6)c6ccc3[nH]6)C=C5)C=C4)cc2)CC[C@H](Sc2ccc(C)c(C)c2)C1
REMARK SMILES IDX 8 1 7 2 6 3 4 4 5 5 3 7 62 8 74 9 63 10 64 11 2 12 1 13
REMARK SMILES IDX 65 16 66 17 67 18 73 19 68 20 71 21 69 22 72 23 70 24 9 25
REMARK SMILES IDX 10 26 11 27 12 28 13 30 14 31 15 32 61 33 16 34 60 35 17 36
REMARK SMILES IDX 18 37 19 38 54 39 20 40 59 41 53 42 55 43 21 44 58 45 52 46
REMARK SMILES IDX 51 47 22 49 44 50 29 51 43 52 30 53 33 54 42 55 56 56 31 57
REMARK SMILES IDX 32 58 41 60 57 61 34 62 23 63 24 64 28 65 25 66 27 67 26 68
REMARK SMILES IDX 45 69 46 70 50 71 47 72 49 73 48 74 35 75 36 76 40 77 37 78
REMARK SMILES IDX 39 79 38 80
REMARK H PARENT 6 6 2 14 2 15 11 29 55 48 33 59
REMARK Flexibility Score: inf
ROOT
ATOM      1  C   UNL A   1      32.247  30.555  26.995  1.00  0.00     0.023 C 
ENDROOT
BRANCH   1   2
ATOM      2  C   UNL A   1      31.851  29.763  25.762  1.00  0.00     0.116 C 
BRANCH   2   3
ATOM      3  N   UNL A   1      32.941  29.494  24.862  1.00  0.00    -0.351 N 
ATOM      4  C   UNL A   1      32.940  28.912  23.632  1.00  0.00     0.281 C 
ATOM      5  O   UNL A   1      34.023  28.948  23.028  1.00  0.00    -0.268 OA
ATOM      6  H   UNL A   1      33.826  29.775  25.187  1.00  0.00     0.163 HD
BRANCH   4   7
ATOM      7  C   UNL A   1      31.658  28.264  22.951  1.00  0.00     0.176 C 
ATOM      8  C   UNL A   1      30.500  28.117  23.965  1.00  0.00     0.080 C 
ATOM      9  C   UNL A   1      31.883  26.849  22.382  1.00  0.00     0.094 C 
ATOM     10  C   UNL A   1      30.329  26.629  24.275  1.00  0.00     0.022 C 
ATOM     11  C   UNL A   1      30.858  25.904  23.042  1.00  0.00     0.058 C 
BRANCH   7  12
ATOM     12  N   UNL A   1      31.171  29.250  21.931  1.00  0.00    -0.336 N 
ATOM     13  C   UNL A   1      29.800  29.713  22.129  1.00  0.00     0.331 C 
ATOM     14  H   UNL A   1      31.787  30.062  21.957  1.00  0.00     0.346 HD
ATOM     15  H   UNL A   1      31.182  28.764  21.034  1.00  0.00     0.346 HD
ENDBRANCH   7  12
BRANCH  11  16
ATOM     16  S   UNL A   1      31.606  24.212  23.114  1.00  0.00    -0.122 SA
BRANCH  16  17
ATOM     17  C   UNL A   1      33.195  24.292  23.917  1.00  0.00     0.008 A 
ATOM     18  C   UNL A   1      33.386  24.774  25.205  1.00  0.00     0.015 A 
ATOM     19  C   UNL A   1      34.281  23.669  23.274  1.00  0.00     0.018 A 
ATOM     20  C   UNL A   1      34.632  24.644  25.831  1.00  0.00     0.005 A 
ATOM     21  C   UNL A   1      35.548  23.545  23.879  1.00  0.00    -0.047 A 
ATOM     22  C   UNL A   1      35.715  24.014  25.192  1.00  0.00    -0.048 A 
ATOM     23  C   UNL A   1      36.652  22.855  23.119  1.00  0.00     0.044 C 
ATOM     24  C   UNL A   1      36.983  23.825  25.985  1.00  0.00     0.044 C 
ENDBRANCH  16  17
ENDBRANCH  11  16
ENDBRANCH   4   7
ENDBRANCH   2   3
ENDBRANCH   1   2
BRANCH   1  25
ATOM     25  C   UNL A   1      31.816  32.010  27.006  1.00  0.00     0.023 C 
BRANCH  25  26
ATOM     26  C   UNL A   1      32.918  33.032  27.253  1.00  0.00     0.116 C 
BRANCH  26  27
ATOM     27  N   UNL A   1      32.482  34.333  27.751  1.00  0.00    -0.352 N 
ATOM     28  C   UNL A   1      33.109  35.128  28.688  1.00  0.00     0.251 C 
ATOM     29  H   UNL A   1      31.642  34.683  27.375  1.00  0.00     0.163 HD
ATOM     30  O   UNL A   1      32.750  36.265  28.941  1.00  0.00    -0.269 OA
BRANCH  28  31
ATOM     31  C   UNL A   1      34.228  34.550  29.440  1.00  0.00     0.039 A 
ATOM     32  C   UNL A   1      33.950  33.814  30.594  1.00  0.00     0.014 A 
ATOM     33  C   UNL A   1      35.519  34.642  28.923  1.00  0.00     0.014 A 
ATOM     34  C   UNL A   1      34.975  33.094  31.201  1.00  0.00     0.010 A 
ATOM     35  C   UNL A   1      36.511  33.850  29.472  1.00  0.00     0.010 A 
ATOM     36  C   UNL A   1      36.250  33.076  30.618  1.00  0.00    -0.014 A 
BRANCH  36  37
ATOM     37  C   UNL A   1      37.367  32.301  31.200  1.00  0.00     0.031 A 
ATOM     38  C   UNL A   1      37.981  32.783  32.481  1.00  0.00     0.074 A 
ATOM     39  C   UNL A   1      37.890  31.256  30.533  1.00  0.00     0.049 A 
ATOM     40  N   UNL A   1      39.087  32.403  33.064  1.00  0.00    -0.248 NA
ATOM     41  C   UNL A   1      37.281  33.881  33.171  1.00  0.00     0.031 C 
ATOM     42  C   UNL A   1      37.393  30.715  29.264  1.00  0.00     0.029 A 
ATOM     43  N   UNL A   1      38.979  30.474  30.823  1.00  0.00    -0.354 N 
ATOM     44  C   UNL A   1      39.239  33.248  34.155  1.00  0.00     0.074 A 
ATOM     45  C   UNL A   1      38.141  34.188  34.129  1.00  0.00     0.031 C 
ATOM     46  C   UNL A   1      38.168  29.681  28.895  1.00  0.00     0.029 A 
ATOM     47  C   UNL A   1      39.240  29.519  29.872  1.00  0.00     0.049 A 
ATOM     48  H   UNL A   1      39.521  30.587  31.637  1.00  0.00     0.167 HD
ATOM     49  C   UNL A   1      40.202  33.232  35.105  1.00  0.00     0.031 A 
ATOM     50  C   UNL A   1      40.243  28.625  29.793  1.00  0.00     0.031 A 
ATOM     51  C   UNL A   1      41.264  32.266  35.145  1.00  0.00     0.049 A 
ATOM     52  C   UNL A   1      41.286  28.606  30.877  1.00  0.00     0.074 A 
ATOM     53  C   UNL A   1      42.253  32.111  36.099  1.00  0.00     0.029 A 
ATOM     54  N   UNL A   1      41.465  31.282  34.189  1.00  0.00    -0.354 N 
ATOM     55  N   UNL A   1      41.398  29.383  31.927  1.00  0.00    -0.248 NA
ATOM     56  C   UNL A   1      42.335  27.584  30.766  1.00  0.00     0.031 C 
ATOM     57  C   UNL A   1      43.076  31.052  35.699  1.00  0.00     0.029 A 
ATOM     58  C   UNL A   1      42.569  30.520  34.524  1.00  0.00     0.049 A 
ATOM     59  H   UNL A   1      40.904  31.145  33.392  1.00  0.00     0.167 HD
ATOM     60  C   UNL A   1      42.513  28.927  32.619  1.00  0.00     0.074 A 
ATOM     61  C   UNL A   1      43.033  27.798  31.873  1.00  0.00     0.031 C 
ATOM     62  C   UNL A   1      43.059  29.399  33.765  1.00  0.00     0.031 A 
BRANCH  49  63
ATOM     63  C   UNL A   1      40.145  34.297  36.164  1.00  0.00    -0.014 A 
ATOM     64  C   UNL A   1      40.868  35.494  36.037  1.00  0.00     0.009 A 
ATOM     65  C   UNL A   1      39.349  34.102  37.302  1.00  0.00     0.009 A 
ATOM     66  C   UNL A   1      40.830  36.454  37.049  1.00  0.00     0.001 A 
ATOM     67  C   UNL A   1      39.288  35.078  38.299  1.00  0.00     0.001 A 
ATOM     68  C   UNL A   1      40.037  36.247  38.177  1.00  0.00     0.000 A 
ENDBRANCH  49  63
BRANCH  50  69
ATOM     69  C   UNL A   1      40.303  27.668  28.657  1.00  0.00    -0.014 A 
ATOM     70  C   UNL A   1      40.965  28.018  27.470  1.00  0.00     0.009 A 
ATOM     71  C   UNL A   1      39.705  26.402  28.752  1.00  0.00     0.009 A 
ATOM     72  C   UNL A   1      41.005  27.129  26.393  1.00  0.00     0.001 A 
ATOM     73  C   UNL A   1      39.771  25.504  27.683  1.00  0.00     0.001 A 
ATOM     74  C   UNL A   1      40.413  25.873  26.501  1.00  0.00     0.000 A 
ENDBRANCH  50  69
BRANCH  62  75
ATOM     75  C   UNL A   1      44.256  28.670  34.303  1.00  0.00    -0.014 A 
ATOM     76  C   UNL A   1      45.558  29.033  33.928  1.00  0.00     0.009 A 
ATOM     77  C   UNL A   1      44.075  27.638  35.238  1.00  0.00     0.009 A 
ATOM     78  C   UNL A   1      46.656  28.355  34.461  1.00  0.00     0.001 A 
ATOM     79  C   UNL A   1      45.175  26.983  35.788  1.00  0.00     0.001 A 
ATOM     80  C   UNL A   1      46.465  27.336  35.394  1.00  0.00     0.000 A 
ENDBRANCH  62  75
ENDBRANCH  36  37
ENDBRANCH  28  31
ENDBRANCH  26  27
ENDBRANCH  25  26
ENDBRANCH   1  25
TORSDOF 14
ENDMDL
MODEL 2
REMARK VINA RESULT:     -11.4      4.534      8.983
REMARK SMILES C[NH2+][C@@]1(C(=O)NCCCCNC(=O)c2ccc(-c3c4nc(c(-c5ccccc5)c5ccc([nH]5)c(-c5ccccc5)c5nc(c(-c6ccccc6)c6ccc3[nH]6)C=C5)C=C4)cc2)CC[C@H](Sc2ccc(C)c(C)c2)C1
REMARK SMILES IDX 8 1 7 2 6 3 4 4 5 5 3 7 62 8 74 9 63 10 64 11 2 12 1 13
REMARK SMILES IDX 65 16 66 17 67 18 73 19 68 20 71 21 69 22 72 23 70 24 9 25
REMARK SMILES IDX 10 26 11 27 12 28 13 30 14 31 15 32 61 33 16 34 60 35 17 36
REMARK SMILES IDX 18 37 19 38 54 39 20 40 59 41 53 42 55 43 21 44 58 45 52 46
REMARK SMILES IDX 51 47 22 49 44 50 29 51 43 52 30 53 33 54 42 55 56 56 31 57
REMARK SMILES IDX 32 58 41 60 57 61 34 62 23 63 24 64 28 65 25 66 27 67 26 68
REMARK SMILES IDX 45 69 46 70 50 71 47 72 49 73 48 74 35 75 36 76 40 77 37 78
REMARK SMILES IDX 39 79 38 80
REMARK H PARENT 6 6 2 14 2 15 11 29 55 48 33 59
REMARK Flexibility Score: inf
ROOT
ATOM      1  C   UNL A   1      37.272  23.152  24.868  1.00  0.00     0.023 C 
ENDROOT
BRANCH   1   2
ATOM      2  C   UNL A   1      36.003  23.676  25.513  1.00  0.00     0.116 C 
BRANCH   2   3
ATOM      3  N   UNL A   1      35.454  22.807  26.521  1.00  0.00    -0.351 N 
ATOM      4  C   UNL A   1      34.250  22.176  26.574  1.00  0.00     0.281 C 
ATOM      5  O   UNL A   1      34.115  21.370  27.508  1.00  0.00    -0.268 OA
ATOM      6  H   UNL A   1      36.043  22.643  27.293  1.00  0.00     0.163 HD
BRANCH   4   7
ATOM      7  C   UNL A   1      33.084  22.383  25.514  1.00  0.00     0.176 C 
ATOM      8  C   UNL A   1      33.366  21.598  24.212  1.00  0.00     0.080 C 
ATOM      9  C   UNL A   1      32.876  23.845  25.071  1.00  0.00     0.094 C 
ATOM     10  C   UNL A   1      33.709  22.608  23.116  1.00  0.00     0.022 C 
ATOM     11  C   UNL A   1      33.015  23.899  23.535  1.00  0.00     0.058 C 
BRANCH   7  12
ATOM     12  N   UNL A   1      31.855  21.754  26.100  1.00  0.00    -0.336 N 
ATOM     13  C   UNL A   1      30.722  22.660  26.271  1.00  0.00     0.331 C 
ATOM     14  H   UNL A   1      31.564  20.994  25.484  1.00  0.00     0.346 HD
ATOM     15  H   UNL A   1      32.113  21.438  27.035  1.00  0.00     0.346 HD
ENDBRANCH   7  12
BRANCH  11  16
ATOM     16  S   UNL A   1      33.652  25.576  23.079  1.00  0.00    -0.122 SA
BRANCH  16  17
ATOM     17  C   UNL A   1      33.250  26.741  24.368  1.00  0.00     0.008 A 
ATOM     18  C   UNL A   1      33.980  26.877  25.541  1.00  0.00     0.015 A 
ATOM     19  C   UNL A   1      32.246  27.690  24.097  1.00  0.00     0.018 A 
ATOM     20  C   UNL A   1      33.708  27.929  26.425  1.00  0.00     0.005 A 
ATOM     21  C   UNL A   1      31.945  28.745  24.982  1.00  0.00    -0.047 A 
ATOM     22  C   UNL A   1      32.711  28.882  26.151  1.00  0.00    -0.048 A 
ATOM     23  C   UNL A   1      30.859  29.720  24.607  1.00  0.00     0.044 C 
ATOM     24  C   UNL A   1      32.565  30.038  27.107  1.00  0.00     0.044 C 
ENDBRANCH  16  17
ENDBRANCH  11  16
ENDBRANCH   4   7
ENDBRANCH   2   3
ENDBRANCH   1   2
BRANCH   1  25
ATOM     25  C   UNL A   1      37.479  21.650  24.950  1.00  0.00     0.023 C 
BRANCH  25  26
ATOM     26  C   UNL A   1      38.439  21.165  26.027  1.00  0.00     0.116 C 
BRANCH  26  27
ATOM     27  N   UNL A   1      39.364  20.108  25.628  1.00  0.00    -0.352 N 
ATOM     28  C   UNL A   1      40.705  20.005  25.932  1.00  0.00     0.251 C 
ATOM     29  H   UNL A   1      38.986  19.384  25.078  1.00  0.00     0.163 HD
ATOM     30  O   UNL A   1      41.370  19.015  25.678  1.00  0.00    -0.269 OA
BRANCH  28  31
ATOM     31  C   UNL A   1      41.360  21.165  26.546  1.00  0.00     0.039 A 
ATOM     32  C   UNL A   1      41.866  22.167  25.715  1.00  0.00     0.014 A 
ATOM     33  C   UNL A   1      41.352  21.299  27.933  1.00  0.00     0.014 A 
ATOM     34  C   UNL A   1      42.304  23.360  26.282  1.00  0.00     0.010 A 
ATOM     35  C   UNL A   1      41.699  22.520  28.484  1.00  0.00     0.010 A 
ATOM     36  C   UNL A   1      42.184  23.557  27.666  1.00  0.00    -0.014 A 
BRANCH  36  37
ATOM     37  C   UNL A   1      42.601  24.817  28.317  1.00  0.00     0.031 A 
ATOM     38  C   UNL A   1      41.566  25.880  28.546  1.00  0.00     0.074 A 
ATOM     39  C   UNL A   1      43.898  25.045  28.589  1.00  0.00     0.049 A 
ATOM     40  N   UNL A   1      41.726  27.128  28.899  1.00  0.00    -0.248 NA
ATOM     41  C   UNL A   1      40.166  25.498  28.293  1.00  0.00     0.031 C 
ATOM     42  C   UNL A   1      44.996  24.096  28.380  1.00  0.00     0.029 A 
ATOM     43  N   UNL A   1      44.518  26.166  29.080  1.00  0.00    -0.354 N 
ATOM     44  C   UNL A   1      40.457  27.689  28.857  1.00  0.00     0.074 A 
ATOM     45  C   UNL A   1      39.546  26.661  28.403  1.00  0.00     0.031 C 
ATOM     46  C   UNL A   1      46.151  24.671  28.755  1.00  0.00     0.029 A 
ATOM     47  C   UNL A   1      45.882  26.041  29.182  1.00  0.00     0.049 A 
ATOM     48  H   UNL A   1      44.031  26.982  29.334  1.00  0.00     0.167 HD
ATOM     49  C   UNL A   1      40.081  28.946  29.183  1.00  0.00     0.031 A 
ATOM     50  C   UNL A   1      46.808  26.939  29.562  1.00  0.00     0.031 A 
ATOM     51  C   UNL A   1      40.987  29.946  29.674  1.00  0.00     0.049 A 
ATOM     52  C   UNL A   1      46.363  28.323  29.949  1.00  0.00     0.074 A 
ATOM     53  C   UNL A   1      40.705  31.230  30.103  1.00  0.00     0.029 A 
ATOM     54  N   UNL A   1      42.355  29.764  29.812  1.00  0.00    -0.354 N 
ATOM     55  N   UNL A   1      45.154  28.831  29.946  1.00  0.00    -0.248 NA
ATOM     56  C   UNL A   1      47.409  29.252  30.398  1.00  0.00     0.031 C 
ATOM     57  C   UNL A   1      41.911  31.838  30.466  1.00  0.00     0.029 A 
ATOM     58  C   UNL A   1      42.934  30.916  30.310  1.00  0.00     0.049 A 
ATOM     59  H   UNL A   1      42.841  28.937  29.590  1.00  0.00     0.167 HD
ATOM     60  C   UNL A   1      45.288  30.131  30.418  1.00  0.00     0.074 A 
ATOM     61  C   UNL A   1      46.695  30.326  30.709  1.00  0.00     0.031 C 
ATOM     62  C   UNL A   1      44.336  31.078  30.594  1.00  0.00     0.031 A 
BRANCH  49  63
ATOM     63  C   UNL A   1      38.630  29.300  29.008  1.00  0.00    -0.014 A 
ATOM     64  C   UNL A   1      38.122  29.707  27.764  1.00  0.00     0.009 A 
ATOM     65  C   UNL A   1      37.758  29.219  30.103  1.00  0.00     0.009 A 
ATOM     66  C   UNL A   1      36.780  30.067  27.631  1.00  0.00     0.001 A 
ATOM     67  C   UNL A   1      36.410  29.549  29.961  1.00  0.00     0.001 A 
ATOM     68  C   UNL A   1      35.924  29.983  28.729  1.00  0.00     0.000 A 
ENDBRANCH  49  63
BRANCH  50  69
ATOM     69  C   UNL A   1      48.245  26.558  29.609  1.00  0.00    -0.014 A 
ATOM     70  C   UNL A   1      49.076  26.792  28.503  1.00  0.00     0.009 A 
ATOM     71  C   UNL A   1      48.792  25.961  30.755  1.00  0.00     0.009 A 
ATOM     72  C   UNL A   1      50.421  26.415  28.536  1.00  0.00     0.001 A 
ATOM     73  C   UNL A   1      50.145  25.610  30.794  1.00  0.00     0.001 A 
ATOM     74  C   UNL A   1      50.955  25.829  29.681  1.00  0.00     0.000 A 
ENDBRANCH  50  69
BRANCH  62  75
ATOM     75  C   UNL A   1      44.779  32.395  31.163  1.00  0.00    -0.014 A 
ATOM     76  C   UNL A   1      45.159  33.458  30.329  1.00  0.00     0.009 A 
ATOM     77  C   UNL A   1      44.765  32.587  32.554  1.00  0.00     0.009 A 
ATOM     78  C   UNL A   1      45.544  34.680  30.882  1.00  0.00     0.001 A 
ATOM     79  C   UNL A   1      45.124  33.819  33.100  1.00  0.00     0.001 A 
ATOM     80  C   UNL A   1      45.520  34.862  32.265  1.00  0.00     0.000 A 
ENDBRANCH  62  75
ENDBRANCH  36  37
ENDBRANCH  28  31
ENDBRANCH  26  27
ENDBRANCH  25  26
ENDBRANCH   1  25
TORSDOF 14
ENDMDL
MODEL 3
REMARK VINA RESULT:     -11.3      1.130      6.177
REMARK SMILES C[NH2+][C@@]1(C(=O)NCCCCNC(=O)c2ccc(-c3c4nc(c(-c5ccccc5)c5ccc([nH]5)c(-c5ccccc5)c5nc(c(-c6ccccc6)c6ccc3[nH]6)C=C5)C=C4)cc2)CC[C@H](Sc2ccc(C)c(C)c2)C1
REMARK SMILES IDX 8 1 7 2 6 3 4 4 5 5 3 7 62 8 74 9 63 10 64 11 2 12 1 13
REMARK SMILES IDX 65 16 66 17 67 18 73 19 68 20 71 21 69 22 72 23 70 24 9 25
REMARK SMILES IDX 10 26 11 27 12 28 13 30 14 31 15 32 61 33 16 34 60 35 17 36
REMARK SMILES IDX 18 37 19 38 54 39 20 40 59 41 53 42 55 43 21 44 58 45 52 46
REMARK SMILES IDX 51 47 22 49 44 50 29 51 43 52 30 53 33 54 42 55 56 56 31 57
REMARK SMILES IDX 32 58 41 60 57 61 34 62 23 63 24 64 28 65 25 66 27 67 26 68
REMARK SMILES IDX 45 69 46 70 50 71 47 72 49 73 48 74 35 75 36 76 40 77 37 78
REMARK SMILES IDX 39 79 38 80
REMARK H PARENT 6 6 2 14 2 15 11 29 55 48 33 59
REMARK Flexibility Score: inf
ROOT
ATOM      1  C   UNL A   1      31.521  30.615  26.510  1.00  0.00     0.023 C 
ENDROOT
BRANCH   1   2
ATOM      2  C   UNL A   1      31.929  29.980  25.193  1.00  0.00     0.116 C 
BRANCH   2   3
ATOM      3  N   UNL A   1      30.823  29.657  24.330  1.00  0.00    -0.351 N 
ATOM      4  C   UNL A   1      30.701  28.683  23.388  1.00  0.00     0.281 C 
ATOM      5  O   UNL A   1      29.567  28.557  22.901  1.00  0.00    -0.268 OA
ATOM      6  H   UNL A   1      30.031  30.231  24.439  1.00  0.00     0.163 HD
BRANCH   4   7
ATOM      7  C   UNL A   1      31.882  27.716  22.943  1.00  0.00     0.176 C 
ATOM      8  C   UNL A   1      31.371  26.613  21.987  1.00  0.00     0.080 C 
ATOM      9  C   UNL A   1      32.566  26.966  24.103  1.00  0.00     0.094 C 
ATOM     10  C   UNL A   1      31.394  25.285  22.745  1.00  0.00     0.022 C 
ATOM     11  C   UNL A   1      32.469  25.454  23.812  1.00  0.00     0.058 C 
BRANCH   7  12
ATOM     12  N   UNL A   1      32.827  28.545  22.125  1.00  0.00    -0.336 N 
ATOM     13  C   UNL A   1      34.202  28.577  22.619  1.00  0.00     0.331 C 
ATOM     14  H   UNL A   1      32.840  28.168  21.177  1.00  0.00     0.346 HD
ATOM     15  H   UNL A   1      32.483  29.504  22.173  1.00  0.00     0.346 HD
ENDBRANCH   7  12
BRANCH  11  16
ATOM     16  S   UNL A   1      32.427  24.563  25.434  1.00  0.00    -0.122 SA
BRANCH  16  17
ATOM     17  C   UNL A   1      33.731  23.349  25.486  1.00  0.00     0.008 A 
ATOM     18  C   UNL A   1      33.545  22.003  25.200  1.00  0.00     0.015 A 
ATOM     19  C   UNL A   1      35.048  23.816  25.650  1.00  0.00     0.018 A 
ATOM     20  C   UNL A   1      34.645  21.144  25.091  1.00  0.00     0.005 A 
ATOM     21  C   UNL A   1      36.168  22.964  25.563  1.00  0.00    -0.047 A 
ATOM     22  C   UNL A   1      35.962  21.612  25.248  1.00  0.00    -0.048 A 
ATOM     23  C   UNL A   1      37.544  23.553  25.746  1.00  0.00     0.044 C 
ATOM     24  C   UNL A   1      37.085  20.636  25.006  1.00  0.00     0.044 C 
ENDBRANCH  16  17
ENDBRANCH  11  16
ENDBRANCH   4   7
ENDBRANCH   2   3
ENDBRANCH   1   2
BRANCH   1  25
ATOM     25  C   UNL A   1      31.295  32.115  26.473  1.00  0.00     0.023 C 
BRANCH  25  26
ATOM     26  C   UNL A   1      32.479  32.981  26.886  1.00  0.00     0.116 C 
BRANCH  26  27
ATOM     27  N   UNL A   1      32.154  34.192  27.632  1.00  0.00    -0.352 N 
ATOM     28  C   UNL A   1      32.939  34.845  28.559  1.00  0.00     0.251 C 
ATOM     29  H   UNL A   1      31.271  34.590  27.452  1.00  0.00     0.163 HD
ATOM     30  O   UNL A   1      32.647  35.931  29.030  1.00  0.00    -0.269 OA
BRANCH  28  31
ATOM     31  C   UNL A   1      34.153  34.168  29.028  1.00  0.00     0.039 A 
ATOM     32  C   UNL A   1      35.389  34.595  28.538  1.00  0.00     0.014 A 
ATOM     33  C   UNL A   1      34.055  33.209  30.034  1.00  0.00     0.014 A 
ATOM     34  C   UNL A   1      36.554  34.104  29.121  1.00  0.00     0.010 A 
ATOM     35  C   UNL A   1      35.211  32.797  30.673  1.00  0.00     0.010 A 
ATOM     36  C   UNL A   1      36.468  33.235  30.219  1.00  0.00    -0.014 A 
BRANCH  36  37
ATOM     37  C   UNL A   1      37.672  32.710  30.898  1.00  0.00     0.031 A 
ATOM     38  C   UNL A   1      38.372  31.525  30.300  1.00  0.00     0.074 A 
ATOM     39  C   UNL A   1      38.058  33.214  32.084  1.00  0.00     0.049 A 
ATOM     40  N   UNL A   1      39.304  30.767  30.814  1.00  0.00    -0.248 NA
ATOM     41  C   UNL A   1      37.922  31.106  28.960  1.00  0.00     0.031 C 
ATOM     42  C   UNL A   1      37.435  34.346  32.776  1.00  0.00     0.029 A 
ATOM     43  N   UNL A   1      39.059  32.817  32.933  1.00  0.00    -0.354 N 
ATOM     44  C   UNL A   1      39.511  29.756  29.885  1.00  0.00     0.074 A 
ATOM     45  C   UNL A   1      38.581  29.969  28.800  1.00  0.00     0.031 C 
ATOM     46  C   UNL A   1      38.079  34.560  33.936  1.00  0.00     0.029 A 
ATOM     47  C   UNL A   1      39.124  33.552  34.091  1.00  0.00     0.049 A 
ATOM     48  H   UNL A   1      39.673  32.074  32.731  1.00  0.00     0.167 HD
ATOM     49  C   UNL A   1      40.410  28.746  29.927  1.00  0.00     0.031 A 
ATOM     50  C   UNL A   1      39.927  33.415  35.162  1.00  0.00     0.031 A 
ATOM     51  C   UNL A   1      41.359  28.568  30.991  1.00  0.00     0.049 A 
ATOM     52  C   UNL A   1      40.939  32.303  35.173  1.00  0.00     0.074 A 
ATOM     53  C   UNL A   1      42.363  27.624  31.102  1.00  0.00     0.029 A 
ATOM     54  N   UNL A   1      41.426  29.366  32.122  1.00  0.00    -0.354 N 
ATOM     55  N   UNL A   1      41.157  31.376  34.270  1.00  0.00    -0.248 NA
ATOM     56  C   UNL A   1      41.821  32.223  36.345  1.00  0.00     0.031 C 
ATOM     57  C   UNL A   1      43.014  27.829  32.323  1.00  0.00     0.029 A 
ATOM     58  C   UNL A   1      42.448  28.930  32.945  1.00  0.00     0.049 A 
ATOM     59  H   UNL A   1      40.835  30.131  32.311  1.00  0.00     0.167 HD
ATOM     60  C   UNL A   1      42.216  30.619  34.752  1.00  0.00     0.074 A 
ATOM     61  C   UNL A   1      42.605  31.205  36.020  1.00  0.00     0.031 C 
ATOM     62  C   UNL A   1      42.814  29.537  34.198  1.00  0.00     0.031 A 
BRANCH  49  63
ATOM     63  C   UNL A   1      40.394  27.760  28.792  1.00  0.00    -0.014 A 
ATOM     64  C   UNL A   1      39.654  26.569  28.869  1.00  0.00     0.009 A 
ATOM     65  C   UNL A   1      41.125  28.031  27.627  1.00  0.00     0.009 A 
ATOM     66  C   UNL A   1      39.683  25.650  27.819  1.00  0.00     0.001 A 
ATOM     67  C   UNL A   1      41.126  27.125  26.565  1.00  0.00     0.001 A 
ATOM     68  C   UNL A   1      40.415  25.931  26.666  1.00  0.00     0.000 A 
ENDBRANCH  49  63
BRANCH  50  69
ATOM     69  C   UNL A   1      39.818  34.360  36.304  1.00  0.00    -0.014 A 
ATOM     70  C   UNL A   1      40.527  35.571  36.292  1.00  0.00     0.009 A 
ATOM     71  C   UNL A   1      39.006  34.061  37.409  1.00  0.00     0.009 A 
ATOM     72  C   UNL A   1      40.444  36.451  37.373  1.00  0.00     0.001 A 
ATOM     73  C   UNL A   1      38.903  34.957  38.477  1.00  0.00     0.001 A 
ATOM     74  C   UNL A   1      39.629  36.147  38.462  1.00  0.00     0.000 A 
ENDBRANCH  50  69
BRANCH  62  75
ATOM     75  C   UNL A   1      43.976  28.943  34.941  1.00  0.00    -0.014 A 
ATOM     76  C   UNL A   1      43.794  27.902  35.864  1.00  0.00     0.009 A 
ATOM     77  C   UNL A   1      45.276  29.399  34.670  1.00  0.00     0.009 A 
ATOM     78  C   UNL A   1      44.893  27.350  36.525  1.00  0.00     0.001 A 
ATOM     79  C   UNL A   1      46.373  28.826  35.311  1.00  0.00     0.001 A 
ATOM     80  C   UNL A   1      46.181  27.807  36.244  1.00  0.00     0.000 A 
ENDBRANCH  62  75
ENDBRANCH  36  37
ENDBRANCH  28  31
ENDBRANCH  26  27
ENDBRANCH  25  26
ENDBRANCH   1  25
TORSDOF 14
ENDMDL
