MODEL 1
REMARK VINA RESULT:     -11.0      0.000      0.000
REMARK SMILES C/C(=C(/F)C(=O)NCCCCNC(=O)c1ccc(-c2c3nc(c(-c4ccccc4)c4ccc([nH]4)c(-c4ccccc4)c4nc(c(-c5ccccc5)c5ccc2[nH]5)C=C4)C=C3)cc1)c1cccc(-n2cnnn2)c1
REMARK SMILES IDX 9 1 8 2 7 3 5 4 6 5 3 7 1 8 2 9 4 10 63 11 64 12 73 13 65 14
REMARK SMILES IDX 67 15 66 16 68 17 69 18 72 19 70 20 71 21 10 22 11 23 12 24
REMARK SMILES IDX 13 25 14 27 15 28 16 29 62 30 17 31 61 32 18 33 19 34 20 35
REMARK SMILES IDX 55 36 21 37 60 38 54 39 56 40 22 41 59 42 53 43 52 44 23 46
REMARK SMILES IDX 45 47 30 48 44 49 31 50 34 51 43 52 57 53 32 54 33 55 42 57
REMARK SMILES IDX 58 58 35 59 24 60 25 61 29 62 26 63 28 64 27 65 46 66 47 67
REMARK SMILES IDX 51 68 48 69 50 70 49 71 36 72 37 73 41 74 38 75 40 76 39 77
REMARK H PARENT 7 6 12 26 56 45 34 56
REMARK Flexibility Score: inf
ROOT
ATOM      1  C   UNL A   1      33.337  30.170  27.541  1.00  0.00     0.023 C 
ENDROOT
BRANCH   1   2
ATOM      2  C   UNL A   1      34.020  29.646  26.278  1.00  0.00     0.116 C 
BRANCH   2   3
ATOM      3  N   UNL A   1      34.080  28.196  26.281  1.00  0.00    -0.350 N 
ATOM      4  C   UNL A   1      33.175  27.239  25.925  1.00  0.00     0.280 C 
ATOM      5  O   UNL A   1      33.502  26.071  26.128  1.00  0.00    -0.267 OA
ATOM      6  H   UNL A   1      34.937  27.833  26.600  1.00  0.00     0.163 HD
BRANCH   4   7
ATOM      7  C   UNL A   1      31.865  27.608  25.303  1.00  0.00     0.191 C 
ATOM      8  C   UNL A   1      32.639  27.760  22.867  1.00  0.00     0.048 C 
ATOM      9  C   UNL A   1      31.645  27.847  23.995  1.00  0.00    -0.002 C 
ATOM     10  F   UNL A   1      30.818  27.690  26.154  1.00  0.00    -0.201 F 
BRANCH   9  11
ATOM     11  C   UNL A   1      30.294  28.284  23.570  1.00  0.00    -0.017 A 
ATOM     12  C   UNL A   1      29.222  27.380  23.595  1.00  0.00     0.008 A 
ATOM     13  C   UNL A   1      30.056  29.618  23.209  1.00  0.00     0.037 A 
ATOM     14  C   UNL A   1      27.928  27.803  23.290  1.00  0.00     0.003 A 
ATOM     15  C   UNL A   1      28.753  30.049  22.911  1.00  0.00     0.069 A 
ATOM     16  C   UNL A   1      27.689  29.138  22.963  1.00  0.00     0.028 A 
BRANCH  15  17
ATOM     17  N   UNL A   1      28.498  31.399  22.580  1.00  0.00    -0.201 N 
ATOM     18  C   UNL A   1      28.040  31.937  21.404  1.00  0.00     0.252 A 
ATOM     19  N   UNL A   1      28.702  32.415  23.449  1.00  0.00    -0.040 NA
ATOM     20  N   UNL A   1      28.000  33.245  21.510  1.00  0.00    -0.117 NA
ATOM     21  N   UNL A   1      28.424  33.527  22.781  1.00  0.00    -0.024 NA
ENDBRANCH  15  17
ENDBRANCH   9  11
ENDBRANCH   4   7
ENDBRANCH   2   3
ENDBRANCH   1   2
BRANCH   1  22
ATOM     22  C   UNL A   1      32.156  31.115  27.283  1.00  0.00     0.023 C 
BRANCH  22  23
ATOM     23  C   UNL A   1      32.497  32.413  26.556  1.00  0.00     0.116 C 
BRANCH  23  24
ATOM     24  N   UNL A   1      32.264  33.596  27.366  1.00  0.00    -0.352 N 
ATOM     25  C   UNL A   1      33.017  34.118  28.385  1.00  0.00     0.251 C 
ATOM     26  H   UNL A   1      31.443  34.095  27.152  1.00  0.00     0.163 HD
ATOM     27  O   UNL A   1      32.581  35.072  29.031  1.00  0.00    -0.269 OA
BRANCH  25  28
ATOM     28  C   UNL A   1      34.331  33.539  28.735  1.00  0.00     0.039 A 
ATOM     29  C   UNL A   1      34.426  32.755  29.890  1.00  0.00     0.014 A 
ATOM     30  C   UNL A   1      35.475  33.795  27.974  1.00  0.00     0.014 A 
ATOM     31  C   UNL A   1      35.654  32.205  30.262  1.00  0.00     0.010 A 
ATOM     32  C   UNL A   1      36.687  33.190  28.308  1.00  0.00     0.010 A 
ATOM     33  C   UNL A   1      36.792  32.405  29.466  1.00  0.00    -0.014 A 
BRANCH  33  34
ATOM     34  C   UNL A   1      38.104  31.834  29.863  1.00  0.00     0.031 A 
ATOM     35  C   UNL A   1      38.995  32.574  30.822  1.00  0.00     0.074 A 
ATOM     36  C   UNL A   1      38.508  30.659  29.342  1.00  0.00     0.049 A 
ATOM     37  N   UNL A   1      40.168  32.232  31.294  1.00  0.00    -0.248 NA
ATOM     38  C   UNL A   1      38.517  33.883  31.298  1.00  0.00     0.031 C 
ATOM     39  C   UNL A   1      37.760  29.859  28.369  1.00  0.00     0.029 A 
ATOM     40  N   UNL A   1      39.650  29.931  29.564  1.00  0.00    -0.354 N 
ATOM     41  C   UNL A   1      40.573  33.286  32.104  1.00  0.00     0.074 A 
ATOM     42  C   UNL A   1      39.546  34.302  32.020  1.00  0.00     0.031 C 
ATOM     43  C   UNL A   1      38.449  28.737  28.104  1.00  0.00     0.029 A 
ATOM     44  C   UNL A   1      39.694  28.749  28.866  1.00  0.00     0.049 A 
ATOM     45  H   UNL A   1      40.370  30.228  30.166  1.00  0.00     0.167 HD
ATOM     46  C   UNL A   1      41.686  33.394  32.868  1.00  0.00     0.031 A 
ATOM     47  C   UNL A   1      40.625  27.778  28.850  1.00  0.00     0.031 A 
ATOM     48  C   UNL A   1      42.701  32.380  32.968  1.00  0.00     0.049 A 
ATOM     49  C   UNL A   1      41.842  27.909  29.725  1.00  0.00     0.074 A 
ATOM     50  C   UNL A   1      43.842  32.375  33.752  1.00  0.00     0.029 A 
ATOM     51  N   UNL A   1      42.694  31.186  32.263  1.00  0.00    -0.354 N 
ATOM     52  N   UNL A   1      42.176  28.883  30.536  1.00  0.00    -0.248 NA
ATOM     53  C   UNL A   1      42.797  26.792  29.697  1.00  0.00     0.031 C 
ATOM     54  C   UNL A   1      44.544  31.193  33.494  1.00  0.00     0.029 A 
ATOM     55  C   UNL A   1      43.814  30.441  32.588  1.00  0.00     0.049 A 
ATOM     56  H   UNL A   1      41.995  30.910  31.627  1.00  0.00     0.167 HD
ATOM     57  C   UNL A   1      43.359  28.481  31.142  1.00  0.00     0.074 A 
ATOM     58  C   UNL A   1      43.677  27.170  30.612  1.00  0.00     0.031 C 
ATOM     59  C   UNL A   1      44.112  29.136  32.058  1.00  0.00     0.031 A 
BRANCH  46  60
ATOM     60  C   UNL A   1      41.859  34.662  33.656  1.00  0.00    -0.014 A 
ATOM     61  C   UNL A   1      42.626  35.729  33.159  1.00  0.00     0.009 A 
ATOM     62  C   UNL A   1      41.231  34.802  34.903  1.00  0.00     0.009 A 
ATOM     63  C   UNL A   1      42.791  36.893  33.912  1.00  0.00     0.001 A 
ATOM     64  C   UNL A   1      41.374  35.979  35.641  1.00  0.00     0.001 A 
ATOM     65  C   UNL A   1      42.162  37.018  35.150  1.00  0.00     0.000 A 
ENDBRANCH  46  60
BRANCH  47  66
ATOM     66  C   UNL A   1      40.427  26.569  28.010  1.00  0.00    -0.014 A 
ATOM     67  C   UNL A   1      39.700  25.474  28.501  1.00  0.00     0.009 A 
ATOM     68  C   UNL A   1      40.970  26.501  26.718  1.00  0.00     0.009 A 
ATOM     69  C   UNL A   1      39.546  24.322  27.727  1.00  0.00     0.001 A 
ATOM     70  C   UNL A   1      40.792  25.357  25.936  1.00  0.00     0.001 A 
ATOM     71  C   UNL A   1      40.088  24.266  26.445  1.00  0.00     0.000 A 
ENDBRANCH  47  66
BRANCH  59  72
ATOM     72  C   UNL A   1      45.326  28.422  32.584  1.00  0.00    -0.014 A 
ATOM     73  C   UNL A   1      46.585  28.574  31.981  1.00  0.00     0.009 A 
ATOM     74  C   UNL A   1      45.209  27.604  33.718  1.00  0.00     0.009 A 
ATOM     75  C   UNL A   1      47.693  27.888  32.482  1.00  0.00     0.001 A 
ATOM     76  C   UNL A   1      46.323  26.941  34.234  1.00  0.00     0.001 A 
ATOM     77  C   UNL A   1      47.561  27.074  33.608  1.00  0.00     0.000 A 
ENDBRANCH  59  72
ENDBRANCH  33  34
ENDBRANCH  25  28
ENDBRANCH  23  24
ENDBRANCH  22  23
ENDBRANCH   1  22
TORSDOF 13
ENDMDL
MODEL 2
REMARK VINA RESULT:     -10.8      0.518      6.057
REMARK SMILES C/C(=C(/F)C(=O)NCCCCNC(=O)c1ccc(-c2c3nc(c(-c4ccccc4)c4ccc([nH]4)c(-c4ccccc4)c4nc(c(-c5ccccc5)c5ccc2[nH]5)C=C4)C=C3)cc1)c1cccc(-n2cnnn2)c1
REMARK SMILES IDX 9 1 8 2 7 3 5 4 6 5 3 7 1 8 2 9 4 10 63 11 64 12 73 13 65 14
REMARK SMILES IDX 67 15 66 16 68 17 69 18 72 19 70 20 71 21 10 22 11 23 12 24
REMARK SMILES IDX 13 25 14 27 15 28 16 29 62 30 17 31 61 32 18 33 19 34 20 35
REMARK SMILES IDX 55 36 21 37 60 38 54 39 56 40 22 41 59 42 53 43 52 44 23 46
REMARK SMILES IDX 45 47 30 48 44 49 31 50 34 51 43 52 57 53 32 54 33 55 42 57
REMARK SMILES IDX 58 58 35 59 24 60 25 61 29 62 26 63 28 64 27 65 46 66 47 67
REMARK SMILES IDX 51 68 48 69 50 70 49 71 36 72 37 73 41 74 38 75 40 76 39 77
REMARK H PARENT 7 6 12 26 56 45 34 56
REMARK Flexibility Score: inf
ROOT
ATOM      1  C   UNL A   1      33.674  29.859  27.371  1.00  0.00     0.023 C 
ENDROOT
BRANCH   1   2
ATOM      2  C   UNL A   1      33.986  29.367  25.958  1.00  0.00     0.116 C 
BRANCH   2   3
ATOM      3  N   UNL A   1      33.971  27.917  25.896  1.00  0.00    -0.350 N 
ATOM      4  C   UNL A   1      32.994  27.022  25.574  1.00  0.00     0.280 C 
ATOM      5  O   UNL A   1      33.276  25.831  25.701  1.00  0.00    -0.267 OA
ATOM      6  H   UNL A   1      34.831  27.500  26.130  1.00  0.00     0.163 HD
BRANCH   4   7
ATOM      7  C   UNL A   1      31.660  27.481  25.074  1.00  0.00     0.191 C 
ATOM      8  C   UNL A   1      32.017  27.016  22.581  1.00  0.00     0.048 C 
ATOM      9  C   UNL A   1      31.253  27.492  23.789  1.00  0.00    -0.002 C 
ATOM     10  F   UNL A   1      30.797  27.906  26.024  1.00  0.00    -0.201 F 
BRANCH   9  11
ATOM     11  C   UNL A   1      29.923  28.062  23.470  1.00  0.00    -0.017 A 
ATOM     12  C   UNL A   1      28.769  27.276  23.607  1.00  0.00     0.008 A 
ATOM     13  C   UNL A   1      29.793  29.409  23.100  1.00  0.00     0.037 A 
ATOM     14  C   UNL A   1      27.505  27.828  23.403  1.00  0.00     0.003 A 
ATOM     15  C   UNL A   1      28.521  29.969  22.904  1.00  0.00     0.069 A 
ATOM     16  C   UNL A   1      27.377  29.175  23.068  1.00  0.00     0.028 A 
BRANCH  15  17
ATOM     17  N   UNL A   1      28.378  31.334  22.565  1.00  0.00    -0.201 N 
ATOM     18  C   UNL A   1      27.959  31.900  21.388  1.00  0.00     0.252 A 
ATOM     19  N   UNL A   1      28.673  32.335  23.425  1.00  0.00    -0.040 NA
ATOM     20  N   UNL A   1      28.031  33.208  21.484  1.00  0.00    -0.117 NA
ATOM     21  N   UNL A   1      28.486  33.461  22.751  1.00  0.00    -0.024 NA
ENDBRANCH  15  17
ENDBRANCH   9  11
ENDBRANCH   4   7
ENDBRANCH   2   3
ENDBRANCH   1   2
BRANCH   1  22
ATOM     22  C   UNL A   1      32.529  30.877  27.454  1.00  0.00     0.023 C 
BRANCH  22  23
ATOM     23  C   UNL A   1      32.689  32.123  26.587  1.00  0.00     0.116 C 
BRANCH  23  24
ATOM     24  N   UNL A   1      32.372  33.351  27.294  1.00  0.00    -0.352 N 
ATOM     25  C   UNL A   1      33.045  33.971  28.314  1.00  0.00     0.251 C 
ATOM     26  H   UNL A   1      31.550  33.805  26.997  1.00  0.00     0.163 HD
ATOM     27  O   UNL A   1      32.542  34.953  28.862  1.00  0.00    -0.269 OA
BRANCH  25  28
ATOM     28  C   UNL A   1      34.353  33.465  28.782  1.00  0.00     0.039 A 
ATOM     29  C   UNL A   1      35.489  33.750  28.016  1.00  0.00     0.014 A 
ATOM     30  C   UNL A   1      34.470  32.678  29.931  1.00  0.00     0.014 A 
ATOM     31  C   UNL A   1      36.739  33.276  28.417  1.00  0.00     0.010 A 
ATOM     32  C   UNL A   1      35.728  32.261  30.367  1.00  0.00     0.010 A 
ATOM     33  C   UNL A   1      36.872  32.539  29.604  1.00  0.00    -0.014 A 
BRANCH  33  34
ATOM     34  C   UNL A   1      38.196  32.020  30.030  1.00  0.00     0.031 A 
ATOM     35  C   UNL A   1      38.696  30.700  29.509  1.00  0.00     0.074 A 
ATOM     36  C   UNL A   1      38.941  32.722  30.905  1.00  0.00     0.049 A 
ATOM     37  N   UNL A   1      39.827  30.089  29.756  1.00  0.00    -0.248 NA
ATOM     38  C   UNL A   1      37.799  29.957  28.609  1.00  0.00     0.031 C 
ATOM     39  C   UNL A   1      38.556  33.995  31.519  1.00  0.00     0.029 A 
ATOM     40  N   UNL A   1      40.185  32.464  31.425  1.00  0.00    -0.354 N 
ATOM     41  C   UNL A   1      39.769  28.888  29.060  1.00  0.00     0.074 A 
ATOM     42  C   UNL A   1      38.472  28.832  28.421  1.00  0.00     0.031 C 
ATOM     43  C   UNL A   1      39.557  34.421  32.307  1.00  0.00     0.029 A 
ATOM     44  C   UNL A   1      40.640  33.443  32.274  1.00  0.00     0.049 A 
ATOM     45  H   UNL A   1      40.701  31.654  31.211  1.00  0.00     0.167 HD
ATOM     46  C   UNL A   1      40.716  27.926  28.941  1.00  0.00     0.031 A 
ATOM     47  C   UNL A   1      41.804  33.549  32.941  1.00  0.00     0.031 A 
ATOM     48  C   UNL A   1      42.013  27.984  29.559  1.00  0.00     0.049 A 
ATOM     49  C   UNL A   1      42.849  32.480  32.774  1.00  0.00     0.074 A 
ATOM     50  C   UNL A   1      43.058  27.083  29.459  1.00  0.00     0.029 A 
ATOM     51  N   UNL A   1      42.443  29.007  30.390  1.00  0.00    -0.354 N 
ATOM     52  N   UNL A   1      42.803  31.383  32.057  1.00  0.00    -0.248 NA
ATOM     53  C   UNL A   1      44.116  32.679  33.491  1.00  0.00     0.031 C 
ATOM     54  C   UNL A   1      44.109  27.542  30.260  1.00  0.00     0.029 A 
ATOM     55  C   UNL A   1      43.735  28.754  30.817  1.00  0.00     0.049 A 
ATOM     56  H   UNL A   1      41.909  29.795  30.639  1.00  0.00     0.167 HD
ATOM     57  C   UNL A   1      44.045  30.780  32.208  1.00  0.00     0.074 A 
ATOM     58  C   UNL A   1      44.825  31.640  33.075  1.00  0.00     0.031 C 
ATOM     59  C   UNL A   1      44.501  29.622  31.673  1.00  0.00     0.031 A 
BRANCH  46  60
ATOM     60  C   UNL A   1      40.374  26.724  28.105  1.00  0.00    -0.014 A 
ATOM     61  C   UNL A   1      40.865  26.584  26.797  1.00  0.00     0.009 A 
ATOM     62  C   UNL A   1      39.567  25.707  28.639  1.00  0.00     0.009 A 
ATOM     63  C   UNL A   1      40.522  25.470  26.028  1.00  0.00     0.001 A 
ATOM     64  C   UNL A   1      39.249  24.580  27.878  1.00  0.00     0.001 A 
ATOM     65  C   UNL A   1      39.719  24.468  26.570  1.00  0.00     0.000 A 
ENDBRANCH  46  60
BRANCH  47  66
ATOM     66  C   UNL A   1      42.068  34.735  33.795  1.00  0.00    -0.014 A 
ATOM     67  C   UNL A   1      42.710  35.864  33.265  1.00  0.00     0.009 A 
ATOM     68  C   UNL A   1      41.687  34.740  35.146  1.00  0.00     0.009 A 
ATOM     69  C   UNL A   1      42.993  36.964  34.078  1.00  0.00     0.001 A 
ATOM     70  C   UNL A   1      41.948  35.852  35.950  1.00  0.00     0.001 A 
ATOM     71  C   UNL A   1      42.609  36.959  35.417  1.00  0.00     0.000 A 
ENDBRANCH  47  66
BRANCH  59  72
ATOM     72  C   UNL A   1      45.925  29.244  31.969  1.00  0.00    -0.014 A 
ATOM     73  C   UNL A   1      46.258  28.458  33.083  1.00  0.00     0.009 A 
ATOM     74  C   UNL A   1      46.945  29.663  31.101  1.00  0.00     0.009 A 
ATOM     75  C   UNL A   1      47.592  28.134  33.342  1.00  0.00     0.001 A 
ATOM     76  C   UNL A   1      48.274  29.314  31.347  1.00  0.00     0.001 A 
ATOM     77  C   UNL A   1      48.597  28.560  32.473  1.00  0.00     0.000 A 
ENDBRANCH  59  72
ENDBRANCH  33  34
ENDBRANCH  25  28
ENDBRANCH  23  24
ENDBRANCH  22  23
ENDBRANCH   1  22
TORSDOF 13
ENDMDL
MODEL 3
REMARK VINA RESULT:     -10.8      1.950      7.076
REMARK SMILES C/C(=C(/F)C(=O)NCCCCNC(=O)c1ccc(-c2c3nc(c(-c4ccccc4)c4ccc([nH]4)c(-c4ccccc4)c4nc(c(-c5ccccc5)c5ccc2[nH]5)C=C4)C=C3)cc1)c1cccc(-n2cnnn2)c1
REMARK SMILES IDX 9 1 8 2 7 3 5 4 6 5 3 7 1 8 2 9 4 10 63 11 64 12 73 13 65 14
REMARK SMILES IDX 67 15 66 16 68 17 69 18 72 19 70 20 71 21 10 22 11 23 12 24
REMARK SMILES IDX 13 25 14 27 15 28 16 29 62 30 17 31 61 32 18 33 19 34 20 35
REMARK SMILES IDX 55 36 21 37 60 38 54 39 56 40 22 41 59 42 53 43 52 44 23 46
REMARK SMILES IDX 45 47 30 48 44 49 31 50 34 51 43 52 57 53 32 54 33 55 42 57
REMARK SMILES IDX 58 58 35 59 24 60 25 61 29 62 26 63 28 64 27 65 46 66 47 67
REMARK SMILES IDX 51 68 48 69 50 70 49 71 36 72 37 73 41 74 38 75 40 76 39 77
REMARK H PARENT 7 6 12 26 56 45 34 56
REMARK Flexibility Score: inf
ROOT
ATOM      1  C   UNL A   1      34.568  24.419  23.952  1.00  0.00     0.023 C 
ENDROOT
BRANCH   1   2
ATOM      2  C   UNL A   1      33.518  24.846  24.977  1.00  0.00     0.116 C 
BRANCH   2   3
ATOM      3  N   UNL A   1      33.953  26.020  25.711  1.00  0.00    -0.350 N 
ATOM      4  C   UNL A   1      33.429  27.273  25.834  1.00  0.00     0.280 C 
ATOM      5  O   UNL A   1      34.093  28.087  26.474  1.00  0.00    -0.267 OA
ATOM      6  H   UNL A   1      34.786  25.886  26.218  1.00  0.00     0.163 HD
BRANCH   4   7
ATOM      7  C   UNL A   1      32.102  27.618  25.231  1.00  0.00     0.191 C 
ATOM      8  C   UNL A   1      32.843  27.819  22.789  1.00  0.00     0.048 C 
ATOM      9  C   UNL A   1      31.861  27.867  23.929  1.00  0.00    -0.002 C 
ATOM     10  F   UNL A   1      31.064  27.662  26.096  1.00  0.00    -0.201 F 
BRANCH   9  11
ATOM     11  C   UNL A   1      30.495  28.277  23.525  1.00  0.00    -0.017 A 
ATOM     12  C   UNL A   1      29.439  27.354  23.579  1.00  0.00     0.008 A 
ATOM     13  C   UNL A   1      30.227  29.603  23.158  1.00  0.00     0.037 A 
ATOM     14  C   UNL A   1      28.133  27.751  23.294  1.00  0.00     0.003 A 
ATOM     15  C   UNL A   1      28.911  30.008  22.880  1.00  0.00     0.069 A 
ATOM     16  C   UNL A   1      27.864  29.079  22.961  1.00  0.00     0.028 A 
BRANCH  15  17
ATOM     17  N   UNL A   1      28.625  31.350  22.542  1.00  0.00    -0.201 N 
ATOM     18  C   UNL A   1      28.795  32.491  23.285  1.00  0.00     0.252 A 
ATOM     19  N   UNL A   1      28.093  31.706  21.351  1.00  0.00    -0.040 NA
ATOM     20  N   UNL A   1      28.345  33.522  22.608  1.00  0.00    -0.117 NA
ATOM     21  N   UNL A   1      27.903  33.017  21.414  1.00  0.00    -0.024 NA
ENDBRANCH  15  17
ENDBRANCH   9  11
ENDBRANCH   4   7
ENDBRANCH   2   3
ENDBRANCH   1   2
BRANCH   1  22
ATOM     22  C   UNL A   1      35.504  23.299  24.427  1.00  0.00     0.023 C 
BRANCH  22  23
ATOM     23  C   UNL A   1      36.564  23.713  25.445  1.00  0.00     0.116 C 
BRANCH  23  24
ATOM     24  N   UNL A   1      37.595  22.707  25.632  1.00  0.00    -0.352 N 
ATOM     25  C   UNL A   1      38.853  22.834  26.160  1.00  0.00     0.251 C 
ATOM     26  H   UNL A   1      37.355  21.800  25.334  1.00  0.00     0.163 HD
ATOM     27  O   UNL A   1      39.624  21.875  26.121  1.00  0.00    -0.269 OA
BRANCH  25  28
ATOM     28  C   UNL A   1      39.305  24.110  26.754  1.00  0.00     0.039 A 
ATOM     29  C   UNL A   1      38.964  24.383  28.083  1.00  0.00     0.014 A 
ATOM     30  C   UNL A   1      40.014  25.058  26.010  1.00  0.00     0.014 A 
ATOM     31  C   UNL A   1      39.359  25.585  28.673  1.00  0.00     0.010 A 
ATOM     32  C   UNL A   1      40.467  26.229  26.620  1.00  0.00     0.010 A 
ATOM     33  C   UNL A   1      40.127  26.512  27.951  1.00  0.00    -0.014 A 
BRANCH  33  34
ATOM     34  C   UNL A   1      40.539  27.798  28.567  1.00  0.00     0.031 A 
ATOM     35  C   UNL A   1      41.963  28.007  29.006  1.00  0.00     0.074 A 
ATOM     36  C   UNL A   1      39.629  28.773  28.757  1.00  0.00     0.049 A 
ATOM     37  N   UNL A   1      42.514  29.062  29.553  1.00  0.00    -0.248 NA
ATOM     38  C   UNL A   1      42.886  26.874  28.828  1.00  0.00     0.031 C 
ATOM     39  C   UNL A   1      38.207  28.685  28.417  1.00  0.00     0.029 A 
ATOM     40  N   UNL A   1      39.769  30.034  29.280  1.00  0.00    -0.354 N 
ATOM     41  C   UNL A   1      43.836  28.714  29.798  1.00  0.00     0.074 A 
ATOM     42  C   UNL A   1      43.994  27.336  29.390  1.00  0.00     0.031 C 
ATOM     43  C   UNL A   1      37.614  29.853  28.710  1.00  0.00     0.029 A 
ATOM     44  C   UNL A   1      38.604  30.762  29.280  1.00  0.00     0.049 A 
ATOM     45  H   UNL A   1      40.622  30.383  29.623  1.00  0.00     0.167 HD
ATOM     46  C   UNL A   1      44.839  29.477  30.298  1.00  0.00     0.031 A 
ATOM     47  C   UNL A   1      38.362  32.023  29.682  1.00  0.00     0.031 A 
ATOM     48  C   UNL A   1      44.692  30.853  30.689  1.00  0.00     0.049 A 
ATOM     49  C   UNL A   1      39.495  32.858  30.211  1.00  0.00     0.074 A 
ATOM     50  C   UNL A   1      45.658  31.724  31.160  1.00  0.00     0.029 A 
ATOM     51  N   UNL A   1      43.500  31.560  30.649  1.00  0.00    -0.354 N 
ATOM     52  N   UNL A   1      40.756  32.534  30.374  1.00  0.00    -0.248 NA
ATOM     53  C   UNL A   1      39.175  34.242  30.588  1.00  0.00     0.031 C 
ATOM     54  C   UNL A   1      45.043  32.949  31.440  1.00  0.00     0.029 A 
ATOM     55  C   UNL A   1      43.705  32.854  31.095  1.00  0.00     0.049 A 
ATOM     56  H   UNL A   1      42.637  31.195  30.348  1.00  0.00     0.167 HD
ATOM     57  C   UNL A   1      41.384  33.683  30.838  1.00  0.00     0.074 A 
ATOM     58  C   UNL A   1      40.368  34.713  30.919  1.00  0.00     0.031 C 
ATOM     59  C   UNL A   1      42.686  33.869  31.162  1.00  0.00     0.031 A 
BRANCH  46  60
ATOM     60  C   UNL A   1      46.187  28.829  30.448  1.00  0.00    -0.014 A 
ATOM     61  C   UNL A   1      47.137  28.880  29.414  1.00  0.00     0.009 A 
ATOM     62  C   UNL A   1      46.521  28.178  31.645  1.00  0.00     0.009 A 
ATOM     63  C   UNL A   1      48.378  28.257  29.563  1.00  0.00     0.001 A 
ATOM     64  C   UNL A   1      47.774  27.581  31.802  1.00  0.00     0.001 A 
ATOM     65  C   UNL A   1      48.696  27.612  30.757  1.00  0.00     0.000 A 
ENDBRANCH  46  60
BRANCH  47  66
ATOM     66  C   UNL A   1      36.997  32.595  29.560  1.00  0.00    -0.014 A 
ATOM     67  C   UNL A   1      36.608  33.261  28.388  1.00  0.00     0.009 A 
ATOM     68  C   UNL A   1      36.080  32.486  30.617  1.00  0.00     0.009 A 
ATOM     69  C   UNL A   1      35.338  33.833  28.287  1.00  0.00     0.001 A 
ATOM     70  C   UNL A   1      34.801  33.035  30.503  1.00  0.00     0.001 A 
ATOM     71  C   UNL A   1      34.435  33.717  29.342  1.00  0.00     0.000 A 
ENDBRANCH  47  66
BRANCH  59  72
ATOM     72  C   UNL A   1      43.095  35.252  31.585  1.00  0.00    -0.014 A 
ATOM     73  C   UNL A   1      43.058  35.648  32.932  1.00  0.00     0.009 A 
ATOM     74  C   UNL A   1      43.551  36.163  30.620  1.00  0.00     0.009 A 
ATOM     75  C   UNL A   1      43.430  36.944  33.295  1.00  0.00     0.001 A 
ATOM     76  C   UNL A   1      43.949  37.448  30.989  1.00  0.00     0.001 A 
ATOM     77  C   UNL A   1      43.877  37.841  32.325  1.00  0.00     0.000 A 
ENDBRANCH  59  72
ENDBRANCH  33  34
ENDBRANCH  25  28
ENDBRANCH  23  24
ENDBRANCH  22  23
ENDBRANCH   1  22
TORSDOF 13
ENDMDL
