MODEL 1
REMARK VINA RESULT:     -10.8      0.000      0.000
REMARK SMILES CC[C@@H]1CCCN1C(=O)N1CC[C@@H](C(=O)NCCCCNC(=O)c2ccc(-c3c4nc(c(-c5ccccc5)c5ccc([nH]5)c(-c5ccccc5)c5nc(c(-c6ccccc6)c6ccc3[nH]6)C=C5)C=C4)cc2)[C@@H]1C
REMARK SMILES IDX 18 1 17 2 16 3 14 4 15 5 13 7 10 8 11 9 72 10 12 11 73 12
REMARK SMILES IDX 8 13 9 14 7 15 3 16 4 17 5 18 6 19 2 20 1 21 19 22 20 23
REMARK SMILES IDX 21 24 22 25 23 27 24 28 25 29 71 30 26 31 70 32 27 33 28 34
REMARK SMILES IDX 29 35 64 36 30 37 69 38 63 39 65 40 31 41 68 42 62 43 61 44
REMARK SMILES IDX 32 46 54 47 39 48 53 49 40 50 43 51 52 52 66 53 41 54 42 55
REMARK SMILES IDX 51 57 67 58 44 59 33 60 34 61 38 62 35 63 37 64 36 65 55 66
REMARK SMILES IDX 56 67 60 68 57 69 59 70 58 71 45 72 46 73 50 74 47 75 49 76
REMARK SMILES IDX 48 77
REMARK H PARENT 16 6 21 26 65 45 43 56
REMARK Flexibility Score: inf
ROOT
ATOM      1  C   UNL A   1      36.382  20.314  25.069  1.00  0.00     0.023 C 
ENDROOT
BRANCH   1   2
ATOM      2  C   UNL A   1      36.007  21.788  25.210  1.00  0.00     0.116 C 
BRANCH   2   3
ATOM      3  N   UNL A   1      35.438  22.114  26.505  1.00  0.00    -0.356 N 
ATOM      4  C   UNL A   1      34.312  22.821  26.815  1.00  0.00     0.225 C 
ATOM      5  O   UNL A   1      33.941  22.831  27.987  1.00  0.00    -0.275 OA
ATOM      6  H   UNL A   1      35.942  21.773  27.279  1.00  0.00     0.163 HD
BRANCH   4   7
ATOM      7  C   UNL A   1      33.651  23.666  25.748  1.00  0.00     0.102 C 
ATOM      8  N   UNL A   1      32.435  25.675  25.751  1.00  0.00    -0.321 N 
ATOM      9  C   UNL A   1      33.810  26.051  25.999  1.00  0.00     0.122 C 
ATOM     10  C   UNL A   1      32.311  24.292  26.196  1.00  0.00     0.096 C 
ATOM     11  C   UNL A   1      34.579  24.863  25.451  1.00  0.00     0.037 C 
ATOM     12  C   UNL A   1      31.106  23.579  25.592  1.00  0.00     0.032 C 
BRANCH   8  13
ATOM     13  C   UNL A   1      31.429  26.581  25.952  1.00  0.00     0.320 C 
ATOM     14  O   UNL A   1      30.842  26.648  27.033  1.00  0.00    -0.248 OA
BRANCH  13  15
ATOM     15  N   UNL A   1      31.075  27.372  24.875  1.00  0.00    -0.322 N 
ATOM     16  C   UNL A   1      31.832  28.397  24.125  1.00  0.00     0.086 C 
ATOM     17  C   UNL A   1      30.744  29.013  23.238  1.00  0.00     0.027 C 
ATOM     18  C   UNL A   1      29.896  27.815  22.851  1.00  0.00     0.024 C 
ATOM     19  C   UNL A   1      29.921  26.942  24.095  1.00  0.00     0.122 C 
BRANCH  16  20
ATOM     20  C   UNL A   1      32.600  29.462  24.903  1.00  0.00     0.022 C 
ATOM     21  C   UNL A   1      31.766  30.311  25.850  1.00  0.00     0.006 C 
ENDBRANCH  16  20
ENDBRANCH  13  15
ENDBRANCH   8  13
ENDBRANCH   4   7
ENDBRANCH   2   3
ENDBRANCH   1   2
BRANCH   1  22
ATOM     22  C   UNL A   1      37.836  20.047  24.679  1.00  0.00     0.023 C 
BRANCH  22  23
ATOM     23  C   UNL A   1      38.870  20.294  25.772  1.00  0.00     0.116 C 
BRANCH  23  24
ATOM     24  N   UNL A   1      39.951  19.323  25.776  1.00  0.00    -0.352 N 
ATOM     25  C   UNL A   1      41.278  19.501  26.102  1.00  0.00     0.251 C 
ATOM     26  H   UNL A   1      39.700  18.410  25.508  1.00  0.00     0.163 HD
ATOM     27  O   UNL A   1      42.080  18.594  25.939  1.00  0.00    -0.269 OA
BRANCH  25  28
ATOM     28  C   UNL A   1      41.735  20.813  26.614  1.00  0.00     0.039 A 
ATOM     29  C   UNL A   1      42.212  21.762  25.706  1.00  0.00     0.014 A 
ATOM     30  C   UNL A   1      41.671  21.115  27.976  1.00  0.00     0.014 A 
ATOM     31  C   UNL A   1      42.551  23.041  26.155  1.00  0.00     0.010 A 
ATOM     32  C   UNL A   1      41.935  22.412  28.409  1.00  0.00     0.010 A 
ATOM     33  C   UNL A   1      42.376  23.390  27.503  1.00  0.00    -0.014 A 
BRANCH  33  34
ATOM     34  C   UNL A   1      42.648  24.767  27.991  1.00  0.00     0.031 A 
ATOM     35  C   UNL A   1      44.035  25.150  28.430  1.00  0.00     0.074 A 
ATOM     36  C   UNL A   1      41.639  25.655  28.102  1.00  0.00     0.049 A 
ATOM     37  N   UNL A   1      44.451  26.263  28.981  1.00  0.00    -0.248 NA
ATOM     38  C   UNL A   1      45.091  24.140  28.249  1.00  0.00     0.031 C 
ATOM     39  C   UNL A   1      40.242  25.405  27.739  1.00  0.00     0.029 A 
ATOM     40  N   UNL A   1      41.632  26.947  28.569  1.00  0.00    -0.354 N 
ATOM     41  C   UNL A   1      45.808  26.084  29.215  1.00  0.00     0.074 A 
ATOM     42  C   UNL A   1      46.135  24.737  28.803  1.00  0.00     0.031 C 
ATOM     43  C   UNL A   1      39.519  26.512  27.981  1.00  0.00     0.029 A 
ATOM     44  C   UNL A   1      40.388  27.532  28.559  1.00  0.00     0.049 A 
ATOM     45  H   UNL A   1      42.442  27.410  28.881  1.00  0.00     0.167 HD
ATOM     46  C   UNL A   1      46.708  26.969  29.705  1.00  0.00     0.031 A 
ATOM     47  C   UNL A   1      39.988  28.745  28.985  1.00  0.00     0.031 A 
ATOM     48  C   UNL A   1      46.389  28.310  30.113  1.00  0.00     0.049 A 
ATOM     49  C   UNL A   1      41.003  29.693  29.567  1.00  0.00     0.074 A 
ATOM     50  C   UNL A   1      47.239  29.286  30.603  1.00  0.00     0.029 A 
ATOM     51  N   UNL A   1      45.120  28.865  30.075  1.00  0.00    -0.354 N 
ATOM     52  N   UNL A   1      42.292  29.523  29.735  1.00  0.00    -0.248 NA
ATOM     53  C   UNL A   1      40.508  31.006  30.006  1.00  0.00     0.031 C 
ATOM     54  C   UNL A   1      46.476  30.418  30.904  1.00  0.00     0.029 A 
ATOM     55  C   UNL A   1      45.162  30.166  30.545  1.00  0.00     0.049 A 
ATOM     56  H   UNL A   1      44.309  28.401  29.762  1.00  0.00     0.167 HD
ATOM     57  C   UNL A   1      42.765  30.718  30.263  1.00  0.00     0.074 A 
ATOM     58  C   UNL A   1      41.629  31.608  30.372  1.00  0.00     0.031 C 
ATOM     59  C   UNL A   1      44.028  31.048  30.628  1.00  0.00     0.031 A 
BRANCH  46  60
ATOM     60  C   UNL A   1      48.137  26.515  29.815  1.00  0.00    -0.014 A 
ATOM     61  C   UNL A   1      48.599  25.861  30.969  1.00  0.00     0.009 A 
ATOM     62  C   UNL A   1      49.018  26.689  28.736  1.00  0.00     0.009 A 
ATOM     63  C   UNL A   1      49.921  25.418  31.052  1.00  0.00     0.001 A 
ATOM     64  C   UNL A   1      50.330  26.219  28.810  1.00  0.00     0.001 A 
ATOM     65  C   UNL A   1      50.783  25.591  29.969  1.00  0.00     0.000 A 
ENDBRANCH  46  60
BRANCH  47  66
ATOM     66  C   UNL A   1      38.557  29.144  28.895  1.00  0.00    -0.014 A 
ATOM     67  C   UNL A   1      38.035  29.681  27.708  1.00  0.00     0.009 A 
ATOM     68  C   UNL A   1      37.715  29.035  30.014  1.00  0.00     0.009 A 
ATOM     69  C   UNL A   1      36.717  30.142  27.656  1.00  0.00     0.001 A 
ATOM     70  C   UNL A   1      36.388  29.464  29.949  1.00  0.00     0.001 A 
ATOM     71  C   UNL A   1      35.895  30.032  28.776  1.00  0.00     0.000 A 
ENDBRANCH  47  66
BRANCH  59  72
ATOM     72  C   UNL A   1      44.263  32.449  31.120  1.00  0.00    -0.014 A 
ATOM     73  C   UNL A   1      44.563  33.496  30.237  1.00  0.00     0.009 A 
ATOM     74  C   UNL A   1      44.132  32.729  32.489  1.00  0.00     0.009 A 
ATOM     75  C   UNL A   1      44.761  34.792  30.721  1.00  0.00     0.001 A 
ATOM     76  C   UNL A   1      44.297  34.029  32.967  1.00  0.00     0.001 A 
ATOM     77  C   UNL A   1      44.621  35.058  32.084  1.00  0.00     0.000 A 
ENDBRANCH  59  72
ENDBRANCH  33  34
ENDBRANCH  25  28
ENDBRANCH  23  24
ENDBRANCH  22  23
ENDBRANCH   1  22
TORSDOF 14
ENDMDL
MODEL 2
REMARK VINA RESULT:     -10.8      0.976      1.546
REMARK SMILES CC[C@@H]1CCCN1C(=O)N1CC[C@@H](C(=O)NCCCCNC(=O)c2ccc(-c3c4nc(c(-c5ccccc5)c5ccc([nH]5)c(-c5ccccc5)c5nc(c(-c6ccccc6)c6ccc3[nH]6)C=C5)C=C4)cc2)[C@@H]1C
REMARK SMILES IDX 18 1 17 2 16 3 14 4 15 5 13 7 10 8 11 9 72 10 12 11 73 12
REMARK SMILES IDX 8 13 9 14 7 15 3 16 4 17 5 18 6 19 2 20 1 21 19 22 20 23
REMARK SMILES IDX 21 24 22 25 23 27 24 28 25 29 71 30 26 31 70 32 27 33 28 34
REMARK SMILES IDX 29 35 64 36 30 37 69 38 63 39 65 40 31 41 68 42 62 43 61 44
REMARK SMILES IDX 32 46 54 47 39 48 53 49 40 50 43 51 52 52 66 53 41 54 42 55
REMARK SMILES IDX 51 57 67 58 44 59 33 60 34 61 38 62 35 63 37 64 36 65 55 66
REMARK SMILES IDX 56 67 60 68 57 69 59 70 58 71 45 72 46 73 50 74 47 75 49 76
REMARK SMILES IDX 48 77
REMARK H PARENT 16 6 21 26 65 45 43 56
REMARK Flexibility Score: inf
ROOT
ATOM      1  C   UNL A   1      36.697  21.038  24.624  1.00  0.00     0.023 C 
ENDROOT
BRANCH   1   2
ATOM      2  C   UNL A   1      35.822  21.351  25.836  1.00  0.00     0.116 C 
BRANCH   2   3
ATOM      3  N   UNL A   1      34.459  20.871  25.699  1.00  0.00    -0.356 N 
ATOM      4  C   UNL A   1      33.279  21.553  25.767  1.00  0.00     0.225 C 
ATOM      5  O   UNL A   1      32.249  20.957  25.458  1.00  0.00    -0.275 OA
ATOM      6  H   UNL A   1      34.374  19.905  25.532  1.00  0.00     0.163 HD
BRANCH   4   7
ATOM      7  C   UNL A   1      33.263  22.952  26.343  1.00  0.00     0.102 C 
ATOM      8  N   UNL A   1      32.163  24.953  25.794  1.00  0.00    -0.321 N 
ATOM      9  C   UNL A   1      31.148  24.094  26.364  1.00  0.00     0.122 C 
ATOM     10  C   UNL A   1      33.194  24.063  25.272  1.00  0.00     0.096 C 
ATOM     11  C   UNL A   1      31.970  23.108  27.173  1.00  0.00     0.037 C 
ATOM     12  C   UNL A   1      34.535  24.760  25.071  1.00  0.00     0.032 C 
BRANCH   8  13
ATOM     13  C   UNL A   1      31.802  26.093  25.127  1.00  0.00     0.320 C 
ATOM     14  O   UNL A   1      31.175  26.038  24.069  1.00  0.00    -0.248 OA
BRANCH  13  15
ATOM     15  N   UNL A   1      32.219  27.294  25.671  1.00  0.00    -0.322 N 
ATOM     16  C   UNL A   1      32.842  28.483  25.052  1.00  0.00     0.086 C 
ATOM     17  C   UNL A   1      33.239  29.312  26.279  1.00  0.00     0.027 C 
ATOM     18  C   UNL A   1      32.081  29.089  27.234  1.00  0.00     0.024 C 
ATOM     19  C   UNL A   1      31.680  27.645  26.980  1.00  0.00     0.122 C 
BRANCH  16  20
ATOM     20  C   UNL A   1      34.016  28.286  24.096  1.00  0.00     0.022 C 
ATOM     21  C   UNL A   1      33.695  28.459  22.619  1.00  0.00     0.006 C 
ENDBRANCH  16  20
ENDBRANCH  13  15
ENDBRANCH   8  13
ENDBRANCH   4   7
ENDBRANCH   2   3
ENDBRANCH   1   2
BRANCH   1  22
ATOM     22  C   UNL A   1      37.753  19.956  24.845  1.00  0.00     0.023 C 
BRANCH  22  23
ATOM     23  C   UNL A   1      38.917  20.344  25.749  1.00  0.00     0.116 C 
BRANCH  23  24
ATOM     24  N   UNL A   1      39.998  19.372  25.751  1.00  0.00    -0.352 N 
ATOM     25  C   UNL A   1      41.323  19.546  26.086  1.00  0.00     0.251 C 
ATOM     26  H   UNL A   1      39.748  18.461  25.473  1.00  0.00     0.163 HD
ATOM     27  O   UNL A   1      42.125  18.640  25.919  1.00  0.00    -0.269 OA
BRANCH  25  28
ATOM     28  C   UNL A   1      41.778  20.853  26.613  1.00  0.00     0.039 A 
ATOM     29  C   UNL A   1      42.273  21.805  25.719  1.00  0.00     0.014 A 
ATOM     30  C   UNL A   1      41.694  21.147  27.976  1.00  0.00     0.014 A 
ATOM     31  C   UNL A   1      42.611  23.079  26.181  1.00  0.00     0.010 A 
ATOM     32  C   UNL A   1      41.957  22.439  28.421  1.00  0.00     0.010 A 
ATOM     33  C   UNL A   1      42.416  23.421  27.528  1.00  0.00    -0.014 A 
BRANCH  33  34
ATOM     34  C   UNL A   1      42.686  24.794  28.029  1.00  0.00     0.031 A 
ATOM     35  C   UNL A   1      44.072  25.172  28.477  1.00  0.00     0.074 A 
ATOM     36  C   UNL A   1      41.677  25.681  28.144  1.00  0.00     0.049 A 
ATOM     37  N   UNL A   1      44.486  26.281  29.039  1.00  0.00    -0.248 NA
ATOM     38  C   UNL A   1      45.129  24.163  28.292  1.00  0.00     0.031 C 
ATOM     39  C   UNL A   1      40.282  25.435  27.772  1.00  0.00     0.029 A 
ATOM     40  N   UNL A   1      41.670  26.969  28.621  1.00  0.00    -0.354 N 
ATOM     41  C   UNL A   1      45.842  26.100  29.277  1.00  0.00     0.074 A 
ATOM     42  C   UNL A   1      46.171  24.755  28.856  1.00  0.00     0.031 C 
ATOM     43  C   UNL A   1      39.559  26.540  28.021  1.00  0.00     0.029 A 
ATOM     44  C   UNL A   1      40.425  27.554  28.611  1.00  0.00     0.049 A 
ATOM     45  H   UNL A   1      42.479  27.430  28.940  1.00  0.00     0.167 HD
ATOM     46  C   UNL A   1      46.741  26.980  29.778  1.00  0.00     0.031 A 
ATOM     47  C   UNL A   1      40.024  28.765  29.046  1.00  0.00     0.031 A 
ATOM     48  C   UNL A   1      46.421  28.317  30.197  1.00  0.00     0.049 A 
ATOM     49  C   UNL A   1      41.038  29.707  29.640  1.00  0.00     0.074 A 
ATOM     50  C   UNL A   1      47.268  29.289  30.698  1.00  0.00     0.029 A 
ATOM     51  N   UNL A   1      45.152  28.873  30.158  1.00  0.00    -0.354 N 
ATOM     52  N   UNL A   1      42.325  29.535  29.812  1.00  0.00    -0.248 NA
ATOM     53  C   UNL A   1      40.541  31.016  30.087  1.00  0.00     0.031 C 
ATOM     54  C   UNL A   1      46.505  30.418  31.006  1.00  0.00     0.029 A 
ATOM     55  C   UNL A   1      45.192  30.170  30.639  1.00  0.00     0.049 A 
ATOM     56  H   UNL A   1      44.342  28.412  29.838  1.00  0.00     0.167 HD
ATOM     57  C   UNL A   1      42.796  30.725  30.352  1.00  0.00     0.074 A 
ATOM     58  C   UNL A   1      41.661  31.615  30.463  1.00  0.00     0.031 C 
ATOM     59  C   UNL A   1      44.058  31.051  30.725  1.00  0.00     0.031 A 
BRANCH  46  60
ATOM     60  C   UNL A   1      48.169  26.524  29.891  1.00  0.00    -0.014 A 
ATOM     61  C   UNL A   1      48.621  25.843  31.033  1.00  0.00     0.009 A 
ATOM     62  C   UNL A   1      49.059  26.725  28.824  1.00  0.00     0.009 A 
ATOM     63  C   UNL A   1      49.942  25.400  31.117  1.00  0.00     0.001 A 
ATOM     64  C   UNL A   1      50.371  26.254  28.899  1.00  0.00     0.001 A 
ATOM     65  C   UNL A   1      50.814  25.599  30.047  1.00  0.00     0.000 A 
ENDBRANCH  46  60
BRANCH  47  66
ATOM     66  C   UNL A   1      38.594  29.165  28.953  1.00  0.00    -0.014 A 
ATOM     67  C   UNL A   1      38.071  29.691  27.761  1.00  0.00     0.009 A 
ATOM     68  C   UNL A   1      37.753  29.068  30.073  1.00  0.00     0.009 A 
ATOM     69  C   UNL A   1      36.754  30.154  27.706  1.00  0.00     0.001 A 
ATOM     70  C   UNL A   1      36.426  29.498  30.006  1.00  0.00     0.001 A 
ATOM     71  C   UNL A   1      35.933  30.055  28.828  1.00  0.00     0.000 A 
ENDBRANCH  47  66
BRANCH  59  72
ATOM     72  C   UNL A   1      44.291  32.448  31.230  1.00  0.00    -0.014 A 
ATOM     73  C   UNL A   1      44.209  32.758  32.595  1.00  0.00     0.009 A 
ATOM     74  C   UNL A   1      44.650  33.458  30.323  1.00  0.00     0.009 A 
ATOM     75  C   UNL A   1      44.446  34.062  33.038  1.00  0.00     0.001 A 
ATOM     76  C   UNL A   1      44.918  34.751  30.771  1.00  0.00     0.001 A 
ATOM     77  C   UNL A   1      44.807  35.055  32.126  1.00  0.00     0.000 A 
ENDBRANCH  59  72
ENDBRANCH  33  34
ENDBRANCH  25  28
ENDBRANCH  23  24
ENDBRANCH  22  23
ENDBRANCH   1  22
TORSDOF 14
ENDMDL
MODEL 3
REMARK VINA RESULT:     -10.7      4.071      9.293
REMARK SMILES CC[C@@H]1CCCN1C(=O)N1CC[C@@H](C(=O)NCCCCNC(=O)c2ccc(-c3c4nc(c(-c5ccccc5)c5ccc([nH]5)c(-c5ccccc5)c5nc(c(-c6ccccc6)c6ccc3[nH]6)C=C5)C=C4)cc2)[C@@H]1C
REMARK SMILES IDX 18 1 17 2 16 3 14 4 15 5 13 7 10 8 11 9 72 10 12 11 73 12
REMARK SMILES IDX 8 13 9 14 7 15 3 16 4 17 5 18 6 19 2 20 1 21 19 22 20 23
REMARK SMILES IDX 21 24 22 25 23 27 24 28 25 29 71 30 26 31 70 32 27 33 28 34
REMARK SMILES IDX 29 35 64 36 30 37 69 38 63 39 65 40 31 41 68 42 62 43 61 44
REMARK SMILES IDX 32 46 54 47 39 48 53 49 40 50 43 51 52 52 66 53 41 54 42 55
REMARK SMILES IDX 51 57 67 58 44 59 33 60 34 61 38 62 35 63 37 64 36 65 55 66
REMARK SMILES IDX 56 67 60 68 57 69 59 70 58 71 45 72 46 73 50 74 47 75 49 76
REMARK SMILES IDX 48 77
REMARK H PARENT 16 6 21 26 65 45 43 56
REMARK Flexibility Score: inf
ROOT
ATOM      1  C   UNL A   1      31.814  30.420  26.595  1.00  0.00     0.023 C 
ENDROOT
BRANCH   1   2
ATOM      2  C   UNL A   1      31.685  29.795  25.208  1.00  0.00     0.116 C 
BRANCH   2   3
ATOM      3  N   UNL A   1      32.958  29.630  24.531  1.00  0.00    -0.356 N 
ATOM      4  C   UNL A   1      33.502  28.524  23.945  1.00  0.00     0.225 C 
ATOM      5  O   UNL A   1      34.532  28.666  23.288  1.00  0.00    -0.275 OA
ATOM      6  H   UNL A   1      33.514  30.441  24.489  1.00  0.00     0.163 HD
BRANCH   4   7
ATOM      7  C   UNL A   1      32.907  27.163  24.233  1.00  0.00     0.102 C 
ATOM      8  N   UNL A   1      33.710  24.958  24.152  1.00  0.00    -0.321 N 
ATOM      9  C   UNL A   1      34.337  25.559  25.310  1.00  0.00     0.122 C 
ATOM     10  C   UNL A   1      33.378  26.061  23.258  1.00  0.00     0.096 C 
ATOM     11  C   UNL A   1      33.405  26.715  25.624  1.00  0.00     0.037 C 
ATOM     12  C   UNL A   1      32.309  25.695  22.234  1.00  0.00     0.032 C 
BRANCH   8  13
ATOM     13  C   UNL A   1      34.167  23.761  23.669  1.00  0.00     0.320 C 
ATOM     14  O   UNL A   1      35.033  23.719  22.794  1.00  0.00    -0.248 OA
BRANCH  13  15
ATOM     15  N   UNL A   1      33.575  22.617  24.170  1.00  0.00    -0.322 N 
ATOM     16  C   UNL A   1      32.173  22.150  24.144  1.00  0.00     0.086 C 
ATOM     17  C   UNL A   1      32.220  20.941  25.085  1.00  0.00     0.027 C 
ATOM     18  C   UNL A   1      33.562  20.309  24.766  1.00  0.00     0.024 C 
ATOM     19  C   UNL A   1      34.461  21.501  24.479  1.00  0.00     0.122 C 
BRANCH  16  20
ATOM     20  C   UNL A   1      31.064  23.126  24.529  1.00  0.00     0.022 C 
ATOM     21  C   UNL A   1      30.977  23.468  26.009  1.00  0.00     0.006 C 
ENDBRANCH  16  20
ENDBRANCH  13  15
ENDBRANCH   8  13
ENDBRANCH   4   7
ENDBRANCH   2   3
ENDBRANCH   1   2
BRANCH   1  22
ATOM     22  C   UNL A   1      31.663  31.941  26.640  1.00  0.00     0.023 C 
BRANCH  22  23
ATOM     23  C   UNL A   1      32.788  32.695  27.340  1.00  0.00     0.116 C 
BRANCH  23  24
ATOM     24  N   UNL A   1      32.441  34.065  27.682  1.00  0.00    -0.352 N 
ATOM     25  C   UNL A   1      33.033  34.909  28.595  1.00  0.00     0.251 C 
ATOM     26  H   UNL A   1      31.676  34.442  27.191  1.00  0.00     0.163 HD
ATOM     27  O   UNL A   1      32.538  35.999  28.840  1.00  0.00    -0.269 OA
BRANCH  25  28
ATOM     28  C   UNL A   1      34.254  34.472  29.311  1.00  0.00     0.039 A 
ATOM     29  C   UNL A   1      34.122  33.893  30.576  1.00  0.00     0.014 A 
ATOM     30  C   UNL A   1      35.516  34.608  28.730  1.00  0.00     0.014 A 
ATOM     31  C   UNL A   1      35.248  33.380  31.224  1.00  0.00     0.010 A 
ATOM     32  C   UNL A   1      36.624  34.028  29.341  1.00  0.00     0.010 A 
ATOM     33  C   UNL A   1      36.503  33.405  30.594  1.00  0.00    -0.014 A 
BRANCH  33  34
ATOM     34  C   UNL A   1      37.701  32.791  31.223  1.00  0.00     0.031 A 
ATOM     35  C   UNL A   1      38.333  31.573  30.607  1.00  0.00     0.074 A 
ATOM     36  C   UNL A   1      38.185  33.287  32.380  1.00  0.00     0.049 A 
ATOM     37  N   UNL A   1      39.316  30.833  31.058  1.00  0.00    -0.248 NA
ATOM     38  C   UNL A   1      37.772  31.108  29.327  1.00  0.00     0.031 C 
ATOM     39  C   UNL A   1      37.650  34.447  33.098  1.00  0.00     0.029 A 
ATOM     40  N   UNL A   1      39.230  32.867  33.165  1.00  0.00    -0.354 N 
ATOM     41  C   UNL A   1      39.484  29.819  30.124  1.00  0.00     0.074 A 
ATOM     42  C   UNL A   1      38.467  30.001  29.112  1.00  0.00     0.031 C 
ATOM     43  C   UNL A   1      38.380  34.653  34.207  1.00  0.00     0.029 A 
ATOM     44  C   UNL A   1      39.402  33.616  34.305  1.00  0.00     0.049 A 
ATOM     45  H   UNL A   1      39.803  32.100  32.933  1.00  0.00     0.167 HD
ATOM     46  C   UNL A   1      40.418  28.838  30.095  1.00  0.00     0.031 A 
ATOM     47  C   UNL A   1      40.272  33.474  35.323  1.00  0.00     0.031 A 
ATOM     48  C   UNL A   1      41.432  28.654  31.097  1.00  0.00     0.049 A 
ATOM     49  C   UNL A   1      41.270  32.347  35.286  1.00  0.00     0.074 A 
ATOM     50  C   UNL A   1      42.434  27.701  31.142  1.00  0.00     0.029 A 
ATOM     51  N   UNL A   1      41.577  29.443  32.227  1.00  0.00    -0.354 N 
ATOM     52  N   UNL A   1      41.445  31.427  34.370  1.00  0.00    -0.248 NA
ATOM     53  C   UNL A   1      42.199  32.250  36.422  1.00  0.00     0.031 C 
ATOM     54  C   UNL A   1      43.159  27.884  32.324  1.00  0.00     0.029 A 
ATOM     55  C   UNL A   1      42.645  28.989  32.982  1.00  0.00     0.049 A 
ATOM     56  H   UNL A   1      41.005  30.210  32.458  1.00  0.00     0.167 HD
ATOM     57  C   UNL A   1      42.525  30.666  34.800  1.00  0.00     0.074 A 
ATOM     58  C   UNL A   1      42.975  31.242  36.049  1.00  0.00     0.031 C 
ATOM     59  C   UNL A   1      43.094  29.585  34.213  1.00  0.00     0.031 A 
BRANCH  46  60
ATOM     60  C   UNL A   1      40.391  27.890  28.929  1.00  0.00    -0.014 A 
ATOM     61  C   UNL A   1      39.661  26.691  28.991  1.00  0.00     0.009 A 
ATOM     62  C   UNL A   1      41.053  28.220  27.736  1.00  0.00     0.009 A 
ATOM     63  C   UNL A   1      39.620  25.829  27.894  1.00  0.00     0.001 A 
ATOM     64  C   UNL A   1      40.985  27.371  26.631  1.00  0.00     0.001 A 
ATOM     65  C   UNL A   1      40.275  26.173  26.712  1.00  0.00     0.000 A 
ENDBRANCH  46  60
BRANCH  47  66
ATOM     66  C   UNL A   1      40.241  34.411  36.479  1.00  0.00    -0.014 A 
ATOM     67  C   UNL A   1      39.421  34.153  37.589  1.00  0.00     0.009 A 
ATOM     68  C   UNL A   1      40.997  35.593  36.458  1.00  0.00     0.009 A 
ATOM     69  C   UNL A   1      39.323  35.081  38.630  1.00  0.00     0.001 A 
ATOM     70  C   UNL A   1      40.925  36.502  37.516  1.00  0.00     0.001 A 
ATOM     71  C   UNL A   1      40.076  36.253  38.593  1.00  0.00     0.000 A 
ENDBRANCH  47  66
BRANCH  59  72
ATOM     72  C   UNL A   1      44.302  28.990  34.880  1.00  0.00    -0.014 A 
ATOM     73  C   UNL A   1      44.187  27.958  35.823  1.00  0.00     0.009 A 
ATOM     74  C   UNL A   1      45.581  29.441  34.518  1.00  0.00     0.009 A 
ATOM     75  C   UNL A   1      45.329  27.413  36.416  1.00  0.00     0.001 A 
ATOM     76  C   UNL A   1      46.722  28.873  35.087  1.00  0.00     0.001 A 
ATOM     77  C   UNL A   1      46.594  27.866  36.042  1.00  0.00     0.000 A 
ENDBRANCH  59  72
ENDBRANCH  33  34
ENDBRANCH  25  28
ENDBRANCH  23  24
ENDBRANCH  22  23
ENDBRANCH   1  22
TORSDOF 14
ENDMDL
