MODEL 1
REMARK VINA RESULT:     -12.6      0.000      0.000
REMARK SMILES O=C(NCCCCNC(=O)c1cccc(NC(=O)c2ccc(N3C(=O)CCC3=O)cc2)c1)c1ccc(-c2c3nc(c(-c4ccccc4)c4ccc([nH]4)c(-c4ccccc4)c4nc(c(-c5ccccc5)c5ccc2[nH]5)C=C4)C=C3)cc1
REMARK SMILES IDX 6 1 5 2 4 3 3 4 1 5 2 6 33 8 34 9 80 10 35 11 79 12 36 13
REMARK SMILES IDX 37 14 38 15 73 16 39 17 78 18 72 19 74 20 40 21 77 22 71 23
REMARK SMILES IDX 70 24 41 26 63 27 48 28 62 29 49 30 52 31 61 32 75 33 50 34
REMARK SMILES IDX 51 35 60 37 76 38 53 39 42 40 43 41 47 42 44 43 46 44 45 45
REMARK SMILES IDX 64 46 65 47 69 48 66 49 68 50 67 51 54 52 55 53 59 54 56 55
REMARK SMILES IDX 58 56 57 57 7 58 8 59 9 60 10 62 11 63 12 64 32 65 13 66
REMARK SMILES IDX 15 67 14 68 16 69 17 70 18 72 19 73 20 74 31 75 21 76 30 77
REMARK SMILES IDX 22 78 23 79 24 80 28 81 25 82 26 83 27 84 29 85
REMARK H PARENT 3 7 74 25 52 36 8 61 16 71
REMARK Flexibility Score: inf
ROOT
ATOM      1  C   UNL A   1      31.499  30.704  25.919  1.00  0.00     0.023 C 
ENDROOT
BRANCH   1   2
ATOM      2  C   UNL A   1      31.326  32.089  26.536  1.00  0.00     0.023 C 
BRANCH   2   3
ATOM      3  C   UNL A   1      32.578  32.668  27.182  1.00  0.00     0.116 C 
BRANCH   3   4
ATOM      4  N   UNL A   1      32.402  34.040  27.627  1.00  0.00    -0.352 N 
ATOM      5  O   UNL A   1      32.769  35.862  28.907  1.00  0.00    -0.269 OA
ATOM      6  C   UNL A   1      33.141  34.759  28.540  1.00  0.00     0.251 C 
ATOM      7  H   UNL A   1      31.648  34.524  27.218  1.00  0.00     0.163 HD
BRANCH   6   8
ATOM      8  C   UNL A   1      34.377  34.166  29.095  1.00  0.00     0.039 A 
ATOM      9  C   UNL A   1      35.612  34.407  28.490  1.00  0.00     0.014 A 
ATOM     10  C   UNL A   1      34.294  33.351  30.227  1.00  0.00     0.014 A 
ATOM     11  C   UNL A   1      36.735  33.711  28.919  1.00  0.00     0.010 A 
ATOM     12  C   UNL A   1      35.445  32.728  30.717  1.00  0.00     0.010 A 
ATOM     13  C   UNL A   1      36.669  32.880  30.049  1.00  0.00    -0.014 A 
BRANCH  13  14
ATOM     14  C   UNL A   1      37.915  32.250  30.554  1.00  0.00     0.031 A 
ATOM     15  C   UNL A   1      38.676  32.831  31.713  1.00  0.00     0.074 A 
ATOM     16  C   UNL A   1      38.340  31.116  29.965  1.00  0.00     0.049 A 
ATOM     17  N   UNL A   1      39.764  32.382  32.286  1.00  0.00    -0.248 NA
ATOM     18  C   UNL A   1      38.157  34.074  32.302  1.00  0.00     0.031 C 
ATOM     19  C   UNL A   1      37.685  30.461  28.828  1.00  0.00     0.029 A 
ATOM     20  N   UNL A   1      39.404  30.302  30.249  1.00  0.00    -0.354 N 
ATOM     21  C   UNL A   1      40.072  33.293  33.289  1.00  0.00     0.074 A 
ATOM     22  C   UNL A   1      39.069  34.335  33.230  1.00  0.00     0.031 C 
ATOM     23  C   UNL A   1      38.330  29.320  28.548  1.00  0.00     0.029 A 
ATOM     24  C   UNL A   1      39.481  29.199  29.433  1.00  0.00     0.049 A 
ATOM     25  H   UNL A   1      40.051  30.488  30.967  1.00  0.00     0.167 HD
ATOM     26  C   UNL A   1      41.095  33.260  34.176  1.00  0.00     0.031 A 
ATOM     27  C   UNL A   1      40.388  28.207  29.385  1.00  0.00     0.031 A 
ATOM     28  C   UNL A   1      42.094  32.223  34.226  1.00  0.00     0.049 A 
ATOM     29  C   UNL A   1      41.532  28.221  30.353  1.00  0.00     0.074 A 
ATOM     30  C   UNL A   1      43.153  32.087  35.109  1.00  0.00     0.029 A 
ATOM     31  N   UNL A   1      42.163  31.148  33.353  1.00  0.00    -0.354 N 
ATOM     32  N   UNL A   1      41.787  29.072  31.316  1.00  0.00    -0.248 NA
ATOM     33  C   UNL A   1      42.515  27.138  30.225  1.00  0.00     0.031 C 
ATOM     34  C   UNL A   1      43.894  30.962  34.734  1.00  0.00     0.029 A 
ATOM     35  C   UNL A   1      43.263  30.361  33.657  1.00  0.00     0.049 A 
ATOM     36  H   UNL A   1      41.526  30.970  32.625  1.00  0.00     0.167 HD
ATOM     37  C   UNL A   1      42.949  28.619  31.922  1.00  0.00     0.074 A 
ATOM     38  C   UNL A   1      43.335  27.404  31.232  1.00  0.00     0.031 C 
ATOM     39  C   UNL A   1      43.638  29.161  32.955  1.00  0.00     0.031 A 
BRANCH  26  40
ATOM     40  C   UNL A   1      41.210  34.399  35.154  1.00  0.00    -0.014 A 
ATOM     41  C   UNL A   1      40.595  34.345  36.415  1.00  0.00     0.009 A 
ATOM     42  C   UNL A   1      41.991  35.520  34.829  1.00  0.00     0.009 A 
ATOM     43  C   UNL A   1      40.737  35.403  37.317  1.00  0.00     0.001 A 
ATOM     44  C   UNL A   1      42.153  36.563  35.743  1.00  0.00     0.001 A 
ATOM     45  C   UNL A   1      41.520  36.508  36.982  1.00  0.00     0.000 A 
ENDBRANCH  26  40
BRANCH  27  46
ATOM     46  C   UNL A   1      40.254  27.133  28.368  1.00  0.00    -0.014 A 
ATOM     47  C   UNL A   1      39.514  25.974  28.642  1.00  0.00     0.009 A 
ATOM     48  C   UNL A   1      40.858  27.271  27.108  1.00  0.00     0.009 A 
ATOM     49  C   UNL A   1      39.402  24.965  27.683  1.00  0.00     0.001 A 
ATOM     50  C   UNL A   1      40.716  26.276  26.139  1.00  0.00     0.001 A 
ATOM     51  C   UNL A   1      39.996  25.120  26.431  1.00  0.00     0.000 A 
ENDBRANCH  27  46
BRANCH  39  52
ATOM     52  C   UNL A   1      44.864  28.423  33.416  1.00  0.00    -0.014 A 
ATOM     53  C   UNL A   1      46.132  28.720  32.893  1.00  0.00     0.009 A 
ATOM     54  C   UNL A   1      44.747  27.430  34.401  1.00  0.00     0.009 A 
ATOM     55  C   UNL A   1      47.254  28.008  33.322  1.00  0.00     0.001 A 
ATOM     56  C   UNL A   1      45.874  26.743  34.850  1.00  0.00     0.001 A 
ATOM     57  C   UNL A   1      47.126  27.025  34.302  1.00  0.00     0.000 A 
ENDBRANCH  39  52
ENDBRANCH  13  14
ENDBRANCH   6   8
ENDBRANCH   3   4
ENDBRANCH   2   3
ENDBRANCH   1   2
BRANCH   1  58
ATOM     58  C   UNL A   1      32.229  29.691  26.794  1.00  0.00     0.116 C 
BRANCH  58  59
ATOM     59  N   UNL A   1      33.217  28.927  26.051  1.00  0.00    -0.352 N 
ATOM     60  C   UNL A   1      33.081  27.762  25.345  1.00  0.00     0.251 C 
ATOM     61  H   UNL A   1      34.126  29.306  26.056  1.00  0.00     0.163 HD
ATOM     62  O   UNL A   1      34.080  27.172  24.943  1.00  0.00    -0.269 OA
BRANCH  60  63
ATOM     63  C   UNL A   1      31.744  27.202  25.074  1.00  0.00     0.041 A 
ATOM     64  C   UNL A   1      31.089  27.599  23.909  1.00  0.00     0.014 A 
ATOM     65  C   UNL A   1      31.123  26.327  25.977  1.00  0.00     0.040 A 
ATOM     66  C   UNL A   1      29.812  27.119  23.653  1.00  0.00     0.003 A 
ATOM     67  C   UNL A   1      29.877  25.768  25.683  1.00  0.00     0.042 A 
ATOM     68  C   UNL A   1      29.210  26.223  24.543  1.00  0.00     0.026 A 
BRANCH  67  69
ATOM     69  N   UNL A   1      29.409  24.776  26.572  1.00  0.00    -0.322 N 
ATOM     70  C   UNL A   1      29.906  23.552  26.965  1.00  0.00     0.255 C 
ATOM     71  H   UNL A   1      28.553  25.006  27.000  1.00  0.00     0.170 HD
ATOM     72  O   UNL A   1      29.265  22.835  27.729  1.00  0.00    -0.269 OA
BRANCH  70  73
ATOM     73  C   UNL A   1      31.211  23.082  26.487  1.00  0.00     0.040 A 
ATOM     74  C   UNL A   1      31.273  22.501  25.225  1.00  0.00     0.016 A 
ATOM     75  C   UNL A   1      32.374  23.326  27.218  1.00  0.00     0.016 A 
ATOM     76  C   UNL A   1      32.519  22.299  24.631  1.00  0.00     0.027 A 
ATOM     77  C   UNL A   1      33.620  23.102  26.619  1.00  0.00     0.027 A 
ATOM     78  C   UNL A   1      33.712  22.649  25.291  1.00  0.00     0.052 A 
BRANCH  78  79
ATOM     79  N   UNL A   1      34.959  22.599  24.601  1.00  0.00    -0.251 N 
ATOM     80  C   UNL A   1      35.289  23.371  23.511  1.00  0.00     0.234 C 
ATOM     81  C   UNL A   1      35.950  21.686  24.891  1.00  0.00     0.234 C 
ATOM     82  O   UNL A   1      34.626  24.228  22.942  1.00  0.00    -0.274 OA
ATOM     83  C   UNL A   1      36.696  23.056  23.098  1.00  0.00     0.111 C 
ATOM     84  C   UNL A   1      37.095  21.878  23.947  1.00  0.00     0.111 C 
ATOM     85  O   UNL A   1      35.941  20.774  25.708  1.00  0.00    -0.274 OA
ENDBRANCH  78  79
ENDBRANCH  70  73
ENDBRANCH  67  69
ENDBRANCH  60  63
ENDBRANCH  58  59
ENDBRANCH   1  58
TORSDOF 14
ENDMDL
MODEL 2
REMARK VINA RESULT:     -12.5      2.556      5.321
REMARK SMILES O=C(NCCCCNC(=O)c1cccc(NC(=O)c2ccc(N3C(=O)CCC3=O)cc2)c1)c1ccc(-c2c3nc(c(-c4ccccc4)c4ccc([nH]4)c(-c4ccccc4)c4nc(c(-c5ccccc5)c5ccc2[nH]5)C=C4)C=C3)cc1
REMARK SMILES IDX 6 1 5 2 4 3 3 4 1 5 2 6 33 8 34 9 80 10 35 11 79 12 36 13
REMARK SMILES IDX 37 14 38 15 73 16 39 17 78 18 72 19 74 20 40 21 77 22 71 23
REMARK SMILES IDX 70 24 41 26 63 27 48 28 62 29 49 30 52 31 61 32 75 33 50 34
REMARK SMILES IDX 51 35 60 37 76 38 53 39 42 40 43 41 47 42 44 43 46 44 45 45
REMARK SMILES IDX 64 46 65 47 69 48 66 49 68 50 67 51 54 52 55 53 59 54 56 55
REMARK SMILES IDX 58 56 57 57 7 58 8 59 9 60 10 62 11 63 12 64 32 65 13 66
REMARK SMILES IDX 15 67 14 68 16 69 17 70 18 72 19 73 20 74 31 75 21 76 30 77
REMARK SMILES IDX 22 78 23 79 24 80 28 81 25 82 26 83 27 84 29 85
REMARK H PARENT 3 7 74 25 52 36 8 61 16 71
REMARK Flexibility Score: inf
ROOT
ATOM      1  C   UNL A   1      32.110  27.576  26.848  1.00  0.00     0.023 C 
ENDROOT
BRANCH   1   2
ATOM      2  C   UNL A   1      33.595  27.462  26.517  1.00  0.00     0.023 C 
BRANCH   2   3
ATOM      3  C   UNL A   1      34.211  28.703  25.886  1.00  0.00     0.116 C 
BRANCH   3   4
ATOM      4  N   UNL A   1      33.767  29.936  26.513  1.00  0.00    -0.352 N 
ATOM      5  O   UNL A   1      33.773  31.601  28.036  1.00  0.00    -0.269 OA
ATOM      6  C   UNL A   1      34.356  30.657  27.528  1.00  0.00     0.251 C 
ATOM      7  H   UNL A   1      32.926  30.310  26.162  1.00  0.00     0.163 HD
BRANCH   6   8
ATOM      8  C   UNL A   1      35.693  30.255  28.017  1.00  0.00     0.039 A 
ATOM      9  C   UNL A   1      36.826  30.454  27.226  1.00  0.00     0.014 A 
ATOM     10  C   UNL A   1      35.808  29.662  29.277  1.00  0.00     0.014 A 
ATOM     11  C   UNL A   1      38.044  29.921  27.624  1.00  0.00     0.010 A 
ATOM     12  C   UNL A   1      37.056  29.213  29.718  1.00  0.00     0.010 A 
ATOM     13  C   UNL A   1      38.179  29.313  28.883  1.00  0.00    -0.014 A 
BRANCH  13  14
ATOM     14  C   UNL A   1      39.523  28.866  29.328  1.00  0.00     0.031 A 
ATOM     15  C   UNL A   1      40.352  29.690  30.273  1.00  0.00     0.074 A 
ATOM     16  C   UNL A   1      39.978  27.678  28.886  1.00  0.00     0.049 A 
ATOM     17  N   UNL A   1      41.532  29.421  30.775  1.00  0.00    -0.248 NA
ATOM     18  C   UNL A   1      39.794  30.979  30.709  1.00  0.00     0.031 C 
ATOM     19  C   UNL A   1      39.263  26.793  27.961  1.00  0.00     0.029 A 
ATOM     20  N   UNL A   1      41.134  27.000  29.167  1.00  0.00    -0.354 N 
ATOM     21  C   UNL A   1      41.866  30.512  31.568  1.00  0.00     0.074 A 
ATOM     22  C   UNL A   1      40.775  31.457  31.463  1.00  0.00     0.031 C 
ATOM     23  C   UNL A   1      39.971  25.667  27.796  1.00  0.00     0.029 A 
ATOM     24  C   UNL A   1      41.217  25.780  28.541  1.00  0.00     0.049 A 
ATOM     25  H   UNL A   1      41.837  27.351  29.760  1.00  0.00     0.167 HD
ATOM     26  C   UNL A   1      42.979  30.703  32.317  1.00  0.00     0.031 A 
ATOM     27  C   UNL A   1      42.197  24.858  28.546  1.00  0.00     0.031 A 
ATOM     28  C   UNL A   1      44.064  29.760  32.414  1.00  0.00     0.049 A 
ATOM     29  C   UNL A   1      43.435  25.118  29.351  1.00  0.00     0.074 A 
ATOM     30  C   UNL A   1      45.221  29.852  33.170  1.00  0.00     0.029 A 
ATOM     31  N   UNL A   1      44.131  28.557  31.728  1.00  0.00    -0.354 N 
ATOM     32  N   UNL A   1      43.718  26.138  30.122  1.00  0.00    -0.248 NA
ATOM     33  C   UNL A   1      44.489  24.098  29.283  1.00  0.00     0.031 C 
ATOM     34  C   UNL A   1      46.012  28.731  32.898  1.00  0.00     0.029 A 
ATOM     35  C   UNL A   1      45.322  27.911  32.020  1.00  0.00     0.049 A 
ATOM     36  H   UNL A   1      43.436  28.213  31.123  1.00  0.00     0.167 HD
ATOM     37  C   UNL A   1      44.975  25.877  30.647  1.00  0.00     0.074 A 
ATOM     38  C   UNL A   1      45.388  24.589  30.124  1.00  0.00     0.031 C 
ATOM     39  C   UNL A   1      45.722  26.635  31.485  1.00  0.00     0.031 A 
BRANCH  26  40
ATOM     40  C   UNL A   1      43.100  31.999  33.073  1.00  0.00    -0.014 A 
ATOM     41  C   UNL A   1      43.682  33.135  32.490  1.00  0.00     0.009 A 
ATOM     42  C   UNL A   1      42.571  32.099  34.370  1.00  0.00     0.009 A 
ATOM     43  C   UNL A   1      43.759  34.335  33.202  1.00  0.00     0.001 A 
ATOM     44  C   UNL A   1      42.624  33.307  35.069  1.00  0.00     0.001 A 
ATOM     45  C   UNL A   1      43.226  34.422  34.487  1.00  0.00     0.000 A 
ENDBRANCH  26  40
BRANCH  27  46
ATOM     46  C   UNL A   1      42.048  23.618  27.744  1.00  0.00    -0.014 A 
ATOM     47  C   UNL A   1      41.443  22.477  28.293  1.00  0.00     0.009 A 
ATOM     48  C   UNL A   1      42.499  23.574  26.414  1.00  0.00     0.009 A 
ATOM     49  C   UNL A   1      41.316  21.312  27.534  1.00  0.00     0.001 A 
ATOM     50  C   UNL A   1      42.339  22.419  25.648  1.00  0.00     0.001 A 
ATOM     51  C   UNL A   1      41.757  21.286  26.212  1.00  0.00     0.000 A 
ENDBRANCH  27  46
BRANCH  39  52
ATOM     52  C   UNL A   1      47.051  26.074  31.907  1.00  0.00    -0.014 A 
ATOM     53  C   UNL A   1      47.186  25.334  33.092  1.00  0.00     0.009 A 
ATOM     54  C   UNL A   1      48.178  26.274  31.095  1.00  0.00     0.009 A 
ATOM     55  C   UNL A   1      48.434  24.837  33.473  1.00  0.00     0.001 A 
ATOM     56  C   UNL A   1      49.417  25.750  31.463  1.00  0.00     0.001 A 
ATOM     57  C   UNL A   1      49.546  25.041  32.658  1.00  0.00     0.000 A 
ENDBRANCH  39  52
ENDBRANCH  13  14
ENDBRANCH   6   8
ENDBRANCH   3   4
ENDBRANCH   2   3
ENDBRANCH   1   2
BRANCH   1  58
ATOM     58  C   UNL A   1      31.208  26.574  26.134  1.00  0.00     0.116 C 
BRANCH  58  59
ATOM     59  N   UNL A   1      31.070  25.329  26.870  1.00  0.00    -0.352 N 
ATOM     60  C   UNL A   1      31.756  24.150  26.742  1.00  0.00     0.251 C 
ATOM     61  H   UNL A   1      30.377  25.332  27.570  1.00  0.00     0.163 HD
ATOM     62  O   UNL A   1      31.363  23.148  27.333  1.00  0.00    -0.269 OA
BRANCH  60  63
ATOM     63  C   UNL A   1      32.957  24.070  25.890  1.00  0.00     0.041 A 
ATOM     64  C   UNL A   1      34.166  23.719  26.489  1.00  0.00     0.014 A 
ATOM     65  C   UNL A   1      32.903  24.378  24.523  1.00  0.00     0.040 A 
ATOM     66  C   UNL A   1      35.318  23.679  25.716  1.00  0.00     0.003 A 
ATOM     67  C   UNL A   1      34.039  24.251  23.720  1.00  0.00     0.042 A 
ATOM     68  C   UNL A   1      35.252  23.958  24.347  1.00  0.00     0.026 A 
BRANCH  67  69
ATOM     69  N   UNL A   1      33.848  24.424  22.332  1.00  0.00    -0.322 N 
ATOM     70  C   UNL A   1      33.097  25.307  21.586  1.00  0.00     0.255 C 
ATOM     71  H   UNL A   1      34.355  23.782  21.784  1.00  0.00     0.170 HD
ATOM     72  O   UNL A   1      33.056  25.213  20.362  1.00  0.00    -0.269 OA
BRANCH  70  73
ATOM     73  C   UNL A   1      32.339  26.383  22.234  1.00  0.00     0.040 A 
ATOM     74  C   UNL A   1      32.990  27.590  22.468  1.00  0.00     0.016 A 
ATOM     75  C   UNL A   1      30.975  26.246  22.492  1.00  0.00     0.016 A 
ATOM     76  C   UNL A   1      32.237  28.709  22.822  1.00  0.00     0.027 A 
ATOM     77  C   UNL A   1      30.231  27.373  22.865  1.00  0.00     0.027 A 
ATOM     78  C   UNL A   1      30.839  28.637  22.970  1.00  0.00     0.052 A 
BRANCH  78  79
ATOM     79  N   UNL A   1      30.071  29.824  23.158  1.00  0.00    -0.251 N 
ATOM     80  C   UNL A   1      29.208  30.360  22.232  1.00  0.00     0.234 C 
ATOM     81  C   UNL A   1      30.187  30.633  24.268  1.00  0.00     0.234 C 
ATOM     82  O   UNL A   1      28.919  29.948  21.116  1.00  0.00    -0.274 OA
ATOM     83  C   UNL A   1      28.562  31.581  22.815  1.00  0.00     0.111 C 
ATOM     84  C   UNL A   1      29.280  31.814  24.119  1.00  0.00     0.111 C 
ATOM     85  O   UNL A   1      30.947  30.528  25.222  1.00  0.00    -0.274 OA
ENDBRANCH  78  79
ENDBRANCH  70  73
ENDBRANCH  67  69
ENDBRANCH  60  63
ENDBRANCH  58  59
ENDBRANCH   1  58
TORSDOF 14
ENDMDL
MODEL 3
REMARK VINA RESULT:     -12.4      3.297      9.014
REMARK SMILES O=C(NCCCCNC(=O)c1cccc(NC(=O)c2ccc(N3C(=O)CCC3=O)cc2)c1)c1ccc(-c2c3nc(c(-c4ccccc4)c4ccc([nH]4)c(-c4ccccc4)c4nc(c(-c5ccccc5)c5ccc2[nH]5)C=C4)C=C3)cc1
REMARK SMILES IDX 6 1 5 2 4 3 3 4 1 5 2 6 33 8 34 9 80 10 35 11 79 12 36 13
REMARK SMILES IDX 37 14 38 15 73 16 39 17 78 18 72 19 74 20 40 21 77 22 71 23
REMARK SMILES IDX 70 24 41 26 63 27 48 28 62 29 49 30 52 31 61 32 75 33 50 34
REMARK SMILES IDX 51 35 60 37 76 38 53 39 42 40 43 41 47 42 44 43 46 44 45 45
REMARK SMILES IDX 64 46 65 47 69 48 66 49 68 50 67 51 54 52 55 53 59 54 56 55
REMARK SMILES IDX 58 56 57 57 7 58 8 59 9 60 10 62 11 63 12 64 32 65 13 66
REMARK SMILES IDX 15 67 14 68 16 69 17 70 18 72 19 73 20 74 31 75 21 76 30 77
REMARK SMILES IDX 22 78 23 79 24 80 28 81 25 82 26 83 27 84 29 85
REMARK H PARENT 3 7 74 25 52 36 8 61 16 71
REMARK Flexibility Score: inf
ROOT
ATOM      1  C   UNL A   1      36.604  20.496  24.982  1.00  0.00     0.023 C 
ENDROOT
BRANCH   1   2
ATOM      2  C   UNL A   1      37.882  19.669  24.878  1.00  0.00     0.023 C 
BRANCH   2   3
ATOM      3  C   UNL A   1      39.051  20.181  25.709  1.00  0.00     0.116 C 
BRANCH   3   4
ATOM      4  N   UNL A   1      40.171  19.256  25.740  1.00  0.00    -0.352 N 
ATOM      5  O   UNL A   1      42.333  18.631  25.907  1.00  0.00    -0.269 OA
ATOM      6  C   UNL A   1      41.487  19.494  26.070  1.00  0.00     0.251 C 
ATOM      7  H   UNL A   1      39.960  18.327  25.492  1.00  0.00     0.163 HD
BRANCH   6   8
ATOM      8  C   UNL A   1      41.869  20.823  26.598  1.00  0.00     0.039 A 
ATOM      9  C   UNL A   1      41.810  21.085  27.967  1.00  0.00     0.014 A 
ATOM     10  C   UNL A   1      42.279  21.818  25.707  1.00  0.00     0.014 A 
ATOM     11  C   UNL A   1      42.009  22.380  28.428  1.00  0.00     0.010 A 
ATOM     12  C   UNL A   1      42.574  23.097  26.186  1.00  0.00     0.010 A 
ATOM     13  C   UNL A   1      42.413  23.396  27.548  1.00  0.00    -0.014 A 
BRANCH  13  14
ATOM     14  C   UNL A   1      42.737  24.737  28.094  1.00  0.00     0.031 A 
ATOM     15  C   UNL A   1      44.147  25.126  28.439  1.00  0.00     0.074 A 
ATOM     16  C   UNL A   1      41.732  25.621  28.250  1.00  0.00     0.049 A 
ATOM     17  N   UNL A   1      44.592  26.269  28.899  1.00  0.00    -0.248 NA
ATOM     18  C   UNL A   1      45.191  24.108  28.249  1.00  0.00     0.031 C 
ATOM     19  C   UNL A   1      40.321  25.355  27.954  1.00  0.00     0.029 A 
ATOM     20  N   UNL A   1      41.742  26.924  28.673  1.00  0.00    -0.354 N 
ATOM     21  C   UNL A   1      45.961  26.103  29.072  1.00  0.00     0.074 A 
ATOM     22  C   UNL A   1      46.270  24.741  28.691  1.00  0.00     0.031 C 
ATOM     23  C   UNL A   1      39.612  26.474  28.151  1.00  0.00     0.029 A 
ATOM     24  C   UNL A   1      40.501  27.513  28.655  1.00  0.00     0.049 A 
ATOM     25  H   UNL A   1      42.558  27.394  28.960  1.00  0.00     0.167 HD
ATOM     26  C   UNL A   1      46.874  27.005  29.506  1.00  0.00     0.031 A 
ATOM     27  C   UNL A   1      40.111  28.746  29.024  1.00  0.00     0.031 A 
ATOM     28  C   UNL A   1      46.559  28.358  29.889  1.00  0.00     0.049 A 
ATOM     29  C   UNL A   1      41.138  29.708  29.541  1.00  0.00     0.074 A 
ATOM     30  C   UNL A   1      47.421  29.356  30.315  1.00  0.00     0.029 A 
ATOM     31  N   UNL A   1      45.284  28.901  29.902  1.00  0.00    -0.354 N 
ATOM     32  N   UNL A   1      42.432  29.545  29.664  1.00  0.00    -0.248 NA
ATOM     33  C   UNL A   1      40.649  31.024  29.970  1.00  0.00     0.031 C 
ATOM     34  C   UNL A   1      46.659  30.484  30.638  1.00  0.00     0.029 A 
ATOM     35  C   UNL A   1      45.331  30.210  30.356  1.00  0.00     0.049 A 
ATOM     36  H   UNL A   1      44.465  28.427  29.630  1.00  0.00     0.167 HD
ATOM     37  C   UNL A   1      42.917  30.743  30.169  1.00  0.00     0.074 A 
ATOM     38  C   UNL A   1      41.779  31.631  30.305  1.00  0.00     0.031 C 
ATOM     39  C   UNL A   1      44.189  31.077  30.493  1.00  0.00     0.031 A 
BRANCH  26  40
ATOM     40  C   UNL A   1      48.304  26.552  29.622  1.00  0.00    -0.014 A 
ATOM     41  C   UNL A   1      49.232  26.787  28.595  1.00  0.00     0.009 A 
ATOM     42  C   UNL A   1      48.744  25.930  30.802  1.00  0.00     0.009 A 
ATOM     43  C   UNL A   1      50.562  26.380  28.736  1.00  0.00     0.001 A 
ATOM     44  C   UNL A   1      50.079  25.550  30.951  1.00  0.00     0.001 A 
ATOM     45  C   UNL A   1      50.985  25.768  29.915  1.00  0.00     0.000 A 
ENDBRANCH  26  40
BRANCH  27  46
ATOM     46  C   UNL A   1      38.678  29.126  28.935  1.00  0.00    -0.014 A 
ATOM     47  C   UNL A   1      37.836  29.015  30.052  1.00  0.00     0.009 A 
ATOM     48  C   UNL A   1      38.148  29.616  27.730  1.00  0.00     0.009 A 
ATOM     49  C   UNL A   1      36.488  29.365  29.956  1.00  0.00     0.001 A 
ATOM     50  C   UNL A   1      36.808  29.997  27.648  1.00  0.00     0.001 A 
ATOM     51  C   UNL A   1      35.977  29.861  28.757  1.00  0.00     0.000 A 
ENDBRANCH  27  46
BRANCH  39  52
ATOM     52  C   UNL A   1      44.416  32.474  31.001  1.00  0.00    -0.014 A 
ATOM     53  C   UNL A   1      44.583  33.551  30.118  1.00  0.00     0.009 A 
ATOM     54  C   UNL A   1      44.443  32.713  32.384  1.00  0.00     0.009 A 
ATOM     55  C   UNL A   1      44.811  34.838  30.612  1.00  0.00     0.001 A 
ATOM     56  C   UNL A   1      44.640  34.004  32.874  1.00  0.00     0.001 A 
ATOM     57  C   UNL A   1      44.835  35.064  31.988  1.00  0.00     0.000 A 
ENDBRANCH  39  52
ENDBRANCH  13  14
ENDBRANCH   6   8
ENDBRANCH   3   4
ENDBRANCH   2   3
ENDBRANCH   1   2
BRANCH   1  58
ATOM     58  C   UNL A   1      36.792  22.002  24.825  1.00  0.00     0.116 C 
BRANCH  58  59
ATOM     59  N   UNL A   1      35.979  22.762  25.759  1.00  0.00    -0.352 N 
ATOM     60  C   UNL A   1      34.684  23.195  25.649  1.00  0.00     0.251 C 
ATOM     61  H   UNL A   1      36.428  23.004  26.602  1.00  0.00     0.163 HD
ATOM     62  O   UNL A   1      34.234  23.989  26.472  1.00  0.00    -0.269 OA
BRANCH  60  63
ATOM     63  C   UNL A   1      33.827  22.725  24.545  1.00  0.00     0.041 A 
ATOM     64  C   UNL A   1      32.967  21.655  24.789  1.00  0.00     0.014 A 
ATOM     65  C   UNL A   1      33.900  23.304  23.269  1.00  0.00     0.040 A 
ATOM     66  C   UNL A   1      32.183  21.168  23.754  1.00  0.00     0.003 A 
ATOM     67  C   UNL A   1      33.048  22.879  22.247  1.00  0.00     0.042 A 
ATOM     68  C   UNL A   1      32.237  21.768  22.491  1.00  0.00     0.026 A 
BRANCH  67  69
ATOM     69  N   UNL A   1      33.081  23.630  21.052  1.00  0.00    -0.322 N 
ATOM     70  C   UNL A   1      32.883  24.964  20.770  1.00  0.00     0.255 C 
ATOM     71  H   UNL A   1      33.289  23.089  20.255  1.00  0.00     0.170 HD
ATOM     72  O   UNL A   1      32.913  25.369  19.611  1.00  0.00    -0.269 OA
BRANCH  70  73
ATOM     73  C   UNL A   1      32.641  25.931  21.847  1.00  0.00     0.040 A 
ATOM     74  C   UNL A   1      31.340  26.070  22.318  1.00  0.00     0.016 A 
ATOM     75  C   UNL A   1      33.700  26.596  22.467  1.00  0.00     0.016 A 
ATOM     76  C   UNL A   1      31.120  26.763  23.508  1.00  0.00     0.027 A 
ATOM     77  C   UNL A   1      33.464  27.304  23.653  1.00  0.00     0.027 A 
ATOM     78  C   UNL A   1      32.182  27.342  24.228  1.00  0.00     0.052 A 
BRANCH  78  79
ATOM     79  N   UNL A   1      31.959  27.890  25.526  1.00  0.00    -0.251 N 
ATOM     80  C   UNL A   1      32.199  29.197  25.882  1.00  0.00     0.234 C 
ATOM     81  C   UNL A   1      31.568  27.136  26.611  1.00  0.00     0.234 C 
ATOM     82  O   UNL A   1      32.618  30.120  25.195  1.00  0.00    -0.274 OA
ATOM     83  C   UNL A   1      31.803  29.394  27.314  1.00  0.00     0.111 C 
ATOM     84  C   UNL A   1      31.479  28.012  27.820  1.00  0.00     0.111 C 
ATOM     85  O   UNL A   1      31.390  25.926  26.684  1.00  0.00    -0.274 OA
ENDBRANCH  78  79
ENDBRANCH  70  73
ENDBRANCH  67  69
ENDBRANCH  60  63
ENDBRANCH  58  59
ENDBRANCH   1  58
TORSDOF 14
ENDMDL
