MODEL 1
REMARK VINA RESULT:     -10.5      0.000      0.000
REMARK SMILES CC[C@@](C)(NC(=O)[C@@H](C)NC(=O)c1ccco1)C(=O)NCCCCNC(=O)c1ccc(-c2c3nc(c(-c4ccccc4)c4ccc([nH]4)c(-c4ccccc4)c4nc(c(-c5ccccc5)c5ccc2[nH]5)C=C4)C=C3)cc1
REMARK SMILES IDX 21 1 20 2 18 3 19 4 3 6 4 7 2 8 1 9 5 10 6 11 7 13 8 14 9 15
REMARK SMILES IDX 10 16 11 17 12 19 13 20 14 21 17 22 15 23 16 24 22 25 23 26
REMARK SMILES IDX 24 27 25 28 26 29 27 31 28 32 29 33 75 34 30 35 74 36 31 37
REMARK SMILES IDX 32 38 33 39 68 40 34 41 73 42 67 43 69 44 35 45 72 46 66 47
REMARK SMILES IDX 65 48 36 50 58 51 43 52 57 53 44 54 47 55 56 56 70 57 45 58
REMARK SMILES IDX 46 59 55 61 71 62 48 63 37 64 38 65 42 66 39 67 41 68 40 69
REMARK SMILES IDX 59 70 60 71 64 72 61 73 63 74 62 75 49 76 50 77 54 78 51 79
REMARK SMILES IDX 53 80 52 81
REMARK H PARENT 20 5 5 12 10 18 25 30 69 49 47 60
REMARK Flexibility Score: inf
ROOT
ATOM      1  C   UNL A   1      36.417  21.826  25.741  1.00  0.00     0.116 C 
ENDROOT
BRANCH   1   2
ATOM      2  N   UNL A   1      35.451  21.991  26.821  1.00  0.00    -0.354 N 
ATOM      3  C   UNL A   1      34.212  22.572  26.877  1.00  0.00     0.245 C 
ATOM      4  O   UNL A   1      33.606  22.488  27.950  1.00  0.00    -0.272 OA
ATOM      5  H   UNL A   1      35.747  21.609  27.679  1.00  0.00     0.163 HD
BRANCH   3   6
ATOM      6  C   UNL A   1      33.627  23.390  25.706  1.00  0.00     0.116 C 
ATOM      7  C   UNL A   1      34.568  24.580  25.390  1.00  0.00     0.045 C 
BRANCH   6   8
ATOM      8  C   UNL A   1      33.450  22.626  24.363  1.00  0.00     0.035 C 
ATOM      9  C   UNL A   1      34.180  23.163  23.136  1.00  0.00     0.007 C 
ENDBRANCH   6   8
BRANCH   6  10
ATOM     10  N   UNL A   1      32.292  23.861  26.148  1.00  0.00    -0.340 N 
ATOM     11  C   UNL A   1      31.361  24.715  25.640  1.00  0.00     0.243 C 
ATOM     12  H   UNL A   1      32.015  23.466  27.007  1.00  0.00     0.164 HD
ATOM     13  O   UNL A   1      30.569  25.147  26.495  1.00  0.00    -0.273 OA
BRANCH  11  14
ATOM     14  C   UNL A   1      31.237  25.293  24.180  1.00  0.00     0.168 C 
ATOM     15  C   UNL A   1      30.584  24.298  23.228  1.00  0.00     0.041 C 
BRANCH  14  16
ATOM     16  N   UNL A   1      30.675  26.615  23.909  1.00  0.00    -0.338 N 
ATOM     17  C   UNL A   1      31.000  27.860  24.403  1.00  0.00     0.287 C 
ATOM     18  H   UNL A   1      29.935  26.615  23.261  1.00  0.00     0.164 HD
ATOM     19  O   UNL A   1      30.227  28.777  24.112  1.00  0.00    -0.266 OA
BRANCH  17  20
ATOM     20  C   UNL A   1      32.144  28.060  25.274  1.00  0.00     0.191 A 
ATOM     21  C   UNL A   1      33.512  28.142  25.078  1.00  0.00     0.056 A 
ATOM     22  O   UNL A   1      31.883  28.275  26.609  1.00  0.00    -0.459 OA
ATOM     23  C   UNL A   1      34.104  28.385  26.346  1.00  0.00     0.043 A 
ATOM     24  C   UNL A   1      33.067  28.449  27.244  1.00  0.00     0.196 A 
ENDBRANCH  17  20
ENDBRANCH  14  16
ENDBRANCH  11  14
ENDBRANCH   6  10
ENDBRANCH   3   6
ENDBRANCH   1   2
BRANCH   1  25
ATOM     25  C   UNL A   1      36.392  20.486  25.003  1.00  0.00     0.023 C 
BRANCH  25  26
ATOM     26  C   UNL A   1      37.694  19.704  24.976  1.00  0.00     0.023 C 
BRANCH  26  27
ATOM     27  C   UNL A   1      38.862  20.289  25.746  1.00  0.00     0.116 C 
BRANCH  27  28
ATOM     28  N   UNL A   1      39.953  19.343  25.882  1.00  0.00    -0.352 N 
ATOM     29  C   UNL A   1      41.286  19.575  26.125  1.00  0.00     0.251 C 
ATOM     30  H   UNL A   1      39.701  18.396  25.785  1.00  0.00     0.163 HD
ATOM     31  O   UNL A   1      42.089  18.657  25.977  1.00  0.00    -0.269 OA
BRANCH  29  32
ATOM     32  C   UNL A   1      41.775  20.910  26.553  1.00  0.00     0.039 A 
ATOM     33  C   UNL A   1      41.799  21.206  27.921  1.00  0.00     0.014 A 
ATOM     34  C   UNL A   1      42.144  21.897  25.635  1.00  0.00     0.014 A 
ATOM     35  C   UNL A   1      42.209  22.469  28.361  1.00  0.00     0.010 A 
ATOM     36  C   UNL A   1      42.645  23.121  26.078  1.00  0.00     0.010 A 
ATOM     37  C   UNL A   1      42.651  23.436  27.444  1.00  0.00    -0.014 A 
BRANCH  37  38
ATOM     38  C   UNL A   1      43.056  24.795  27.892  1.00  0.00     0.031 A 
ATOM     39  C   UNL A   1      42.009  25.839  28.186  1.00  0.00     0.074 A 
ATOM     40  C   UNL A   1      44.361  25.108  28.014  1.00  0.00     0.049 A 
ATOM     41  N   UNL A   1      42.163  27.082  28.572  1.00  0.00    -0.248 NA
ATOM     42  C   UNL A   1      40.602  25.444  28.002  1.00  0.00     0.031 C 
ATOM     43  C   UNL A   1      45.480  24.206  27.729  1.00  0.00     0.029 A 
ATOM     44  N   UNL A   1      44.967  26.273  28.413  1.00  0.00    -0.354 N 
ATOM     45  C   UNL A   1      40.883  27.616  28.651  1.00  0.00     0.074 A 
ATOM     46  C   UNL A   1      39.966  26.583  28.227  1.00  0.00     0.031 C 
ATOM     47  C   UNL A   1      46.633  24.839  27.999  1.00  0.00     0.029 A 
ATOM     48  C   UNL A   1      46.339  26.201  28.435  1.00  0.00     0.049 A 
ATOM     49  H   UNL A   1      44.466  27.084  28.660  1.00  0.00     0.167 HD
ATOM     50  C   UNL A   1      40.498  28.850  29.059  1.00  0.00     0.031 A 
ATOM     51  C   UNL A   1      47.258  27.130  28.765  1.00  0.00     0.031 A 
ATOM     52  C   UNL A   1      41.402  29.876  29.502  1.00  0.00     0.049 A 
ATOM     53  C   UNL A   1      46.806  28.494  29.206  1.00  0.00     0.074 A 
ATOM     54  C   UNL A   1      41.103  31.135  29.995  1.00  0.00     0.029 A 
ATOM     55  N   UNL A   1      42.783  29.762  29.504  1.00  0.00    -0.354 N 
ATOM     56  N   UNL A   1      45.588  28.958  29.343  1.00  0.00    -0.248 NA
ATOM     57  C   UNL A   1      47.861  29.461  29.548  1.00  0.00     0.031 C 
ATOM     58  C   UNL A   1      42.306  31.802  30.247  1.00  0.00     0.029 A 
ATOM     59  C   UNL A   1      43.351  30.937  29.965  1.00  0.00     0.049 A 
ATOM     60  H   UNL A   1      43.285  28.964  29.220  1.00  0.00     0.167 HD
ATOM     61  C   UNL A   1      45.728  30.258  29.812  1.00  0.00     0.074 A 
ATOM     62  C   UNL A   1      47.149  30.503  29.953  1.00  0.00     0.031 C 
ATOM     63  C   UNL A   1      44.766  31.167  30.102  1.00  0.00     0.031 A 
BRANCH  50  64
ATOM     64  C   UNL A   1      39.025  29.160  29.039  1.00  0.00    -0.014 A 
ATOM     65  C   UNL A   1      38.234  29.018  30.190  1.00  0.00     0.009 A 
ATOM     66  C   UNL A   1      38.429  29.635  27.861  1.00  0.00     0.009 A 
ATOM     67  C   UNL A   1      36.868  29.310  30.150  1.00  0.00     0.001 A 
ATOM     68  C   UNL A   1      37.071  29.955  27.832  1.00  0.00     0.001 A 
ATOM     69  C   UNL A   1      36.289  29.782  28.973  1.00  0.00     0.000 A 
ENDBRANCH  50  64
BRANCH  51  70
ATOM     70  C   UNL A   1      48.706  26.795  28.712  1.00  0.00    -0.014 A 
ATOM     71  C   UNL A   1      49.442  27.007  27.537  1.00  0.00     0.009 A 
ATOM     72  C   UNL A   1      49.356  26.251  29.830  1.00  0.00     0.009 A 
ATOM     73  C   UNL A   1      50.793  26.656  27.473  1.00  0.00     0.001 A 
ATOM     74  C   UNL A   1      50.714  25.928  29.774  1.00  0.00     0.001 A 
ATOM     75  C   UNL A   1      51.428  26.122  28.593  1.00  0.00     0.000 A 
ENDBRANCH  51  70
BRANCH  63  76
ATOM     76  C   UNL A   1      45.214  32.499  30.635  1.00  0.00    -0.014 A 
ATOM     77  C   UNL A   1      45.476  33.578  29.777  1.00  0.00     0.009 A 
ATOM     78  C   UNL A   1      45.333  32.687  32.021  1.00  0.00     0.009 A 
ATOM     79  C   UNL A   1      45.882  34.809  30.296  1.00  0.00     0.001 A 
ATOM     80  C   UNL A   1      45.711  33.927  32.538  1.00  0.00     0.001 A 
ATOM     81  C   UNL A   1      45.994  34.984  31.675  1.00  0.00     0.000 A 
ENDBRANCH  63  76
ENDBRANCH  37  38
ENDBRANCH  29  32
ENDBRANCH  27  28
ENDBRANCH  26  27
ENDBRANCH  25  26
ENDBRANCH   1  25
TORSDOF 16
ENDMDL
MODEL 2
REMARK VINA RESULT:     -10.4      0.581      5.966
REMARK SMILES CC[C@@](C)(NC(=O)[C@@H](C)NC(=O)c1ccco1)C(=O)NCCCCNC(=O)c1ccc(-c2c3nc(c(-c4ccccc4)c4ccc([nH]4)c(-c4ccccc4)c4nc(c(-c5ccccc5)c5ccc2[nH]5)C=C4)C=C3)cc1
REMARK SMILES IDX 21 1 20 2 18 3 19 4 3 6 4 7 2 8 1 9 5 10 6 11 7 13 8 14 9 15
REMARK SMILES IDX 10 16 11 17 12 19 13 20 14 21 17 22 15 23 16 24 22 25 23 26
REMARK SMILES IDX 24 27 25 28 26 29 27 31 28 32 29 33 75 34 30 35 74 36 31 37
REMARK SMILES IDX 32 38 33 39 68 40 34 41 73 42 67 43 69 44 35 45 72 46 66 47
REMARK SMILES IDX 65 48 36 50 58 51 43 52 57 53 44 54 47 55 56 56 70 57 45 58
REMARK SMILES IDX 46 59 55 61 71 62 48 63 37 64 38 65 42 66 39 67 41 68 40 69
REMARK SMILES IDX 59 70 60 71 64 72 61 73 63 74 62 75 49 76 50 77 54 78 51 79
REMARK SMILES IDX 53 80 52 81
REMARK H PARENT 20 5 5 12 10 18 25 30 69 49 47 60
REMARK Flexibility Score: inf
ROOT
ATOM      1  C   UNL A   1      36.266  21.533  25.724  1.00  0.00     0.116 C 
ENDROOT
BRANCH   1   2
ATOM      2  N   UNL A   1      35.269  21.638  26.783  1.00  0.00    -0.354 N 
ATOM      3  C   UNL A   1      34.031  22.222  26.839  1.00  0.00     0.245 C 
ATOM      4  O   UNL A   1      33.394  22.076  27.887  1.00  0.00    -0.272 OA
ATOM      5  H   UNL A   1      35.538  21.203  27.625  1.00  0.00     0.163 HD
BRANCH   3   6
ATOM      6  C   UNL A   1      33.484  23.111  25.703  1.00  0.00     0.116 C 
ATOM      7  C   UNL A   1      34.462  24.288  25.455  1.00  0.00     0.045 C 
BRANCH   6   8
ATOM      8  C   UNL A   1      33.301  22.418  24.322  1.00  0.00     0.035 C 
ATOM      9  C   UNL A   1      34.091  22.968  23.139  1.00  0.00     0.007 C 
ENDBRANCH   6   8
BRANCH   6  10
ATOM     10  N   UNL A   1      32.158  23.599  26.153  1.00  0.00    -0.340 N 
ATOM     11  C   UNL A   1      31.257  24.503  25.676  1.00  0.00     0.243 C 
ATOM     12  H   UNL A   1      31.860  23.172  26.989  1.00  0.00     0.164 HD
ATOM     13  O   UNL A   1      30.468  24.916  26.543  1.00  0.00    -0.273 OA
BRANCH  11  14
ATOM     14  C   UNL A   1      31.167  25.154  24.245  1.00  0.00     0.168 C 
ATOM     15  C   UNL A   1      30.556  24.200  23.225  1.00  0.00     0.041 C 
BRANCH  14  16
ATOM     16  N   UNL A   1      30.593  26.479  24.026  1.00  0.00    -0.338 N 
ATOM     17  C   UNL A   1      30.943  27.716  24.523  1.00  0.00     0.287 C 
ATOM     18  H   UNL A   1      29.821  26.490  23.415  1.00  0.00     0.164 HD
ATOM     19  O   UNL A   1      30.157  28.638  24.287  1.00  0.00    -0.266 OA
BRANCH  17  20
ATOM     20  C   UNL A   1      32.130  27.902  25.338  1.00  0.00     0.191 A 
ATOM     21  C   UNL A   1      33.491  27.796  25.111  1.00  0.00     0.056 A 
ATOM     22  O   UNL A   1      31.938  28.328  26.634  1.00  0.00    -0.459 OA
ATOM     23  C   UNL A   1      34.147  28.143  26.322  1.00  0.00     0.043 A 
ATOM     24  C   UNL A   1      33.154  28.451  27.219  1.00  0.00     0.196 A 
ENDBRANCH  17  20
ENDBRANCH  14  16
ENDBRANCH  11  14
ENDBRANCH   6  10
ENDBRANCH   3   6
ENDBRANCH   1   2
BRANCH   1  25
ATOM     25  C   UNL A   1      36.323  20.203  24.971  1.00  0.00     0.023 C 
BRANCH  25  26
ATOM     26  C   UNL A   1      37.687  19.543  24.863  1.00  0.00     0.023 C 
BRANCH  26  27
ATOM     27  C   UNL A   1      38.820  20.180  25.646  1.00  0.00     0.116 C 
BRANCH  27  28
ATOM     28  N   UNL A   1      39.970  19.302  25.748  1.00  0.00    -0.352 N 
ATOM     29  C   UNL A   1      41.279  19.606  26.037  1.00  0.00     0.251 C 
ATOM     30  H   UNL A   1      39.785  18.348  25.588  1.00  0.00     0.163 HD
ATOM     31  O   UNL A   1      42.145  18.755  25.852  1.00  0.00    -0.269 OA
BRANCH  29  32
ATOM     32  C   UNL A   1      41.668  20.942  26.559  1.00  0.00     0.039 A 
ATOM     33  C   UNL A   1      41.596  21.166  27.938  1.00  0.00     0.014 A 
ATOM     34  C   UNL A   1      42.033  21.992  25.713  1.00  0.00     0.014 A 
ATOM     35  C   UNL A   1      41.909  22.425  28.463  1.00  0.00     0.010 A 
ATOM     36  C   UNL A   1      42.439  23.217  26.244  1.00  0.00     0.010 A 
ATOM     37  C   UNL A   1      42.348  23.461  27.622  1.00  0.00    -0.014 A 
BRANCH  37  38
ATOM     38  C   UNL A   1      42.651  24.814  28.159  1.00  0.00     0.031 A 
ATOM     39  C   UNL A   1      44.065  25.183  28.530  1.00  0.00     0.074 A 
ATOM     40  C   UNL A   1      41.660  25.709  28.340  1.00  0.00     0.049 A 
ATOM     41  N   UNL A   1      44.526  26.305  29.027  1.00  0.00    -0.248 NA
ATOM     42  C   UNL A   1      45.096  24.149  28.338  1.00  0.00     0.031 C 
ATOM     43  C   UNL A   1      40.242  25.474  28.057  1.00  0.00     0.029 A 
ATOM     44  N   UNL A   1      41.696  27.000  28.805  1.00  0.00    -0.354 N 
ATOM     45  C   UNL A   1      45.886  26.100  29.227  1.00  0.00     0.074 A 
ATOM     46  C   UNL A   1      46.170  24.735  28.847  1.00  0.00     0.031 C 
ATOM     47  C   UNL A   1      39.551  26.595  28.318  1.00  0.00     0.029 A 
ATOM     48  C   UNL A   1      40.467  27.613  28.825  1.00  0.00     0.049 A 
ATOM     49  H   UNL A   1      42.525  27.445  29.097  1.00  0.00     0.167 HD
ATOM     50  C   UNL A   1      46.823  26.973  29.669  1.00  0.00     0.031 A 
ATOM     51  C   UNL A   1      40.116  28.855  29.211  1.00  0.00     0.031 A 
ATOM     52  C   UNL A   1      46.553  28.338  30.030  1.00  0.00     0.049 A 
ATOM     53  C   UNL A   1      41.172  29.803  29.707  1.00  0.00     0.074 A 
ATOM     54  C   UNL A   1      47.447  29.318  30.427  1.00  0.00     0.029 A 
ATOM     55  N   UNL A   1      45.293  28.916  30.038  1.00  0.00    -0.354 N 
ATOM     56  N   UNL A   1      42.464  29.615  29.822  1.00  0.00    -0.248 NA
ATOM     57  C   UNL A   1      40.720  31.141  30.117  1.00  0.00     0.031 C 
ATOM     58  C   UNL A   1      46.721  30.475  30.726  1.00  0.00     0.029 A 
ATOM     59  C   UNL A   1      45.383  30.232  30.459  1.00  0.00     0.049 A 
ATOM     60  H   UNL A   1      44.460  28.459  29.783  1.00  0.00     0.167 HD
ATOM     61  C   UNL A   1      42.982  30.816  30.289  1.00  0.00     0.074 A 
ATOM     62  C   UNL A   1      41.867  31.731  30.420  1.00  0.00     0.031 C 
ATOM     63  C   UNL A   1      44.266  31.133  30.583  1.00  0.00     0.031 A 
BRANCH  50  64
ATOM     64  C   UNL A   1      48.237  26.471  29.793  1.00  0.00    -0.014 A 
ATOM     65  C   UNL A   1      49.157  26.614  28.742  1.00  0.00     0.009 A 
ATOM     66  C   UNL A   1      48.664  25.879  30.991  1.00  0.00     0.009 A 
ATOM     67  C   UNL A   1      50.464  26.140  28.876  1.00  0.00     0.001 A 
ATOM     68  C   UNL A   1      49.979  25.434  31.134  1.00  0.00     0.001 A 
ATOM     69  C   UNL A   1      50.875  25.555  30.073  1.00  0.00     0.000 A 
ENDBRANCH  50  64
BRANCH  51  70
ATOM     70  C   UNL A   1      38.695  29.287  29.128  1.00  0.00    -0.014 A 
ATOM     71  C   UNL A   1      37.830  29.101  30.216  1.00  0.00     0.009 A 
ATOM     72  C   UNL A   1      38.194  29.874  27.956  1.00  0.00     0.009 A 
ATOM     73  C   UNL A   1      36.485  29.469  30.123  1.00  0.00     0.001 A 
ATOM     74  C   UNL A   1      36.856  30.269  27.876  1.00  0.00     0.001 A 
ATOM     75  C   UNL A   1      36.001  30.057  28.956  1.00  0.00     0.000 A 
ENDBRANCH  51  70
BRANCH  63  76
ATOM     76  C   UNL A   1      44.543  32.538  31.040  1.00  0.00    -0.014 A 
ATOM     77  C   UNL A   1      44.550  32.874  32.402  1.00  0.00     0.009 A 
ATOM     78  C   UNL A   1      44.844  33.528  30.092  1.00  0.00     0.009 A 
ATOM     79  C   UNL A   1      44.819  34.184  32.804  1.00  0.00     0.001 A 
ATOM     80  C   UNL A   1      45.140  34.830  30.499  1.00  0.00     0.001 A 
ATOM     81  C   UNL A   1      45.119  35.159  31.853  1.00  0.00     0.000 A 
ENDBRANCH  63  76
ENDBRANCH  37  38
ENDBRANCH  29  32
ENDBRANCH  27  28
ENDBRANCH  26  27
ENDBRANCH  25  26
ENDBRANCH   1  25
TORSDOF 16
ENDMDL
MODEL 3
REMARK VINA RESULT:     -10.4      3.334      8.798
REMARK SMILES CC[C@@](C)(NC(=O)[C@@H](C)NC(=O)c1ccco1)C(=O)NCCCCNC(=O)c1ccc(-c2c3nc(c(-c4ccccc4)c4ccc([nH]4)c(-c4ccccc4)c4nc(c(-c5ccccc5)c5ccc2[nH]5)C=C4)C=C3)cc1
REMARK SMILES IDX 21 1 20 2 18 3 19 4 3 6 4 7 2 8 1 9 5 10 6 11 7 13 8 14 9 15
REMARK SMILES IDX 10 16 11 17 12 19 13 20 14 21 17 22 15 23 16 24 22 25 23 26
REMARK SMILES IDX 24 27 25 28 26 29 27 31 28 32 29 33 75 34 30 35 74 36 31 37
REMARK SMILES IDX 32 38 33 39 68 40 34 41 73 42 67 43 69 44 35 45 72 46 66 47
REMARK SMILES IDX 65 48 36 50 58 51 43 52 57 53 44 54 47 55 56 56 70 57 45 58
REMARK SMILES IDX 46 59 55 61 71 62 48 63 37 64 38 65 42 66 39 67 41 68 40 69
REMARK SMILES IDX 59 70 60 71 64 72 61 73 63 74 62 75 49 76 50 77 54 78 51 79
REMARK SMILES IDX 53 80 52 81
REMARK H PARENT 20 5 5 12 10 18 25 30 69 49 47 60
REMARK Flexibility Score: inf
ROOT
ATOM      1  C   UNL A   1      32.604  29.958  25.848  1.00  0.00     0.116 C 
ENDROOT
BRANCH   1   2
ATOM      2  N   UNL A   1      33.263  29.707  24.571  1.00  0.00    -0.354 N 
ATOM      3  C   UNL A   1      33.395  28.583  23.799  1.00  0.00     0.245 C 
ATOM      4  O   UNL A   1      33.970  28.718  22.714  1.00  0.00    -0.272 OA
ATOM      5  H   UNL A   1      33.699  30.502  24.188  1.00  0.00     0.163 HD
BRANCH   3   6
ATOM      6  C   UNL A   1      32.950  27.188  24.286  1.00  0.00     0.116 C 
ATOM      7  C   UNL A   1      33.645  26.870  25.635  1.00  0.00     0.045 C 
BRANCH   6   8
ATOM      8  C   UNL A   1      31.427  27.009  24.544  1.00  0.00     0.035 C 
ATOM      9  C   UNL A   1      30.457  27.722  23.607  1.00  0.00     0.007 C 
ENDBRANCH   6   8
BRANCH   6  10
ATOM     10  N   UNL A   1      33.355  26.227  23.232  1.00  0.00    -0.340 N 
ATOM     11  C   UNL A   1      33.221  24.882  23.058  1.00  0.00     0.243 C 
ATOM     12  H   UNL A   1      33.830  26.660  22.485  1.00  0.00     0.164 HD
ATOM     13  O   UNL A   1      34.039  24.405  22.253  1.00  0.00    -0.273 OA
BRANCH  11  14
ATOM     14  C   UNL A   1      32.271  23.876  23.809  1.00  0.00     0.168 C 
ATOM     15  C   UNL A   1      32.128  22.559  23.054  1.00  0.00     0.041 C 
BRANCH  14  16
ATOM     16  N   UNL A   1      32.426  23.568  25.229  1.00  0.00    -0.338 N 
ATOM     17  C   UNL A   1      33.531  23.198  25.964  1.00  0.00     0.287 C 
ATOM     18  H   UNL A   1      31.595  23.638  25.752  1.00  0.00     0.164 HD
ATOM     19  O   UNL A   1      33.315  22.838  27.124  1.00  0.00    -0.266 OA
BRANCH  17  20
ATOM     20  C   UNL A   1      34.860  23.165  25.379  1.00  0.00     0.191 A 
ATOM     21  C   UNL A   1      36.005  23.928  25.526  1.00  0.00     0.056 A 
ATOM     22  O   UNL A   1      35.132  22.137  24.504  1.00  0.00    -0.459 OA
ATOM     23  C   UNL A   1      36.999  23.359  24.686  1.00  0.00     0.043 A 
ATOM     24  C   UNL A   1      36.412  22.276  24.081  1.00  0.00     0.196 A 
ENDBRANCH  17  20
ENDBRANCH  14  16
ENDBRANCH  11  14
ENDBRANCH   6  10
ENDBRANCH   3   6
ENDBRANCH   1   2
BRANCH   1  25
ATOM     25  C   UNL A   1      31.284  30.731  25.793  1.00  0.00     0.023 C 
BRANCH  25  26
ATOM     26  C   UNL A   1      31.241  32.050  26.545  1.00  0.00     0.023 C 
BRANCH  26  27
ATOM     27  C   UNL A   1      32.566  32.609  27.027  1.00  0.00     0.116 C 
BRANCH  27  28
ATOM     28  N   UNL A   1      32.410  33.899  27.671  1.00  0.00    -0.352 N 
ATOM     29  C   UNL A   1      33.142  34.462  28.689  1.00  0.00     0.251 C 
ATOM     30  H   UNL A   1      31.671  34.452  27.329  1.00  0.00     0.163 HD
ATOM     31  O   UNL A   1      32.711  35.466  29.251  1.00  0.00    -0.269 OA
BRANCH  29  32
ATOM     32  C   UNL A   1      34.436  33.878  29.129  1.00  0.00     0.039 A 
ATOM     33  C   UNL A   1      35.589  34.184  28.397  1.00  0.00     0.014 A 
ATOM     34  C   UNL A   1      34.523  32.985  30.200  1.00  0.00     0.014 A 
ATOM     35  C   UNL A   1      36.818  33.617  28.751  1.00  0.00     0.010 A 
ATOM     36  C   UNL A   1      35.763  32.497  30.613  1.00  0.00     0.010 A 
ATOM     37  C   UNL A   1      36.921  32.778  29.873  1.00  0.00    -0.014 A 
BRANCH  37  38
ATOM     38  C   UNL A   1      38.212  32.139  30.242  1.00  0.00     0.031 A 
ATOM     39  C   UNL A   1      39.142  32.818  31.216  1.00  0.00     0.074 A 
ATOM     40  C   UNL A   1      38.569  30.963  29.690  1.00  0.00     0.049 A 
ATOM     41  N   UNL A   1      40.315  32.428  31.650  1.00  0.00    -0.248 NA
ATOM     42  C   UNL A   1      38.707  34.116  31.758  1.00  0.00     0.031 C 
ATOM     43  C   UNL A   1      37.782  30.213  28.708  1.00  0.00     0.029 A 
ATOM     44  N   UNL A   1      39.687  30.189  29.880  1.00  0.00    -0.354 N 
ATOM     45  C   UNL A   1      40.764  33.440  32.490  1.00  0.00     0.074 A 
ATOM     46  C   UNL A   1      39.763  34.483  32.469  1.00  0.00     0.031 C 
ATOM     47  C   UNL A   1      38.424  29.071  28.411  1.00  0.00     0.029 A 
ATOM     48  C   UNL A   1      39.684  29.027  29.148  1.00  0.00     0.049 A 
ATOM     49  H   UNL A   1      40.422  30.444  30.483  1.00  0.00     0.167 HD
ATOM     50  C   UNL A   1      41.896  33.493  33.232  1.00  0.00     0.031 A 
ATOM     51  C   UNL A   1      40.596  28.038  29.074  1.00  0.00     0.031 A 
ATOM     52  C   UNL A   1      42.886  32.452  33.275  1.00  0.00     0.049 A 
ATOM     53  C   UNL A   1      41.849  28.123  29.899  1.00  0.00     0.074 A 
ATOM     54  C   UNL A   1      44.035  32.385  34.044  1.00  0.00     0.029 A 
ATOM     55  N   UNL A   1      42.845  31.294  32.515  1.00  0.00    -0.354 N 
ATOM     56  N   UNL A   1      42.222  29.055  30.742  1.00  0.00    -0.248 NA
ATOM     57  C   UNL A   1      42.804  27.012  29.769  1.00  0.00     0.031 C 
ATOM     58  C   UNL A   1      44.716  31.210  33.711  1.00  0.00     0.029 A 
ATOM     59  C   UNL A   1      43.961  30.518  32.778  1.00  0.00     0.049 A 
ATOM     60  H   UNL A   1      42.128  31.058  31.883  1.00  0.00     0.167 HD
ATOM     61  C   UNL A   1      43.439  28.630  31.263  1.00  0.00     0.074 A 
ATOM     62  C   UNL A   1      43.731  27.350  30.653  1.00  0.00     0.031 C 
ATOM     63  C   UNL A   1      44.240  29.245  32.165  1.00  0.00     0.031 A 
BRANCH  50  64
ATOM     64  C   UNL A   1      42.129  34.730  34.057  1.00  0.00    -0.014 A 
ATOM     65  C   UNL A   1      41.702  34.807  35.392  1.00  0.00     0.009 A 
ATOM     66  C   UNL A   1      42.817  35.820  33.502  1.00  0.00     0.009 A 
ATOM     67  C   UNL A   1      41.926  35.965  36.142  1.00  0.00     0.001 A 
ATOM     68  C   UNL A   1      43.067  36.963  34.263  1.00  0.00     0.001 A 
ATOM     69  C   UNL A   1      42.612  37.040  35.578  1.00  0.00     0.000 A 
ENDBRANCH  50  64
BRANCH  51  70
ATOM     70  C   UNL A   1      40.349  26.862  28.197  1.00  0.00    -0.014 A 
ATOM     71  C   UNL A   1      39.614  25.764  28.668  1.00  0.00     0.009 A 
ATOM     72  C   UNL A   1      40.858  26.827  26.889  1.00  0.00     0.009 A 
ATOM     73  C   UNL A   1      39.417  24.643  27.858  1.00  0.00     0.001 A 
ATOM     74  C   UNL A   1      40.634  25.717  26.071  1.00  0.00     0.001 A 
ATOM     75  C   UNL A   1      39.922  24.623  26.559  1.00  0.00     0.000 A 
ENDBRANCH  51  70
BRANCH  63  76
ATOM     76  C   UNL A   1      45.494  28.526  32.578  1.00  0.00    -0.014 A 
ATOM     77  C   UNL A   1      45.519  27.691  33.705  1.00  0.00     0.009 A 
ATOM     78  C   UNL A   1      46.654  28.653  31.799  1.00  0.00     0.009 A 
ATOM     79  C   UNL A   1      46.692  27.025  34.064  1.00  0.00     0.001 A 
ATOM     80  C   UNL A   1      47.818  27.963  32.144  1.00  0.00     0.001 A 
ATOM     81  C   UNL A   1      47.838  27.157  33.280  1.00  0.00     0.000 A 
ENDBRANCH  63  76
ENDBRANCH  37  38
ENDBRANCH  29  32
ENDBRANCH  27  28
ENDBRANCH  26  27
ENDBRANCH  25  26
ENDBRANCH   1  25
TORSDOF 16
ENDMDL
