MODEL 1
REMARK VINA RESULT:     -11.9      0.000      0.000
REMARK SMILES C[C@H](CC(=O)NCCCCNC(=O)c1ccc(-c2c3nc(c(-c4ccccc4)c4ccc([nH]4)c(-c4ccccc4)c4nc(c(-c5ccccc5)c5ccc2[nH]5)C=C4)C=C3)cc1)N1C(=O)S/C(=C\c2ccc(Cl)cc2)C1=O
REMARK SMILES IDX 8 1 7 2 6 3 4 4 5 5 3 7 2 8 1 9 62 10 63 11 75 12 64 13
REMARK SMILES IDX 65 14 66 15 76 16 67 17 68 18 69 19 74 20 70 21 73 22 71 23
REMARK SMILES IDX 72 24 9 25 10 26 11 27 12 28 13 30 14 31 15 32 61 33 16 34
REMARK SMILES IDX 60 35 17 36 18 37 19 38 54 39 20 40 59 41 53 42 55 43 21 44
REMARK SMILES IDX 58 45 52 46 51 47 22 49 44 50 29 51 43 52 30 53 33 54 42 55
REMARK SMILES IDX 56 56 31 57 32 58 41 60 57 61 34 62 23 63 24 64 28 65 25 66
REMARK SMILES IDX 27 67 26 68 45 69 46 70 50 71 47 72 49 73 48 74 35 75 36 76
REMARK SMILES IDX 40 77 37 78 39 79 38 80
REMARK H PARENT 6 6 11 29 55 48 33 59
REMARK Flexibility Score: inf
ROOT
ATOM      1  C   UNL A   1      31.803  30.166  26.368  1.00  0.00     0.023 C 
ENDROOT
BRANCH   1   2
ATOM      2  C   UNL A   1      33.261  29.793  26.170  1.00  0.00     0.116 C 
BRANCH   2   3
ATOM      3  N   UNL A   1      33.538  29.725  24.753  1.00  0.00    -0.356 N 
ATOM      4  C   UNL A   1      33.798  28.620  23.996  1.00  0.00     0.222 C 
ATOM      5  O   UNL A   1      34.236  28.784  22.857  1.00  0.00    -0.275 OA
ATOM      6  H   UNL A   1      33.539  30.584  24.272  1.00  0.00     0.163 HD
BRANCH   4   7
ATOM      7  C   UNL A   1      33.467  27.239  24.531  1.00  0.00     0.125 C 
BRANCH   7   8
ATOM      8  C   UNL A   1      32.182  26.563  24.007  1.00  0.00     0.101 C 
ATOM      9  C   UNL A   1      31.386  27.490  23.085  1.00  0.00     0.032 C 
BRANCH   8  10
ATOM     10  N   UNL A   1      32.340  25.176  23.519  1.00  0.00    -0.265 N 
ATOM     11  C   UNL A   1      33.091  24.826  22.425  1.00  0.00     0.293 C 
ATOM     12  C   UNL A   1      31.768  24.119  24.211  1.00  0.00     0.268 C 
ATOM     13  O   UNL A   1      33.821  25.533  21.746  1.00  0.00    -0.261 OA
ATOM     14  S   UNL A   1      32.955  23.103  22.106  1.00  0.00    -0.022 SA
ATOM     15  C   UNL A   1      32.177  22.812  23.606  1.00  0.00     0.083 C 
ATOM     16  O   UNL A   1      31.118  24.208  25.243  1.00  0.00    -0.268 OA
ATOM     17  C   UNL A   1      32.081  21.660  24.291  1.00  0.00     0.029 C 
BRANCH  17  18
ATOM     18  C   UNL A   1      32.706  20.351  23.999  1.00  0.00    -0.024 A 
ATOM     19  C   UNL A   1      32.121  19.505  23.048  1.00  0.00     0.009 A 
ATOM     20  C   UNL A   1      33.774  19.851  24.761  1.00  0.00     0.009 A 
ATOM     21  C   UNL A   1      32.611  18.207  22.844  1.00  0.00     0.021 A 
ATOM     22  C   UNL A   1      34.266  18.558  24.559  1.00  0.00     0.021 A 
ATOM     23  C   UNL A   1      33.682  17.740  23.600  1.00  0.00     0.041 A 
ATOM     24  Cl  UNL A   1      34.277  16.143  23.361  1.00  0.00    -0.084 Cl
ENDBRANCH  17  18
ENDBRANCH   8  10
ENDBRANCH   7   8
ENDBRANCH   4   7
ENDBRANCH   2   3
ENDBRANCH   1   2
BRANCH   1  25
ATOM     25  C   UNL A   1      31.536  31.648  26.518  1.00  0.00     0.023 C 
BRANCH  25  26
ATOM     26  C   UNL A   1      32.685  32.402  27.151  1.00  0.00     0.116 C 
BRANCH  26  27
ATOM     27  N   UNL A   1      32.366  33.776  27.529  1.00  0.00    -0.352 N 
ATOM     28  C   UNL A   1      33.004  34.603  28.421  1.00  0.00     0.251 C 
ATOM     29  H   UNL A   1      31.582  34.165  27.079  1.00  0.00     0.163 HD
ATOM     30  O   UNL A   1      32.565  35.722  28.664  1.00  0.00    -0.269 OA
BRANCH  28  31
ATOM     31  C   UNL A   1      34.214  34.109  29.099  1.00  0.00     0.039 A 
ATOM     32  C   UNL A   1      35.472  34.517  28.654  1.00  0.00     0.014 A 
ATOM     33  C   UNL A   1      34.086  33.284  30.218  1.00  0.00     0.014 A 
ATOM     34  C   UNL A   1      36.604  34.143  29.373  1.00  0.00     0.010 A 
ATOM     35  C   UNL A   1      35.188  33.034  31.009  1.00  0.00     0.010 A 
ATOM     36  C   UNL A   1      36.461  33.411  30.560  1.00  0.00    -0.014 A 
BRANCH  36  37
ATOM     37  C   UNL A   1      37.620  32.832  31.265  1.00  0.00     0.031 A 
ATOM     38  C   UNL A   1      38.301  31.653  30.626  1.00  0.00     0.074 A 
ATOM     39  C   UNL A   1      38.000  33.300  32.466  1.00  0.00     0.049 A 
ATOM     40  N   UNL A   1      39.224  30.864  31.107  1.00  0.00    -0.248 NA
ATOM     41  C   UNL A   1      37.833  31.275  29.277  1.00  0.00     0.031 C 
ATOM     42  C   UNL A   1      37.392  34.425  33.177  1.00  0.00     0.029 A 
ATOM     43  N   UNL A   1      38.994  32.870  33.302  1.00  0.00    -0.354 N 
ATOM     44  C   UNL A   1      39.409  29.883  30.141  1.00  0.00     0.074 A 
ATOM     45  C   UNL A   1      38.452  30.124  29.088  1.00  0.00     0.031 C 
ATOM     46  C   UNL A   1      38.050  34.615  34.334  1.00  0.00     0.029 A 
ATOM     47  C   UNL A   1      39.094  33.603  34.459  1.00  0.00     0.049 A 
ATOM     48  H   UNL A   1      39.583  32.110  33.094  1.00  0.00     0.167 HD
ATOM     49  C   UNL A   1      40.323  28.888  30.114  1.00  0.00     0.031 A 
ATOM     50  C   UNL A   1      39.939  33.458  35.495  1.00  0.00     0.031 A 
ATOM     51  C   UNL A   1      41.298  28.691  31.148  1.00  0.00     0.049 A 
ATOM     52  C   UNL A   1      40.958  32.350  35.438  1.00  0.00     0.074 A 
ATOM     53  C   UNL A   1      42.307  27.751  31.219  1.00  0.00     0.029 A 
ATOM     54  N   UNL A   1      41.388  29.473  32.291  1.00  0.00    -0.354 N 
ATOM     55  N   UNL A   1      41.151  31.447  34.505  1.00  0.00    -0.248 NA
ATOM     56  C   UNL A   1      41.884  32.251  36.574  1.00  0.00     0.031 C 
ATOM     57  C   UNL A   1      42.985  27.940  32.428  1.00  0.00     0.029 A 
ATOM     58  C   UNL A   1      42.431  29.031  33.081  1.00  0.00     0.049 A 
ATOM     59  H   UNL A   1      40.796  30.229  32.506  1.00  0.00     0.167 HD
ATOM     60  C   UNL A   1      42.240  30.694  34.924  1.00  0.00     0.074 A 
ATOM     61  C   UNL A   1      42.675  31.262  36.185  1.00  0.00     0.031 C 
ATOM     62  C   UNL A   1      42.831  29.628  34.329  1.00  0.00     0.031 A 
BRANCH  49  63
ATOM     63  C   UNL A   1      40.291  27.960  28.932  1.00  0.00    -0.014 A 
ATOM     64  C   UNL A   1      39.590  26.743  28.975  1.00  0.00     0.009 A 
ATOM     65  C   UNL A   1      40.998  28.292  27.767  1.00  0.00     0.009 A 
ATOM     66  C   UNL A   1      39.642  25.855  27.899  1.00  0.00     0.001 A 
ATOM     67  C   UNL A   1      41.018  27.418  26.678  1.00  0.00     0.001 A 
ATOM     68  C   UNL A   1      40.353  26.195  26.749  1.00  0.00     0.000 A 
ENDBRANCH  49  63
BRANCH  50  69
ATOM     69  C   UNL A   1      39.885  34.391  36.651  1.00  0.00    -0.014 A 
ATOM     70  C   UNL A   1      40.578  35.611  36.612  1.00  0.00     0.009 A 
ATOM     71  C   UNL A   1      39.156  34.065  37.805  1.00  0.00     0.009 A 
ATOM     72  C   UNL A   1      40.573  36.467  37.716  1.00  0.00     0.001 A 
ATOM     73  C   UNL A   1      39.127  34.937  38.897  1.00  0.00     0.001 A 
ATOM     74  C   UNL A   1      39.845  36.131  38.856  1.00  0.00     0.000 A 
ENDBRANCH  50  69
BRANCH  62  75
ATOM     75  C   UNL A   1      44.029  29.043  35.022  1.00  0.00    -0.014 A 
ATOM     76  C   UNL A   1      45.331  29.451  34.697  1.00  0.00     0.009 A 
ATOM     77  C   UNL A   1      43.844  28.093  36.038  1.00  0.00     0.009 A 
ATOM     78  C   UNL A   1      46.428  28.884  35.345  1.00  0.00     0.001 A 
ATOM     79  C   UNL A   1      44.940  27.553  36.709  1.00  0.00     0.001 A 
ATOM     80  C   UNL A   1      46.231  27.940  36.353  1.00  0.00     0.000 A 
ENDBRANCH  62  75
ENDBRANCH  36  37
ENDBRANCH  28  31
ENDBRANCH  26  27
ENDBRANCH  25  26
ENDBRANCH   1  25
TORSDOF 14
ENDMDL
MODEL 2
REMARK VINA RESULT:     -11.8      4.105      7.898
REMARK SMILES C[C@H](CC(=O)NCCCCNC(=O)c1ccc(-c2c3nc(c(-c4ccccc4)c4ccc([nH]4)c(-c4ccccc4)c4nc(c(-c5ccccc5)c5ccc2[nH]5)C=C4)C=C3)cc1)N1C(=O)S/C(=C\c2ccc(Cl)cc2)C1=O
REMARK SMILES IDX 8 1 7 2 6 3 4 4 5 5 3 7 2 8 1 9 62 10 63 11 75 12 64 13
REMARK SMILES IDX 65 14 66 15 76 16 67 17 68 18 69 19 74 20 70 21 73 22 71 23
REMARK SMILES IDX 72 24 9 25 10 26 11 27 12 28 13 30 14 31 15 32 61 33 16 34
REMARK SMILES IDX 60 35 17 36 18 37 19 38 54 39 20 40 59 41 53 42 55 43 21 44
REMARK SMILES IDX 58 45 52 46 51 47 22 49 44 50 29 51 43 52 30 53 33 54 42 55
REMARK SMILES IDX 56 56 31 57 32 58 41 60 57 61 34 62 23 63 24 64 28 65 25 66
REMARK SMILES IDX 27 67 26 68 45 69 46 70 50 71 47 72 49 73 48 74 35 75 36 76
REMARK SMILES IDX 40 77 37 78 39 79 38 80
REMARK H PARENT 6 6 11 29 55 48 33 59
REMARK Flexibility Score: inf
ROOT
ATOM      1  C   UNL A   1      31.855  29.220  26.384  1.00  0.00     0.023 C 
ENDROOT
BRANCH   1   2
ATOM      2  C   UNL A   1      31.960  29.569  24.910  1.00  0.00     0.116 C 
BRANCH   2   3
ATOM      3  N   UNL A   1      30.713  30.160  24.479  1.00  0.00    -0.356 N 
ATOM      4  C   UNL A   1      29.896  29.760  23.462  1.00  0.00     0.222 C 
ATOM      5  O   UNL A   1      29.000  30.522  23.101  1.00  0.00    -0.275 OA
ATOM      6  H   UNL A   1      30.414  30.950  24.984  1.00  0.00     0.163 HD
BRANCH   4   7
ATOM      7  C   UNL A   1      30.052  28.374  22.865  1.00  0.00     0.125 C 
BRANCH   7   8
ATOM      8  C   UNL A   1      29.834  27.167  23.802  1.00  0.00     0.101 C 
ATOM      9  C   UNL A   1      28.395  26.650  23.740  1.00  0.00     0.032 C 
BRANCH   8  10
ATOM     10  N   UNL A   1      30.880  26.122  23.757  1.00  0.00    -0.265 N 
ATOM     11  C   UNL A   1      31.539  25.742  22.616  1.00  0.00     0.293 C 
ATOM     12  C   UNL A   1      31.304  25.503  24.923  1.00  0.00     0.268 C 
ATOM     13  O   UNL A   1      31.474  26.237  21.499  1.00  0.00    -0.261 OA
ATOM     14  S   UNL A   1      32.636  24.410  22.948  1.00  0.00    -0.022 SA
ATOM     15  C   UNL A   1      32.455  24.587  24.643  1.00  0.00     0.083 C 
ATOM     16  O   UNL A   1      30.894  25.743  26.050  1.00  0.00    -0.268 OA
ATOM     17  C   UNL A   1      33.278  24.173  25.622  1.00  0.00     0.029 C 
BRANCH  17  18
ATOM     18  C   UNL A   1      34.612  23.546  25.509  1.00  0.00    -0.024 A 
ATOM     19  C   UNL A   1      34.712  22.152  25.401  1.00  0.00     0.009 A 
ATOM     20  C   UNL A   1      35.796  24.282  25.674  1.00  0.00     0.009 A 
ATOM     21  C   UNL A   1      35.962  21.518  25.426  1.00  0.00     0.021 A 
ATOM     22  C   UNL A   1      37.044  23.653  25.698  1.00  0.00     0.021 A 
ATOM     23  C   UNL A   1      37.123  22.272  25.573  1.00  0.00     0.041 A 
ATOM     24  Cl  UNL A   1      38.658  21.495  25.617  1.00  0.00    -0.084 Cl
ENDBRANCH  17  18
ENDBRANCH   8  10
ENDBRANCH   7   8
ENDBRANCH   4   7
ENDBRANCH   2   3
ENDBRANCH   1   2
BRANCH   1  25
ATOM     25  C   UNL A   1      32.903  28.252  26.888  1.00  0.00     0.023 C 
BRANCH  25  26
ATOM     26  C   UNL A   1      34.209  28.920  27.253  1.00  0.00     0.116 C 
BRANCH  26  27
ATOM     27  N   UNL A   1      34.058  30.186  27.965  1.00  0.00    -0.352 N 
ATOM     28  C   UNL A   1      34.966  30.860  28.746  1.00  0.00     0.251 C 
ATOM     29  H   UNL A   1      33.178  30.619  27.872  1.00  0.00     0.163 HD
ATOM     30  O   UNL A   1      34.651  31.894  29.323  1.00  0.00    -0.269 OA
BRANCH  28  31
ATOM     31  C   UNL A   1      36.319  30.298  28.896  1.00  0.00     0.039 A 
ATOM     32  C   UNL A   1      36.632  29.541  30.026  1.00  0.00     0.014 A 
ATOM     33  C   UNL A   1      37.255  30.481  27.878  1.00  0.00     0.014 A 
ATOM     34  C   UNL A   1      37.872  28.914  30.104  1.00  0.00     0.010 A 
ATOM     35  C   UNL A   1      38.424  29.747  27.888  1.00  0.00     0.010 A 
ATOM     36  C   UNL A   1      38.765  29.007  29.027  1.00  0.00    -0.014 A 
BRANCH  36  37
ATOM     37  C   UNL A   1      40.155  28.522  29.122  1.00  0.00     0.031 A 
ATOM     38  C   UNL A   1      41.194  29.492  29.614  1.00  0.00     0.074 A 
ATOM     39  C   UNL A   1      40.483  27.285  28.711  1.00  0.00     0.049 A 
ATOM     40  N   UNL A   1      42.495  29.377  29.635  1.00  0.00    -0.248 NA
ATOM     41  C   UNL A   1      40.700  30.796  30.096  1.00  0.00     0.031 C 
ATOM     42  C   UNL A   1      39.552  26.279  28.199  1.00  0.00     0.029 A 
ATOM     43  N   UNL A   1      41.705  26.673  28.657  1.00  0.00    -0.354 N 
ATOM     44  C   UNL A   1      42.964  30.603  30.089  1.00  0.00     0.074 A 
ATOM     45  C   UNL A   1      41.824  31.471  30.253  1.00  0.00     0.031 C 
ATOM     46  C   UNL A   1      40.238  25.159  27.910  1.00  0.00     0.029 A 
ATOM     47  C   UNL A   1      41.654  25.386  28.179  1.00  0.00     0.049 A 
ATOM     48  H   UNL A   1      42.541  27.111  28.935  1.00  0.00     0.167 HD
ATOM     49  C   UNL A   1      44.234  30.964  30.381  1.00  0.00     0.031 A 
ATOM     50  C   UNL A   1      42.650  24.504  27.984  1.00  0.00     0.031 A 
ATOM     51  C   UNL A   1      45.350  30.073  30.256  1.00  0.00     0.049 A 
ATOM     52  C   UNL A   1      44.055  24.924  28.328  1.00  0.00     0.074 A 
ATOM     53  C   UNL A   1      46.678  30.300  30.563  1.00  0.00     0.029 A 
ATOM     54  N   UNL A   1      45.255  28.766  29.798  1.00  0.00    -0.354 N 
ATOM     55  N   UNL A   1      44.489  26.073  28.791  1.00  0.00    -0.248 NA
ATOM     56  C   UNL A   1      45.106  23.917  28.135  1.00  0.00     0.031 C 
ATOM     57  C   UNL A   1      47.395  29.139  30.251  1.00  0.00     0.029 A 
ATOM     58  C   UNL A   1      46.504  28.175  29.804  1.00  0.00     0.049 A 
ATOM     59  H   UNL A   1      44.422  28.328  29.512  1.00  0.00     0.167 HD
ATOM     60  C   UNL A   1      45.856  25.918  28.975  1.00  0.00     0.074 A 
ATOM     61  C   UNL A   1      46.173  24.556  28.593  1.00  0.00     0.031 C 
ATOM     62  C   UNL A   1      46.774  26.814  29.416  1.00  0.00     0.031 A 
BRANCH  49  63
ATOM     63  C   UNL A   1      44.453  32.373  30.856  1.00  0.00    -0.014 A 
ATOM     64  C   UNL A   1      44.729  33.416  29.954  1.00  0.00     0.009 A 
ATOM     65  C   UNL A   1      44.413  32.660  32.228  1.00  0.00     0.009 A 
ATOM     66  C   UNL A   1      45.015  34.701  30.420  1.00  0.00     0.001 A 
ATOM     67  C   UNL A   1      44.663  33.954  32.689  1.00  0.00     0.001 A 
ATOM     68  C   UNL A   1      44.977  34.970  31.787  1.00  0.00     0.000 A 
ENDBRANCH  49  63
BRANCH  50  69
ATOM     69  C   UNL A   1      42.361  23.139  27.473  1.00  0.00    -0.014 A 
ATOM     70  C   UNL A   1      41.738  22.188  28.296  1.00  0.00     0.009 A 
ATOM     71  C   UNL A   1      42.718  22.770  26.166  1.00  0.00     0.009 A 
ATOM     72  C   UNL A   1      41.513  20.888  27.837  1.00  0.00     0.001 A 
ATOM     73  C   UNL A   1      42.464  21.477  25.699  1.00  0.00     0.001 A 
ATOM     74  C   UNL A   1      41.873  20.535  26.538  1.00  0.00     0.000 A 
ENDBRANCH  50  69
BRANCH  62  75
ATOM     75  C   UNL A   1      48.189  26.328  29.542  1.00  0.00    -0.014 A 
ATOM     76  C   UNL A   1      48.677  25.805  30.749  1.00  0.00     0.009 A 
ATOM     77  C   UNL A   1      49.034  26.366  28.423  1.00  0.00     0.009 A 
ATOM     78  C   UNL A   1      50.000  25.373  30.845  1.00  0.00     0.001 A 
ATOM     79  C   UNL A   1      50.346  25.900  28.511  1.00  0.00     0.001 A 
ATOM     80  C   UNL A   1      50.831  25.416  29.725  1.00  0.00     0.000 A 
ENDBRANCH  62  75
ENDBRANCH  36  37
ENDBRANCH  28  31
ENDBRANCH  26  27
ENDBRANCH  25  26
ENDBRANCH   1  25
TORSDOF 14
ENDMDL
MODEL 3
REMARK VINA RESULT:     -11.8      4.854      9.829
REMARK SMILES C[C@H](CC(=O)NCCCCNC(=O)c1ccc(-c2c3nc(c(-c4ccccc4)c4ccc([nH]4)c(-c4ccccc4)c4nc(c(-c5ccccc5)c5ccc2[nH]5)C=C4)C=C3)cc1)N1C(=O)S/C(=C\c2ccc(Cl)cc2)C1=O
REMARK SMILES IDX 8 1 7 2 6 3 4 4 5 5 3 7 2 8 1 9 62 10 63 11 75 12 64 13
REMARK SMILES IDX 65 14 66 15 76 16 67 17 68 18 69 19 74 20 70 21 73 22 71 23
REMARK SMILES IDX 72 24 9 25 10 26 11 27 12 28 13 30 14 31 15 32 61 33 16 34
REMARK SMILES IDX 60 35 17 36 18 37 19 38 54 39 20 40 59 41 53 42 55 43 21 44
REMARK SMILES IDX 58 45 52 46 51 47 22 49 44 50 29 51 43 52 30 53 33 54 42 55
REMARK SMILES IDX 56 56 31 57 32 58 41 60 57 61 34 62 23 63 24 64 28 65 25 66
REMARK SMILES IDX 27 67 26 68 45 69 46 70 50 71 47 72 49 73 48 74 35 75 36 76
REMARK SMILES IDX 40 77 37 78 39 79 38 80
REMARK H PARENT 6 6 11 29 55 48 33 59
REMARK Flexibility Score: inf
ROOT
ATOM      1  C   UNL A   1      37.311  20.813  24.528  1.00  0.00     0.023 C 
ENDROOT
BRANCH   1   2
ATOM      2  C   UNL A   1      36.127  21.099  25.433  1.00  0.00     0.116 C 
BRANCH   2   3
ATOM      3  N   UNL A   1      35.183  20.008  25.328  1.00  0.00    -0.356 N 
ATOM      4  C   UNL A   1      33.821  20.066  25.341  1.00  0.00     0.222 C 
ATOM      5  O   UNL A   1      33.194  19.015  25.472  1.00  0.00    -0.275 OA
ATOM      6  H   UNL A   1      35.573  19.109  25.234  1.00  0.00     0.163 HD
BRANCH   4   7
ATOM      7  C   UNL A   1      33.116  21.391  25.112  1.00  0.00     0.125 C 
BRANCH   7   8
ATOM      8  C   UNL A   1      32.565  22.126  26.352  1.00  0.00     0.101 C 
ATOM      9  C   UNL A   1      33.453  21.915  27.581  1.00  0.00     0.032 C 
BRANCH   8  10
ATOM     10  N   UNL A   1      32.121  23.519  26.129  1.00  0.00    -0.265 N 
ATOM     11  C   UNL A   1      30.909  24.015  26.538  1.00  0.00     0.293 C 
ATOM     12  C   UNL A   1      32.969  24.439  25.532  1.00  0.00     0.268 C 
ATOM     13  O   UNL A   1      30.055  23.469  27.222  1.00  0.00    -0.261 OA
ATOM     14  S   UNL A   1      30.709  25.679  26.007  1.00  0.00    -0.022 SA
ATOM     15  C   UNL A   1      32.354  25.804  25.538  1.00  0.00     0.083 C 
ATOM     16  O   UNL A   1      34.112  24.218  25.155  1.00  0.00    -0.268 OA
ATOM     17  C   UNL A   1      33.098  26.911  25.377  1.00  0.00     0.029 C 
BRANCH  17  18
ATOM     18  C   UNL A   1      32.740  28.319  25.658  1.00  0.00    -0.024 A 
ATOM     19  C   UNL A   1      33.242  28.939  26.810  1.00  0.00     0.009 A 
ATOM     20  C   UNL A   1      31.781  29.008  24.901  1.00  0.00     0.009 A 
ATOM     21  C   UNL A   1      32.818  30.226  27.174  1.00  0.00     0.021 A 
ATOM     22  C   UNL A   1      31.356  30.290  25.260  1.00  0.00     0.021 A 
ATOM     23  C   UNL A   1      31.878  30.896  26.396  1.00  0.00     0.041 A 
ATOM     24  Cl  UNL A   1      31.346  32.468  26.848  1.00  0.00    -0.084 Cl
ENDBRANCH  17  18
ENDBRANCH   8  10
ENDBRANCH   7   8
ENDBRANCH   4   7
ENDBRANCH   2   3
ENDBRANCH   1   2
BRANCH   1  25
ATOM     25  C   UNL A   1      38.168  19.638  24.948  1.00  0.00     0.023 C 
BRANCH  25  26
ATOM     26  C   UNL A   1      39.238  20.006  25.952  1.00  0.00     0.116 C 
BRANCH  26  27
ATOM     27  N   UNL A   1      40.476  19.245  25.816  1.00  0.00    -0.352 N 
ATOM     28  C   UNL A   1      41.769  19.632  26.076  1.00  0.00     0.251 C 
ATOM     29  H   UNL A   1      40.370  18.322  25.492  1.00  0.00     0.163 HD
ATOM     30  O   UNL A   1      42.708  18.877  25.850  1.00  0.00    -0.269 OA
BRANCH  28  31
ATOM     31  C   UNL A   1      42.006  20.985  26.608  1.00  0.00     0.039 A 
ATOM     32  C   UNL A   1      42.008  21.194  27.987  1.00  0.00     0.014 A 
ATOM     33  C   UNL A   1      42.285  22.030  25.727  1.00  0.00     0.014 A 
ATOM     34  C   UNL A   1      42.351  22.448  28.486  1.00  0.00     0.010 A 
ATOM     35  C   UNL A   1      42.762  23.227  26.220  1.00  0.00     0.010 A 
ATOM     36  C   UNL A   1      42.742  23.463  27.601  1.00  0.00    -0.014 A 
BRANCH  36  37
ATOM     37  C   UNL A   1      42.940  24.854  28.048  1.00  0.00     0.031 A 
ATOM     38  C   UNL A   1      44.343  25.281  28.383  1.00  0.00     0.074 A 
ATOM     39  C   UNL A   1      41.893  25.679  28.217  1.00  0.00     0.049 A 
ATOM     40  N   UNL A   1      44.765  26.380  28.948  1.00  0.00    -0.248 NA
ATOM     41  C   UNL A   1      45.413  24.306  28.094  1.00  0.00     0.031 C 
ATOM     42  C   UNL A   1      40.493  25.354  27.939  1.00  0.00     0.029 A 
ATOM     43  N   UNL A   1      41.854  26.968  28.675  1.00  0.00    -0.354 N 
ATOM     44  C   UNL A   1      46.133  26.203  29.116  1.00  0.00     0.074 A 
ATOM     45  C   UNL A   1      46.457  24.869  28.672  1.00  0.00     0.031 C 
ATOM     46  C   UNL A   1      39.734  26.432  28.206  1.00  0.00     0.029 A 
ATOM     47  C   UNL A   1      40.589  27.502  28.709  1.00  0.00     0.049 A 
ATOM     48  H   UNL A   1      42.657  27.466  28.953  1.00  0.00     0.167 HD
ATOM     49  C   UNL A   1      47.049  27.090  29.566  1.00  0.00     0.031 A 
ATOM     50  C   UNL A   1      40.184  28.721  29.107  1.00  0.00     0.031 A 
ATOM     51  C   UNL A   1      46.715  28.429  29.959  1.00  0.00     0.049 A 
ATOM     52  C   UNL A   1      41.223  29.698  29.592  1.00  0.00     0.074 A 
ATOM     53  C   UNL A   1      47.553  29.440  30.389  1.00  0.00     0.029 A 
ATOM     54  N   UNL A   1      45.426  28.944  29.950  1.00  0.00    -0.354 N 
ATOM     55  N   UNL A   1      42.520  29.538  29.715  1.00  0.00    -0.248 NA
ATOM     56  C   UNL A   1      40.740  31.029  29.981  1.00  0.00     0.031 C 
ATOM     57  C   UNL A   1      46.764  30.558  30.678  1.00  0.00     0.029 A 
ATOM     58  C   UNL A   1      45.443  30.258  30.376  1.00  0.00     0.049 A 
ATOM     59  H   UNL A   1      44.622  28.447  29.681  1.00  0.00     0.167 HD
ATOM     60  C   UNL A   1      43.013  30.755  30.164  1.00  0.00     0.074 A 
ATOM     61  C   UNL A   1      41.876  31.648  30.270  1.00  0.00     0.031 C 
ATOM     62  C   UNL A   1      44.287  31.111  30.466  1.00  0.00     0.031 A 
BRANCH  49  63
ATOM     63  C   UNL A   1      48.474  26.622  29.646  1.00  0.00    -0.014 A 
ATOM     64  C   UNL A   1      48.974  25.991  30.799  1.00  0.00     0.009 A 
ATOM     65  C   UNL A   1      49.342  26.841  28.567  1.00  0.00     0.009 A 
ATOM     66  C   UNL A   1      50.322  25.640  30.889  1.00  0.00     0.001 A 
ATOM     67  C   UNL A   1      50.681  26.455  28.645  1.00  0.00     0.001 A 
ATOM     68  C   UNL A   1      51.174  25.869  29.809  1.00  0.00     0.000 A 
ENDBRANCH  49  63
BRANCH  50  69
ATOM     69  C   UNL A   1      38.749  29.100  29.036  1.00  0.00    -0.014 A 
ATOM     70  C   UNL A   1      38.206  29.608  27.845  1.00  0.00     0.009 A 
ATOM     71  C   UNL A   1      37.915  28.973  30.158  1.00  0.00     0.009 A 
ATOM     72  C   UNL A   1      36.871  30.016  27.789  1.00  0.00     0.001 A 
ATOM     73  C   UNL A   1      36.571  29.353  30.090  1.00  0.00     0.001 A 
ATOM     74  C   UNL A   1      36.054  29.885  28.911  1.00  0.00     0.000 A 
ENDBRANCH  50  69
BRANCH  62  75
ATOM     75  C   UNL A   1      44.508  32.533  30.898  1.00  0.00    -0.014 A 
ATOM     76  C   UNL A   1      44.449  32.903  32.249  1.00  0.00     0.009 A 
ATOM     77  C   UNL A   1      44.812  33.507  29.934  1.00  0.00     0.009 A 
ATOM     78  C   UNL A   1      44.645  34.233  32.623  1.00  0.00     0.001 A 
ATOM     79  C   UNL A   1      45.042  34.829  30.314  1.00  0.00     0.001 A 
ATOM     80  C   UNL A   1      44.946  35.192  31.657  1.00  0.00     0.000 A 
ENDBRANCH  62  75
ENDBRANCH  36  37
ENDBRANCH  28  31
ENDBRANCH  26  27
ENDBRANCH  25  26
ENDBRANCH   1  25
TORSDOF 14
ENDMDL
