MODEL 1
REMARK VINA RESULT:     -11.5      0.000      0.000
REMARK SMILES COc1ccccc1-n1c(C)nnc1SCC(=O)NCCCCNC(=O)c1ccc(-c2c3nc(c(-c4ccccc4)c4ccc([nH]4)c(-c4ccccc4)c4nc(c(-c5ccccc5)c5ccc2[nH]5)C=C4)C=C3)cc1
REMARK SMILES IDX 20 1 19 2 17 3 18 4 16 6 15 7 14 8 9 9 10 10 11 11 12 12
REMARK SMILES IDX 13 13 8 14 3 15 4 16 5 17 7 18 6 19 2 20 1 21 21 22 22 23
REMARK SMILES IDX 23 24 24 25 25 26 26 28 27 29 28 30 74 31 29 32 73 33 30 34
REMARK SMILES IDX 31 35 32 36 67 37 33 38 72 39 66 40 68 41 34 42 71 43 65 44
REMARK SMILES IDX 64 45 35 47 57 48 42 49 56 50 43 51 46 52 55 53 69 54 44 55
REMARK SMILES IDX 45 56 54 58 70 59 47 60 36 61 37 62 41 63 38 64 40 65 39 66
REMARK SMILES IDX 58 67 59 68 63 69 60 70 62 71 61 72 48 73 49 74 53 75 50 76
REMARK SMILES IDX 52 77 51 78
REMARK H PARENT 19 5 24 27 68 46 46 57
REMARK Flexibility Score: inf
ROOT
ATOM      1  C   UNL A   1      35.324  20.031  24.982  1.00  0.00     0.116 C 
ENDROOT
BRANCH   1   2
ATOM      2  N   UNL A   1      34.113  19.259  25.181  1.00  0.00    -0.355 N 
ATOM      3  C   UNL A   1      32.809  19.610  24.995  1.00  0.00     0.230 C 
ATOM      4  O   UNL A   1      32.040  18.686  24.696  1.00  0.00    -0.274 OA
ATOM      5  H   UNL A   1      34.254  18.339  25.499  1.00  0.00     0.163 HD
BRANCH   3   6
ATOM      6  C   UNL A   1      32.274  21.032  25.029  1.00  0.00     0.178 C 
BRANCH   6   7
ATOM      7  S   UNL A   1      32.177  21.860  26.605  1.00  0.00    -0.076 SA
BRANCH   7   8
ATOM      8  C   UNL A   1      32.322  23.577  26.487  1.00  0.00     0.196 A 
ATOM      9  N   UNL A   1      33.283  24.390  25.922  1.00  0.00    -0.270 N 
ATOM     10  C   UNL A   1      32.852  25.688  26.167  1.00  0.00     0.135 A 
ATOM     11  C   UNL A   1      33.509  26.929  25.687  1.00  0.00     0.090 C 
ATOM     12  N   UNL A   1      31.706  25.649  26.810  1.00  0.00    -0.134 NA
ATOM     13  N   UNL A   1      31.378  24.338  27.005  1.00  0.00    -0.123 NA
BRANCH   9  14
ATOM     14  C   UNL A   1      34.456  24.065  25.233  1.00  0.00     0.091 A 
ATOM     15  C   UNL A   1      34.496  23.964  23.840  1.00  0.00     0.142 A 
ATOM     16  C   UNL A   1      35.691  23.542  23.248  1.00  0.00     0.048 A 
ATOM     17  C   UNL A   1      36.819  23.252  24.024  1.00  0.00     0.004 A 
ATOM     18  C   UNL A   1      35.600  23.828  26.017  1.00  0.00     0.031 A 
ATOM     19  C   UNL A   1      36.777  23.407  25.407  1.00  0.00     0.002 A 
BRANCH  15  20
ATOM     20  O   UNL A   1      33.447  24.091  22.975  1.00  0.00    -0.495 OA
ATOM     21  C   UNL A   1      33.187  22.991  22.110  1.00  0.00     0.278 C 
ENDBRANCH  15  20
ENDBRANCH   9  14
ENDBRANCH   7   8
ENDBRANCH   6   7
ENDBRANCH   3   6
ENDBRANCH   1   2
BRANCH   1  22
ATOM     22  C   UNL A   1      36.627  19.217  25.015  1.00  0.00     0.023 C 
BRANCH  22  23
ATOM     23  C   UNL A   1      37.918  19.919  24.576  1.00  0.00     0.023 C 
BRANCH  23  24
ATOM     24  C   UNL A   1      38.928  20.168  25.675  1.00  0.00     0.116 C 
BRANCH  24  25
ATOM     25  N   UNL A   1      39.955  19.128  25.823  1.00  0.00    -0.352 N 
ATOM     26  C   UNL A   1      41.333  19.290  25.991  1.00  0.00     0.251 C 
ATOM     27  H   UNL A   1      39.632  18.198  25.801  1.00  0.00     0.163 HD
ATOM     28  O   UNL A   1      42.117  18.385  25.777  1.00  0.00    -0.269 OA
BRANCH  26  29
ATOM     29  C   UNL A   1      41.816  20.603  26.466  1.00  0.00     0.039 A 
ATOM     30  C   UNL A   1      42.580  21.499  25.711  1.00  0.00     0.014 A 
ATOM     31  C   UNL A   1      41.376  20.959  27.723  1.00  0.00     0.014 A 
ATOM     32  C   UNL A   1      42.862  22.751  26.267  1.00  0.00     0.010 A 
ATOM     33  C   UNL A   1      41.251  22.277  28.000  1.00  0.00     0.010 A 
ATOM     34  C   UNL A   1      42.194  23.111  27.441  1.00  0.00    -0.014 A 
BRANCH  34  35
ATOM     35  C   UNL A   1      42.385  24.339  28.190  1.00  0.00     0.031 A 
ATOM     36  C   UNL A   1      41.298  25.327  28.028  1.00  0.00     0.074 A 
ATOM     37  C   UNL A   1      43.289  24.398  29.198  1.00  0.00     0.049 A 
ATOM     38  N   UNL A   1      41.372  26.476  27.451  1.00  0.00    -0.248 NA
ATOM     39  C   UNL A   1      39.932  24.940  28.418  1.00  0.00     0.031 C 
ATOM     40  C   UNL A   1      44.184  23.345  29.713  1.00  0.00     0.029 A 
ATOM     41  N   UNL A   1      43.503  25.402  30.086  1.00  0.00    -0.354 N 
ATOM     42  C   UNL A   1      40.110  27.045  27.566  1.00  0.00     0.074 A 
ATOM     43  C   UNL A   1      39.228  25.986  27.982  1.00  0.00     0.031 C 
ATOM     44  C   UNL A   1      44.647  23.691  30.937  1.00  0.00     0.029 A 
ATOM     45  C   UNL A   1      44.220  25.047  31.224  1.00  0.00     0.049 A 
ATOM     46  H   UNL A   1      43.174  26.317  29.935  1.00  0.00     0.167 HD
ATOM     47  C   UNL A   1      39.939  28.396  27.544  1.00  0.00     0.031 A 
ATOM     48  C   UNL A   1      44.413  25.815  32.328  1.00  0.00     0.031 A 
ATOM     49  C   UNL A   1      41.158  29.068  27.173  1.00  0.00     0.049 A 
ATOM     50  C   UNL A   1      44.120  27.215  31.931  1.00  0.00     0.074 A 
ATOM     51  C   UNL A   1      41.954  29.075  26.045  1.00  0.00     0.029 A 
ATOM     52  N   UNL A   1      41.948  29.521  28.206  1.00  0.00    -0.354 N 
ATOM     53  N   UNL A   1      44.850  27.874  31.076  1.00  0.00    -0.248 NA
ATOM     54  C   UNL A   1      42.751  27.691  32.081  1.00  0.00     0.031 C 
ATOM     55  C   UNL A   1      43.288  29.052  26.548  1.00  0.00     0.029 A 
ATOM     56  C   UNL A   1      43.237  29.134  27.942  1.00  0.00     0.049 A 
ATOM     57  H   UNL A   1      41.644  30.031  28.991  1.00  0.00     0.167 HD
ATOM     58  C   UNL A   1      43.936  28.538  30.268  1.00  0.00     0.074 A 
ATOM     59  C   UNL A   1      42.665  28.463  30.991  1.00  0.00     0.031 C 
ATOM     60  C   UNL A   1      44.216  28.810  28.958  1.00  0.00     0.031 A 
BRANCH  47  61
ATOM     61  C   UNL A   1      38.819  29.134  28.227  1.00  0.00    -0.014 A 
ATOM     62  C   UNL A   1      38.528  28.809  29.564  1.00  0.00     0.009 A 
ATOM     63  C   UNL A   1      37.880  29.928  27.547  1.00  0.00     0.009 A 
ATOM     64  C   UNL A   1      37.321  29.192  30.161  1.00  0.00     0.001 A 
ATOM     65  C   UNL A   1      36.691  30.345  28.153  1.00  0.00     0.001 A 
ATOM     66  C   UNL A   1      36.399  29.951  29.450  1.00  0.00     0.000 A 
ENDBRANCH  47  61
BRANCH  48  67
ATOM     67  C   UNL A   1      44.560  25.402  33.745  1.00  0.00    -0.014 A 
ATOM     68  C   UNL A   1      43.447  25.042  34.523  1.00  0.00     0.009 A 
ATOM     69  C   UNL A   1      45.834  25.101  34.261  1.00  0.00     0.009 A 
ATOM     70  C   UNL A   1      43.605  24.378  35.751  1.00  0.00     0.001 A 
ATOM     71  C   UNL A   1      45.994  24.436  35.483  1.00  0.00     0.001 A 
ATOM     72  C   UNL A   1      44.877  24.062  36.223  1.00  0.00     0.000 A 
ENDBRANCH  48  67
BRANCH  60  73
ATOM     73  C   UNL A   1      45.610  28.514  28.451  1.00  0.00    -0.014 A 
ATOM     74  C   UNL A   1      46.706  29.369  28.670  1.00  0.00     0.009 A 
ATOM     75  C   UNL A   1      45.862  27.238  27.929  1.00  0.00     0.009 A 
ATOM     76  C   UNL A   1      48.010  28.962  28.365  1.00  0.00     0.001 A 
ATOM     77  C   UNL A   1      47.165  26.824  27.643  1.00  0.00     0.001 A 
ATOM     78  C   UNL A   1      48.238  27.685  27.860  1.00  0.00     0.000 A 
ENDBRANCH  60  73
ENDBRANCH  34  35
ENDBRANCH  26  29
ENDBRANCH  24  25
ENDBRANCH  23  24
ENDBRANCH  22  23
ENDBRANCH   1  22
TORSDOF 15
ENDMDL
MODEL 2
REMARK VINA RESULT:     -11.4      1.760      2.719
REMARK SMILES COc1ccccc1-n1c(C)nnc1SCC(=O)NCCCCNC(=O)c1ccc(-c2c3nc(c(-c4ccccc4)c4ccc([nH]4)c(-c4ccccc4)c4nc(c(-c5ccccc5)c5ccc2[nH]5)C=C4)C=C3)cc1
REMARK SMILES IDX 20 1 19 2 17 3 18 4 16 6 15 7 14 8 9 9 10 10 11 11 12 12
REMARK SMILES IDX 13 13 8 14 3 15 4 16 5 17 7 18 6 19 2 20 1 21 21 22 22 23
REMARK SMILES IDX 23 24 24 25 25 26 26 28 27 29 28 30 74 31 29 32 73 33 30 34
REMARK SMILES IDX 31 35 32 36 67 37 33 38 72 39 66 40 68 41 34 42 71 43 65 44
REMARK SMILES IDX 64 45 35 47 57 48 42 49 56 50 43 51 46 52 55 53 69 54 44 55
REMARK SMILES IDX 45 56 54 58 70 59 47 60 36 61 37 62 41 63 38 64 40 65 39 66
REMARK SMILES IDX 58 67 59 68 63 69 60 70 62 71 61 72 48 73 49 74 53 75 50 76
REMARK SMILES IDX 52 77 51 78
REMARK H PARENT 19 5 24 27 68 46 46 57
REMARK Flexibility Score: inf
ROOT
ATOM      1  C   UNL A   1      37.769  22.642  25.701  1.00  0.00     0.116 C 
ENDROOT
BRANCH   1   2
ATOM      2  N   UNL A   1      37.536  22.498  24.277  1.00  0.00    -0.355 N 
ATOM      3  C   UNL A   1      36.394  22.673  23.553  1.00  0.00     0.230 C 
ATOM      4  O   UNL A   1      36.552  23.030  22.377  1.00  0.00    -0.274 OA
ATOM      5  H   UNL A   1      38.324  22.233  23.752  1.00  0.00     0.163 HD
BRANCH   3   6
ATOM      6  C   UNL A   1      34.983  22.560  24.106  1.00  0.00     0.178 C 
BRANCH   6   7
ATOM      7  S   UNL A   1      34.288  23.974  24.939  1.00  0.00    -0.076 SA
BRANCH   7   8
ATOM      8  C   UNL A   1      33.873  25.265  23.869  1.00  0.00     0.196 A 
ATOM      9  N   UNL A   1      33.329  26.514  24.090  1.00  0.00    -0.270 N 
ATOM     10  C   UNL A   1      33.210  27.087  22.830  1.00  0.00     0.135 A 
ATOM     11  C   UNL A   1      32.745  28.467  22.541  1.00  0.00     0.090 C 
ATOM     12  N   UNL A   1      33.674  26.250  21.929  1.00  0.00    -0.134 NA
ATOM     13  N   UNL A   1      34.086  25.121  22.577  1.00  0.00    -0.123 NA
BRANCH   9  14
ATOM     14  C   UNL A   1      32.955  27.144  25.282  1.00  0.00     0.091 A 
ATOM     15  C   UNL A   1      31.639  27.122  25.752  1.00  0.00     0.142 A 
ATOM     16  C   UNL A   1      31.343  27.860  26.903  1.00  0.00     0.048 A 
ATOM     17  C   UNL A   1      32.337  28.579  27.577  1.00  0.00     0.004 A 
ATOM     18  C   UNL A   1      33.971  27.819  25.982  1.00  0.00     0.031 A 
ATOM     19  C   UNL A   1      33.653  28.548  27.124  1.00  0.00     0.002 A 
BRANCH  15  20
ATOM     20  O   UNL A   1      30.552  26.575  25.132  1.00  0.00    -0.495 OA
ATOM     21  C   UNL A   1      29.900  25.502  25.802  1.00  0.00     0.278 C 
ENDBRANCH  15  20
ENDBRANCH   9  14
ENDBRANCH   7   8
ENDBRANCH   6   7
ENDBRANCH   3   6
ENDBRANCH   1   2
BRANCH   1  22
ATOM     22  C   UNL A   1      39.026  21.936  26.229  1.00  0.00     0.023 C 
BRANCH  22  23
ATOM     23  C   UNL A   1      39.458  20.636  25.540  1.00  0.00     0.023 C 
BRANCH  23  24
ATOM     24  C   UNL A   1      40.028  19.573  26.454  1.00  0.00     0.116 C 
BRANCH  24  25
ATOM     25  N   UNL A   1      41.283  18.963  25.993  1.00  0.00    -0.352 N 
ATOM     26  C   UNL A   1      42.481  19.599  25.657  1.00  0.00     0.251 C 
ATOM     27  H   UNL A   1      41.279  17.982  25.909  1.00  0.00     0.163 HD
ATOM     28  O   UNL A   1      43.334  19.048  24.987  1.00  0.00    -0.269 OA
BRANCH  26  29
ATOM     29  C   UNL A   1      42.697  20.970  26.166  1.00  0.00     0.039 A 
ATOM     30  C   UNL A   1      42.870  22.105  25.367  1.00  0.00     0.014 A 
ATOM     31  C   UNL A   1      42.623  21.093  27.537  1.00  0.00     0.014 A 
ATOM     32  C   UNL A   1      42.950  23.348  26.004  1.00  0.00     0.010 A 
ATOM     33  C   UNL A   1      42.226  22.282  28.044  1.00  0.00     0.010 A 
ATOM     34  C   UNL A   1      42.643  23.406  27.366  1.00  0.00    -0.014 A 
BRANCH  34  35
ATOM     35  C   UNL A   1      42.713  24.587  28.207  1.00  0.00     0.031 A 
ATOM     36  C   UNL A   1      41.597  25.537  28.018  1.00  0.00     0.074 A 
ATOM     37  C   UNL A   1      43.527  24.614  29.291  1.00  0.00     0.049 A 
ATOM     38  N   UNL A   1      41.663  26.725  27.526  1.00  0.00    -0.248 NA
ATOM     39  C   UNL A   1      40.223  25.067  28.264  1.00  0.00     0.031 C 
ATOM     40  C   UNL A   1      44.426  23.566  29.810  1.00  0.00     0.029 A 
ATOM     41  N   UNL A   1      43.619  25.562  30.257  1.00  0.00    -0.354 N 
ATOM     42  C   UNL A   1      40.370  27.231  27.569  1.00  0.00     0.074 A 
ATOM     43  C   UNL A   1      39.508  26.110  27.839  1.00  0.00     0.031 C 
ATOM     44  C   UNL A   1      44.770  23.846  31.089  1.00  0.00     0.029 A 
ATOM     45  C   UNL A   1      44.256  25.159  31.426  1.00  0.00     0.049 A 
ATOM     46  H   UNL A   1      43.260  26.471  30.139  1.00  0.00     0.167 HD
ATOM     47  C   UNL A   1      40.137  28.573  27.621  1.00  0.00     0.031 A 
ATOM     48  C   UNL A   1      44.321  25.857  32.591  1.00  0.00     0.031 A 
ATOM     49  C   UNL A   1      41.350  29.319  27.400  1.00  0.00     0.049 A 
ATOM     50  C   UNL A   1      43.995  27.268  32.263  1.00  0.00     0.074 A 
ATOM     51  C   UNL A   1      42.234  29.437  26.348  1.00  0.00     0.029 A 
ATOM     52  N   UNL A   1      42.029  29.733  28.525  1.00  0.00    -0.354 N 
ATOM     53  N   UNL A   1      44.761  28.015  31.517  1.00  0.00    -0.248 NA
ATOM     54  C   UNL A   1      42.598  27.674  32.326  1.00  0.00     0.031 C 
ATOM     55  C   UNL A   1      43.522  29.436  26.959  1.00  0.00     0.029 A 
ATOM     56  C   UNL A   1      43.353  29.418  28.347  1.00  0.00     0.049 A 
ATOM     57  H   UNL A   1      41.638  30.174  29.313  1.00  0.00     0.167 HD
ATOM     58  C   UNL A   1      43.886  28.694  30.680  1.00  0.00     0.074 A 
ATOM     59  C   UNL A   1      42.564  28.516  31.285  1.00  0.00     0.031 C 
ATOM     60  C   UNL A   1      44.259  29.067  29.419  1.00  0.00     0.031 A 
BRANCH  47  61
ATOM     61  C   UNL A   1      38.932  29.213  28.253  1.00  0.00    -0.014 A 
ATOM     62  C   UNL A   1      38.701  28.991  29.623  1.00  0.00     0.009 A 
ATOM     63  C   UNL A   1      37.883  29.795  27.519  1.00  0.00     0.009 A 
ATOM     64  C   UNL A   1      37.459  29.261  30.207  1.00  0.00     0.001 A 
ATOM     65  C   UNL A   1      36.654  30.103  28.108  1.00  0.00     0.001 A 
ATOM     66  C   UNL A   1      36.432  29.808  29.445  1.00  0.00     0.000 A 
ENDBRANCH  47  61
BRANCH  48  67
ATOM     67  C   UNL A   1      44.370  25.354  33.985  1.00  0.00    -0.014 A 
ATOM     68  C   UNL A   1      43.516  24.329  34.426  1.00  0.00     0.009 A 
ATOM     69  C   UNL A   1      45.451  25.699  34.819  1.00  0.00     0.009 A 
ATOM     70  C   UNL A   1      43.755  23.656  35.636  1.00  0.00     0.001 A 
ATOM     71  C   UNL A   1      45.693  25.026  36.023  1.00  0.00     0.001 A 
ATOM     72  C   UNL A   1      44.852  23.994  36.426  1.00  0.00     0.000 A 
ENDBRANCH  48  67
BRANCH  60  73
ATOM     73  C   UNL A   1      45.703  28.866  29.015  1.00  0.00    -0.014 A 
ATOM     74  C   UNL A   1      46.185  27.669  28.452  1.00  0.00     0.009 A 
ATOM     75  C   UNL A   1      46.544  29.987  29.004  1.00  0.00     0.009 A 
ATOM     76  C   UNL A   1      47.472  27.597  27.906  1.00  0.00     0.001 A 
ATOM     77  C   UNL A   1      47.820  29.921  28.442  1.00  0.00     0.001 A 
ATOM     78  C   UNL A   1      48.285  28.727  27.894  1.00  0.00     0.000 A 
ENDBRANCH  60  73
ENDBRANCH  34  35
ENDBRANCH  26  29
ENDBRANCH  24  25
ENDBRANCH  23  24
ENDBRANCH  22  23
ENDBRANCH   1  22
TORSDOF 15
ENDMDL
MODEL 3
REMARK VINA RESULT:     -11.1      1.469      2.272
REMARK SMILES COc1ccccc1-n1c(C)nnc1SCC(=O)NCCCCNC(=O)c1ccc(-c2c3nc(c(-c4ccccc4)c4ccc([nH]4)c(-c4ccccc4)c4nc(c(-c5ccccc5)c5ccc2[nH]5)C=C4)C=C3)cc1
REMARK SMILES IDX 20 1 19 2 17 3 18 4 16 6 15 7 14 8 9 9 10 10 11 11 12 12
REMARK SMILES IDX 13 13 8 14 3 15 4 16 5 17 7 18 6 19 2 20 1 21 21 22 22 23
REMARK SMILES IDX 23 24 24 25 25 26 26 28 27 29 28 30 74 31 29 32 73 33 30 34
REMARK SMILES IDX 31 35 32 36 67 37 33 38 72 39 66 40 68 41 34 42 71 43 65 44
REMARK SMILES IDX 64 45 35 47 57 48 42 49 56 50 43 51 46 52 55 53 69 54 44 55
REMARK SMILES IDX 45 56 54 58 70 59 47 60 36 61 37 62 41 63 38 64 40 65 39 66
REMARK SMILES IDX 58 67 59 68 63 69 60 70 62 71 61 72 48 73 49 74 53 75 50 76
REMARK SMILES IDX 52 77 51 78
REMARK H PARENT 19 5 24 27 68 46 46 57
REMARK Flexibility Score: inf
ROOT
ATOM      1  C   UNL A   1      37.744  22.810  25.731  1.00  0.00     0.116 C 
ENDROOT
BRANCH   1   2
ATOM      2  N   UNL A   1      37.224  22.861  24.379  1.00  0.00    -0.355 N 
ATOM      3  C   UNL A   1      35.940  22.783  23.928  1.00  0.00     0.230 C 
ATOM      4  O   UNL A   1      35.703  23.382  22.870  1.00  0.00    -0.274 OA
ATOM      5  H   UNL A   1      37.904  22.969  23.676  1.00  0.00     0.163 HD
BRANCH   3   6
ATOM      6  C   UNL A   1      34.793  22.117  24.671  1.00  0.00     0.178 C 
BRANCH   6   7
ATOM      7  S   UNL A   1      34.408  22.687  26.316  1.00  0.00    -0.076 SA
BRANCH   7   8
ATOM      8  C   UNL A   1      32.861  23.444  26.435  1.00  0.00     0.196 A 
ATOM      9  N   UNL A   1      32.278  24.478  25.730  1.00  0.00    -0.270 N 
ATOM     10  C   UNL A   1      31.024  24.648  26.304  1.00  0.00     0.135 A 
ATOM     11  C   UNL A   1      29.976  25.593  25.845  1.00  0.00     0.090 C 
ATOM     12  N   UNL A   1      30.864  23.763  27.263  1.00  0.00    -0.134 NA
ATOM     13  N   UNL A   1      32.005  23.016  27.341  1.00  0.00    -0.123 NA
BRANCH   9  14
ATOM     14  C   UNL A   1      32.765  25.236  24.661  1.00  0.00     0.091 A 
ATOM     15  C   UNL A   1      33.481  26.420  24.856  1.00  0.00     0.142 A 
ATOM     16  C   UNL A   1      33.845  27.158  23.724  1.00  0.00     0.048 A 
ATOM     17  C   UNL A   1      33.523  26.715  22.437  1.00  0.00     0.004 A 
ATOM     18  C   UNL A   1      32.483  24.755  23.369  1.00  0.00     0.031 A 
ATOM     19  C   UNL A   1      32.853  25.507  22.259  1.00  0.00     0.002 A 
BRANCH  15  20
ATOM     20  O   UNL A   1      33.751  27.033  26.046  1.00  0.00    -0.495 OA
ATOM     21  C   UNL A   1      32.826  28.020  26.488  1.00  0.00     0.278 C 
ENDBRANCH  15  20
ENDBRANCH   9  14
ENDBRANCH   7   8
ENDBRANCH   6   7
ENDBRANCH   3   6
ENDBRANCH   1   2
BRANCH   1  22
ATOM     22  C   UNL A   1      39.107  22.117  25.879  1.00  0.00     0.023 C 
BRANCH  22  23
ATOM     23  C   UNL A   1      39.229  20.670  25.387  1.00  0.00     0.023 C 
BRANCH  23  24
ATOM     24  C   UNL A   1      39.776  19.684  26.396  1.00  0.00     0.116 C 
BRANCH  24  25
ATOM     25  N   UNL A   1      41.018  19.008  25.995  1.00  0.00    -0.352 N 
ATOM     26  C   UNL A   1      42.259  19.580  25.705  1.00  0.00     0.251 C 
ATOM     27  H   UNL A   1      40.969  18.027  25.920  1.00  0.00     0.163 HD
ATOM     28  O   UNL A   1      43.112  18.981  25.078  1.00  0.00    -0.269 OA
BRANCH  26  29
ATOM     29  C   UNL A   1      42.521  20.944  26.210  1.00  0.00     0.039 A 
ATOM     30  C   UNL A   1      42.814  22.054  25.412  1.00  0.00     0.014 A 
ATOM     31  C   UNL A   1      42.363  21.094  27.572  1.00  0.00     0.014 A 
ATOM     32  C   UNL A   1      42.924  23.301  26.036  1.00  0.00     0.010 A 
ATOM     33  C   UNL A   1      42.002  22.312  28.036  1.00  0.00     0.010 A 
ATOM     34  C   UNL A   1      42.530  23.399  27.374  1.00  0.00    -0.014 A 
BRANCH  34  35
ATOM     35  C   UNL A   1      42.613  24.587  28.203  1.00  0.00     0.031 A 
ATOM     36  C   UNL A   1      41.489  25.531  28.031  1.00  0.00     0.074 A 
ATOM     37  C   UNL A   1      43.451  24.628  29.268  1.00  0.00     0.049 A 
ATOM     38  N   UNL A   1      41.537  26.715  27.527  1.00  0.00    -0.248 NA
ATOM     39  C   UNL A   1      40.123  25.056  28.311  1.00  0.00     0.031 C 
ATOM     40  C   UNL A   1      44.366  23.589  29.776  1.00  0.00     0.029 A 
ATOM     41  N   UNL A   1      43.560  25.584  30.224  1.00  0.00    -0.354 N 
ATOM     42  C   UNL A   1      40.243  27.215  27.595  1.00  0.00     0.074 A 
ATOM     43  C   UNL A   1      39.393  26.092  27.893  1.00  0.00     0.031 C 
ATOM     44  C   UNL A   1      44.737  23.881  31.045  1.00  0.00     0.029 A 
ATOM     45  C   UNL A   1      44.224  25.195  31.382  1.00  0.00     0.049 A 
ATOM     46  H   UNL A   1      43.194  26.491  30.105  1.00  0.00     0.167 HD
ATOM     47  C   UNL A   1      40.005  28.555  27.640  1.00  0.00     0.031 A 
ATOM     48  C   UNL A   1      44.312  25.903  32.539  1.00  0.00     0.031 A 
ATOM     49  C   UNL A   1      41.209  29.306  27.386  1.00  0.00     0.049 A 
ATOM     50  C   UNL A   1      43.972  27.310  32.206  1.00  0.00     0.074 A 
ATOM     51  C   UNL A   1      42.069  29.419  26.313  1.00  0.00     0.029 A 
ATOM     52  N   UNL A   1      41.911  29.732  28.491  1.00  0.00    -0.354 N 
ATOM     53  N   UNL A   1      44.717  28.054  31.437  1.00  0.00    -0.248 NA
ATOM     54  C   UNL A   1      42.574  27.710  32.296  1.00  0.00     0.031 C 
ATOM     55  C   UNL A   1      43.370  29.429  26.896  1.00  0.00     0.029 A 
ATOM     56  C   UNL A   1      43.231  29.423  28.287  1.00  0.00     0.049 A 
ATOM     57  H   UNL A   1      41.535  30.178  29.284  1.00  0.00     0.167 HD
ATOM     58  C   UNL A   1      43.820  28.721  30.613  1.00  0.00     0.074 A 
ATOM     59  C   UNL A   1      42.513  28.542  31.250  1.00  0.00     0.031 C 
ATOM     60  C   UNL A   1      44.164  29.085  29.341  1.00  0.00     0.031 A 
BRANCH  47  61
ATOM     61  C   UNL A   1      38.811  29.196  28.293  1.00  0.00    -0.014 A 
ATOM     62  C   UNL A   1      38.621  28.997  29.673  1.00  0.00     0.009 A 
ATOM     63  C   UNL A   1      37.736  29.752  27.578  1.00  0.00     0.009 A 
ATOM     64  C   UNL A   1      37.392  29.267  30.286  1.00  0.00     0.001 A 
ATOM     65  C   UNL A   1      36.520  30.059  28.195  1.00  0.00     0.001 A 
ATOM     66  C   UNL A   1      36.338  29.787  29.543  1.00  0.00     0.000 A 
ENDBRANCH  47  61
BRANCH  48  67
ATOM     67  C   UNL A   1      44.394  25.413  33.935  1.00  0.00    -0.014 A 
ATOM     68  C   UNL A   1      45.130  26.103  34.914  1.00  0.00     0.009 A 
ATOM     69  C   UNL A   1      43.521  24.401  34.378  1.00  0.00     0.009 A 
ATOM     70  C   UNL A   1      44.971  25.813  36.279  1.00  0.00     0.001 A 
ATOM     71  C   UNL A   1      43.359  24.113  35.739  1.00  0.00     0.001 A 
ATOM     72  C   UNL A   1      44.075  24.830  36.692  1.00  0.00     0.000 A 
ENDBRANCH  48  67
BRANCH  60  73
ATOM     73  C   UNL A   1      45.599  28.887  28.907  1.00  0.00    -0.014 A 
ATOM     74  C   UNL A   1      46.060  27.712  28.285  1.00  0.00     0.009 A 
ATOM     75  C   UNL A   1      46.452  29.999  28.933  1.00  0.00     0.009 A 
ATOM     76  C   UNL A   1      47.337  27.651  27.717  1.00  0.00     0.001 A 
ATOM     77  C   UNL A   1      47.719  29.945  28.349  1.00  0.00     0.001 A 
ATOM     78  C   UNL A   1      48.162  28.772  27.742  1.00  0.00     0.000 A 
ENDBRANCH  60  73
ENDBRANCH  34  35
ENDBRANCH  26  29
ENDBRANCH  24  25
ENDBRANCH  23  24
ENDBRANCH  22  23
ENDBRANCH   1  22
TORSDOF 15
ENDMDL
