MODEL 1
REMARK VINA RESULT:     -12.5      0.000      0.000
REMARK SMILES Cn1c(C(=O)N2CCC[C@@H](C(=O)NCCCCNC(=O)c3ccc(-c4c5nc(c(-c6ccccc6)c6ccc([nH]6)c(-c6ccccc6)c6nc(c(-c7ccccc7)c7ccc4[nH]7)C=C6)C=C5)cc3)C2)cc2sccc21
REMARK SMILES IDX 15 1 14 2 13 3 11 4 12 5 10 7 6 8 7 9 69 10 8 11 9 12 4 13
REMARK SMILES IDX 5 14 3 15 1 16 2 17 75 18 70 19 71 20 74 21 72 22 73 23
REMARK SMILES IDX 16 24 17 25 18 26 19 27 20 29 21 30 22 31 68 32 23 33 67 34
REMARK SMILES IDX 24 35 25 36 26 37 61 38 27 39 66 40 60 41 62 42 28 43 65 44
REMARK SMILES IDX 59 45 58 46 29 48 51 49 36 50 50 51 37 52 40 53 49 54 63 55
REMARK SMILES IDX 38 56 39 57 48 59 64 60 41 61 30 62 31 63 35 64 32 65 34 66
REMARK SMILES IDX 33 67 52 68 53 69 57 70 54 71 56 72 55 73 42 74 43 75 47 76
REMARK SMILES IDX 44 77 46 78 45 79
REMARK H PARENT 13 6 18 28 62 47 40 58
REMARK Flexibility Score: inf
ROOT
ATOM      1  C   UNL A   1      31.564  30.721  25.940  1.00  0.00     0.023 C 
ENDROOT
BRANCH   1   2
ATOM      2  C   UNL A   1      32.303  29.726  26.839  1.00  0.00     0.116 C 
BRANCH   2   3
ATOM      3  N   UNL A   1      31.569  28.491  27.063  1.00  0.00    -0.356 N 
ATOM      4  C   UNL A   1      31.311  27.380  26.329  1.00  0.00     0.224 C 
ATOM      5  O   UNL A   1      30.688  26.494  26.932  1.00  0.00    -0.275 OA
ATOM      6  H   UNL A   1      31.163  28.453  27.959  1.00  0.00     0.163 HD
BRANCH   4   7
ATOM      7  C   UNL A   1      31.678  27.162  24.856  1.00  0.00     0.098 C 
ATOM      8  N   UNL A   1      31.950  25.618  22.919  1.00  0.00    -0.337 N 
ATOM      9  C   UNL A   1      31.134  26.442  22.041  1.00  0.00     0.120 C 
ATOM     10  C   UNL A   1      31.665  25.731  24.342  1.00  0.00     0.133 C 
ATOM     11  C   UNL A   1      31.097  27.895  22.487  1.00  0.00     0.022 C 
ATOM     12  C   UNL A   1      30.764  28.037  23.973  1.00  0.00     0.017 C 
BRANCH   8  13
ATOM     13  C   UNL A   1      32.786  24.654  22.351  1.00  0.00     0.270 C 
ATOM     14  O   UNL A   1      33.316  24.857  21.260  1.00  0.00    -0.267 OA
BRANCH  13  15
ATOM     15  C   UNL A   1      32.943  23.373  23.047  1.00  0.00     0.108 A 
ATOM     16  C   UNL A   1      35.125  23.921  24.215  1.00  0.00     0.150 C 
ATOM     17  N   UNL A   1      34.032  23.053  23.846  1.00  0.00    -0.339 N 
ATOM     18  C   UNL A   1      33.964  21.721  24.194  1.00  0.00     0.059 A 
ATOM     19  C   UNL A   1      32.165  22.225  22.938  1.00  0.00     0.053 A 
ATOM     20  C   UNL A   1      32.814  21.206  23.682  1.00  0.00     0.053 A 
ATOM     21  C   UNL A   1      34.749  20.757  24.889  1.00  0.00     0.038 A 
ATOM     22  S   UNL A   1      32.594  19.535  24.070  1.00  0.00    -0.142 S 
ATOM     23  C   UNL A   1      34.117  19.531  24.869  1.00  0.00     0.068 A 
ENDBRANCH  13  15
ENDBRANCH   8  13
ENDBRANCH   4   7
ENDBRANCH   2   3
ENDBRANCH   1   2
BRANCH   1  24
ATOM     24  C   UNL A   1      31.333  32.114  26.541  1.00  0.00     0.023 C 
BRANCH  24  25
ATOM     25  C   UNL A   1      32.506  32.694  27.327  1.00  0.00     0.116 C 
BRANCH  25  26
ATOM     26  N   UNL A   1      32.380  34.127  27.637  1.00  0.00    -0.352 N 
ATOM     27  C   UNL A   1      32.995  34.837  28.667  1.00  0.00     0.251 C 
ATOM     28  H   UNL A   1      31.790  34.648  27.045  1.00  0.00     0.163 HD
ATOM     29  O   UNL A   1      32.548  35.884  29.093  1.00  0.00    -0.269 OA
BRANCH  27  30
ATOM     30  C   UNL A   1      34.260  34.294  29.191  1.00  0.00     0.039 A 
ATOM     31  C   UNL A   1      34.402  33.657  30.428  1.00  0.00     0.014 A 
ATOM     32  C   UNL A   1      35.319  34.372  28.305  1.00  0.00     0.014 A 
ATOM     33  C   UNL A   1      35.625  33.051  30.720  1.00  0.00     0.010 A 
ATOM     34  C   UNL A   1      36.353  33.507  28.453  1.00  0.00     0.010 A 
ATOM     35  C   UNL A   1      36.596  32.989  29.712  1.00  0.00    -0.014 A 
BRANCH  35  36
ATOM     36  C   UNL A   1      37.905  32.381  29.865  1.00  0.00     0.031 A 
ATOM     37  C   UNL A   1      38.002  30.969  29.431  1.00  0.00     0.074 A 
ATOM     38  C   UNL A   1      39.001  33.149  30.076  1.00  0.00     0.049 A 
ATOM     39  N   UNL A   1      38.229  29.938  30.172  1.00  0.00    -0.248 NA
ATOM     40  C   UNL A   1      37.696  30.644  28.029  1.00  0.00     0.031 C 
ATOM     41  C   UNL A   1      39.105  34.618  30.167  1.00  0.00     0.029 A 
ATOM     42  N   UNL A   1      40.301  32.771  30.109  1.00  0.00    -0.354 N 
ATOM     43  C   UNL A   1      38.290  28.851  29.307  1.00  0.00     0.074 A 
ATOM     44  C   UNL A   1      37.774  29.312  28.043  1.00  0.00     0.031 C 
ATOM     45  C   UNL A   1      40.390  34.997  29.988  1.00  0.00     0.029 A 
ATOM     46  C   UNL A   1      41.216  33.805  29.964  1.00  0.00     0.049 A 
ATOM     47  H   UNL A   1      40.576  31.833  30.226  1.00  0.00     0.167 HD
ATOM     48  C   UNL A   1      38.988  27.728  29.630  1.00  0.00     0.031 A 
ATOM     49  C   UNL A   1      42.557  33.678  29.808  1.00  0.00     0.031 A 
ATOM     50  C   UNL A   1      39.372  27.721  31.019  1.00  0.00     0.049 A 
ATOM     51  C   UNL A   1      42.916  32.325  30.299  1.00  0.00     0.074 A 
ATOM     52  C   UNL A   1      38.683  27.748  32.216  1.00  0.00     0.029 A 
ATOM     53  N   UNL A   1      40.652  28.129  31.317  1.00  0.00    -0.354 N 
ATOM     54  N   UNL A   1      42.776  31.964  31.544  1.00  0.00    -0.248 NA
ATOM     55  C   UNL A   1      42.936  31.237  29.332  1.00  0.00     0.031 C 
ATOM     56  C   UNL A   1      39.424  28.650  33.039  1.00  0.00     0.029 A 
ATOM     57  C   UNL A   1      40.560  29.051  32.330  1.00  0.00     0.049 A 
ATOM     58  H   UNL A   1      41.481  27.818  30.884  1.00  0.00     0.167 HD
ATOM     59  C   UNL A   1      42.252  30.678  31.485  1.00  0.00     0.074 A 
ATOM     60  C   UNL A   1      42.456  30.252  30.098  1.00  0.00     0.031 C 
ATOM     61  C   UNL A   1      41.436  30.194  32.470  1.00  0.00     0.031 A 
BRANCH  48  62
ATOM     62  C   UNL A   1      39.668  26.844  28.619  1.00  0.00    -0.014 A 
ATOM     63  C   UNL A   1      40.567  27.424  27.709  1.00  0.00     0.009 A 
ATOM     64  C   UNL A   1      39.253  25.524  28.350  1.00  0.00     0.009 A 
ATOM     65  C   UNL A   1      40.976  26.743  26.556  1.00  0.00     0.001 A 
ATOM     66  C   UNL A   1      39.691  24.827  27.222  1.00  0.00     0.001 A 
ATOM     67  C   UNL A   1      40.531  25.448  26.309  1.00  0.00     0.000 A 
ENDBRANCH  48  62
BRANCH  49  68
ATOM     68  C   UNL A   1      43.454  34.500  28.965  1.00  0.00    -0.014 A 
ATOM     69  C   UNL A   1      43.476  34.362  27.570  1.00  0.00     0.009 A 
ATOM     70  C   UNL A   1      44.102  35.622  29.520  1.00  0.00     0.009 A 
ATOM     71  C   UNL A   1      44.096  35.327  26.760  1.00  0.00     0.001 A 
ATOM     72  C   UNL A   1      44.717  36.585  28.712  1.00  0.00     0.001 A 
ATOM     73  C   UNL A   1      44.703  36.444  27.330  1.00  0.00     0.000 A 
ENDBRANCH  49  68
BRANCH  61  74
ATOM     74  C   UNL A   1      41.232  31.049  33.704  1.00  0.00    -0.014 A 
ATOM     75  C   UNL A   1      40.266  32.070  33.781  1.00  0.00     0.009 A 
ATOM     76  C   UNL A   1      41.914  30.702  34.878  1.00  0.00     0.009 A 
ATOM     77  C   UNL A   1      40.010  32.737  34.984  1.00  0.00     0.001 A 
ATOM     78  C   UNL A   1      41.647  31.356  36.084  1.00  0.00     0.001 A 
ATOM     79  C   UNL A   1      40.700  32.375  36.138  1.00  0.00     0.000 A 
ENDBRANCH  61  74
ENDBRANCH  35  36
ENDBRANCH  27  30
ENDBRANCH  25  26
ENDBRANCH  24  25
ENDBRANCH   1  24
TORSDOF 13
ENDMDL
MODEL 2
REMARK VINA RESULT:     -11.9      3.884      5.571
REMARK SMILES Cn1c(C(=O)N2CCC[C@@H](C(=O)NCCCCNC(=O)c3ccc(-c4c5nc(c(-c6ccccc6)c6ccc([nH]6)c(-c6ccccc6)c6nc(c(-c7ccccc7)c7ccc4[nH]7)C=C6)C=C5)cc3)C2)cc2sccc21
REMARK SMILES IDX 15 1 14 2 13 3 11 4 12 5 10 7 6 8 7 9 69 10 8 11 9 12 4 13
REMARK SMILES IDX 5 14 3 15 1 16 2 17 75 18 70 19 71 20 74 21 72 22 73 23
REMARK SMILES IDX 16 24 17 25 18 26 19 27 20 29 21 30 22 31 68 32 23 33 67 34
REMARK SMILES IDX 24 35 25 36 26 37 61 38 27 39 66 40 60 41 62 42 28 43 65 44
REMARK SMILES IDX 59 45 58 46 29 48 51 49 36 50 50 51 37 52 40 53 49 54 63 55
REMARK SMILES IDX 38 56 39 57 48 59 64 60 41 61 30 62 31 63 35 64 32 65 34 66
REMARK SMILES IDX 33 67 52 68 53 69 57 70 54 71 56 72 55 73 42 74 43 75 47 76
REMARK SMILES IDX 44 77 46 78 45 79
REMARK H PARENT 13 6 18 28 62 47 40 58
REMARK Flexibility Score: inf
ROOT
ATOM      1  C   UNL A   1      33.386  29.679  25.879  1.00  0.00     0.023 C 
ENDROOT
BRANCH   1   2
ATOM      2  C   UNL A   1      32.010  30.299  26.135  1.00  0.00     0.116 C 
BRANCH   2   3
ATOM      3  N   UNL A   1      31.142  30.284  24.970  1.00  0.00    -0.356 N 
ATOM      4  C   UNL A   1      30.748  29.342  24.077  1.00  0.00     0.224 C 
ATOM      5  O   UNL A   1      29.913  29.731  23.248  1.00  0.00    -0.275 OA
ATOM      6  H   UNL A   1      30.746  31.166  24.785  1.00  0.00     0.163 HD
BRANCH   4   7
ATOM      7  C   UNL A   1      31.268  27.902  23.990  1.00  0.00     0.098 C 
ATOM      8  N   UNL A   1      31.295  25.574  24.877  1.00  0.00    -0.337 N 
ATOM      9  C   UNL A   1      31.016  24.986  23.577  1.00  0.00     0.120 C 
ATOM     10  C   UNL A   1      30.820  26.936  25.074  1.00  0.00     0.133 C 
ATOM     11  C   UNL A   1      31.440  25.893  22.433  1.00  0.00     0.022 C 
ATOM     12  C   UNL A   1      30.920  27.322  22.603  1.00  0.00     0.017 C 
BRANCH   8  13
ATOM     13  C   UNL A   1      31.804  24.756  25.890  1.00  0.00     0.270 C 
ATOM     14  O   UNL A   1      31.228  24.680  26.974  1.00  0.00    -0.267 OA
BRANCH  13  15
ATOM     15  C   UNL A   1      33.076  24.067  25.653  1.00  0.00     0.108 A 
ATOM     16  C   UNL A   1      32.117  21.736  25.379  1.00  0.00     0.150 C 
ATOM     17  N   UNL A   1      33.192  22.696  25.471  1.00  0.00    -0.339 N 
ATOM     18  C   UNL A   1      34.527  22.351  25.461  1.00  0.00     0.059 A 
ATOM     19  C   UNL A   1      34.367  24.582  25.712  1.00  0.00     0.053 A 
ATOM     20  C   UNL A   1      35.261  23.490  25.569  1.00  0.00     0.053 A 
ATOM     21  C   UNL A   1      35.325  21.173  25.403  1.00  0.00     0.038 A 
ATOM     22  S   UNL A   1      36.965  23.197  25.545  1.00  0.00    -0.142 S 
ATOM     23  C   UNL A   1      36.663  21.506  25.462  1.00  0.00     0.068 A 
ENDBRANCH  13  15
ENDBRANCH   8  13
ENDBRANCH   4   7
ENDBRANCH   2   3
ENDBRANCH   1   2
BRANCH   1  24
ATOM     24  C   UNL A   1      34.015  28.943  27.071  1.00  0.00     0.023 C 
BRANCH  24  25
ATOM     25  C   UNL A   1      35.404  29.424  27.482  1.00  0.00     0.116 C 
BRANCH  25  26
ATOM     26  N   UNL A   1      35.516  29.820  28.895  1.00  0.00    -0.352 N 
ATOM     27  C   UNL A   1      36.482  29.426  29.820  1.00  0.00     0.251 C 
ATOM     28  H   UNL A   1      34.826  30.438  29.227  1.00  0.00     0.163 HD
ATOM     29  O   UNL A   1      36.289  29.465  31.019  1.00  0.00    -0.269 OA
BRANCH  27  30
ATOM     30  C   UNL A   1      37.789  29.006  29.285  1.00  0.00     0.039 A 
ATOM     31  C   UNL A   1      38.417  29.581  28.176  1.00  0.00     0.014 A 
ATOM     32  C   UNL A   1      38.422  28.034  30.038  1.00  0.00     0.014 A 
ATOM     33  C   UNL A   1      39.724  29.189  27.883  1.00  0.00     0.010 A 
ATOM     34  C   UNL A   1      39.771  27.923  29.951  1.00  0.00     0.010 A 
ATOM     35  C   UNL A   1      40.388  28.350  28.788  1.00  0.00    -0.014 A 
BRANCH  35  36
ATOM     36  C   UNL A   1      41.748  27.872  28.624  1.00  0.00     0.031 A 
ATOM     37  C   UNL A   1      41.886  26.603  27.874  1.00  0.00     0.074 A 
ATOM     38  C   UNL A   1      42.800  28.693  28.855  1.00  0.00     0.049 A 
ATOM     39  N   UNL A   1      42.304  25.470  28.325  1.00  0.00    -0.248 NA
ATOM     40  C   UNL A   1      41.393  26.551  26.488  1.00  0.00     0.031 C 
ATOM     41  C   UNL A   1      42.803  30.111  29.261  1.00  0.00     0.029 A 
ATOM     42  N   UNL A   1      44.115  28.461  28.628  1.00  0.00    -0.354 N 
ATOM     43  C   UNL A   1      42.314  24.604  27.238  1.00  0.00     0.074 A 
ATOM     44  C   UNL A   1      41.575  25.264  26.190  1.00  0.00     0.031 C 
ATOM     45  C   UNL A   1      44.012  30.658  29.002  1.00  0.00     0.029 A 
ATOM     46  C   UNL A   1      44.914  29.596  28.599  1.00  0.00     0.049 A 
ATOM     47  H   UNL A   1      44.477  27.556  28.492  1.00  0.00     0.167 HD
ATOM     48  C   UNL A   1      43.139  23.522  27.202  1.00  0.00     0.031 A 
ATOM     49  C   UNL A   1      46.220  29.653  28.242  1.00  0.00     0.031 A 
ATOM     50  C   UNL A   1      43.731  23.262  28.490  1.00  0.00     0.049 A 
ATOM     51  C   UNL A   1      46.755  28.274  28.362  1.00  0.00     0.074 A 
ATOM     52  C   UNL A   1      43.236  22.958  29.743  1.00  0.00     0.029 A 
ATOM     53  N   UNL A   1      45.007  23.735  28.699  1.00  0.00    -0.354 N 
ATOM     54  N   UNL A   1      46.837  27.643  29.500  1.00  0.00    -0.248 NA
ATOM     55  C   UNL A   1      46.709  27.425  27.181  1.00  0.00     0.031 C 
ATOM     56  C   UNL A   1      44.022  23.742  30.642  1.00  0.00     0.029 A 
ATOM     57  C   UNL A   1      45.001  24.405  29.897  1.00  0.00     0.049 A 
ATOM     58  H   UNL A   1      45.780  23.615  28.100  1.00  0.00     0.167 HD
ATOM     59  C   UNL A   1      46.411  26.351  29.224  1.00  0.00     0.074 A 
ATOM     60  C   UNL A   1      46.431  26.253  27.761  1.00  0.00     0.031 C 
ATOM     61  C   UNL A   1      45.797  25.582  30.173  1.00  0.00     0.031 A 
BRANCH  48  62
ATOM     62  C   UNL A   1      43.721  22.951  25.937  1.00  0.00    -0.014 A 
ATOM     63  C   UNL A   1      43.683  21.560  25.743  1.00  0.00     0.009 A 
ATOM     64  C   UNL A   1      44.543  23.693  25.066  1.00  0.00     0.009 A 
ATOM     65  C   UNL A   1      44.478  20.940  24.772  1.00  0.00     0.001 A 
ATOM     66  C   UNL A   1      45.307  23.080  24.069  1.00  0.00     0.001 A 
ATOM     67  C   UNL A   1      45.296  21.699  23.941  1.00  0.00     0.000 A 
ENDBRANCH  48  62
BRANCH  49  68
ATOM     68  C   UNL A   1      46.911  30.728  27.494  1.00  0.00    -0.014 A 
ATOM     69  C   UNL A   1      46.201  31.796  26.927  1.00  0.00     0.009 A 
ATOM     70  C   UNL A   1      48.313  30.844  27.571  1.00  0.00     0.009 A 
ATOM     71  C   UNL A   1      46.867  32.950  26.484  1.00  0.00     0.001 A 
ATOM     72  C   UNL A   1      48.977  31.995  27.131  1.00  0.00     0.001 A 
ATOM     73  C   UNL A   1      48.252  33.054  26.598  1.00  0.00     0.000 A 
ENDBRANCH  49  68
BRANCH  61  74
ATOM     74  C   UNL A   1      45.720  26.128  31.584  1.00  0.00    -0.014 A 
ATOM     75  C   UNL A   1      44.690  26.982  32.024  1.00  0.00     0.009 A 
ATOM     76  C   UNL A   1      46.613  25.632  32.543  1.00  0.00     0.009 A 
ATOM     77  C   UNL A   1      44.574  27.345  33.370  1.00  0.00     0.001 A 
ATOM     78  C   UNL A   1      46.489  25.981  33.891  1.00  0.00     0.001 A 
ATOM     79  C   UNL A   1      45.474  26.840  34.304  1.00  0.00     0.000 A 
ENDBRANCH  61  74
ENDBRANCH  35  36
ENDBRANCH  27  30
ENDBRANCH  25  26
ENDBRANCH  24  25
ENDBRANCH   1  24
TORSDOF 13
ENDMDL
MODEL 3
REMARK VINA RESULT:     -11.9      5.019     10.344
REMARK SMILES Cn1c(C(=O)N2CCC[C@@H](C(=O)NCCCCNC(=O)c3ccc(-c4c5nc(c(-c6ccccc6)c6ccc([nH]6)c(-c6ccccc6)c6nc(c(-c7ccccc7)c7ccc4[nH]7)C=C6)C=C5)cc3)C2)cc2sccc21
REMARK SMILES IDX 15 1 14 2 13 3 11 4 12 5 10 7 6 8 7 9 69 10 8 11 9 12 4 13
REMARK SMILES IDX 5 14 3 15 1 16 2 17 75 18 70 19 71 20 74 21 72 22 73 23
REMARK SMILES IDX 16 24 17 25 18 26 19 27 20 29 21 30 22 31 68 32 23 33 67 34
REMARK SMILES IDX 24 35 25 36 26 37 61 38 27 39 66 40 60 41 62 42 28 43 65 44
REMARK SMILES IDX 59 45 58 46 29 48 51 49 36 50 50 51 37 52 40 53 49 54 63 55
REMARK SMILES IDX 38 56 39 57 48 59 64 60 41 61 30 62 31 63 35 64 32 65 34 66
REMARK SMILES IDX 33 67 52 68 53 69 57 70 54 71 56 72 55 73 42 74 43 75 47 76
REMARK SMILES IDX 44 77 46 78 45 79
REMARK H PARENT 13 6 18 28 62 47 40 58
REMARK Flexibility Score: inf
ROOT
ATOM      1  C   UNL A   1      35.233  33.581  27.781  1.00  0.00     0.023 C 
ENDROOT
BRANCH   1   2
ATOM      2  C   UNL A   1      33.751  33.792  28.107  1.00  0.00     0.116 C 
BRANCH   2   3
ATOM      3  N   UNL A   1      33.352  35.189  28.111  1.00  0.00    -0.356 N 
ATOM      4  C   UNL A   1      33.130  36.123  29.070  1.00  0.00     0.224 C 
ATOM      5  O   UNL A   1      32.868  37.255  28.639  1.00  0.00    -0.275 OA
ATOM      6  H   UNL A   1      33.209  35.542  27.203  1.00  0.00     0.163 HD
BRANCH   4   7
ATOM      7  C   UNL A   1      33.135  35.885  30.585  1.00  0.00     0.098 C 
ATOM      8  N   UNL A   1      34.151  34.795  32.581  1.00  0.00    -0.337 N 
ATOM      9  C   UNL A   1      34.255  36.046  33.316  1.00  0.00     0.120 C 
ATOM     10  C   UNL A   1      34.163  34.907  31.130  1.00  0.00     0.133 C 
ATOM     11  C   UNL A   1      33.254  37.082  32.830  1.00  0.00     0.022 C 
ATOM     12  C   UNL A   1      33.276  37.240  31.308  1.00  0.00     0.017 C 
BRANCH   8  13
ATOM     13  C   UNL A   1      34.248  33.592  33.286  1.00  0.00     0.270 C 
ATOM     14  O   UNL A   1      33.237  32.939  33.541  1.00  0.00    -0.267 OA
BRANCH  13  15
ATOM     15  C   UNL A   1      35.565  33.180  33.781  1.00  0.00     0.108 A 
ATOM     16  C   UNL A   1      35.955  31.316  32.108  1.00  0.00     0.150 C 
ATOM     17  N   UNL A   1      36.293  32.121  33.259  1.00  0.00    -0.339 N 
ATOM     18  C   UNL A   1      37.388  31.883  34.062  1.00  0.00     0.059 A 
ATOM     19  C   UNL A   1      36.251  33.634  34.903  1.00  0.00     0.053 A 
ATOM     20  C   UNL A   1      37.403  32.818  35.049  1.00  0.00     0.053 A 
ATOM     21  C   UNL A   1      38.456  30.946  34.162  1.00  0.00     0.038 A 
ATOM     22  S   UNL A   1      38.750  32.646  36.119  1.00  0.00    -0.142 S 
ATOM     23  C   UNL A   1      39.247  31.246  35.252  1.00  0.00     0.068 A 
ENDBRANCH  13  15
ENDBRANCH   8  13
ENDBRANCH   4   7
ENDBRANCH   2   3
ENDBRANCH   1   2
BRANCH   1  24
ATOM     24  C   UNL A   1      36.046  32.830  28.844  1.00  0.00     0.023 C 
BRANCH  24  25
ATOM     25  C   UNL A   1      37.559  33.011  28.765  1.00  0.00     0.116 C 
BRANCH  25  26
ATOM     26  N   UNL A   1      38.143  33.743  29.900  1.00  0.00    -0.352 N 
ATOM     27  C   UNL A   1      39.044  33.268  30.853  1.00  0.00     0.251 C 
ATOM     28  H   UNL A   1      37.864  34.682  29.999  1.00  0.00     0.163 HD
ATOM     29  O   UNL A   1      39.163  33.781  31.948  1.00  0.00    -0.269 OA
BRANCH  27  30
ATOM     30  C   UNL A   1      39.903  32.139  30.456  1.00  0.00     0.039 A 
ATOM     31  C   UNL A   1      41.285  32.218  30.263  1.00  0.00     0.014 A 
ATOM     32  C   UNL A   1      39.241  30.926  30.378  1.00  0.00     0.014 A 
ATOM     33  C   UNL A   1      41.989  31.033  30.047  1.00  0.00     0.010 A 
ATOM     34  C   UNL A   1      39.962  29.785  30.509  1.00  0.00     0.010 A 
ATOM     35  C   UNL A   1      41.303  29.817  30.172  1.00  0.00    -0.014 A 
BRANCH  35  36
ATOM     36  C   UNL A   1      41.903  28.509  29.989  1.00  0.00     0.031 A 
ATOM     37  C   UNL A   1      42.574  27.947  31.183  1.00  0.00     0.074 A 
ATOM     38  C   UNL A   1      41.582  27.748  28.916  1.00  0.00     0.049 A 
ATOM     39  N   UNL A   1      43.833  27.711  31.333  1.00  0.00    -0.248 NA
ATOM     40  C   UNL A   1      41.774  27.729  32.399  1.00  0.00     0.031 C 
ATOM     41  C   UNL A   1      40.636  28.034  27.820  1.00  0.00     0.029 A 
ATOM     42  N   UNL A   1      41.936  26.467  28.655  1.00  0.00    -0.354 N 
ATOM     43  C   UNL A   1      43.967  27.132  32.590  1.00  0.00     0.074 A 
ATOM     44  C   UNL A   1      42.710  27.339  33.265  1.00  0.00     0.031 C 
ATOM     45  C   UNL A   1      40.313  26.886  27.183  1.00  0.00     0.029 A 
ATOM     46  C   UNL A   1      41.165  25.829  27.693  1.00  0.00     0.049 A 
ATOM     47  H   UNL A   1      42.684  26.021  29.113  1.00  0.00     0.167 HD
ATOM     48  C   UNL A   1      45.014  26.313  32.884  1.00  0.00     0.031 A 
ATOM     49  C   UNL A   1      41.212  24.515  27.363  1.00  0.00     0.031 A 
ATOM     50  C   UNL A   1      46.039  26.376  31.873  1.00  0.00     0.049 A 
ATOM     51  C   UNL A   1      42.521  24.004  27.839  1.00  0.00     0.074 A 
ATOM     52  C   UNL A   1      46.845  27.378  31.369  1.00  0.00     0.029 A 
ATOM     53  N   UNL A   1      46.039  25.383  30.919  1.00  0.00    -0.354 N 
ATOM     54  N   UNL A   1      43.660  24.421  27.358  1.00  0.00    -0.248 NA
ATOM     55  C   UNL A   1      42.580  23.431  29.175  1.00  0.00     0.031 C 
ATOM     56  C   UNL A   1      46.851  27.161  29.957  1.00  0.00     0.029 A 
ATOM     57  C   UNL A   1      46.125  25.997  29.694  1.00  0.00     0.049 A 
ATOM     58  H   UNL A   1      45.987  24.414  31.085  1.00  0.00     0.167 HD
ATOM     59  C   UNL A   1      44.480  24.576  28.469  1.00  0.00     0.074 A 
ATOM     60  C   UNL A   1      43.788  23.866  29.549  1.00  0.00     0.031 C 
ATOM     61  C   UNL A   1      45.480  25.507  28.494  1.00  0.00     0.031 A 
BRANCH  48  62
ATOM     62  C   UNL A   1      44.936  25.168  33.858  1.00  0.00    -0.014 A 
ATOM     63  C   UNL A   1      44.328  23.971  33.445  1.00  0.00     0.009 A 
ATOM     64  C   UNL A   1      45.184  25.314  35.237  1.00  0.00     0.009 A 
ATOM     65  C   UNL A   1      43.930  23.000  34.373  1.00  0.00     0.001 A 
ATOM     66  C   UNL A   1      44.825  24.329  36.160  1.00  0.00     0.001 A 
ATOM     67  C   UNL A   1      44.171  23.184  35.730  1.00  0.00     0.000 A 
ENDBRANCH  48  62
BRANCH  49  68
ATOM     68  C   UNL A   1      40.084  23.632  26.989  1.00  0.00    -0.014 A 
ATOM     69  C   UNL A   1      38.831  24.156  26.639  1.00  0.00     0.009 A 
ATOM     70  C   UNL A   1      40.322  22.271  26.713  1.00  0.00     0.009 A 
ATOM     71  C   UNL A   1      37.866  23.354  26.007  1.00  0.00     0.001 A 
ATOM     72  C   UNL A   1      39.362  21.473  26.082  1.00  0.00     0.001 A 
ATOM     73  C   UNL A   1      38.136  22.019  25.717  1.00  0.00     0.000 A 
ENDBRANCH  49  68
BRANCH  61  74
ATOM     74  C   UNL A   1      45.765  26.274  27.219  1.00  0.00    -0.014 A 
ATOM     75  C   UNL A   1      46.741  25.877  26.284  1.00  0.00     0.009 A 
ATOM     76  C   UNL A   1      44.912  27.328  26.868  1.00  0.00     0.009 A 
ATOM     77  C   UNL A   1      46.872  26.528  25.053  1.00  0.00     0.001 A 
ATOM     78  C   UNL A   1      45.031  27.968  25.630  1.00  0.00     0.001 A 
ATOM     79  C   UNL A   1      46.013  27.573  24.725  1.00  0.00     0.000 A 
ENDBRANCH  61  74
ENDBRANCH  35  36
ENDBRANCH  27  30
ENDBRANCH  25  26
ENDBRANCH  24  25
ENDBRANCH   1  24
TORSDOF 13
ENDMDL
