MODEL 1
REMARK VINA RESULT:     -11.6      0.000      0.000
REMARK SMILES O=C(NCCCCNC(=O)c1c(C(=O)N2CCc3ccccc32)cccc1[N+](=O)[O-])c1ccc(-c2c3nc(c(-c4ccccc4)c4ccc([nH]4)c(-c4ccccc4)c4nc(c(-c5ccccc5)c5ccc2[nH]5)C=C4)C=C3)cc1
REMARK SMILES IDX 5 1 4 2 3 3 1 4 2 5 31 7 32 8 78 9 33 10 77 11 34 12 35 13
REMARK SMILES IDX 36 14 71 15 37 16 76 17 70 18 72 19 38 20 75 21 69 22 68 23
REMARK SMILES IDX 39 25 61 26 46 27 60 28 47 29 50 30 59 31 73 32 48 33 49 34
REMARK SMILES IDX 58 36 74 37 51 38 40 39 41 40 45 41 42 42 44 43 43 44 62 45
REMARK SMILES IDX 63 46 67 47 64 48 66 49 65 50 52 51 53 52 57 53 54 54 56 55
REMARK SMILES IDX 55 56 6 57 7 58 8 59 9 60 10 62 11 63 12 64 27 65 24 66
REMARK SMILES IDX 26 67 25 68 13 69 14 70 15 71 16 72 23 73 17 74 18 75 22 76
REMARK SMILES IDX 19 77 21 78 20 79 28 80 29 81 30 82
REMARK H PARENT 3 6 72 24 50 35 8 61
REMARK Flexibility Score: inf
ROOT
ATOM      1  C   UNL A   1      37.913  19.532  25.000  1.00  0.00     0.023 C 
ENDROOT
BRANCH   1   2
ATOM      2  C   UNL A   1      39.097  20.121  25.761  1.00  0.00     0.116 C 
BRANCH   2   3
ATOM      3  N   UNL A   1      40.267  19.258  25.750  1.00  0.00    -0.352 N 
ATOM      4  O   UNL A   1      42.454  18.713  25.833  1.00  0.00    -0.269 OA
ATOM      5  C   UNL A   1      41.579  19.547  26.046  1.00  0.00     0.251 C 
ATOM      6  H   UNL A   1      40.094  18.325  25.489  1.00  0.00     0.163 HD
BRANCH   5   7
ATOM      7  C   UNL A   1      41.948  20.871  26.594  1.00  0.00     0.039 A 
ATOM      8  C   UNL A   1      41.930  21.114  27.969  1.00  0.00     0.014 A 
ATOM      9  C   UNL A   1      42.341  21.884  25.713  1.00  0.00     0.014 A 
ATOM     10  C   UNL A   1      42.155  22.401  28.449  1.00  0.00     0.010 A 
ATOM     11  C   UNL A   1      42.648  23.156  26.205  1.00  0.00     0.010 A 
ATOM     12  C   UNL A   1      42.523  23.435  27.574  1.00  0.00    -0.014 A 
BRANCH  12  13
ATOM     13  C   UNL A   1      42.824  24.782  28.120  1.00  0.00     0.031 A 
ATOM     14  C   UNL A   1      44.229  25.185  28.473  1.00  0.00     0.074 A 
ATOM     15  C   UNL A   1      41.814  25.658  28.281  1.00  0.00     0.049 A 
ATOM     16  N   UNL A   1      44.663  26.331  28.937  1.00  0.00    -0.248 NA
ATOM     17  C   UNL A   1      45.282  24.176  28.290  1.00  0.00     0.031 C 
ATOM     18  C   UNL A   1      40.405  25.382  27.988  1.00  0.00     0.029 A 
ATOM     19  N   UNL A   1      41.816  26.959  28.715  1.00  0.00    -0.354 N 
ATOM     20  C   UNL A   1      46.031  26.175  29.121  1.00  0.00     0.074 A 
ATOM     21  C   UNL A   1      46.354  24.816  28.739  1.00  0.00     0.031 C 
ATOM     22  C   UNL A   1      39.685  26.492  28.211  1.00  0.00     0.029 A 
ATOM     23  C   UNL A   1      40.570  27.537  28.713  1.00  0.00     0.049 A 
ATOM     24  H   UNL A   1      42.631  27.433  28.998  1.00  0.00     0.167 HD
ATOM     25  C   UNL A   1      46.936  27.080  29.565  1.00  0.00     0.031 A 
ATOM     26  C   UNL A   1      40.175  28.767  29.087  1.00  0.00     0.031 A 
ATOM     27  C   UNL A   1      46.618  28.434  29.941  1.00  0.00     0.049 A 
ATOM     28  C   UNL A   1      41.194  29.745  29.589  1.00  0.00     0.074 A 
ATOM     29  C   UNL A   1      47.475  29.437  30.359  1.00  0.00     0.029 A 
ATOM     30  N   UNL A   1      45.340  28.971  29.950  1.00  0.00    -0.354 N 
ATOM     31  N   UNL A   1      42.490  29.591  29.715  1.00  0.00    -0.248 NA
ATOM     32  C   UNL A   1      40.697  31.064  30.000  1.00  0.00     0.031 C 
ATOM     33  C   UNL A   1      46.710  30.567  30.668  1.00  0.00     0.029 A 
ATOM     34  C   UNL A   1      45.382  30.283  30.394  1.00  0.00     0.049 A 
ATOM     35  H   UNL A   1      44.524  28.491  29.681  1.00  0.00     0.167 HD
ATOM     36  C   UNL A   1      42.965  30.797  30.211  1.00  0.00     0.074 A 
ATOM     37  C   UNL A   1      41.821  31.678  30.342  1.00  0.00     0.031 C 
ATOM     38  C   UNL A   1      44.235  31.141  30.533  1.00  0.00     0.031 A 
BRANCH  25  39
ATOM     39  C   UNL A   1      48.364  26.628  29.696  1.00  0.00    -0.014 A 
ATOM     40  C   UNL A   1      48.824  25.986  30.856  1.00  0.00     0.009 A 
ATOM     41  C   UNL A   1      49.251  26.809  28.623  1.00  0.00     0.009 A 
ATOM     42  C   UNL A   1      50.151  25.562  30.951  1.00  0.00     0.001 A 
ATOM     43  C   UNL A   1      50.572  26.363  28.711  1.00  0.00     0.001 A 
ATOM     44  C   UNL A   1      51.023  25.747  29.878  1.00  0.00     0.000 A 
ENDBRANCH  25  39
BRANCH  26  45
ATOM     45  C   UNL A   1      38.737  29.127  29.009  1.00  0.00    -0.014 A 
ATOM     46  C   UNL A   1      37.908  29.011  30.134  1.00  0.00     0.009 A 
ATOM     47  C   UNL A   1      38.196  29.622  27.811  1.00  0.00     0.009 A 
ATOM     48  C   UNL A   1      36.562  29.372  30.057  1.00  0.00     0.001 A 
ATOM     49  C   UNL A   1      36.856  30.006  27.745  1.00  0.00     0.001 A 
ATOM     50  C   UNL A   1      36.039  29.875  28.866  1.00  0.00     0.000 A 
ENDBRANCH  26  45
BRANCH  38  51
ATOM     51  C   UNL A   1      44.451  32.535  31.046  1.00  0.00    -0.014 A 
ATOM     52  C   UNL A   1      44.408  32.815  32.422  1.00  0.00     0.009 A 
ATOM     53  C   UNL A   1      44.724  33.576  30.146  1.00  0.00     0.009 A 
ATOM     54  C   UNL A   1      44.604  34.117  32.882  1.00  0.00     0.001 A 
ATOM     55  C   UNL A   1      44.944  34.873  30.612  1.00  0.00     0.001 A 
ATOM     56  C   UNL A   1      44.874  35.144  31.978  1.00  0.00     0.000 A 
ENDBRANCH  38  51
ENDBRANCH  12  13
ENDBRANCH   5   7
ENDBRANCH   2   3
ENDBRANCH   1   2
BRANCH   1  57
ATOM     57  C   UNL A   1      36.771  20.501  24.690  1.00  0.00     0.023 C 
BRANCH  57  58
ATOM     58  C   UNL A   1      36.724  21.764  25.544  1.00  0.00     0.116 C 
BRANCH  58  59
ATOM     59  N   UNL A   1      35.625  21.782  26.497  1.00  0.00    -0.352 N 
ATOM     60  C   UNL A   1      34.286  22.031  26.311  1.00  0.00     0.259 C 
ATOM     61  H   UNL A   1      35.882  21.584  27.427  1.00  0.00     0.163 HD
ATOM     62  O   UNL A   1      33.529  22.008  27.273  1.00  0.00    -0.269 OA
BRANCH  60  63
ATOM     63  C   UNL A   1      33.776  22.358  24.967  1.00  0.00     0.130 A 
ATOM     64  C   UNL A   1      33.886  23.665  24.466  1.00  0.00     0.060 A 
ATOM     65  C   UNL A   1      33.178  21.388  24.150  1.00  0.00     0.282 A 
ATOM     66  C   UNL A   1      33.494  23.943  23.145  1.00  0.00     0.015 A 
ATOM     67  C   UNL A   1      32.831  21.653  22.816  1.00  0.00     0.086 A 
ATOM     68  C   UNL A   1      33.014  22.934  22.311  1.00  0.00     0.008 A 
BRANCH  64  69
ATOM     69  C   UNL A   1      34.263  24.807  25.330  1.00  0.00     0.259 C 
ATOM     70  O   UNL A   1      35.432  24.922  25.679  1.00  0.00    -0.269 OA
BRANCH  69  71
ATOM     71  N   UNL A   1      33.245  25.670  25.671  1.00  0.00    -0.308 N 
ATOM     72  C   UNL A   1      31.938  25.166  26.126  1.00  0.00     0.131 C 
ATOM     73  C   UNL A   1      32.973  26.863  24.964  1.00  0.00     0.047 A 
ATOM     74  C   UNL A   1      31.018  26.390  26.232  1.00  0.00     0.059 C 
ATOM     75  C   UNL A   1      31.694  27.327  25.282  1.00  0.00    -0.022 A 
ATOM     76  C   UNL A   1      33.748  27.522  24.026  1.00  0.00     0.026 A 
ATOM     77  C   UNL A   1      31.194  28.498  24.732  1.00  0.00     0.006 A 
ATOM     78  C   UNL A   1      33.251  28.697  23.454  1.00  0.00     0.002 A 
ATOM     79  C   UNL A   1      31.988  29.189  23.815  1.00  0.00     0.000 A 
ENDBRANCH  69  71
ENDBRANCH  64  69
BRANCH  65  80
ATOM     80  N   UNL A   1      32.837  20.077  24.674  1.00  0.00     0.063 N 
ATOM     81  O   UNL A   1      33.636  19.159  24.442  1.00  0.00    -0.258 OA
ATOM     82  O   UNL A   1      31.773  19.961  25.291  1.00  0.00    -0.258 OA
ENDBRANCH  65  80
ENDBRANCH  60  63
ENDBRANCH  58  59
ENDBRANCH  57  58
ENDBRANCH   1  57
TORSDOF 14
ENDMDL
MODEL 2
REMARK VINA RESULT:     -11.6      4.015      9.311
REMARK SMILES O=C(NCCCCNC(=O)c1c(C(=O)N2CCc3ccccc32)cccc1[N+](=O)[O-])c1ccc(-c2c3nc(c(-c4ccccc4)c4ccc([nH]4)c(-c4ccccc4)c4nc(c(-c5ccccc5)c5ccc2[nH]5)C=C4)C=C3)cc1
REMARK SMILES IDX 5 1 4 2 3 3 1 4 2 5 31 7 32 8 78 9 33 10 77 11 34 12 35 13
REMARK SMILES IDX 36 14 71 15 37 16 76 17 70 18 72 19 38 20 75 21 69 22 68 23
REMARK SMILES IDX 39 25 61 26 46 27 60 28 47 29 50 30 59 31 73 32 48 33 49 34
REMARK SMILES IDX 58 36 74 37 51 38 40 39 41 40 45 41 42 42 44 43 43 44 62 45
REMARK SMILES IDX 63 46 67 47 64 48 66 49 65 50 52 51 53 52 57 53 54 54 56 55
REMARK SMILES IDX 55 56 6 57 7 58 8 59 9 60 10 62 11 63 12 64 27 65 24 66
REMARK SMILES IDX 26 67 25 68 13 69 14 70 15 71 16 72 23 73 17 74 18 75 22 76
REMARK SMILES IDX 19 77 21 78 20 79 28 80 29 81 30 82
REMARK H PARENT 3 6 72 24 50 35 8 61
REMARK Flexibility Score: inf
ROOT
ATOM      1  C   UNL A   1      31.318  32.063  26.890  1.00  0.00     0.023 C 
ENDROOT
BRANCH   1   2
ATOM      2  C   UNL A   1      32.599  32.878  27.043  1.00  0.00     0.116 C 
BRANCH   2   3
ATOM      3  N   UNL A   1      32.366  34.203  27.598  1.00  0.00    -0.352 N 
ATOM      4  O   UNL A   1      32.586  35.925  29.036  1.00  0.00    -0.269 OA
ATOM      5  C   UNL A   1      33.028  34.864  28.606  1.00  0.00     0.251 C 
ATOM      6  H   UNL A   1      31.622  34.701  27.190  1.00  0.00     0.163 HD
BRANCH   5   7
ATOM      7  C   UNL A   1      34.255  34.289  29.200  1.00  0.00     0.039 A 
ATOM      8  C   UNL A   1      35.509  34.520  28.630  1.00  0.00     0.014 A 
ATOM      9  C   UNL A   1      34.150  33.520  30.364  1.00  0.00     0.014 A 
ATOM     10  C   UNL A   1      36.630  33.863  29.129  1.00  0.00     0.010 A 
ATOM     11  C   UNL A   1      35.291  32.928  30.914  1.00  0.00     0.010 A 
ATOM     12  C   UNL A   1      36.535  33.065  30.281  1.00  0.00    -0.014 A 
BRANCH  12  13
ATOM     13  C   UNL A   1      37.759  32.431  30.833  1.00  0.00     0.031 A 
ATOM     14  C   UNL A   1      38.415  32.956  32.080  1.00  0.00     0.074 A 
ATOM     15  C   UNL A   1      38.271  31.355  30.207  1.00  0.00     0.049 A 
ATOM     16  N   UNL A   1      39.473  32.502  32.705  1.00  0.00    -0.248 NA
ATOM     17  C   UNL A   1      37.815  34.145  32.704  1.00  0.00     0.031 C 
ATOM     18  C   UNL A   1      37.733  30.758  28.981  1.00  0.00     0.029 A 
ATOM     19  N   UNL A   1      39.345  30.562  30.521  1.00  0.00    -0.354 N 
ATOM     20  C   UNL A   1      39.679  33.358  33.780  1.00  0.00     0.074 A 
ATOM     21  C   UNL A   1      38.648  34.372  33.711  1.00  0.00     0.031 C 
ATOM     22  C   UNL A   1      38.455  29.671  28.670  1.00  0.00     0.029 A 
ATOM     23  C   UNL A   1      39.535  29.526  29.639  1.00  0.00     0.049 A 
ATOM     24  H   UNL A   1      39.923  30.720  31.302  1.00  0.00     0.167 HD
ATOM     25  C   UNL A   1      40.636  33.302  34.737  1.00  0.00     0.031 A 
ATOM     26  C   UNL A   1      40.481  28.571  29.602  1.00  0.00     0.031 A 
ATOM     27  C   UNL A   1      41.659  32.291  34.810  1.00  0.00     0.049 A 
ATOM     28  C   UNL A   1      41.538  28.541  30.665  1.00  0.00     0.074 A 
ATOM     29  C   UNL A   1      42.644  32.128  35.769  1.00  0.00     0.029 A 
ATOM     30  N   UNL A   1      41.832  31.276  33.882  1.00  0.00    -0.354 N 
ATOM     31  N   UNL A   1      41.689  29.335  31.697  1.00  0.00    -0.248 NA
ATOM     32  C   UNL A   1      42.553  27.485  30.557  1.00  0.00     0.031 C 
ATOM     33  C   UNL A   1      43.443  31.042  35.396  1.00  0.00     0.029 A 
ATOM     34  C   UNL A   1      42.926  30.499  34.231  1.00  0.00     0.049 A 
ATOM     35  H   UNL A   1      41.262  31.128  33.093  1.00  0.00     0.167 HD
ATOM     36  C   UNL A   1      42.811  28.868  32.368  1.00  0.00     0.074 A 
ATOM     37  C   UNL A   1      43.287  27.711  31.637  1.00  0.00     0.031 C 
ATOM     38  C   UNL A   1      43.396  29.361  33.487  1.00  0.00     0.031 A 
BRANCH  25  39
ATOM     39  C   UNL A   1      40.641  34.388  35.777  1.00  0.00    -0.014 A 
ATOM     40  C   UNL A   1      41.378  35.569  35.598  1.00  0.00     0.009 A 
ATOM     41  C   UNL A   1      39.860  34.244  36.935  1.00  0.00     0.009 A 
ATOM     42  C   UNL A   1      41.357  36.570  36.572  1.00  0.00     0.001 A 
ATOM     43  C   UNL A   1      39.822  35.257  37.896  1.00  0.00     0.001 A 
ATOM     44  C   UNL A   1      40.577  36.415  37.718  1.00  0.00     0.000 A 
ENDBRANCH  25  39
BRANCH  26  45
ATOM     45  C   UNL A   1      40.469  27.574  28.502  1.00  0.00    -0.014 A 
ATOM     46  C   UNL A   1      39.769  26.366  28.638  1.00  0.00     0.009 A 
ATOM     47  C   UNL A   1      41.135  27.845  27.295  1.00  0.00     0.009 A 
ATOM     48  C   UNL A   1      39.746  25.444  27.590  1.00  0.00     0.001 A 
ATOM     49  C   UNL A   1      41.087  26.932  26.240  1.00  0.00     0.001 A 
ATOM     50  C   UNL A   1      40.399  25.731  26.391  1.00  0.00     0.000 A 
ENDBRANCH  26  45
BRANCH  38  51
ATOM     51  C   UNL A   1      44.609  28.636  33.992  1.00  0.00    -0.014 A 
ATOM     52  C   UNL A   1      44.489  27.558  34.884  1.00  0.00     0.009 A 
ATOM     53  C   UNL A   1      45.885  29.019  33.553  1.00  0.00     0.009 A 
ATOM     54  C   UNL A   1      45.626  26.899  35.351  1.00  0.00     0.001 A 
ATOM     55  C   UNL A   1      47.020  28.341  34.003  1.00  0.00     0.001 A 
ATOM     56  C   UNL A   1      46.890  27.289  34.908  1.00  0.00     0.000 A 
ENDBRANCH  38  51
ENDBRANCH  12  13
ENDBRANCH   5   7
ENDBRANCH   2   3
ENDBRANCH   1   2
BRANCH   1  57
ATOM     57  C   UNL A   1      31.387  30.893  25.906  1.00  0.00     0.023 C 
BRANCH  57  58
ATOM     58  C   UNL A   1      32.658  30.052  25.965  1.00  0.00     0.116 C 
BRANCH  58  59
ATOM     59  N   UNL A   1      33.165  29.672  24.655  1.00  0.00    -0.352 N 
ATOM     60  C   UNL A   1      32.851  28.600  23.853  1.00  0.00     0.259 C 
ATOM     61  H   UNL A   1      33.844  30.280  24.283  1.00  0.00     0.163 HD
ATOM     62  O   UNL A   1      33.421  28.465  22.778  1.00  0.00    -0.269 OA
BRANCH  60  63
ATOM     63  C   UNL A   1      31.861  27.606  24.305  1.00  0.00     0.130 A 
ATOM     64  C   UNL A   1      32.253  26.539  25.128  1.00  0.00     0.060 A 
ATOM     65  C   UNL A   1      30.510  27.693  23.939  1.00  0.00     0.282 A 
ATOM     66  C   UNL A   1      31.286  25.658  25.640  1.00  0.00     0.015 A 
ATOM     67  C   UNL A   1      29.537  26.843  24.487  1.00  0.00     0.086 A 
ATOM     68  C   UNL A   1      29.931  25.836  25.359  1.00  0.00     0.008 A 
BRANCH  64  69
ATOM     69  C   UNL A   1      33.679  26.212  25.363  1.00  0.00     0.259 C 
ATOM     70  O   UNL A   1      34.331  26.924  26.117  1.00  0.00    -0.269 OA
BRANCH  69  71
ATOM     71  N   UNL A   1      34.162  25.103  24.703  1.00  0.00    -0.308 N 
ATOM     72  C   UNL A   1      33.844  24.859  23.286  1.00  0.00     0.131 C 
ATOM     73  C   UNL A   1      34.254  23.826  25.303  1.00  0.00     0.047 A 
ATOM     74  C   UNL A   1      34.388  23.462  22.957  1.00  0.00     0.059 C 
ATOM     75  C   UNL A   1      34.410  22.846  24.320  1.00  0.00    -0.022 A 
ATOM     76  C   UNL A   1      34.148  23.475  26.637  1.00  0.00     0.026 A 
ATOM     77  C   UNL A   1      34.544  21.506  24.652  1.00  0.00     0.006 A 
ATOM     78  C   UNL A   1      34.269  22.126  26.985  1.00  0.00     0.002 A 
ATOM     79  C   UNL A   1      34.479  21.150  26.001  1.00  0.00     0.000 A 
ENDBRANCH  69  71
ENDBRANCH  64  69
BRANCH  65  80
ATOM     80  N   UNL A   1      30.070  28.635  22.925  1.00  0.00     0.063 N 
ATOM     81  O   UNL A   1      29.595  29.706  23.329  1.00  0.00    -0.258 OA
ATOM     82  O   UNL A   1      30.176  28.301  21.741  1.00  0.00    -0.258 OA
ENDBRANCH  65  80
ENDBRANCH  60  63
ENDBRANCH  58  59
ENDBRANCH  57  58
ENDBRANCH   1  57
TORSDOF 14
ENDMDL
MODEL 3
REMARK VINA RESULT:     -11.6      3.618      8.926
REMARK SMILES O=C(NCCCCNC(=O)c1c(C(=O)N2CCc3ccccc32)cccc1[N+](=O)[O-])c1ccc(-c2c3nc(c(-c4ccccc4)c4ccc([nH]4)c(-c4ccccc4)c4nc(c(-c5ccccc5)c5ccc2[nH]5)C=C4)C=C3)cc1
REMARK SMILES IDX 5 1 4 2 3 3 1 4 2 5 31 7 32 8 78 9 33 10 77 11 34 12 35 13
REMARK SMILES IDX 36 14 71 15 37 16 76 17 70 18 72 19 38 20 75 21 69 22 68 23
REMARK SMILES IDX 39 25 61 26 46 27 60 28 47 29 50 30 59 31 73 32 48 33 49 34
REMARK SMILES IDX 58 36 74 37 51 38 40 39 41 40 45 41 42 42 44 43 43 44 62 45
REMARK SMILES IDX 63 46 67 47 64 48 66 49 65 50 52 51 53 52 57 53 54 54 56 55
REMARK SMILES IDX 55 56 6 57 7 58 8 59 9 60 10 62 11 63 12 64 27 65 24 66
REMARK SMILES IDX 26 67 25 68 13 69 14 70 15 71 16 72 23 73 17 74 18 75 22 76
REMARK SMILES IDX 19 77 21 78 20 79 28 80 29 81 30 82
REMARK H PARENT 3 6 72 24 50 35 8 61
REMARK Flexibility Score: inf
ROOT
ATOM      1  C   UNL A   1      31.299  31.934  26.758  1.00  0.00     0.023 C 
ENDROOT
BRANCH   1   2
ATOM      2  C   UNL A   1      32.613  32.553  27.224  1.00  0.00     0.116 C 
BRANCH   2   3
ATOM      3  N   UNL A   1      32.460  33.917  27.705  1.00  0.00    -0.352 N 
ATOM      4  O   UNL A   1      32.842  35.724  28.998  1.00  0.00    -0.269 OA
ATOM      5  C   UNL A   1      33.221  34.625  28.606  1.00  0.00     0.251 C 
ATOM      6  H   UNL A   1      31.695  34.409  27.328  1.00  0.00     0.163 HD
BRANCH   5   7
ATOM      7  C   UNL A   1      34.481  34.054  29.132  1.00  0.00     0.039 A 
ATOM      8  C   UNL A   1      35.707  34.330  28.524  1.00  0.00     0.014 A 
ATOM      9  C   UNL A   1      34.435  33.245  30.272  1.00  0.00     0.014 A 
ATOM     10  C   UNL A   1      36.859  33.680  28.957  1.00  0.00     0.010 A 
ATOM     11  C   UNL A   1      35.608  32.657  30.758  1.00  0.00     0.010 A 
ATOM     12  C   UNL A   1      36.823  32.841  30.083  1.00  0.00    -0.014 A 
BRANCH  12  13
ATOM     13  C   UNL A   1      38.080  32.214  30.566  1.00  0.00     0.031 A 
ATOM     14  C   UNL A   1      38.593  30.933  29.969  1.00  0.00     0.074 A 
ATOM     15  C   UNL A   1      38.773  32.823  31.546  1.00  0.00     0.049 A 
ATOM     16  N   UNL A   1      39.685  30.270  30.261  1.00  0.00    -0.248 NA
ATOM     17  C   UNL A   1      37.778  30.311  28.915  1.00  0.00     0.031 C 
ATOM     18  C   UNL A   1      38.373  34.064  32.217  1.00  0.00     0.029 A 
ATOM     19  N   UNL A   1      39.966  32.494  32.139  1.00  0.00    -0.354 N 
ATOM     20  C   UNL A   1      39.678  29.146  29.446  1.00  0.00     0.074 A 
ATOM     21  C   UNL A   1      38.463  29.204  28.661  1.00  0.00     0.031 C 
ATOM     22  C   UNL A   1      39.322  34.411  33.099  1.00  0.00     0.029 A 
ATOM     23  C   UNL A   1      40.367  33.394  33.095  1.00  0.00     0.049 A 
ATOM     24  H   UNL A   1      40.483  31.691  31.901  1.00  0.00     0.167 HD
ATOM     25  C   UNL A   1      40.600  28.157  29.357  1.00  0.00     0.031 A 
ATOM     26  C   UNL A   1      41.449  33.398  33.894  1.00  0.00     0.031 A 
ATOM     27  C   UNL A   1      41.811  28.100  30.134  1.00  0.00     0.049 A 
ATOM     28  C   UNL A   1      42.446  32.284  33.787  1.00  0.00     0.074 A 
ATOM     29  C   UNL A   1      42.827  27.161  30.080  1.00  0.00     0.029 A 
ATOM     30  N   UNL A   1      42.167  29.017  31.110  1.00  0.00    -0.354 N 
ATOM     31  N   UNL A   1      42.443  31.252  32.979  1.00  0.00    -0.248 NA
ATOM     32  C   UNL A   1      43.595  32.336  34.701  1.00  0.00     0.031 C 
ATOM     33  C   UNL A   1      43.775  27.483  31.057  1.00  0.00     0.029 A 
ATOM     34  C   UNL A   1      43.373  28.651  31.686  1.00  0.00     0.049 A 
ATOM     35  H   UNL A   1      41.641  29.811  31.357  1.00  0.00     0.167 HD
ATOM     36  C   UNL A   1      43.593  30.536  33.280  1.00  0.00     0.074 A 
ATOM     37  C   UNL A   1      44.279  31.263  34.328  1.00  0.00     0.031 C 
ATOM     38  C   UNL A   1      44.036  29.376  32.738  1.00  0.00     0.031 A 
BRANCH  25  39
ATOM     39  C   UNL A   1      40.321  27.032  28.399  1.00  0.00    -0.014 A 
ATOM     40  C   UNL A   1      39.539  25.928  28.775  1.00  0.00     0.009 A 
ATOM     41  C   UNL A   1      40.814  27.099  27.086  1.00  0.00     0.009 A 
ATOM     42  C   UNL A   1      39.282  24.901  27.864  1.00  0.00     0.001 A 
ATOM     43  C   UNL A   1      40.535  26.082  26.170  1.00  0.00     0.001 A 
ATOM     44  C   UNL A   1      39.776  24.980  26.562  1.00  0.00     0.000 A 
ENDBRANCH  25  39
BRANCH  26  45
ATOM     45  C   UNL A   1      41.627  34.497  34.877  1.00  0.00    -0.014 A 
ATOM     46  C   UNL A   1      41.124  34.379  36.181  1.00  0.00     0.009 A 
ATOM     47  C   UNL A   1      42.333  35.657  34.520  1.00  0.00     0.009 A 
ATOM     48  C   UNL A   1      41.314  35.409  37.104  1.00  0.00     0.001 A 
ATOM     49  C   UNL A   1      42.544  36.673  35.454  1.00  0.00     0.001 A 
ATOM     50  C   UNL A   1      42.029  36.551  36.742  1.00  0.00     0.000 A 
ENDBRANCH  26  45
BRANCH  38  51
ATOM     51  C   UNL A   1      45.332  28.833  33.265  1.00  0.00    -0.014 A 
ATOM     52  C   UNL A   1      46.557  29.187  32.678  1.00  0.00     0.009 A 
ATOM     53  C   UNL A   1      45.330  27.976  34.376  1.00  0.00     0.009 A 
ATOM     54  C   UNL A   1      47.753  28.669  33.174  1.00  0.00     0.001 A 
ATOM     55  C   UNL A   1      46.531  27.478  34.885  1.00  0.00     0.001 A 
ATOM     56  C   UNL A   1      47.739  27.817  34.280  1.00  0.00     0.000 A 
ENDBRANCH  38  51
ENDBRANCH  12  13
ENDBRANCH   5   7
ENDBRANCH   2   3
ENDBRANCH   1   2
BRANCH   1  57
ATOM     57  C   UNL A   1      31.423  30.694  25.871  1.00  0.00     0.023 C 
BRANCH  57  58
ATOM     58  C   UNL A   1      32.778  29.991  25.901  1.00  0.00     0.116 C 
BRANCH  58  59
ATOM     59  N   UNL A   1      33.251  29.582  24.587  1.00  0.00    -0.352 N 
ATOM     60  C   UNL A   1      32.908  28.500  23.813  1.00  0.00     0.259 C 
ATOM     61  H   UNL A   1      33.927  30.177  24.189  1.00  0.00     0.163 HD
ATOM     62  O   UNL A   1      33.451  28.340  22.727  1.00  0.00    -0.269 OA
BRANCH  60  63
ATOM     63  C   UNL A   1      31.918  27.524  24.304  1.00  0.00     0.130 A 
ATOM     64  C   UNL A   1      32.313  26.489  25.167  1.00  0.00     0.060 A 
ATOM     65  C   UNL A   1      30.566  27.598  23.940  1.00  0.00     0.282 A 
ATOM     66  C   UNL A   1      31.347  25.629  25.714  1.00  0.00     0.015 A 
ATOM     67  C   UNL A   1      29.595  26.770  24.522  1.00  0.00     0.086 A 
ATOM     68  C   UNL A   1      29.991  25.797  25.431  1.00  0.00     0.008 A 
BRANCH  64  69
ATOM     69  C   UNL A   1      33.739  26.171  25.409  1.00  0.00     0.259 C 
ATOM     70  O   UNL A   1      34.384  26.888  26.165  1.00  0.00    -0.269 OA
BRANCH  69  71
ATOM     71  N   UNL A   1      34.232  25.063  24.755  1.00  0.00    -0.308 N 
ATOM     72  C   UNL A   1      33.939  24.824  23.332  1.00  0.00     0.131 C 
ATOM     73  C   UNL A   1      34.311  23.784  25.352  1.00  0.00     0.047 A 
ATOM     74  C   UNL A   1      34.486  23.428  23.008  1.00  0.00     0.059 C 
ATOM     75  C   UNL A   1      34.483  22.807  24.369  1.00  0.00    -0.022 A 
ATOM     76  C   UNL A   1      34.181  23.429  26.683  1.00  0.00     0.026 A 
ATOM     77  C   UNL A   1      34.609  21.465  24.699  1.00  0.00     0.006 A 
ATOM     78  C   UNL A   1      34.293  22.079  27.028  1.00  0.00     0.002 A 
ATOM     79  C   UNL A   1      34.519  21.105  26.045  1.00  0.00     0.000 A 
ENDBRANCH  69  71
ENDBRANCH  64  69
BRANCH  65  80
ATOM     80  N   UNL A   1      30.124  28.501  22.891  1.00  0.00     0.063 N 
ATOM     81  O   UNL A   1      29.630  29.577  23.256  1.00  0.00    -0.258 OA
ATOM     82  O   UNL A   1      30.247  28.130  21.720  1.00  0.00    -0.258 OA
ENDBRANCH  65  80
ENDBRANCH  60  63
ENDBRANCH  58  59
ENDBRANCH  57  58
ENDBRANCH   1  57
TORSDOF 14
ENDMDL
