MODEL 1
REMARK VINA RESULT:     -11.1      0.000      0.000
REMARK SMILES O=C(NCCCCNC(=O)[C@@]1([NH2+]C2CC2)CCC[C@@H](Sc2ncn[nH]2)C1)c1ccc(-c2c3nc(c(-c4ccccc4)c4ccc([nH]4)c(-c4ccccc4)c4nc(c(-c5ccccc5)c5ccc2[nH]5)C=C4)C=C3)cc1
REMARK SMILES IDX 5 1 4 2 3 3 1 4 2 5 27 7 28 8 74 9 29 10 73 11 30 12 31 13
REMARK SMILES IDX 32 14 67 15 33 16 72 17 66 18 68 19 34 20 71 21 65 22 64 23
REMARK SMILES IDX 35 25 57 26 42 27 56 28 43 29 46 30 55 31 69 32 44 33 45 34
REMARK SMILES IDX 54 36 70 37 47 38 36 39 37 40 41 41 38 42 40 43 39 44 58 45
REMARK SMILES IDX 59 46 63 47 60 48 62 49 61 50 48 51 49 52 53 53 50 54 52 55
REMARK SMILES IDX 51 56 6 57 7 58 8 59 9 60 10 62 11 63 16 64 26 65 17 66
REMARK SMILES IDX 19 67 18 68 12 69 13 72 14 73 15 74 20 75 21 76 22 77 25 78
REMARK SMILES IDX 23 79 24 80
REMARK H PARENT 3 6 68 24 46 35 8 61 12 70 12 71 25 81
REMARK Flexibility Score: inf
ROOT
ATOM      1  C   UNL A   1      38.443  19.853  24.898  1.00  0.00     0.023 C 
ENDROOT
BRANCH   1   2
ATOM      2  C   UNL A   1      39.400  19.906  26.087  1.00  0.00     0.116 C 
BRANCH   2   3
ATOM      3  N   UNL A   1      40.625  19.146  25.887  1.00  0.00    -0.352 N 
ATOM      4  O   UNL A   1      42.831  18.731  25.696  1.00  0.00    -0.269 OA
ATOM      5  C   UNL A   1      41.947  19.514  26.021  1.00  0.00     0.251 C 
ATOM      6  H   UNL A   1      40.486  18.212  25.610  1.00  0.00     0.163 HD
BRANCH   5   7
ATOM      7  C   UNL A   1      42.312  20.862  26.519  1.00  0.00     0.039 A 
ATOM      8  C   UNL A   1      42.328  21.153  27.882  1.00  0.00     0.014 A 
ATOM      9  C   UNL A   1      42.685  21.847  25.598  1.00  0.00     0.014 A 
ATOM     10  C   UNL A   1      42.536  22.460  28.310  1.00  0.00     0.010 A 
ATOM     11  C   UNL A   1      42.988  23.141  26.037  1.00  0.00     0.010 A 
ATOM     12  C   UNL A   1      42.878  23.470  27.396  1.00  0.00    -0.014 A 
BRANCH  12  13
ATOM     13  C   UNL A   1      43.174  24.837  27.900  1.00  0.00     0.031 A 
ATOM     14  C   UNL A   1      42.074  25.828  28.175  1.00  0.00     0.074 A 
ATOM     15  C   UNL A   1      44.455  25.170  28.150  1.00  0.00     0.049 A 
ATOM     16  N   UNL A   1      42.167  27.044  28.655  1.00  0.00    -0.248 NA
ATOM     17  C   UNL A   1      40.697  25.411  27.868  1.00  0.00     0.031 C 
ATOM     18  C   UNL A   1      45.614  24.303  27.918  1.00  0.00     0.029 A 
ATOM     19  N   UNL A   1      45.000  26.315  28.677  1.00  0.00    -0.354 N 
ATOM     20  C   UNL A   1      40.870  27.542  28.690  1.00  0.00     0.074 A 
ATOM     21  C   UNL A   1      40.007  26.505  28.166  1.00  0.00     0.031 C 
ATOM     22  C   UNL A   1      46.722  24.923  28.347  1.00  0.00     0.029 A 
ATOM     23  C   UNL A   1      46.365  26.253  28.824  1.00  0.00     0.049 A 
ATOM     24  H   UNL A   1      44.465  27.102  28.925  1.00  0.00     0.167 HD
ATOM     25  C   UNL A   1      40.438  28.752  29.121  1.00  0.00     0.031 A 
ATOM     26  C   UNL A   1      47.241  27.169  29.277  1.00  0.00     0.031 A 
ATOM     27  C   UNL A   1      41.294  29.781  29.655  1.00  0.00     0.049 A 
ATOM     28  C   UNL A   1      46.732  28.507  29.726  1.00  0.00     0.074 A 
ATOM     29  C   UNL A   1      40.938  31.021  30.160  1.00  0.00     0.029 A 
ATOM     30  N   UNL A   1      42.673  29.693  29.750  1.00  0.00    -0.354 N 
ATOM     31  N   UNL A   1      45.498  28.941  29.790  1.00  0.00    -0.248 NA
ATOM     32  C   UNL A   1      47.742  29.483  30.160  1.00  0.00     0.031 C 
ATOM     33  C   UNL A   1      42.106  31.703  30.512  1.00  0.00     0.029 A 
ATOM     34  C   UNL A   1      43.186  30.868  30.275  1.00  0.00     0.049 A 
ATOM     35  H   UNL A   1      43.209  28.912  29.484  1.00  0.00     0.167 HD
ATOM     36  C   UNL A   1      45.580  30.237  30.280  1.00  0.00     0.074 A 
ATOM     37  C   UNL A   1      46.982  30.507  30.523  1.00  0.00     0.031 C 
ATOM     38  C   UNL A   1      44.583  31.126  30.502  1.00  0.00     0.031 A 
BRANCH  25  39
ATOM     39  C   UNL A   1      38.969  29.055  29.019  1.00  0.00    -0.014 A 
ATOM     40  C   UNL A   1      38.121  28.941  30.131  1.00  0.00     0.009 A 
ATOM     41  C   UNL A   1      38.445  29.548  27.813  1.00  0.00     0.009 A 
ATOM     42  C   UNL A   1      36.774  29.298  30.031  1.00  0.00     0.001 A 
ATOM     43  C   UNL A   1      37.104  29.924  27.722  1.00  0.00     0.001 A 
ATOM     44  C   UNL A   1      36.269  29.796  28.831  1.00  0.00     0.000 A 
ENDBRANCH  25  39
BRANCH  26  45
ATOM     45  C   UNL A   1      48.693  26.860  29.296  1.00  0.00    -0.014 A 
ATOM     46  C   UNL A   1      49.481  27.042  28.150  1.00  0.00     0.009 A 
ATOM     47  C   UNL A   1      49.298  26.374  30.466  1.00  0.00     0.009 A 
ATOM     48  C   UNL A   1      50.841  26.722  28.169  1.00  0.00     0.001 A 
ATOM     49  C   UNL A   1      50.663  26.085  30.492  1.00  0.00     0.001 A 
ATOM     50  C   UNL A   1      51.430  26.248  29.341  1.00  0.00     0.000 A 
ENDBRANCH  26  45
BRANCH  38  51
ATOM     51  C   UNL A   1      44.979  32.467  31.048  1.00  0.00    -0.014 A 
ATOM     52  C   UNL A   1      45.272  33.538  30.191  1.00  0.00     0.009 A 
ATOM     53  C   UNL A   1      45.042  32.663  32.436  1.00  0.00     0.009 A 
ATOM     54  C   UNL A   1      45.657  34.775  30.715  1.00  0.00     0.001 A 
ATOM     55  C   UNL A   1      45.402  33.907  32.957  1.00  0.00     0.001 A 
ATOM     56  C   UNL A   1      45.718  34.958  32.096  1.00  0.00     0.000 A 
ENDBRANCH  38  51
ENDBRANCH  12  13
ENDBRANCH   5   7
ENDBRANCH   2   3
ENDBRANCH   1   2
BRANCH   1  57
ATOM     57  C   UNL A   1      37.473  21.030  24.744  1.00  0.00     0.023 C 
BRANCH  57  58
ATOM     58  C   UNL A   1      35.988  20.704  24.889  1.00  0.00     0.116 C 
BRANCH  58  59
ATOM     59  N   UNL A   1      35.357  21.238  26.078  1.00  0.00    -0.351 N 
ATOM     60  C   UNL A   1      34.023  21.296  26.391  1.00  0.00     0.281 C 
ATOM     61  H   UNL A   1      35.969  21.610  26.754  1.00  0.00     0.163 HD
ATOM     62  O   UNL A   1      33.761  21.529  27.579  1.00  0.00    -0.268 OA
BRANCH  60  63
ATOM     63  C   UNL A   1      32.882  21.207  25.317  1.00  0.00     0.176 C 
ATOM     64  C   UNL A   1      33.118  22.234  24.178  1.00  0.00     0.079 C 
ATOM     65  C   UNL A   1      33.035  19.797  24.662  1.00  0.00     0.094 C 
ATOM     66  C   UNL A   1      32.093  22.106  23.051  1.00  0.00     0.008 C 
ATOM     67  C   UNL A   1      32.173  19.579  23.404  1.00  0.00     0.061 C 
ATOM     68  C   UNL A   1      32.189  20.738  22.395  1.00  0.00     0.015 C 
BRANCH  63  69
ATOM     69  N   UNL A   1      31.524  21.346  25.898  1.00  0.00    -0.331 N 
ATOM     70  H   UNL A   1      31.601  21.048  26.871  1.00  0.00     0.347 HD
ATOM     71  H   UNL A   1      30.961  20.801  25.246  1.00  0.00     0.347 HD
BRANCH  69  72
ATOM     72  C   UNL A   1      30.802  22.623  25.921  1.00  0.00     0.183 C 
ATOM     73  C   UNL A   1      29.893  23.100  27.016  1.00  0.00     0.071 C 
ATOM     74  C   UNL A   1      31.222  23.765  26.798  1.00  0.00     0.071 C 
ENDBRANCH  69  72
ENDBRANCH  63  69
BRANCH  67  75
ATOM     75  S   UNL A   1      32.559  17.984  22.565  1.00  0.00    -0.083 SA
BRANCH  75  76
ATOM     76  C   UNL A   1      33.116  17.004  23.869  1.00  0.00     0.183 A 
ATOM     77  N   UNL A   1      34.333  16.595  24.118  1.00  0.00    -0.210 NA
ATOM     78  N   UNL A   1      32.251  16.467  24.772  1.00  0.00    -0.254 N 
ATOM     79  C   UNL A   1      34.160  15.790  25.210  1.00  0.00     0.247 A 
ATOM     80  N   UNL A   1      32.900  15.667  25.640  1.00  0.00    -0.162 NA
ATOM     81  H   UNL A   1      31.282  16.639  24.789  1.00  0.00     0.192 HD
ENDBRANCH  75  76
ENDBRANCH  67  75
ENDBRANCH  60  63
ENDBRANCH  58  59
ENDBRANCH  57  58
ENDBRANCH   1  57
TORSDOF 15
ENDMDL
MODEL 2
REMARK VINA RESULT:     -11.1      5.571     10.199
REMARK SMILES O=C(NCCCCNC(=O)[C@@]1([NH2+]C2CC2)CCC[C@@H](Sc2ncn[nH]2)C1)c1ccc(-c2c3nc(c(-c4ccccc4)c4ccc([nH]4)c(-c4ccccc4)c4nc(c(-c5ccccc5)c5ccc2[nH]5)C=C4)C=C3)cc1
REMARK SMILES IDX 5 1 4 2 3 3 1 4 2 5 27 7 28 8 74 9 29 10 73 11 30 12 31 13
REMARK SMILES IDX 32 14 67 15 33 16 72 17 66 18 68 19 34 20 71 21 65 22 64 23
REMARK SMILES IDX 35 25 57 26 42 27 56 28 43 29 46 30 55 31 69 32 44 33 45 34
REMARK SMILES IDX 54 36 70 37 47 38 36 39 37 40 41 41 38 42 40 43 39 44 58 45
REMARK SMILES IDX 59 46 63 47 60 48 62 49 61 50 48 51 49 52 53 53 50 54 52 55
REMARK SMILES IDX 51 56 6 57 7 58 8 59 9 60 10 62 11 63 16 64 26 65 17 66
REMARK SMILES IDX 19 67 18 68 12 69 13 72 14 73 15 74 20 75 21 76 22 77 25 78
REMARK SMILES IDX 23 79 24 80
REMARK H PARENT 3 6 68 24 46 35 8 61 12 70 12 71 25 81
REMARK Flexibility Score: inf
ROOT
ATOM      1  C   UNL A   1      31.462  32.214  26.893  1.00  0.00     0.023 C 
ENDROOT
BRANCH   1   2
ATOM      2  C   UNL A   1      32.656  33.160  26.986  1.00  0.00     0.116 C 
BRANCH   2   3
ATOM      3  N   UNL A   1      32.442  34.288  27.881  1.00  0.00    -0.352 N 
ATOM      4  O   UNL A   1      32.723  35.638  29.662  1.00  0.00    -0.269 OA
ATOM      5  C   UNL A   1      33.148  34.709  28.987  1.00  0.00     0.251 C 
ATOM      6  H   UNL A   1      31.660  34.843  27.658  1.00  0.00     0.163 HD
BRANCH   5   7
ATOM      7  C   UNL A   1      34.401  34.027  29.392  1.00  0.00     0.039 A 
ATOM      8  C   UNL A   1      34.403  33.032  30.368  1.00  0.00     0.014 A 
ATOM      9  C   UNL A   1      35.597  34.367  28.749  1.00  0.00     0.014 A 
ATOM     10  C   UNL A   1      35.609  32.511  30.826  1.00  0.00     0.010 A 
ATOM     11  C   UNL A   1      36.801  33.772  29.146  1.00  0.00     0.010 A 
ATOM     12  C   UNL A   1      36.823  32.867  30.216  1.00  0.00    -0.014 A 
BRANCH  12  13
ATOM     13  C   UNL A   1      38.084  32.229  30.678  1.00  0.00     0.031 A 
ATOM     14  C   UNL A   1      38.872  32.790  31.831  1.00  0.00     0.074 A 
ATOM     15  C   UNL A   1      38.497  31.099  30.069  1.00  0.00     0.049 A 
ATOM     16  N   UNL A   1      39.968  32.325  32.379  1.00  0.00    -0.248 NA
ATOM     17  C   UNL A   1      38.378  34.032  32.446  1.00  0.00     0.031 C 
ATOM     18  C   UNL A   1      37.826  30.458  28.935  1.00  0.00     0.029 A 
ATOM     19  N   UNL A   1      39.563  30.276  30.331  1.00  0.00    -0.354 N 
ATOM     20  C   UNL A   1      40.305  33.223  33.385  1.00  0.00     0.074 A 
ATOM     21  C   UNL A   1      39.307  34.272  33.363  1.00  0.00     0.031 C 
ATOM     22  C   UNL A   1      38.464  29.319  28.632  1.00  0.00     0.029 A 
ATOM     23  C   UNL A   1      39.622  29.178  29.505  1.00  0.00     0.049 A 
ATOM     24  H   UNL A   1      40.221  30.453  31.041  1.00  0.00     0.167 HD
ATOM     25  C   UNL A   1      41.347  33.176  34.249  1.00  0.00     0.031 A 
ATOM     26  C   UNL A   1      40.518  28.176  29.442  1.00  0.00     0.031 A 
ATOM     27  C   UNL A   1      42.333  32.126  34.282  1.00  0.00     0.049 A 
ATOM     28  C   UNL A   1      41.673  28.166  30.398  1.00  0.00     0.074 A 
ATOM     29  C   UNL A   1      43.398  31.973  35.154  1.00  0.00     0.029 A 
ATOM     30  N   UNL A   1      42.379  31.056  33.404  1.00  0.00    -0.354 N 
ATOM     31  N   UNL A   1      41.948  29.002  31.368  1.00  0.00    -0.248 NA
ATOM     32  C   UNL A   1      42.645  27.074  30.245  1.00  0.00     0.031 C 
ATOM     33  C   UNL A   1      44.119  30.837  34.771  1.00  0.00     0.029 A 
ATOM     34  C   UNL A   1      43.472  30.255  33.692  1.00  0.00     0.049 A 
ATOM     35  H   UNL A   1      41.732  30.889  32.681  1.00  0.00     0.167 HD
ATOM     36  C   UNL A   1      43.118  28.533  31.948  1.00  0.00     0.074 A 
ATOM     37  C   UNL A   1      43.484  27.324  31.240  1.00  0.00     0.031 C 
ATOM     38  C   UNL A   1      43.829  29.062  32.973  1.00  0.00     0.031 A 
BRANCH  25  39
ATOM     39  C   UNL A   1      41.502  34.305  35.231  1.00  0.00    -0.014 A 
ATOM     40  C   UNL A   1      42.218  35.465  34.903  1.00  0.00     0.009 A 
ATOM     41  C   UNL A   1      40.844  34.240  36.470  1.00  0.00     0.009 A 
ATOM     42  C   UNL A   1      42.286  36.531  35.803  1.00  0.00     0.001 A 
ATOM     43  C   UNL A   1      40.896  35.315  37.359  1.00  0.00     0.001 A 
ATOM     44  C   UNL A   1      41.620  36.458  37.026  1.00  0.00     0.000 A 
ENDBRANCH  25  39
BRANCH  26  45
ATOM     45  C   UNL A   1      40.372  27.116  28.411  1.00  0.00    -0.014 A 
ATOM     46  C   UNL A   1      39.659  25.940  28.686  1.00  0.00     0.009 A 
ATOM     47  C   UNL A   1      40.954  27.277  27.144  1.00  0.00     0.009 A 
ATOM     48  C   UNL A   1      39.550  24.938  27.719  1.00  0.00     0.001 A 
ATOM     49  C   UNL A   1      40.817  26.288  26.169  1.00  0.00     0.001 A 
ATOM     50  C   UNL A   1      40.126  25.115  26.462  1.00  0.00     0.000 A 
ENDBRANCH  26  45
BRANCH  38  51
ATOM     51  C   UNL A   1      45.067  28.323  33.392  1.00  0.00    -0.014 A 
ATOM     52  C   UNL A   1      46.327  28.680  32.890  1.00  0.00     0.009 A 
ATOM     53  C   UNL A   1      44.971  27.268  34.312  1.00  0.00     0.009 A 
ATOM     54  C   UNL A   1      47.466  27.970  33.275  1.00  0.00     0.001 A 
ATOM     55  C   UNL A   1      46.114  26.577  34.716  1.00  0.00     0.001 A 
ATOM     56  C   UNL A   1      47.358  26.923  34.190  1.00  0.00     0.000 A 
ENDBRANCH  38  51
ENDBRANCH  12  13
ENDBRANCH   5   7
ENDBRANCH   2   3
ENDBRANCH   1   2
BRANCH   1  57
ATOM     57  C   UNL A   1      31.778  30.720  26.757  1.00  0.00     0.023 C 
BRANCH  57  58
ATOM     58  C   UNL A   1      31.402  30.069  25.427  1.00  0.00     0.116 C 
BRANCH  58  59
ATOM     59  N   UNL A   1      32.524  29.703  24.586  1.00  0.00    -0.351 N 
ATOM     60  C   UNL A   1      32.534  28.926  23.456  1.00  0.00     0.281 C 
ATOM     61  H   UNL A   1      33.398  30.063  24.863  1.00  0.00     0.163 HD
ATOM     62  O   UNL A   1      33.556  29.004  22.762  1.00  0.00    -0.268 OA
BRANCH  60  63
ATOM     63  C   UNL A   1      31.398  27.900  23.107  1.00  0.00     0.176 C 
ATOM     64  C   UNL A   1      31.207  26.879  24.259  1.00  0.00     0.079 C 
ATOM     65  C   UNL A   1      30.081  28.739  23.055  1.00  0.00     0.094 C 
ATOM     66  C   UNL A   1      30.035  25.929  24.013  1.00  0.00     0.008 C 
ATOM     67  C   UNL A   1      28.792  27.899  22.969  1.00  0.00     0.061 C 
ATOM     68  C   UNL A   1      28.729  26.703  23.932  1.00  0.00     0.015 C 
BRANCH  63  69
ATOM     69  N   UNL A   1      31.612  27.218  21.808  1.00  0.00    -0.331 N 
ATOM     70  H   UNL A   1      31.686  27.956  21.109  1.00  0.00     0.347 HD
ATOM     71  H   UNL A   1      30.822  26.573  21.779  1.00  0.00     0.347 HD
BRANCH  69  72
ATOM     72  C   UNL A   1      32.743  26.315  21.566  1.00  0.00     0.183 C 
ATOM     73  C   UNL A   1      32.767  24.841  21.842  1.00  0.00     0.071 C 
ATOM     74  C   UNL A   1      32.759  25.340  20.426  1.00  0.00     0.071 C 
ENDBRANCH  69  72
ENDBRANCH  63  69
BRANCH  67  75
ATOM     75  S   UNL A   1      27.276  28.937  23.125  1.00  0.00    -0.083 SA
BRANCH  75  76
ATOM     76  C   UNL A   1      27.706  30.356  22.248  1.00  0.00     0.183 A 
ATOM     77  N   UNL A   1      28.037  30.465  20.987  1.00  0.00    -0.210 NA
ATOM     78  N   UNL A   1      27.823  31.563  22.865  1.00  0.00    -0.254 N 
ATOM     79  C   UNL A   1      28.357  31.790  20.875  1.00  0.00     0.247 A 
ATOM     80  N   UNL A   1      28.257  32.502  22.003  1.00  0.00    -0.162 NA
ATOM     81  H   UNL A   1      27.619  31.728  23.814  1.00  0.00     0.192 HD
ENDBRANCH  75  76
ENDBRANCH  67  75
ENDBRANCH  60  63
ENDBRANCH  58  59
ENDBRANCH  57  58
ENDBRANCH   1  57
TORSDOF 15
ENDMDL
MODEL 3
REMARK VINA RESULT:     -11.0      0.319      5.955
REMARK SMILES O=C(NCCCCNC(=O)[C@@]1([NH2+]C2CC2)CCC[C@@H](Sc2ncn[nH]2)C1)c1ccc(-c2c3nc(c(-c4ccccc4)c4ccc([nH]4)c(-c4ccccc4)c4nc(c(-c5ccccc5)c5ccc2[nH]5)C=C4)C=C3)cc1
REMARK SMILES IDX 5 1 4 2 3 3 1 4 2 5 27 7 28 8 74 9 29 10 73 11 30 12 31 13
REMARK SMILES IDX 32 14 67 15 33 16 72 17 66 18 68 19 34 20 71 21 65 22 64 23
REMARK SMILES IDX 35 25 57 26 42 27 56 28 43 29 46 30 55 31 69 32 44 33 45 34
REMARK SMILES IDX 54 36 70 37 47 38 36 39 37 40 41 41 38 42 40 43 39 44 58 45
REMARK SMILES IDX 59 46 63 47 60 48 62 49 61 50 48 51 49 52 53 53 50 54 52 55
REMARK SMILES IDX 51 56 6 57 7 58 8 59 9 60 10 62 11 63 16 64 26 65 17 66
REMARK SMILES IDX 19 67 18 68 12 69 13 72 14 73 15 74 20 75 21 76 22 77 25 78
REMARK SMILES IDX 23 79 24 80
REMARK H PARENT 3 6 68 24 46 35 8 61 12 70 12 71 25 81
REMARK Flexibility Score: inf
ROOT
ATOM      1  C   UNL A   1      38.351  19.969  24.906  1.00  0.00     0.023 C 
ENDROOT
BRANCH   1   2
ATOM      2  C   UNL A   1      39.318  19.902  26.086  1.00  0.00     0.116 C 
BRANCH   2   3
ATOM      3  N   UNL A   1      40.546  19.178  25.797  1.00  0.00    -0.352 N 
ATOM      4  O   UNL A   1      42.750  18.815  25.501  1.00  0.00    -0.269 OA
ATOM      5  C   UNL A   1      41.866  19.561  25.904  1.00  0.00     0.251 C 
ATOM      6  H   UNL A   1      40.412  18.259  25.470  1.00  0.00     0.163 HD
BRANCH   5   7
ATOM      7  C   UNL A   1      42.229  20.883  26.468  1.00  0.00     0.039 A 
ATOM      8  C   UNL A   1      42.223  21.112  27.843  1.00  0.00     0.014 A 
ATOM      9  C   UNL A   1      42.620  21.907  25.599  1.00  0.00     0.014 A 
ATOM     10  C   UNL A   1      42.429  22.398  28.334  1.00  0.00     0.010 A 
ATOM     11  C   UNL A   1      42.921  23.179  26.101  1.00  0.00     0.010 A 
ATOM     12  C   UNL A   1      42.789  23.447  27.472  1.00  0.00    -0.014 A 
BRANCH  12  13
ATOM     13  C   UNL A   1      43.082  24.789  28.041  1.00  0.00     0.031 A 
ATOM     14  C   UNL A   1      44.488  25.215  28.367  1.00  0.00     0.074 A 
ATOM     15  C   UNL A   1      42.060  25.648  28.226  1.00  0.00     0.049 A 
ATOM     16  N   UNL A   1      44.910  26.366  28.830  1.00  0.00    -0.248 NA
ATOM     17  C   UNL A   1      45.559  24.227  28.157  1.00  0.00     0.031 C 
ATOM     18  C   UNL A   1      40.650  25.354  27.957  1.00  0.00     0.029 A 
ATOM     19  N   UNL A   1      42.048  26.950  28.659  1.00  0.00    -0.354 N 
ATOM     20  C   UNL A   1      46.285  26.236  28.984  1.00  0.00     0.074 A 
ATOM     21  C   UNL A   1      46.628  24.888  28.582  1.00  0.00     0.031 C 
ATOM     22  C   UNL A   1      39.919  26.454  28.180  1.00  0.00     0.029 A 
ATOM     23  C   UNL A   1      40.794  27.513  28.667  1.00  0.00     0.049 A 
ATOM     24  H   UNL A   1      42.859  27.435  28.935  1.00  0.00     0.167 HD
ATOM     25  C   UNL A   1      47.180  27.157  29.417  1.00  0.00     0.031 A 
ATOM     26  C   UNL A   1      40.386  28.740  29.042  1.00  0.00     0.031 A 
ATOM     27  C   UNL A   1      46.843  28.503  29.804  1.00  0.00     0.049 A 
ATOM     28  C   UNL A   1      41.399  29.728  29.539  1.00  0.00     0.074 A 
ATOM     29  C   UNL A   1      47.691  29.520  30.212  1.00  0.00     0.029 A 
ATOM     30  N   UNL A   1      45.558  29.019  29.836  1.00  0.00    -0.354 N 
ATOM     31  N   UNL A   1      42.699  29.598  29.636  1.00  0.00    -0.248 NA
ATOM     32  C   UNL A   1      40.885  31.031  29.983  1.00  0.00     0.031 C 
ATOM     33  C   UNL A   1      46.914  30.635  30.540  1.00  0.00     0.029 A 
ATOM     34  C   UNL A   1      45.586  30.329  30.287  1.00  0.00     0.049 A 
ATOM     35  H   UNL A   1      44.745  28.529  29.577  1.00  0.00     0.167 HD
ATOM     36  C   UNL A   1      43.160  30.804  30.142  1.00  0.00     0.074 A 
ATOM     37  C   UNL A   1      42.005  31.662  30.304  1.00  0.00     0.031 C 
ATOM     38  C   UNL A   1      44.428  31.166  30.452  1.00  0.00     0.031 A 
BRANCH  25  39
ATOM     39  C   UNL A   1      48.622  26.745  29.522  1.00  0.00    -0.014 A 
ATOM     40  C   UNL A   1      49.516  26.938  28.459  1.00  0.00     0.009 A 
ATOM     41  C   UNL A   1      49.111  26.238  30.738  1.00  0.00     0.009 A 
ATOM     42  C   UNL A   1      50.868  26.616  28.605  1.00  0.00     0.001 A 
ATOM     43  C   UNL A   1      50.466  25.938  30.888  1.00  0.00     0.001 A 
ATOM     44  C   UNL A   1      51.343  26.123  29.820  1.00  0.00     0.000 A 
ENDBRANCH  25  39
BRANCH  26  45
ATOM     45  C   UNL A   1      38.943  29.087  28.992  1.00  0.00    -0.014 A 
ATOM     46  C   UNL A   1      38.364  29.587  27.816  1.00  0.00     0.009 A 
ATOM     47  C   UNL A   1      38.136  28.923  30.130  1.00  0.00     0.009 A 
ATOM     48  C   UNL A   1      37.012  29.936  27.788  1.00  0.00     0.001 A 
ATOM     49  C   UNL A   1      36.778  29.243  30.089  1.00  0.00     0.001 A 
ATOM     50  C   UNL A   1      36.221  29.760  28.922  1.00  0.00     0.000 A 
ENDBRANCH  26  45
BRANCH  38  51
ATOM     51  C   UNL A   1      44.626  32.556  30.984  1.00  0.00    -0.014 A 
ATOM     52  C   UNL A   1      44.847  33.637  30.118  1.00  0.00     0.009 A 
ATOM     53  C   UNL A   1      44.573  32.787  32.367  1.00  0.00     0.009 A 
ATOM     54  C   UNL A   1      45.048  34.921  30.630  1.00  0.00     0.001 A 
ATOM     55  C   UNL A   1      44.748  34.076  32.874  1.00  0.00     0.001 A 
ATOM     56  C   UNL A   1      44.995  35.138  32.007  1.00  0.00     0.000 A 
ENDBRANCH  38  51
ENDBRANCH  12  13
ENDBRANCH   5   7
ENDBRANCH   2   3
ENDBRANCH   1   2
BRANCH   1  57
ATOM     57  C   UNL A   1      37.546  21.264  24.751  1.00  0.00     0.023 C 
BRANCH  57  58
ATOM     58  C   UNL A   1      36.025  21.118  24.760  1.00  0.00     0.116 C 
BRANCH  58  59
ATOM     59  N   UNL A   1      35.381  21.501  26.000  1.00  0.00    -0.351 N 
ATOM     60  C   UNL A   1      34.059  21.395  26.350  1.00  0.00     0.281 C 
ATOM     61  H   UNL A   1      35.973  21.888  26.685  1.00  0.00     0.163 HD
ATOM     62  O   UNL A   1      33.814  21.517  27.558  1.00  0.00    -0.268 OA
BRANCH  60  63
ATOM     63  C   UNL A   1      32.899  21.259  25.302  1.00  0.00     0.176 C 
ATOM     64  C   UNL A   1      33.063  22.298  24.162  1.00  0.00     0.079 C 
ATOM     65  C   UNL A   1      33.101  19.858  24.637  1.00  0.00     0.094 C 
ATOM     66  C   UNL A   1      32.020  22.128  23.058  1.00  0.00     0.008 C 
ATOM     67  C   UNL A   1      32.221  19.607  23.398  1.00  0.00     0.061 C 
ATOM     68  C   UNL A   1      32.162  20.768  22.394  1.00  0.00     0.015 C 
BRANCH  63  69
ATOM     69  N   UNL A   1      31.551  21.335  25.914  1.00  0.00    -0.331 N 
ATOM     70  H   UNL A   1      31.663  21.038  26.884  1.00  0.00     0.347 HD
ATOM     71  H   UNL A   1      30.999  20.765  25.274  1.00  0.00     0.347 HD
BRANCH  69  72
ATOM     72  C   UNL A   1      30.771  22.577  25.957  1.00  0.00     0.183 C 
ATOM     73  C   UNL A   1      29.823  22.983  27.046  1.00  0.00     0.071 C 
ATOM     74  C   UNL A   1      31.125  23.713  26.871  1.00  0.00     0.071 C 
ENDBRANCH  69  72
ENDBRANCH  63  69
BRANCH  67  75
ATOM     75  S   UNL A   1      32.659  18.033  22.543  1.00  0.00    -0.083 SA
BRANCH  75  76
ATOM     76  C   UNL A   1      33.078  17.001  23.858  1.00  0.00     0.183 A 
ATOM     77  N   UNL A   1      32.414  16.781  24.964  1.00  0.00    -0.210 NA
ATOM     78  N   UNL A   1      34.267  16.340  23.891  1.00  0.00    -0.254 N 
ATOM     79  C   UNL A   1      33.257  15.959  25.661  1.00  0.00     0.247 A 
ATOM     80  N   UNL A   1      34.413  15.672  25.051  1.00  0.00    -0.162 NA
ATOM     81  H   UNL A   1      34.931  16.349  23.165  1.00  0.00     0.192 HD
ENDBRANCH  75  76
ENDBRANCH  67  75
ENDBRANCH  60  63
ENDBRANCH  58  59
ENDBRANCH  57  58
ENDBRANCH   1  57
TORSDOF 15
ENDMDL
