MODEL 1
REMARK VINA RESULT:     -11.8      0.000      0.000
REMARK SMILES [NH3+][C@]1(C(=O)NCCCCNC(=O)c2ccc(-c3c4nc(c(-c5ccccc5)c5ccc([nH]5)c(-c5ccccc5)c5nc(c(-c6ccccc6)c6ccc3[nH]6)C=C5)C=C4)cc2)CC[C@@H](Sc2cc3ccccc3[nH]2)C1
REMARK SMILES IDX 7 1 6 2 5 3 3 4 4 5 2 7 61 8 74 9 62 10 63 11 1 12 64 16
REMARK SMILES IDX 65 17 66 18 73 19 67 20 72 21 68 23 71 24 69 25 70 26 8 27
REMARK SMILES IDX 9 28 10 29 11 30 12 32 13 33 14 34 60 35 15 36 59 37 16 38
REMARK SMILES IDX 17 39 18 40 53 41 19 42 58 43 52 44 54 45 20 46 57 47 51 48
REMARK SMILES IDX 50 49 21 51 43 52 28 53 42 54 29 55 32 56 41 57 55 58 30 59
REMARK SMILES IDX 31 60 40 62 56 63 33 64 22 65 23 66 27 67 24 68 26 69 25 70
REMARK SMILES IDX 44 71 45 72 49 73 46 74 48 75 47 76 34 77 35 78 39 79 36 80
REMARK SMILES IDX 38 81 37 82
REMARK H PARENT 5 6 1 13 1 14 1 15 73 22 10 31 54 50 32 61
REMARK Flexibility Score: inf
ROOT
ATOM      1  C   UNL A   1      31.539  27.832  27.365  1.00  0.00     0.023 C 
ENDROOT
BRANCH   1   2
ATOM      2  C   UNL A   1      31.070  26.778  26.357  1.00  0.00     0.116 C 
BRANCH   2   3
ATOM      3  N   UNL A   1      31.662  25.479  26.612  1.00  0.00    -0.351 N 
ATOM      4  C   UNL A   1      32.465  24.683  25.849  1.00  0.00     0.281 C 
ATOM      5  O   UNL A   1      32.819  23.615  26.360  1.00  0.00    -0.268 OA
ATOM      6  H   UNL A   1      31.447  25.105  27.496  1.00  0.00     0.163 HD
BRANCH   4   7
ATOM      7  C   UNL A   1      33.026  25.135  24.468  1.00  0.00     0.175 C 
ATOM      8  C   UNL A   1      31.906  25.052  23.408  1.00  0.00     0.080 C 
ATOM      9  C   UNL A   1      33.454  26.595  24.375  1.00  0.00     0.094 C 
ATOM     10  C   UNL A   1      32.330  25.984  22.282  1.00  0.00     0.022 C 
ATOM     11  C   UNL A   1      33.133  27.078  22.965  1.00  0.00     0.060 C 
BRANCH   7  12
ATOM     12  N   UNL A   1      34.151  24.251  24.090  1.00  0.00    -0.345 N 
ATOM     13  H   UNL A   1      34.589  24.604  23.239  1.00  0.00     0.345 HD
ATOM     14  H   UNL A   1      33.801  23.308  23.925  1.00  0.00     0.345 HD
ATOM     15  H   UNL A   1      34.838  24.233  24.843  1.00  0.00     0.345 HD
ENDBRANCH   7  12
BRANCH  11  16
ATOM     16  S   UNL A   1      32.462  28.746  23.071  1.00  0.00    -0.105 SA
BRANCH  16  17
ATOM     17  C   UNL A   1      30.896  28.771  22.327  1.00  0.00     0.073 A 
ATOM     18  C   UNL A   1      29.675  28.287  22.759  1.00  0.00     0.043 A 
ATOM     19  N   UNL A   1      30.629  29.885  21.574  1.00  0.00    -0.350 N 
ATOM     20  C   UNL A   1      28.835  29.454  22.807  1.00  0.00     0.001 A 
ATOM     21  C   UNL A   1      29.511  30.471  22.130  1.00  0.00     0.046 A 
ATOM     22  H   UNL A   1      31.133  30.203  20.790  1.00  0.00     0.167 HD
ATOM     23  C   UNL A   1      27.659  29.787  23.509  1.00  0.00     0.010 A 
ATOM     24  C   UNL A   1      29.132  31.813  22.171  1.00  0.00     0.027 A 
ATOM     25  C   UNL A   1      27.300  31.139  23.616  1.00  0.00     0.001 A 
ATOM     26  C   UNL A   1      28.038  32.134  22.974  1.00  0.00     0.002 A 
ENDBRANCH  16  17
ENDBRANCH  11  16
ENDBRANCH   4   7
ENDBRANCH   2   3
ENDBRANCH   1   2
BRANCH   1  27
ATOM     27  C   UNL A   1      32.186  29.069  26.744  1.00  0.00     0.023 C 
BRANCH  27  28
ATOM     28  C   UNL A   1      33.586  29.386  27.250  1.00  0.00     0.116 C 
BRANCH  28  29
ATOM     29  N   UNL A   1      33.684  30.677  27.912  1.00  0.00    -0.352 N 
ATOM     30  C   UNL A   1      34.741  31.196  28.628  1.00  0.00     0.251 C 
ATOM     31  H   UNL A   1      32.891  31.258  27.838  1.00  0.00     0.163 HD
ATOM     32  O   UNL A   1      34.646  32.260  29.208  1.00  0.00    -0.269 OA
BRANCH  30  33
ATOM     33  C   UNL A   1      35.984  30.400  28.718  1.00  0.00     0.039 A 
ATOM     34  C   UNL A   1      36.866  30.411  27.636  1.00  0.00     0.014 A 
ATOM     35  C   UNL A   1      36.308  29.727  29.899  1.00  0.00     0.014 A 
ATOM     36  C   UNL A   1      38.123  29.819  27.773  1.00  0.00     0.010 A 
ATOM     37  C   UNL A   1      37.584  29.201  30.056  1.00  0.00     0.010 A 
ATOM     38  C   UNL A   1      38.508  29.258  29.001  1.00  0.00    -0.014 A 
BRANCH  38  39
ATOM     39  C   UNL A   1      39.891  28.771  29.226  1.00  0.00     0.031 A 
ATOM     40  C   UNL A   1      40.937  29.694  29.779  1.00  0.00     0.074 A 
ATOM     41  C   UNL A   1      40.222  27.523  28.841  1.00  0.00     0.049 A 
ATOM     42  N   UNL A   1      42.216  29.478  29.955  1.00  0.00    -0.248 NA
ATOM     43  C   UNL A   1      40.496  31.046  30.158  1.00  0.00     0.031 C 
ATOM     44  C   UNL A   1      39.307  26.545  28.246  1.00  0.00     0.029 A 
ATOM     45  N   UNL A   1      41.428  26.869  28.877  1.00  0.00    -0.354 N 
ATOM     46  C   UNL A   1      42.733  30.668  30.448  1.00  0.00     0.074 A 
ATOM     47  C   UNL A   1      41.641  31.616  30.504  1.00  0.00     0.031 C 
ATOM     48  C   UNL A   1      39.981  25.412  27.990  1.00  0.00     0.029 A 
ATOM     49  C   UNL A   1      41.379  25.595  28.361  1.00  0.00     0.049 A 
ATOM     50  H   UNL A   1      42.250  27.272  29.239  1.00  0.00     0.167 HD
ATOM     51  C   UNL A   1      44.001  30.942  30.833  1.00  0.00     0.031 A 
ATOM     52  C   UNL A   1      42.354  24.683  28.191  1.00  0.00     0.031 A 
ATOM     53  C   UNL A   1      45.084  29.997  30.789  1.00  0.00     0.049 A 
ATOM     54  C   UNL A   1      43.757  25.020  28.610  1.00  0.00     0.074 A 
ATOM     55  C   UNL A   1      46.386  30.157  31.230  1.00  0.00     0.029 A 
ATOM     56  N   UNL A   1      44.991  28.715  30.268  1.00  0.00    -0.354 N 
ATOM     57  N   UNL A   1      44.213  26.123  29.151  1.00  0.00    -0.248 NA
ATOM     58  C   UNL A   1      44.779  23.984  28.398  1.00  0.00     0.031 C 
ATOM     59  C   UNL A   1      47.096  28.991  30.927  1.00  0.00     0.029 A 
ATOM     60  C   UNL A   1      46.223  28.087  30.344  1.00  0.00     0.049 A 
ATOM     61  H   UNL A   1      44.173  28.312  29.899  1.00  0.00     0.167 HD
ATOM     62  C   UNL A   1      45.569  25.908  29.360  1.00  0.00     0.074 A 
ATOM     63  C   UNL A   1      45.857  24.563  28.907  1.00  0.00     0.031 C 
ATOM     64  C   UNL A   1      46.494  26.751  29.881  1.00  0.00     0.031 A 
BRANCH  51  65
ATOM     65  C   UNL A   1      44.289  32.330  31.331  1.00  0.00    -0.014 A 
ATOM     66  C   UNL A   1      44.179  32.653  32.693  1.00  0.00     0.009 A 
ATOM     67  C   UNL A   1      44.720  33.318  30.431  1.00  0.00     0.009 A 
ATOM     68  C   UNL A   1      44.462  33.944  33.138  1.00  0.00     0.001 A 
ATOM     69  C   UNL A   1      45.028  34.602  30.884  1.00  0.00     0.001 A 
ATOM     70  C   UNL A   1      44.891  34.916  32.235  1.00  0.00     0.000 A 
ENDBRANCH  51  65
BRANCH  52  71
ATOM     71  C   UNL A   1      42.040  23.361  27.590  1.00  0.00    -0.014 A 
ATOM     72  C   UNL A   1      42.241  23.137  26.220  1.00  0.00     0.009 A 
ATOM     73  C   UNL A   1      41.533  22.318  28.381  1.00  0.00     0.009 A 
ATOM     74  C   UNL A   1      41.916  21.905  25.648  1.00  0.00     0.001 A 
ATOM     75  C   UNL A   1      41.235  21.078  27.813  1.00  0.00     0.001 A 
ATOM     76  C   UNL A   1      41.418  20.875  26.445  1.00  0.00     0.000 A 
ENDBRANCH  52  71
BRANCH  64  77
ATOM     77  C   UNL A   1      47.900  26.238  30.000  1.00  0.00    -0.014 A 
ATOM     78  C   UNL A   1      48.775  26.264  28.904  1.00  0.00     0.009 A 
ATOM     79  C   UNL A   1      48.367  25.769  31.238  1.00  0.00     0.009 A 
ATOM     80  C   UNL A   1      50.087  25.804  29.040  1.00  0.00     0.001 A 
ATOM     81  C   UNL A   1      49.687  25.336  31.376  1.00  0.00     0.001 A 
ATOM     82  C   UNL A   1      50.542  25.347  30.277  1.00  0.00     0.000 A 
ENDBRANCH  64  77
ENDBRANCH  38  39
ENDBRANCH  30  33
ENDBRANCH  28  29
ENDBRANCH  27  28
ENDBRANCH   1  27
TORSDOF 14
ENDMDL
MODEL 2
REMARK VINA RESULT:     -11.7      1.775      4.128
REMARK SMILES [NH3+][C@]1(C(=O)NCCCCNC(=O)c2ccc(-c3c4nc(c(-c5ccccc5)c5ccc([nH]5)c(-c5ccccc5)c5nc(c(-c6ccccc6)c6ccc3[nH]6)C=C5)C=C4)cc2)CC[C@@H](Sc2cc3ccccc3[nH]2)C1
REMARK SMILES IDX 7 1 6 2 5 3 3 4 4 5 2 7 61 8 74 9 62 10 63 11 1 12 64 16
REMARK SMILES IDX 65 17 66 18 73 19 67 20 72 21 68 23 71 24 69 25 70 26 8 27
REMARK SMILES IDX 9 28 10 29 11 30 12 32 13 33 14 34 60 35 15 36 59 37 16 38
REMARK SMILES IDX 17 39 18 40 53 41 19 42 58 43 52 44 54 45 20 46 57 47 51 48
REMARK SMILES IDX 50 49 21 51 43 52 28 53 42 54 29 55 32 56 41 57 55 58 30 59
REMARK SMILES IDX 31 60 40 62 56 63 33 64 22 65 23 66 27 67 24 68 26 69 25 70
REMARK SMILES IDX 44 71 45 72 49 73 46 74 48 75 47 76 34 77 35 78 39 79 36 80
REMARK SMILES IDX 38 81 37 82
REMARK H PARENT 5 6 1 13 1 14 1 15 73 22 10 31 54 50 32 61
REMARK Flexibility Score: inf
ROOT
ATOM      1  C   UNL A   1      33.814  28.556  24.834  1.00  0.00     0.023 C 
ENDROOT
BRANCH   1   2
ATOM      2  C   UNL A   1      32.855  27.522  24.236  1.00  0.00     0.116 C 
BRANCH   2   3
ATOM      3  N   UNL A   1      31.584  28.111  23.861  1.00  0.00    -0.351 N 
ATOM      4  C   UNL A   1      30.336  27.574  23.744  1.00  0.00     0.281 C 
ATOM      5  O   UNL A   1      29.437  28.353  23.406  1.00  0.00    -0.268 OA
ATOM      6  H   UNL A   1      31.631  29.072  23.654  1.00  0.00     0.163 HD
BRANCH   4   7
ATOM      7  C   UNL A   1      30.014  26.104  24.141  1.00  0.00     0.175 C 
ATOM      8  C   UNL A   1      30.748  25.141  23.182  1.00  0.00     0.080 C 
ATOM      9  C   UNL A   1      30.530  25.660  25.505  1.00  0.00     0.094 C 
ATOM     10  C   UNL A   1      30.848  23.814  23.920  1.00  0.00     0.022 C 
ATOM     11  C   UNL A   1      30.927  24.192  25.390  1.00  0.00     0.060 C 
BRANCH   7  12
ATOM     12  N   UNL A   1      28.552  25.888  24.057  1.00  0.00    -0.345 N 
ATOM     13  H   UNL A   1      28.085  26.782  23.906  1.00  0.00     0.345 HD
ATOM     14  H   UNL A   1      28.220  25.474  24.928  1.00  0.00     0.345 HD
ATOM     15  H   UNL A   1      28.345  25.260  23.281  1.00  0.00     0.345 HD
ENDBRANCH   7  12
BRANCH  11  16
ATOM     16  S   UNL A   1      32.464  23.943  26.294  1.00  0.00    -0.105 SA
BRANCH  16  17
ATOM     17  C   UNL A   1      33.796  24.081  25.192  1.00  0.00     0.073 A 
ATOM     18  C   UNL A   1      34.965  24.815  25.264  1.00  0.00     0.043 A 
ATOM     19  N   UNL A   1      34.096  22.938  24.498  1.00  0.00    -0.350 N 
ATOM     20  C   UNL A   1      36.004  23.822  25.206  1.00  0.00     0.001 A 
ATOM     21  C   UNL A   1      35.403  22.626  24.810  1.00  0.00     0.046 A 
ATOM     22  H   UNL A   1      33.499  22.439  23.895  1.00  0.00     0.167 HD
ATOM     23  C   UNL A   1      37.350  23.787  25.623  1.00  0.00     0.010 A 
ATOM     24  C   UNL A   1      36.034  21.384  24.875  1.00  0.00     0.027 A 
ATOM     25  C   UNL A   1      37.980  22.541  25.758  1.00  0.00     0.001 A 
ATOM     26  C   UNL A   1      37.323  21.360  25.409  1.00  0.00     0.002 A 
ENDBRANCH  16  17
ENDBRANCH  11  16
ENDBRANCH   4   7
ENDBRANCH   2   3
ENDBRANCH   1   2
BRANCH   1  27
ATOM     27  C   UNL A   1      33.161  29.569  25.773  1.00  0.00     0.023 C 
BRANCH  27  28
ATOM     28  C   UNL A   1      33.541  29.427  27.239  1.00  0.00     0.116 C 
BRANCH  28  29
ATOM     29  N   UNL A   1      33.636  30.698  27.939  1.00  0.00    -0.352 N 
ATOM     30  C   UNL A   1      34.691  31.198  28.671  1.00  0.00     0.251 C 
ATOM     31  H   UNL A   1      32.842  31.279  27.881  1.00  0.00     0.163 HD
ATOM     32  O   UNL A   1      34.593  32.244  29.282  1.00  0.00    -0.269 OA
BRANCH  30  33
ATOM     33  C   UNL A   1      35.935  30.402  28.740  1.00  0.00     0.039 A 
ATOM     34  C   UNL A   1      36.813  30.436  27.655  1.00  0.00     0.014 A 
ATOM     35  C   UNL A   1      36.265  29.705  29.905  1.00  0.00     0.014 A 
ATOM     36  C   UNL A   1      38.071  29.844  27.775  1.00  0.00     0.010 A 
ATOM     37  C   UNL A   1      37.543  29.177  30.046  1.00  0.00     0.010 A 
ATOM     38  C   UNL A   1      38.462  29.258  28.989  1.00  0.00    -0.014 A 
BRANCH  38  39
ATOM     39  C   UNL A   1      39.847  28.768  29.198  1.00  0.00     0.031 A 
ATOM     40  C   UNL A   1      40.903  29.691  29.733  1.00  0.00     0.074 A 
ATOM     41  C   UNL A   1      40.170  27.517  28.814  1.00  0.00     0.049 A 
ATOM     42  N   UNL A   1      42.182  29.472  29.893  1.00  0.00    -0.248 NA
ATOM     43  C   UNL A   1      40.470  31.045  30.111  1.00  0.00     0.031 C 
ATOM     44  C   UNL A   1      39.244  26.539  28.236  1.00  0.00     0.029 A 
ATOM     45  N   UNL A   1      41.374  26.860  28.838  1.00  0.00    -0.354 N 
ATOM     46  C   UNL A   1      42.710  30.663  30.374  1.00  0.00     0.074 A 
ATOM     47  C   UNL A   1      41.621  31.614  30.439  1.00  0.00     0.031 C 
ATOM     48  C   UNL A   1      39.911  25.403  27.977  1.00  0.00     0.029 A 
ATOM     49  C   UNL A   1      41.315  25.584  28.329  1.00  0.00     0.049 A 
ATOM     50  H   UNL A   1      42.202  27.263  29.187  1.00  0.00     0.167 HD
ATOM     51  C   UNL A   1      43.984  30.936  30.741  1.00  0.00     0.031 A 
ATOM     52  C   UNL A   1      42.285  24.668  28.150  1.00  0.00     0.031 A 
ATOM     53  C   UNL A   1      45.063  29.987  30.687  1.00  0.00     0.049 A 
ATOM     54  C   UNL A   1      43.695  25.004  28.549  1.00  0.00     0.074 A 
ATOM     55  C   UNL A   1      46.371  30.146  31.110  1.00  0.00     0.029 A 
ATOM     56  N   UNL A   1      44.960  28.704  30.174  1.00  0.00    -0.354 N 
ATOM     57  N   UNL A   1      44.161  26.108  29.079  1.00  0.00    -0.248 NA
ATOM     58  C   UNL A   1      44.711  23.965  28.329  1.00  0.00     0.031 C 
ATOM     59  C   UNL A   1      47.074  28.977  30.803  1.00  0.00     0.029 A 
ATOM     60  C   UNL A   1      46.191  28.072  30.236  1.00  0.00     0.049 A 
ATOM     61  H   UNL A   1      44.136  28.301  29.817  1.00  0.00     0.167 HD
ATOM     62  C   UNL A   1      45.519  25.890  29.271  1.00  0.00     0.074 A 
ATOM     63  C   UNL A   1      45.797  24.543  28.821  1.00  0.00     0.031 C 
ATOM     64  C   UNL A   1      46.452  26.734  29.775  1.00  0.00     0.031 A 
BRANCH  51  65
ATOM     65  C   UNL A   1      44.282  32.325  31.228  1.00  0.00    -0.014 A 
ATOM     66  C   UNL A   1      44.252  32.639  32.596  1.00  0.00     0.009 A 
ATOM     67  C   UNL A   1      44.640  33.324  30.310  1.00  0.00     0.009 A 
ATOM     68  C   UNL A   1      44.544  33.932  33.031  1.00  0.00     0.001 A 
ATOM     69  C   UNL A   1      44.957  34.610  30.750  1.00  0.00     0.001 A 
ATOM     70  C   UNL A   1      44.900  34.915  32.108  1.00  0.00     0.000 A 
ENDBRANCH  51  65
BRANCH  52  71
ATOM     71  C   UNL A   1      41.961  23.345  27.560  1.00  0.00    -0.014 A 
ATOM     72  C   UNL A   1      42.196  23.096  26.199  1.00  0.00     0.009 A 
ATOM     73  C   UNL A   1      41.407  22.325  28.350  1.00  0.00     0.009 A 
ATOM     74  C   UNL A   1      41.861  21.862  25.637  1.00  0.00     0.001 A 
ATOM     75  C   UNL A   1      41.099  21.083  27.791  1.00  0.00     0.001 A 
ATOM     76  C   UNL A   1      41.318  20.855  26.433  1.00  0.00     0.000 A 
ENDBRANCH  52  71
BRANCH  64  77
ATOM     77  C   UNL A   1      47.859  26.217  29.879  1.00  0.00    -0.014 A 
ATOM     78  C   UNL A   1      48.726  26.254  28.777  1.00  0.00     0.009 A 
ATOM     79  C   UNL A   1      48.334  25.734  31.108  1.00  0.00     0.009 A 
ATOM     80  C   UNL A   1      50.038  25.790  28.898  1.00  0.00     0.001 A 
ATOM     81  C   UNL A   1      49.655  25.298  31.232  1.00  0.00     0.001 A 
ATOM     82  C   UNL A   1      50.502  25.320  30.126  1.00  0.00     0.000 A 
ENDBRANCH  64  77
ENDBRANCH  38  39
ENDBRANCH  30  33
ENDBRANCH  28  29
ENDBRANCH  27  28
ENDBRANCH   1  27
TORSDOF 14
ENDMDL
MODEL 3
REMARK VINA RESULT:     -11.7      2.318      6.751
REMARK SMILES [NH3+][C@]1(C(=O)NCCCCNC(=O)c2ccc(-c3c4nc(c(-c5ccccc5)c5ccc([nH]5)c(-c5ccccc5)c5nc(c(-c6ccccc6)c6ccc3[nH]6)C=C5)C=C4)cc2)CC[C@@H](Sc2cc3ccccc3[nH]2)C1
REMARK SMILES IDX 7 1 6 2 5 3 3 4 4 5 2 7 61 8 74 9 62 10 63 11 1 12 64 16
REMARK SMILES IDX 65 17 66 18 73 19 67 20 72 21 68 23 71 24 69 25 70 26 8 27
REMARK SMILES IDX 9 28 10 29 11 30 12 32 13 33 14 34 60 35 15 36 59 37 16 38
REMARK SMILES IDX 17 39 18 40 53 41 19 42 58 43 52 44 54 45 20 46 57 47 51 48
REMARK SMILES IDX 50 49 21 51 43 52 28 53 42 54 29 55 32 56 41 57 55 58 30 59
REMARK SMILES IDX 31 60 40 62 56 63 33 64 22 65 23 66 27 67 24 68 26 69 25 70
REMARK SMILES IDX 44 71 45 72 49 73 46 74 48 75 47 76 34 77 35 78 39 79 36 80
REMARK SMILES IDX 38 81 37 82
REMARK H PARENT 5 6 1 13 1 14 1 15 73 22 10 31 54 50 32 61
REMARK Flexibility Score: inf
ROOT
ATOM      1  C   UNL A   1      32.030  28.498  27.304  1.00  0.00     0.023 C 
ENDROOT
BRANCH   1   2
ATOM      2  C   UNL A   1      31.304  27.406  26.512  1.00  0.00     0.116 C 
BRANCH   2   3
ATOM      3  N   UNL A   1      31.797  26.081  26.834  1.00  0.00    -0.351 N 
ATOM      4  C   UNL A   1      32.496  25.170  26.099  1.00  0.00     0.281 C 
ATOM      5  O   UNL A   1      32.781  24.111  26.669  1.00  0.00    -0.268 OA
ATOM      6  H   UNL A   1      31.589  25.786  27.750  1.00  0.00     0.163 HD
BRANCH   4   7
ATOM      7  C   UNL A   1      33.033  25.480  24.670  1.00  0.00     0.175 C 
ATOM      8  C   UNL A   1      31.890  25.314  23.646  1.00  0.00     0.080 C 
ATOM      9  C   UNL A   1      33.479  26.918  24.430  1.00  0.00     0.094 C 
ATOM     10  C   UNL A   1      32.301  26.128  22.428  1.00  0.00     0.022 C 
ATOM     11  C   UNL A   1      33.134  27.269  22.987  1.00  0.00     0.060 C 
BRANCH   7  12
ATOM     12  N   UNL A   1      34.138  24.547  24.355  1.00  0.00    -0.345 N 
ATOM     13  H   UNL A   1      34.965  24.805  24.894  1.00  0.00     0.345 HD
ATOM     14  H   UNL A   1      34.352  24.598  23.359  1.00  0.00     0.345 HD
ATOM     15  H   UNL A   1      33.859  23.596  24.595  1.00  0.00     0.345 HD
ENDBRANCH   7  12
BRANCH  11  16
ATOM     16  S   UNL A   1      32.488  28.949  22.947  1.00  0.00    -0.105 SA
BRANCH  16  17
ATOM     17  C   UNL A   1      30.909  28.929  22.231  1.00  0.00     0.073 A 
ATOM     18  C   UNL A   1      29.713  28.400  22.679  1.00  0.00     0.043 A 
ATOM     19  N   UNL A   1      30.591  30.040  21.493  1.00  0.00    -0.350 N 
ATOM     20  C   UNL A   1      28.835  29.538  22.753  1.00  0.00     0.001 A 
ATOM     21  C   UNL A   1      29.464  30.583  22.075  1.00  0.00     0.046 A 
ATOM     22  H   UNL A   1      31.070  30.383  20.705  1.00  0.00     0.167 HD
ATOM     23  C   UNL A   1      27.661  29.824  23.480  1.00  0.00     0.010 A 
ATOM     24  C   UNL A   1      29.041  31.911  22.136  1.00  0.00     0.027 A 
ATOM     25  C   UNL A   1      27.259  31.162  23.607  1.00  0.00     0.001 A 
ATOM     26  C   UNL A   1      27.952  32.187  22.962  1.00  0.00     0.002 A 
ENDBRANCH  16  17
ENDBRANCH  11  16
ENDBRANCH   4   7
ENDBRANCH   2   3
ENDBRANCH   1   2
BRANCH   1  27
ATOM     27  C   UNL A   1      31.885  29.909  26.734  1.00  0.00     0.023 C 
BRANCH  27  28
ATOM     28  C   UNL A   1      32.920  30.911  27.221  1.00  0.00     0.116 C 
BRANCH  28  29
ATOM     29  N   UNL A   1      32.402  32.264  27.349  1.00  0.00    -0.352 N 
ATOM     30  C   UNL A   1      32.975  33.345  27.982  1.00  0.00     0.251 C 
ATOM     31  H   UNL A   1      31.528  32.429  26.927  1.00  0.00     0.163 HD
ATOM     32  O   UNL A   1      32.380  34.400  28.089  1.00  0.00    -0.269 OA
BRANCH  30  33
ATOM     33  C   UNL A   1      34.318  33.178  28.578  1.00  0.00     0.039 A 
ATOM     34  C   UNL A   1      34.424  32.592  29.840  1.00  0.00     0.014 A 
ATOM     35  C   UNL A   1      35.461  33.518  27.850  1.00  0.00     0.014 A 
ATOM     36  C   UNL A   1      35.685  32.258  30.336  1.00  0.00     0.010 A 
ATOM     37  C   UNL A   1      36.710  33.123  28.315  1.00  0.00     0.010 A 
ATOM     38  C   UNL A   1      36.830  32.474  29.553  1.00  0.00    -0.014 A 
BRANCH  38  39
ATOM     39  C   UNL A   1      38.162  31.983  29.984  1.00  0.00     0.031 A 
ATOM     40  C   UNL A   1      38.683  30.670  29.477  1.00  0.00     0.074 A 
ATOM     41  C   UNL A   1      38.856  32.678  30.906  1.00  0.00     0.049 A 
ATOM     42  N   UNL A   1      39.776  30.033  29.811  1.00  0.00    -0.248 NA
ATOM     43  C   UNL A   1      37.855  29.965  28.485  1.00  0.00     0.031 C 
ATOM     44  C   UNL A   1      38.435  33.944  31.511  1.00  0.00     0.029 A 
ATOM     45  N   UNL A   1      40.059  32.406  31.508  1.00  0.00    -0.354 N 
ATOM     46  C   UNL A   1      39.759  28.850  29.086  1.00  0.00     0.074 A 
ATOM     47  C   UNL A   1      38.528  28.835  28.326  1.00  0.00     0.031 C 
ATOM     48  C   UNL A   1      39.372  34.347  32.384  1.00  0.00     0.029 A 
ATOM     49  C   UNL A   1      40.437  33.351  32.433  1.00  0.00     0.049 A 
ATOM     50  H   UNL A   1      40.601  31.611  31.297  1.00  0.00     0.167 HD
ATOM     51  C   UNL A   1      40.692  27.870  29.046  1.00  0.00     0.031 A 
ATOM     52  C   UNL A   1      41.512  33.402  33.241  1.00  0.00     0.031 A 
ATOM     53  C   UNL A   1      41.921  27.891  29.792  1.00  0.00     0.049 A 
ATOM     54  C   UNL A   1      42.523  32.291  33.190  1.00  0.00     0.074 A 
ATOM     55  C   UNL A   1      42.964  26.981  29.759  1.00  0.00     0.029 A 
ATOM     56  N   UNL A   1      42.270  28.868  30.711  1.00  0.00    -0.354 N 
ATOM     57  N   UNL A   1      42.531  31.218  32.438  1.00  0.00    -0.248 NA
ATOM     58  C   UNL A   1      43.674  32.401  34.098  1.00  0.00     0.031 C 
ATOM     59  C   UNL A   1      43.921  27.380  30.698  1.00  0.00     0.029 A 
ATOM     60  C   UNL A   1      43.497  28.565  31.277  1.00  0.00     0.049 A 
ATOM     61  H   UNL A   1      41.727  29.660  30.929  1.00  0.00     0.167 HD
ATOM     62  C   UNL A   1      43.695  30.535  32.768  1.00  0.00     0.074 A 
ATOM     63  C   UNL A   1      44.376  31.324  33.773  1.00  0.00     0.031 C 
ATOM     64  C   UNL A   1      44.156  29.357  32.282  1.00  0.00     0.031 A 
BRANCH  51  65
ATOM     65  C   UNL A   1      40.413  26.683  28.167  1.00  0.00    -0.014 A 
ATOM     66  C   UNL A   1      39.629  25.611  28.620  1.00  0.00     0.009 A 
ATOM     67  C   UNL A   1      40.905  26.659  26.853  1.00  0.00     0.009 A 
ATOM     68  C   UNL A   1      39.371  24.523  27.786  1.00  0.00     0.001 A 
ATOM     69  C   UNL A   1      40.623  25.581  26.012  1.00  0.00     0.001 A 
ATOM     70  C   UNL A   1      39.864  24.511  26.481  1.00  0.00     0.000 A 
ENDBRANCH  51  65
BRANCH  52  71
ATOM     71  C   UNL A   1      41.688  34.543  34.176  1.00  0.00    -0.014 A 
ATOM     72  C   UNL A   1      42.308  35.726  33.746  1.00  0.00     0.009 A 
ATOM     73  C   UNL A   1      41.243  34.455  35.504  1.00  0.00     0.009 A 
ATOM     74  C   UNL A   1      42.502  36.787  34.633  1.00  0.00     0.001 A 
ATOM     75  C   UNL A   1      41.413  35.527  36.381  1.00  0.00     0.001 A 
ATOM     76  C   UNL A   1      42.050  36.689  35.948  1.00  0.00     0.000 A 
ENDBRANCH  52  71
BRANCH  64  77
ATOM     77  C   UNL A   1      45.466  28.859  32.821  1.00  0.00    -0.014 A 
ATOM     78  C   UNL A   1      45.513  27.998  33.928  1.00  0.00     0.009 A 
ATOM     79  C   UNL A   1      46.664  29.217  32.182  1.00  0.00     0.009 A 
ATOM     80  C   UNL A   1      46.740  27.526  34.401  1.00  0.00     0.001 A 
ATOM     81  C   UNL A   1      47.885  28.722  32.641  1.00  0.00     0.001 A 
ATOM     82  C   UNL A   1      47.922  27.883  33.753  1.00  0.00     0.000 A 
ENDBRANCH  64  77
ENDBRANCH  38  39
ENDBRANCH  30  33
ENDBRANCH  28  29
ENDBRANCH  27  28
ENDBRANCH   1  27
TORSDOF 14
ENDMDL
