MODEL 1
REMARK VINA RESULT:     -11.7      0.000      0.000
REMARK SMILES Cc1cc(NC(=O)c2sccc2/C=C/C(=O)NCCCCNC(=O)c2ccc(-c3c4nc(c(-c5ccccc5)c5ccc([nH]5)c(-c5ccccc5)c5nc(c(-c6ccccc6)c6ccc3[nH]6)C=C5)C=C4)cc2)ccn1
REMARK SMILES IDX 19 1 18 2 17 3 15 4 16 5 14 7 13 8 12 9 8 10 9 11 10 12
REMARK SMILES IDX 11 13 6 14 5 15 7 17 4 18 1 19 2 20 3 21 75 22 74 23 73 24
REMARK SMILES IDX 20 25 21 26 22 27 23 28 24 30 25 31 26 32 72 33 27 34 71 35
REMARK SMILES IDX 28 36 29 37 30 38 65 39 31 40 70 41 64 42 66 43 32 44 69 45
REMARK SMILES IDX 63 46 62 47 33 49 55 50 40 51 54 52 41 53 44 54 53 55 67 56
REMARK SMILES IDX 42 57 43 58 52 60 68 61 45 62 34 63 35 64 39 65 36 66 38 67
REMARK SMILES IDX 37 68 56 69 57 70 61 71 58 72 60 73 59 74 46 75 47 76 51 77
REMARK SMILES IDX 48 78 50 79 49 80
REMARK H PARENT 17 6 5 16 22 29 66 48 44 59
REMARK Flexibility Score: inf
ROOT
ATOM      1  C   UNL A   1      34.931  22.354  25.842  1.00  0.00     0.023 C 
ENDROOT
BRANCH   1   2
ATOM      2  C   UNL A   1      33.654  22.877  25.193  1.00  0.00     0.116 C 
BRANCH   2   3
ATOM      3  N   UNL A   1      32.503  22.692  26.052  1.00  0.00    -0.353 N 
ATOM      4  C   UNL A   1      31.747  23.612  26.710  1.00  0.00     0.243 C 
ATOM      5  O   UNL A   1      30.730  23.255  27.298  1.00  0.00    -0.270 OA
ATOM      6  H   UNL A   1      32.225  21.757  26.178  1.00  0.00     0.163 HD
BRANCH   4   7
ATOM      7  C   UNL A   1      32.077  25.054  26.650  1.00  0.00     0.072 C 
ATOM      8  C   UNL A   1      31.238  26.025  26.256  1.00  0.00     0.015 C 
BRANCH   8   9
ATOM      9  C   UNL A   1      31.582  27.416  26.234  1.00  0.00    -0.002 A 
ATOM     10  C   UNL A   1      31.861  28.126  25.077  1.00  0.00     0.099 A 
ATOM     11  S   UNL A   1      32.327  29.743  25.426  1.00  0.00    -0.138 S 
ATOM     12  C   UNL A   1      32.047  29.531  27.098  1.00  0.00     0.066 A 
ATOM     13  C   UNL A   1      31.661  28.243  27.398  1.00  0.00     0.020 A 
BRANCH  10  14
ATOM     14  C   UNL A   1      31.852  27.727  23.684  1.00  0.00     0.266 C 
ATOM     15  N   UNL A   1      30.725  27.880  22.897  1.00  0.00    -0.321 N 
ATOM     16  H   UNL A   1      30.818  27.477  22.005  1.00  0.00     0.170 HD
ATOM     17  O   UNL A   1      32.820  27.183  23.149  1.00  0.00    -0.268 OA
BRANCH  15  18
ATOM     18  C   UNL A   1      29.474  28.492  23.104  1.00  0.00     0.044 A 
ATOM     19  C   UNL A   1      28.166  32.051  23.066  1.00  0.00     0.067 C 
ATOM     20  C   UNL A   1      28.238  30.559  23.178  1.00  0.00     0.039 A 
ATOM     21  C   UNL A   1      29.458  29.891  23.116  1.00  0.00     0.049 A 
ATOM     22  N   UNL A   1      27.061  29.904  23.263  1.00  0.00    -0.261 NA
ATOM     23  C   UNL A   1      27.104  28.558  23.323  1.00  0.00     0.113 A 
ATOM     24  C   UNL A   1      28.272  27.818  23.260  1.00  0.00     0.046 A 
ENDBRANCH  15  18
ENDBRANCH  10  14
ENDBRANCH   8   9
ENDBRANCH   4   7
ENDBRANCH   2   3
ENDBRANCH   1   2
BRANCH   1  25
ATOM     25  C   UNL A   1      35.957  23.443  26.155  1.00  0.00     0.023 C 
BRANCH  25  26
ATOM     26  C   UNL A   1      37.124  23.530  25.173  1.00  0.00     0.116 C 
BRANCH  26  27
ATOM     27  N   UNL A   1      38.224  22.637  25.500  1.00  0.00    -0.352 N 
ATOM     28  C   UNL A   1      39.356  22.907  26.236  1.00  0.00     0.251 C 
ATOM     29  H   UNL A   1      38.149  21.720  25.150  1.00  0.00     0.163 HD
ATOM     30  O   UNL A   1      40.234  22.067  26.356  1.00  0.00    -0.269 OA
BRANCH  28  31
ATOM     31  C   UNL A   1      39.513  24.244  26.843  1.00  0.00     0.039 A 
ATOM     32  C   UNL A   1      39.014  24.461  28.129  1.00  0.00     0.014 A 
ATOM     33  C   UNL A   1      40.196  25.258  26.166  1.00  0.00     0.014 A 
ATOM     34  C   UNL A   1      39.264  25.677  28.768  1.00  0.00     0.010 A 
ATOM     35  C   UNL A   1      40.500  26.443  26.828  1.00  0.00     0.010 A 
ATOM     36  C   UNL A   1      40.042  26.662  28.137  1.00  0.00    -0.014 A 
BRANCH  36  37
ATOM     37  C   UNL A   1      40.398  27.923  28.832  1.00  0.00     0.031 A 
ATOM     38  C   UNL A   1      41.736  28.062  29.503  1.00  0.00     0.074 A 
ATOM     39  C   UNL A   1      39.490  28.913  28.923  1.00  0.00     0.049 A 
ATOM     40  N   UNL A   1      42.201  29.056  30.216  1.00  0.00    -0.248 NA
ATOM     41  C   UNL A   1      42.661  26.924  29.377  1.00  0.00     0.031 C 
ATOM     42  C   UNL A   1      38.142  28.885  28.354  1.00  0.00     0.029 A 
ATOM     43  N   UNL A   1      39.565  30.137  29.541  1.00  0.00    -0.354 N 
ATOM     44  C   UNL A   1      43.461  28.655  30.640  1.00  0.00     0.074 A 
ATOM     45  C   UNL A   1      43.670  27.313  30.143  1.00  0.00     0.031 C 
ATOM     46  C   UNL A   1      37.526  30.047  28.628  1.00  0.00     0.029 A 
ATOM     47  C   UNL A   1      38.419  30.884  29.421  1.00  0.00     0.049 A 
ATOM     48  H   UNL A   1      40.365  30.448  30.024  1.00  0.00     0.167 HD
ATOM     49  C   UNL A   1      44.373  29.350  31.362  1.00  0.00     0.031 A 
ATOM     50  C   UNL A   1      38.119  32.106  29.900  1.00  0.00     0.031 A 
ATOM     51  C   UNL A   1      44.174  30.690  31.844  1.00  0.00     0.049 A 
ATOM     52  C   UNL A   1      39.147  32.856  30.701  1.00  0.00     0.074 A 
ATOM     53  C   UNL A   1      45.061  31.499  32.532  1.00  0.00     0.029 A 
ATOM     54  N   UNL A   1      43.006  31.418  31.687  1.00  0.00    -0.354 N 
ATOM     55  N   UNL A   1      40.360  32.490  31.035  1.00  0.00    -0.248 NA
ATOM     56  C   UNL A   1      38.765  34.191  31.181  1.00  0.00     0.031 C 
ATOM     57  C   UNL A   1      44.414  32.702  32.831  1.00  0.00     0.029 A 
ATOM     58  C   UNL A   1      43.141  32.659  32.284  1.00  0.00     0.049 A 
ATOM     59  H   UNL A   1      42.199  31.099  31.222  1.00  0.00     0.167 HD
ATOM     60  C   UNL A   1      40.897  33.560  31.741  1.00  0.00     0.074 A 
ATOM     61  C   UNL A   1      39.882  34.592  31.773  1.00  0.00     0.031 C 
ATOM     62  C   UNL A   1      42.121  33.675  32.309  1.00  0.00     0.031 A 
BRANCH  49  63
ATOM     63  C   UNL A   1      45.670  28.660  31.677  1.00  0.00    -0.014 A 
ATOM     64  C   UNL A   1      45.820  27.890  32.842  1.00  0.00     0.009 A 
ATOM     65  C   UNL A   1      46.749  28.759  30.785  1.00  0.00     0.009 A 
ATOM     66  C   UNL A   1      47.036  27.265  33.125  1.00  0.00     0.001 A 
ATOM     67  C   UNL A   1      47.954  28.110  31.057  1.00  0.00     0.001 A 
ATOM     68  C   UNL A   1      48.100  27.372  32.231  1.00  0.00     0.000 A 
ENDBRANCH  49  63
BRANCH  50  69
ATOM     69  C   UNL A   1      36.792  32.711  29.618  1.00  0.00    -0.014 A 
ATOM     70  C   UNL A   1      35.797  32.729  30.609  1.00  0.00     0.009 A 
ATOM     71  C   UNL A   1      36.510  33.268  28.362  1.00  0.00     0.009 A 
ATOM     72  C   UNL A   1      34.539  33.270  30.338  1.00  0.00     0.001 A 
ATOM     73  C   UNL A   1      35.260  33.832  28.102  1.00  0.00     0.001 A 
ATOM     74  C   UNL A   1      34.272  33.824  29.087  1.00  0.00     0.000 A 
ENDBRANCH  50  69
BRANCH  62  75
ATOM     75  C   UNL A   1      42.442  34.977  32.986  1.00  0.00    -0.014 A 
ATOM     76  C   UNL A   1      41.999  35.249  34.288  1.00  0.00     0.009 A 
ATOM     77  C   UNL A   1      43.236  35.927  32.321  1.00  0.00     0.009 A 
ATOM     78  C   UNL A   1      42.319  36.462  34.902  1.00  0.00     0.001 A 
ATOM     79  C   UNL A   1      43.575  37.126  32.948  1.00  0.00     0.001 A 
ATOM     80  C   UNL A   1      43.111  37.396  34.235  1.00  0.00     0.000 A 
ENDBRANCH  62  75
ENDBRANCH  36  37
ENDBRANCH  28  31
ENDBRANCH  26  27
ENDBRANCH  25  26
ENDBRANCH   1  25
TORSDOF 14
ENDMDL
MODEL 2
REMARK VINA RESULT:     -11.6      2.997      8.599
REMARK SMILES Cc1cc(NC(=O)c2sccc2/C=C/C(=O)NCCCCNC(=O)c2ccc(-c3c4nc(c(-c5ccccc5)c5ccc([nH]5)c(-c5ccccc5)c5nc(c(-c6ccccc6)c6ccc3[nH]6)C=C5)C=C4)cc2)ccn1
REMARK SMILES IDX 19 1 18 2 17 3 15 4 16 5 14 7 13 8 12 9 8 10 9 11 10 12
REMARK SMILES IDX 11 13 6 14 5 15 7 17 4 18 1 19 2 20 3 21 75 22 74 23 73 24
REMARK SMILES IDX 20 25 21 26 22 27 23 28 24 30 25 31 26 32 72 33 27 34 71 35
REMARK SMILES IDX 28 36 29 37 30 38 65 39 31 40 70 41 64 42 66 43 32 44 69 45
REMARK SMILES IDX 63 46 62 47 33 49 55 50 40 51 54 52 41 53 44 54 53 55 67 56
REMARK SMILES IDX 42 57 43 58 52 60 68 61 45 62 34 63 35 64 39 65 36 66 38 67
REMARK SMILES IDX 37 68 56 69 57 70 61 71 58 72 60 73 59 74 46 75 47 76 51 77
REMARK SMILES IDX 48 78 50 79 49 80
REMARK H PARENT 17 6 5 16 22 29 66 48 44 59
REMARK Flexibility Score: inf
ROOT
ATOM      1  C   UNL A   1      32.060  28.048  25.233  1.00  0.00     0.023 C 
ENDROOT
BRANCH   1   2
ATOM      2  C   UNL A   1      31.981  26.694  24.536  1.00  0.00     0.116 C 
BRANCH   2   3
ATOM      3  N   UNL A   1      32.395  26.780  23.151  1.00  0.00    -0.353 N 
ATOM      4  C   UNL A   1      33.374  26.105  22.489  1.00  0.00     0.243 C 
ATOM      5  O   UNL A   1      33.488  26.239  21.273  1.00  0.00    -0.270 OA
ATOM      6  H   UNL A   1      31.891  27.425  22.606  1.00  0.00     0.163 HD
BRANCH   4   7
ATOM      7  C   UNL A   1      34.244  25.137  23.194  1.00  0.00     0.072 C 
ATOM      8  C   UNL A   1      34.156  23.801  23.095  1.00  0.00     0.015 C 
BRANCH   8   9
ATOM      9  C   UNL A   1      35.031  22.891  23.772  1.00  0.00    -0.002 A 
ATOM     10  C   UNL A   1      34.629  22.044  24.793  1.00  0.00     0.099 A 
ATOM     11  S   UNL A   1      35.954  21.163  25.440  1.00  0.00    -0.138 S 
ATOM     12  C   UNL A   1      37.035  21.820  24.291  1.00  0.00     0.066 A 
ATOM     13  C   UNL A   1      36.420  22.734  23.466  1.00  0.00     0.020 A 
BRANCH  10  14
ATOM     14  C   UNL A   1      33.329  21.819  25.392  1.00  0.00     0.266 C 
ATOM     15  N   UNL A   1      32.540  20.745  25.023  1.00  0.00    -0.321 N 
ATOM     16  H   UNL A   1      31.644  20.765  25.428  1.00  0.00     0.170 HD
ATOM     17  O   UNL A   1      32.839  22.598  26.213  1.00  0.00    -0.268 OA
BRANCH  15  18
ATOM     18  C   UNL A   1      32.751  19.628  24.192  1.00  0.00     0.044 A 
ATOM     19  C   UNL A   1      34.275  16.183  24.625  1.00  0.00     0.067 C 
ATOM     20  C   UNL A   1      33.609  17.383  24.024  1.00  0.00     0.039 A 
ATOM     21  C   UNL A   1      33.483  18.570  24.741  1.00  0.00     0.049 A 
ATOM     22  N   UNL A   1      33.078  17.224  22.793  1.00  0.00    -0.261 NA
ATOM     23  C   UNL A   1      32.440  18.281  22.253  1.00  0.00     0.113 A 
ATOM     24  C   UNL A   1      32.263  19.491  22.901  1.00  0.00     0.046 A 
ENDBRANCH  15  18
ENDBRANCH  10  14
ENDBRANCH   8   9
ENDBRANCH   4   7
ENDBRANCH   2   3
ENDBRANCH   1   2
BRANCH   1  25
ATOM     25  C   UNL A   1      33.457  28.402  25.741  1.00  0.00     0.023 C 
BRANCH  25  26
ATOM     26  C   UNL A   1      33.566  28.589  27.252  1.00  0.00     0.116 C 
BRANCH  26  27
ATOM     27  N   UNL A   1      33.553  29.983  27.666  1.00  0.00    -0.352 N 
ATOM     28  C   UNL A   1      34.573  30.720  28.224  1.00  0.00     0.251 C 
ATOM     29  H   UNL A   1      32.704  30.463  27.529  1.00  0.00     0.163 HD
ATOM     30  O   UNL A   1      34.381  31.868  28.594  1.00  0.00    -0.269 OA
BRANCH  28  31
ATOM     31  C   UNL A   1      35.895  30.087  28.408  1.00  0.00     0.039 A 
ATOM     32  C   UNL A   1      36.811  30.124  27.355  1.00  0.00     0.014 A 
ATOM     33  C   UNL A   1      36.244  29.509  29.632  1.00  0.00     0.014 A 
ATOM     34  C   UNL A   1      38.107  29.645  27.552  1.00  0.00     0.010 A 
ATOM     35  C   UNL A   1      37.553  29.092  29.847  1.00  0.00     0.010 A 
ATOM     36  C   UNL A   1      38.499  29.162  28.812  1.00  0.00    -0.014 A 
BRANCH  36  37
ATOM     37  C   UNL A   1      39.895  28.734  29.071  1.00  0.00     0.031 A 
ATOM     38  C   UNL A   1      40.872  29.689  29.696  1.00  0.00     0.074 A 
ATOM     39  C   UNL A   1      40.303  27.512  28.675  1.00  0.00     0.049 A 
ATOM     40  N   UNL A   1      42.148  29.523  29.936  1.00  0.00    -0.248 NA
ATOM     41  C   UNL A   1      40.354  31.013  30.076  1.00  0.00     0.031 C 
ATOM     42  C   UNL A   1      39.464  26.509  28.018  1.00  0.00     0.029 A 
ATOM     43  N   UNL A   1      41.534  26.912  28.762  1.00  0.00    -0.354 N 
ATOM     44  C   UNL A   1      42.588  30.725  30.475  1.00  0.00     0.074 A 
ATOM     45  C   UNL A   1      41.455  31.625  30.486  1.00  0.00     0.031 C 
ATOM     46  C   UNL A   1      40.199  25.409  27.783  1.00  0.00     0.029 A 
ATOM     47  C   UNL A   1      41.565  25.643  28.239  1.00  0.00     0.049 A 
ATOM     48  H   UNL A   1      42.320  27.351  29.161  1.00  0.00     0.167 HD
ATOM     49  C   UNL A   1      43.819  31.046  30.940  1.00  0.00     0.031 A 
ATOM     50  C   UNL A   1      42.581  24.766  28.134  1.00  0.00     0.031 A 
ATOM     51  C   UNL A   1      44.942  30.148  30.946  1.00  0.00     0.049 A 
ATOM     52  C   UNL A   1      43.939  25.147  28.654  1.00  0.00     0.074 A 
ATOM     53  C   UNL A   1      46.213  30.361  31.449  1.00  0.00     0.029 A 
ATOM     54  N   UNL A   1      44.928  28.866  30.421  1.00  0.00    -0.354 N 
ATOM     55  N   UNL A   1      44.321  26.264  29.223  1.00  0.00    -0.248 NA
ATOM     56  C   UNL A   1      45.002  24.140  28.525  1.00  0.00     0.031 C 
ATOM     57  C   UNL A   1      46.982  29.222  31.191  1.00  0.00     0.029 A 
ATOM     58  C   UNL A   1      46.174  28.282  30.571  1.00  0.00     0.049 A 
ATOM     59  H   UNL A   1      44.147  28.435  30.004  1.00  0.00     0.167 HD
ATOM     60  C   UNL A   1      45.661  26.085  29.546  1.00  0.00     0.074 A 
ATOM     61  C   UNL A   1      46.020  24.748  29.121  1.00  0.00     0.031 C 
ATOM     62  C   UNL A   1      46.515  26.951  30.142  1.00  0.00     0.031 A 
BRANCH  49  63
ATOM     63  C   UNL A   1      44.010  32.436  31.476  1.00  0.00    -0.014 A 
ATOM     64  C   UNL A   1      44.388  33.495  30.635  1.00  0.00     0.009 A 
ATOM     65  C   UNL A   1      43.783  32.698  32.836  1.00  0.00     0.009 A 
ATOM     66  C   UNL A   1      44.573  34.779  31.151  1.00  0.00     0.001 A 
ATOM     67  C   UNL A   1      43.941  33.988  33.345  1.00  0.00     0.001 A 
ATOM     68  C   UNL A   1      44.345  35.025  32.505  1.00  0.00     0.000 A 
ENDBRANCH  49  63
BRANCH  50  69
ATOM     69  C   UNL A   1      42.352  23.430  27.527  1.00  0.00    -0.014 A 
ATOM     70  C   UNL A   1      41.885  22.365  28.314  1.00  0.00     0.009 A 
ATOM     71  C   UNL A   1      42.600  23.209  26.164  1.00  0.00     0.009 A 
ATOM     72  C   UNL A   1      41.697  21.100  27.754  1.00  0.00     0.001 A 
ATOM     73  C   UNL A   1      42.386  21.950  25.601  1.00  0.00     0.001 A 
ATOM     74  C   UNL A   1      41.943  20.894  26.397  1.00  0.00     0.000 A 
ENDBRANCH  50  69
BRANCH  62  75
ATOM     75  C   UNL A   1      47.914  26.466  30.399  1.00  0.00    -0.014 A 
ATOM     76  C   UNL A   1      48.933  26.649  29.453  1.00  0.00     0.009 A 
ATOM     77  C   UNL A   1      48.220  25.855  31.626  1.00  0.00     0.009 A 
ATOM     78  C   UNL A   1      50.228  26.200  29.719  1.00  0.00     0.001 A 
ATOM     79  C   UNL A   1      49.522  25.432  31.898  1.00  0.00     0.001 A 
ATOM     80  C   UNL A   1      50.523  25.598  30.941  1.00  0.00     0.000 A 
ENDBRANCH  62  75
ENDBRANCH  36  37
ENDBRANCH  28  31
ENDBRANCH  26  27
ENDBRANCH  25  26
ENDBRANCH   1  25
TORSDOF 14
ENDMDL
MODEL 3
REMARK VINA RESULT:     -11.4      2.403      7.444
REMARK SMILES Cc1cc(NC(=O)c2sccc2/C=C/C(=O)NCCCCNC(=O)c2ccc(-c3c4nc(c(-c5ccccc5)c5ccc([nH]5)c(-c5ccccc5)c5nc(c(-c6ccccc6)c6ccc3[nH]6)C=C5)C=C4)cc2)ccn1
REMARK SMILES IDX 19 1 18 2 17 3 15 4 16 5 14 7 13 8 12 9 8 10 9 11 10 12
REMARK SMILES IDX 11 13 6 14 5 15 7 17 4 18 1 19 2 20 3 21 75 22 74 23 73 24
REMARK SMILES IDX 20 25 21 26 22 27 23 28 24 30 25 31 26 32 72 33 27 34 71 35
REMARK SMILES IDX 28 36 29 37 30 38 65 39 31 40 70 41 64 42 66 43 32 44 69 45
REMARK SMILES IDX 63 46 62 47 33 49 55 50 40 51 54 52 41 53 44 54 53 55 67 56
REMARK SMILES IDX 42 57 43 58 52 60 68 61 45 62 34 63 35 64 39 65 36 66 38 67
REMARK SMILES IDX 37 68 56 69 57 70 61 71 58 72 60 73 59 74 46 75 47 76 51 77
REMARK SMILES IDX 48 78 50 79 49 80
REMARK H PARENT 17 6 5 16 22 29 66 48 44 59
REMARK Flexibility Score: inf
ROOT
ATOM      1  C   UNL A   1      31.804  30.327  27.069  1.00  0.00     0.023 C 
ENDROOT
BRANCH   1   2
ATOM      2  C   UNL A   1      33.168  29.730  26.741  1.00  0.00     0.116 C 
BRANCH   2   3
ATOM      3  N   UNL A   1      33.464  29.818  25.326  1.00  0.00    -0.353 N 
ATOM      4  C   UNL A   1      33.582  28.833  24.396  1.00  0.00     0.243 C 
ATOM      5  O   UNL A   1      33.721  29.129  23.211  1.00  0.00    -0.270 OA
ATOM      6  H   UNL A   1      33.600  30.732  24.987  1.00  0.00     0.163 HD
BRANCH   4   7
ATOM      7  C   UNL A   1      33.449  27.408  24.773  1.00  0.00     0.072 C 
ATOM      8  C   UNL A   1      34.042  26.381  24.144  1.00  0.00     0.015 C 
BRANCH   8   9
ATOM      9  C   UNL A   1      33.912  25.014  24.551  1.00  0.00    -0.002 A 
ATOM     10  C   UNL A   1      33.436  24.002  23.732  1.00  0.00     0.099 A 
ATOM     11  S   UNL A   1      33.324  22.509  24.573  1.00  0.00    -0.138 S 
ATOM     12  C   UNL A   1      34.014  23.177  25.985  1.00  0.00     0.066 A 
ATOM     13  C   UNL A   1      34.275  24.522  25.845  1.00  0.00     0.020 A 
BRANCH  10  14
ATOM     14  C   UNL A   1      33.007  24.017  22.347  1.00  0.00     0.266 C 
ATOM     15  N   UNL A   1      31.898  24.735  21.943  1.00  0.00    -0.321 N 
ATOM     16  H   UNL A   1      31.656  24.579  21.002  1.00  0.00     0.170 HD
ATOM     17  O   UNL A   1      33.572  23.351  21.477  1.00  0.00    -0.268 OA
BRANCH  15  18
ATOM     18  C   UNL A   1      31.042  25.645  22.594  1.00  0.00     0.044 A 
ATOM     19  C   UNL A   1      30.154  29.306  22.165  1.00  0.00     0.067 C 
ATOM     20  C   UNL A   1      30.197  27.899  22.679  1.00  0.00     0.039 A 
ATOM     21  C   UNL A   1      31.111  26.978  22.175  1.00  0.00     0.049 A 
ATOM     22  N   UNL A   1      29.261  27.562  23.591  1.00  0.00    -0.261 NA
ATOM     23  C   UNL A   1      29.259  26.289  24.035  1.00  0.00     0.113 A 
ATOM     24  C   UNL A   1      30.126  25.311  23.581  1.00  0.00     0.046 A 
ENDBRANCH  15  18
ENDBRANCH  10  14
ENDBRANCH   8   9
ENDBRANCH   4   7
ENDBRANCH   2   3
ENDBRANCH   1   2
BRANCH   1  25
ATOM     25  C   UNL A   1      31.698  31.825  26.783  1.00  0.00     0.023 C 
BRANCH  25  26
ATOM     26  C   UNL A   1      32.894  32.655  27.242  1.00  0.00     0.116 C 
BRANCH  26  27
ATOM     27  N   UNL A   1      32.525  33.956  27.777  1.00  0.00    -0.352 N 
ATOM     28  C   UNL A   1      33.169  34.699  28.740  1.00  0.00     0.251 C 
ATOM     29  H   UNL A   1      31.709  34.358  27.401  1.00  0.00     0.163 HD
ATOM     30  O   UNL A   1      32.687  35.746  29.144  1.00  0.00    -0.269 OA
BRANCH  28  31
ATOM     31  C   UNL A   1      34.433  34.189  29.312  1.00  0.00     0.039 A 
ATOM     32  C   UNL A   1      34.384  33.446  30.493  1.00  0.00     0.014 A 
ATOM     33  C   UNL A   1      35.647  34.400  28.655  1.00  0.00     0.014 A 
ATOM     34  C   UNL A   1      35.549  32.850  30.979  1.00  0.00     0.010 A 
ATOM     35  C   UNL A   1      36.793  33.752  29.104  1.00  0.00     0.010 A 
ATOM     36  C   UNL A   1      36.754  32.967  30.267  1.00  0.00    -0.014 A 
BRANCH  36  37
ATOM     37  C   UNL A   1      37.982  32.266  30.714  1.00  0.00     0.031 A 
ATOM     38  C   UNL A   1      38.847  32.869  31.786  1.00  0.00     0.074 A 
ATOM     39  C   UNL A   1      38.360  31.126  30.104  1.00  0.00     0.049 A 
ATOM     40  N   UNL A   1      39.990  32.443  32.259  1.00  0.00    -0.248 NA
ATOM     41  C   UNL A   1      38.378  34.129  32.384  1.00  0.00     0.031 C 
ATOM     42  C   UNL A   1      37.633  30.461  29.021  1.00  0.00     0.029 A 
ATOM     43  N   UNL A   1      39.459  30.329  30.304  1.00  0.00    -0.354 N 
ATOM     44  C   UNL A   1      40.386  33.391  33.194  1.00  0.00     0.074 A 
ATOM     45  C   UNL A   1      39.385  34.436  33.189  1.00  0.00     0.031 C 
ATOM     46  C   UNL A   1      38.292  29.345  28.670  1.00  0.00     0.029 A 
ATOM     47  C   UNL A   1      39.504  29.235  29.475  1.00  0.00     0.049 A 
ATOM     48  H   UNL A   1      40.149  30.523  30.979  1.00  0.00     0.167 HD
ATOM     49  C   UNL A   1      41.475  33.385  34.000  1.00  0.00     0.031 A 
ATOM     50  C   UNL A   1      40.421  28.255  29.371  1.00  0.00     0.031 A 
ATOM     51  C   UNL A   1      42.462  32.340  34.018  1.00  0.00     0.049 A 
ATOM     52  C   UNL A   1      41.622  28.271  30.275  1.00  0.00     0.074 A 
ATOM     53  C   UNL A   1      43.568  32.214  34.840  1.00  0.00     0.029 A 
ATOM     54  N   UNL A   1      42.463  31.242  33.173  1.00  0.00    -0.354 N 
ATOM     55  N   UNL A   1      41.946  29.141  31.201  1.00  0.00    -0.248 NA
ATOM     56  C   UNL A   1      42.577  27.165  30.123  1.00  0.00     0.031 C 
ATOM     57  C   UNL A   1      44.263  31.060  34.464  1.00  0.00     0.029 A 
ATOM     58  C   UNL A   1      43.561  30.443  33.440  1.00  0.00     0.049 A 
ATOM     59  H   UNL A   1      41.783  31.058  32.485  1.00  0.00     0.167 HD
ATOM     60  C   UNL A   1      43.127  28.672  31.762  1.00  0.00     0.074 A 
ATOM     61  C   UNL A   1      43.454  27.436  31.082  1.00  0.00     0.031 C 
ATOM     62  C   UNL A   1      43.873  29.217  32.754  1.00  0.00     0.031 A 
BRANCH  49  63
ATOM     63  C   UNL A   1      41.651  34.554  34.926  1.00  0.00    -0.014 A 
ATOM     64  C   UNL A   1      42.403  35.676  34.545  1.00  0.00     0.009 A 
ATOM     65  C   UNL A   1      41.034  34.547  36.186  1.00  0.00     0.009 A 
ATOM     66  C   UNL A   1      42.567  36.750  35.422  1.00  0.00     0.001 A 
ATOM     67  C   UNL A   1      41.176  35.633  37.050  1.00  0.00     0.001 A 
ATOM     68  C   UNL A   1      41.950  36.729  36.672  1.00  0.00     0.000 A 
ENDBRANCH  49  63
BRANCH  50  69
ATOM     69  C   UNL A   1      40.232  27.160  28.385  1.00  0.00    -0.014 A 
ATOM     70  C   UNL A   1      39.509  26.009  28.735  1.00  0.00     0.009 A 
ATOM     71  C   UNL A   1      40.774  27.255  27.095  1.00  0.00     0.009 A 
ATOM     72  C   UNL A   1      39.354  24.965  27.820  1.00  0.00     0.001 A 
ATOM     73  C   UNL A   1      40.595  26.222  26.174  1.00  0.00     0.001 A 
ATOM     74  C   UNL A   1      39.894  25.074  26.540  1.00  0.00     0.000 A 
ENDBRANCH  50  69
BRANCH  62  75
ATOM     75  C   UNL A   1      45.098  28.461  33.184  1.00  0.00    -0.014 A 
ATOM     76  C   UNL A   1      46.350  28.713  32.603  1.00  0.00     0.009 A 
ATOM     77  C   UNL A   1      45.001  27.514  34.216  1.00  0.00     0.009 A 
ATOM     78  C   UNL A   1      47.477  28.006  33.026  1.00  0.00     0.001 A 
ATOM     79  C   UNL A   1      46.135  26.830  34.655  1.00  0.00     0.001 A 
ATOM     80  C   UNL A   1      47.371  27.071  34.055  1.00  0.00     0.000 A 
ENDBRANCH  62  75
ENDBRANCH  36  37
ENDBRANCH  28  31
ENDBRANCH  26  27
ENDBRANCH  25  26
ENDBRANCH   1  25
TORSDOF 14
ENDMDL
