MODEL 1
REMARK VINA RESULT:     -12.2      0.000      0.000
REMARK SMILES N#Cc1ccc(C(=O)N2CCC(Oc3ccccc3)(C(=O)NCCCCNC(=O)c3ccc(-c4c5nc(c(-c6ccccc6)c6ccc([nH]6)c(-c6ccccc6)c6nc(c(-c7ccccc7)c7ccc4[nH]7)C=C6)C=C5)cc3)CC2)cc1
REMARK SMILES IDX 24 1 23 2 22 3 20 4 21 5 12 7 7 8 8 9 9 10 10 11 79 12 11 13
REMARK SMILES IDX 78 14 6 15 3 16 4 17 81 18 5 19 80 20 2 21 1 22 13 23 14 24
REMARK SMILES IDX 15 25 19 26 16 27 18 28 17 29 25 30 26 31 27 32 28 33 29 35
REMARK SMILES IDX 30 36 31 37 77 38 32 39 76 40 33 41 34 42 35 43 70 44 36 45
REMARK SMILES IDX 75 46 69 47 71 48 37 49 74 50 68 51 67 52 38 54 60 55 45 56
REMARK SMILES IDX 59 57 46 58 49 59 58 60 72 61 47 62 48 63 57 65 73 66 50 67
REMARK SMILES IDX 39 68 40 69 44 70 41 71 43 72 42 73 61 74 62 75 66 76 63 77
REMARK SMILES IDX 65 78 64 79 51 80 52 81 56 82 53 83 55 84 54 85
REMARK H PARENT 22 6 27 34 71 53 49 64
REMARK Flexibility Score: inf
ROOT
ATOM      1  C   UNL A   1      31.826  30.414  26.716  1.00  0.00     0.023 C 
ENDROOT
BRANCH   1   2
ATOM      2  C   UNL A   1      31.400  29.764  25.403  1.00  0.00     0.116 C 
BRANCH   2   3
ATOM      3  N   UNL A   1      32.517  29.671  24.484  1.00  0.00    -0.353 N 
ATOM      4  C   UNL A   1      32.688  28.882  23.383  1.00  0.00     0.264 C 
ATOM      5  O   UNL A   1      33.743  29.044  22.763  1.00  0.00    -0.270 OA
ATOM      6  H   UNL A   1      33.271  30.270  24.685  1.00  0.00     0.163 HD
BRANCH   4   7
ATOM      7  C   UNL A   1      31.616  27.833  22.958  1.00  0.00     0.190 C 
ATOM      8  C   UNL A   1      32.429  24.144  24.798  1.00  0.00     0.253 C 
ATOM      9  O   UNL A   1      31.369  23.643  25.165  1.00  0.00    -0.269 OA
ATOM     10  N   UNL A   1      32.512  25.442  24.324  1.00  0.00    -0.338 N 
ATOM     11  C   UNL A   1      31.848  26.485  25.075  1.00  0.00     0.124 C 
ATOM     12  C   UNL A   1      33.202  25.816  23.091  1.00  0.00     0.124 C 
ATOM     13  C   UNL A   1      30.896  27.250  24.188  1.00  0.00     0.080 C 
ATOM     14  C   UNL A   1      32.313  26.683  22.187  1.00  0.00     0.080 C 
BRANCH   8  15
ATOM     15  C   UNL A   1      33.707  23.428  25.066  1.00  0.00     0.040 A 
ATOM     16  C   UNL A   1      36.282  22.353  25.349  1.00  0.00     0.052 A 
ATOM     17  C   UNL A   1      35.866  23.405  26.172  1.00  0.00     0.020 A 
ATOM     18  C   UNL A   1      35.408  21.834  24.390  1.00  0.00     0.020 A 
ATOM     19  C   UNL A   1      34.582  23.943  26.031  1.00  0.00     0.015 A 
ATOM     20  C   UNL A   1      34.131  22.376  24.243  1.00  0.00     0.015 A 
BRANCH  16  21
ATOM     21  C   UNL A   1      37.613  21.827  25.453  1.00  0.00     0.099 C 
ATOM     22  N   UNL A   1      38.680  21.385  25.537  1.00  0.00    -0.192 NA
ENDBRANCH  16  21
ENDBRANCH   8  15
BRANCH   7  23
ATOM     23  O   UNL A   1      30.786  28.632  22.074  1.00  0.00    -0.477 OA
BRANCH  23  24
ATOM     24  C   UNL A   1      29.629  29.161  22.560  1.00  0.00     0.120 A 
ATOM     25  C   UNL A   1      28.539  28.305  22.690  1.00  0.00     0.046 A 
ATOM     26  C   UNL A   1      29.465  30.528  22.778  1.00  0.00     0.046 A 
ATOM     27  C   UNL A   1      27.313  28.802  23.134  1.00  0.00     0.004 A 
ATOM     28  C   UNL A   1      28.250  31.022  23.252  1.00  0.00     0.004 A 
ATOM     29  C   UNL A   1      27.176  30.155  23.437  1.00  0.00     0.000 A 
ENDBRANCH  23  24
ENDBRANCH   7  23
ENDBRANCH   4   7
ENDBRANCH   2   3
ENDBRANCH   1   2
BRANCH   1  30
ATOM     30  C   UNL A   1      31.596  31.924  26.769  1.00  0.00     0.023 C 
BRANCH  30  31
ATOM     31  C   UNL A   1      32.837  32.742  27.097  1.00  0.00     0.116 C 
BRANCH  31  32
ATOM     32  N   UNL A   1      32.520  34.002  27.753  1.00  0.00    -0.352 N 
ATOM     33  C   UNL A   1      33.170  34.617  28.795  1.00  0.00     0.251 C 
ATOM     34  H   UNL A   1      31.733  34.477  27.402  1.00  0.00     0.163 HD
ATOM     35  O   UNL A   1      32.673  35.593  29.345  1.00  0.00    -0.269 OA
BRANCH  33  36
ATOM     36  C   UNL A   1      34.459  34.073  29.265  1.00  0.00     0.039 A 
ATOM     37  C   UNL A   1      34.474  33.232  30.379  1.00  0.00     0.014 A 
ATOM     38  C   UNL A   1      35.646  34.369  28.589  1.00  0.00     0.014 A 
ATOM     39  C   UNL A   1      35.673  32.639  30.777  1.00  0.00     0.010 A 
ATOM     40  C   UNL A   1      36.818  33.704  28.927  1.00  0.00     0.010 A 
ATOM     41  C   UNL A   1      36.848  32.840  30.031  1.00  0.00    -0.014 A 
BRANCH  41  42
ATOM     42  C   UNL A   1      38.119  32.168  30.401  1.00  0.00     0.031 A 
ATOM     43  C   UNL A   1      39.060  32.824  31.377  1.00  0.00     0.074 A 
ATOM     44  C   UNL A   1      38.451  30.995  29.828  1.00  0.00     0.049 A 
ATOM     45  N   UNL A   1      40.235  32.421  31.788  1.00  0.00    -0.248 NA
ATOM     46  C   UNL A   1      38.634  34.112  31.951  1.00  0.00     0.031 C 
ATOM     47  C   UNL A   1      37.641  30.268  28.848  1.00  0.00     0.029 A 
ATOM     48  N   UNL A   1      39.561  30.205  29.989  1.00  0.00    -0.354 N 
ATOM     49  C   UNL A   1      40.688  33.404  32.659  1.00  0.00     0.074 A 
ATOM     50  C   UNL A   1      39.695  34.454  32.666  1.00  0.00     0.031 C 
ATOM     51  C   UNL A   1      38.262  29.121  28.528  1.00  0.00     0.029 A 
ATOM     52  C   UNL A   1      39.537  29.057  29.233  1.00  0.00     0.049 A 
ATOM     53  H   UNL A   1      40.306  30.437  30.591  1.00  0.00     0.167 HD
ATOM     54  C   UNL A   1      41.814  33.421  33.409  1.00  0.00     0.031 A 
ATOM     55  C   UNL A   1      40.445  28.069  29.114  1.00  0.00     0.031 A 
ATOM     56  C   UNL A   1      42.807  32.379  33.400  1.00  0.00     0.049 A 
ATOM     57  C   UNL A   1      41.720  28.147  29.910  1.00  0.00     0.074 A 
ATOM     58  C   UNL A   1      43.969  32.291  34.145  1.00  0.00     0.029 A 
ATOM     59  N   UNL A   1      42.754  31.247  32.602  1.00  0.00    -0.354 N 
ATOM     60  N   UNL A   1      42.104  29.056  30.774  1.00  0.00    -0.248 NA
ATOM     61  C   UNL A   1      42.684  27.053  29.722  1.00  0.00     0.031 C 
ATOM     62  C   UNL A   1      44.654  31.139  33.749  1.00  0.00     0.029 A 
ATOM     63  C   UNL A   1      43.878  30.468  32.818  1.00  0.00     0.049 A 
ATOM     64  H   UNL A   1      42.027  31.030  31.976  1.00  0.00     0.167 HD
ATOM     65  C   UNL A   1      43.330  28.619  31.263  1.00  0.00     0.074 A 
ATOM     66  C   UNL A   1      43.615  27.358  30.612  1.00  0.00     0.031 C 
ATOM     67  C   UNL A   1      44.145  29.209  32.172  1.00  0.00     0.031 A 
BRANCH  54  68
ATOM     68  C   UNL A   1      42.038  34.610  34.303  1.00  0.00    -0.014 A 
ATOM     69  C   UNL A   1      41.626  34.598  35.647  1.00  0.00     0.009 A 
ATOM     70  C   UNL A   1      42.708  35.741  33.812  1.00  0.00     0.009 A 
ATOM     71  C   UNL A   1      41.852  35.705  36.468  1.00  0.00     0.001 A 
ATOM     72  C   UNL A   1      42.964  36.832  34.645  1.00  0.00     0.001 A 
ATOM     73  C   UNL A   1      42.528  36.817  35.968  1.00  0.00     0.000 A 
ENDBRANCH  54  68
BRANCH  55  74
ATOM     74  C   UNL A   1      40.195  26.913  28.208  1.00  0.00    -0.014 A 
ATOM     75  C   UNL A   1      39.453  25.806  28.649  1.00  0.00     0.009 A 
ATOM     76  C   UNL A   1      40.738  26.889  26.914  1.00  0.00     0.009 A 
ATOM     77  C   UNL A   1      39.304  24.681  27.835  1.00  0.00     0.001 A 
ATOM     78  C   UNL A   1      40.553  25.779  26.086  1.00  0.00     0.001 A 
ATOM     79  C   UNL A   1      39.852  24.670  26.554  1.00  0.00     0.000 A 
ENDBRANCH  55  74
BRANCH  67  80
ATOM     80  C   UNL A   1      45.394  28.467  32.565  1.00  0.00    -0.014 A 
ATOM     81  C   UNL A   1      45.399  27.527  33.607  1.00  0.00     0.009 A 
ATOM     82  C   UNL A   1      46.580  28.687  31.846  1.00  0.00     0.009 A 
ATOM     83  C   UNL A   1      46.577  26.857  33.950  1.00  0.00     0.001 A 
ATOM     84  C   UNL A   1      47.745  27.988  32.163  1.00  0.00     0.001 A 
ATOM     85  C   UNL A   1      47.746  27.083  33.222  1.00  0.00     0.000 A 
ENDBRANCH  67  80
ENDBRANCH  41  42
ENDBRANCH  33  36
ENDBRANCH  31  32
ENDBRANCH  30  31
ENDBRANCH   1  30
TORSDOF 15
ENDMDL
MODEL 2
REMARK VINA RESULT:     -12.0      1.366      5.808
REMARK SMILES N#Cc1ccc(C(=O)N2CCC(Oc3ccccc3)(C(=O)NCCCCNC(=O)c3ccc(-c4c5nc(c(-c6ccccc6)c6ccc([nH]6)c(-c6ccccc6)c6nc(c(-c7ccccc7)c7ccc4[nH]7)C=C6)C=C5)cc3)CC2)cc1
REMARK SMILES IDX 24 1 23 2 22 3 20 4 21 5 12 7 7 8 8 9 9 10 10 11 79 12 11 13
REMARK SMILES IDX 78 14 6 15 3 16 4 17 81 18 5 19 80 20 2 21 1 22 13 23 14 24
REMARK SMILES IDX 15 25 19 26 16 27 18 28 17 29 25 30 26 31 27 32 28 33 29 35
REMARK SMILES IDX 30 36 31 37 77 38 32 39 76 40 33 41 34 42 35 43 70 44 36 45
REMARK SMILES IDX 75 46 69 47 71 48 37 49 74 50 68 51 67 52 38 54 60 55 45 56
REMARK SMILES IDX 59 57 46 58 49 59 58 60 72 61 47 62 48 63 57 65 73 66 50 67
REMARK SMILES IDX 39 68 40 69 44 70 41 71 43 72 42 73 61 74 62 75 66 76 63 77
REMARK SMILES IDX 65 78 64 79 51 80 52 81 56 82 53 83 55 84 54 85
REMARK H PARENT 22 6 27 34 71 53 49 64
REMARK Flexibility Score: inf
ROOT
ATOM      1  C   UNL A   1      31.954  30.494  26.708  1.00  0.00     0.023 C 
ENDROOT
BRANCH   1   2
ATOM      2  C   UNL A   1      31.457  29.900  25.393  1.00  0.00     0.116 C 
BRANCH   2   3
ATOM      3  N   UNL A   1      32.548  29.735  24.454  1.00  0.00    -0.353 N 
ATOM      4  C   UNL A   1      32.664  28.905  23.376  1.00  0.00     0.264 C 
ATOM      5  O   UNL A   1      33.711  29.006  22.728  1.00  0.00    -0.270 OA
ATOM      6  H   UNL A   1      33.329  30.310  24.619  1.00  0.00     0.163 HD
BRANCH   4   7
ATOM      7  C   UNL A   1      31.544  27.886  23.008  1.00  0.00     0.190 C 
ATOM      8  C   UNL A   1      32.294  24.207  24.895  1.00  0.00     0.253 C 
ATOM      9  O   UNL A   1      31.231  23.750  25.307  1.00  0.00    -0.269 OA
ATOM     10  N   UNL A   1      32.404  25.492  24.392  1.00  0.00    -0.338 N 
ATOM     11  C   UNL A   1      31.801  26.571  25.143  1.00  0.00     0.124 C 
ATOM     12  C   UNL A   1      33.065  25.818  23.129  1.00  0.00     0.124 C 
ATOM     13  C   UNL A   1      30.846  27.351  24.272  1.00  0.00     0.080 C 
ATOM     14  C   UNL A   1      32.175  26.698  22.238  1.00  0.00     0.080 C 
BRANCH   8  15
ATOM     15  C   UNL A   1      33.556  23.453  25.135  1.00  0.00     0.040 A 
ATOM     16  C   UNL A   1      36.100  22.291  25.348  1.00  0.00     0.052 A 
ATOM     17  C   UNL A   1      35.759  23.387  26.148  1.00  0.00     0.020 A 
ATOM     18  C   UNL A   1      35.165  21.771  24.448  1.00  0.00     0.020 A 
ATOM     19  C   UNL A   1      34.491  23.968  26.041  1.00  0.00     0.015 A 
ATOM     20  C   UNL A   1      33.904  22.357  24.335  1.00  0.00     0.015 A 
BRANCH  16  21
ATOM     21  C   UNL A   1      37.413  21.719  25.415  1.00  0.00     0.099 C 
ATOM     22  N   UNL A   1      38.480  21.272  25.461  1.00  0.00    -0.192 NA
ENDBRANCH  16  21
ENDBRANCH   8  15
BRANCH   7  23
ATOM     23  O   UNL A   1      30.712  28.696  22.136  1.00  0.00    -0.477 OA
BRANCH  23  24
ATOM     24  C   UNL A   1      29.551  29.210  22.627  1.00  0.00     0.120 A 
ATOM     25  C   UNL A   1      28.457  28.352  22.713  1.00  0.00     0.046 A 
ATOM     26  C   UNL A   1      29.387  30.568  22.894  1.00  0.00     0.046 A 
ATOM     27  C   UNL A   1      27.227  28.835  23.160  1.00  0.00     0.004 A 
ATOM     28  C   UNL A   1      28.168  31.047  23.372  1.00  0.00     0.004 A 
ATOM     29  C   UNL A   1      27.089  30.176  23.512  1.00  0.00     0.000 A 
ENDBRANCH  23  24
ENDBRANCH   7  23
ENDBRANCH   4   7
ENDBRANCH   2   3
ENDBRANCH   1   2
BRANCH   1  30
ATOM     30  C   UNL A   1      31.663  31.985  26.869  1.00  0.00     0.023 C 
BRANCH  30  31
ATOM     31  C   UNL A   1      32.879  32.833  27.214  1.00  0.00     0.116 C 
BRANCH  31  32
ATOM     32  N   UNL A   1      32.525  34.186  27.614  1.00  0.00    -0.352 N 
ATOM     33  C   UNL A   1      33.050  34.951  28.626  1.00  0.00     0.251 C 
ATOM     34  H   UNL A   1      31.809  34.610  27.087  1.00  0.00     0.163 HD
ATOM     35  O   UNL A   1      32.521  36.009  28.942  1.00  0.00    -0.269 OA
BRANCH  33  36
ATOM     36  C   UNL A   1      34.244  34.469  29.350  1.00  0.00     0.039 A 
ATOM     37  C   UNL A   1      34.082  33.864  30.597  1.00  0.00     0.014 A 
ATOM     38  C   UNL A   1      35.516  34.590  28.784  1.00  0.00     0.014 A 
ATOM     39  C   UNL A   1      35.192  33.324  31.248  1.00  0.00     0.010 A 
ATOM     40  C   UNL A   1      36.602  33.968  29.388  1.00  0.00     0.010 A 
ATOM     41  C   UNL A   1      36.455  33.337  30.632  1.00  0.00    -0.014 A 
BRANCH  41  42
ATOM     42  C   UNL A   1      37.635  32.713  31.280  1.00  0.00     0.031 A 
ATOM     43  C   UNL A   1      38.288  31.509  30.654  1.00  0.00     0.074 A 
ATOM     44  C   UNL A   1      38.093  33.196  32.452  1.00  0.00     0.049 A 
ATOM     45  N   UNL A   1      39.294  30.795  31.092  1.00  0.00    -0.248 NA
ATOM     46  C   UNL A   1      37.724  31.031  29.381  1.00  0.00     0.031 C 
ATOM     47  C   UNL A   1      37.534  34.340  33.176  1.00  0.00     0.029 A 
ATOM     48  N   UNL A   1      39.136  32.784  33.242  1.00  0.00    -0.354 N 
ATOM     49  C   UNL A   1      39.477  29.787  30.154  1.00  0.00     0.074 A 
ATOM     50  C   UNL A   1      38.439  29.937  29.160  1.00  0.00     0.031 C 
ATOM     51  C   UNL A   1      38.265  34.561  34.281  1.00  0.00     0.029 A 
ATOM     52  C   UNL A   1      39.307  33.545  34.374  1.00  0.00     0.049 A 
ATOM     53  H   UNL A   1      39.710  32.015  33.018  1.00  0.00     0.167 HD
ATOM     54  C   UNL A   1      40.440  28.836  30.106  1.00  0.00     0.031 A 
ATOM     55  C   UNL A   1      40.197  33.431  35.378  1.00  0.00     0.031 A 
ATOM     56  C   UNL A   1      41.472  28.681  31.096  1.00  0.00     0.049 A 
ATOM     57  C   UNL A   1      41.215  32.323  35.331  1.00  0.00     0.074 A 
ATOM     58  C   UNL A   1      42.510  27.766  31.122  1.00  0.00     0.029 A 
ATOM     59  N   UNL A   1      41.593  29.458  32.238  1.00  0.00    -0.354 N 
ATOM     60  N   UNL A   1      41.410  31.414  34.406  1.00  0.00    -0.248 NA
ATOM     61  C   UNL A   1      42.145  32.233  36.466  1.00  0.00     0.031 C 
ATOM     62  C   UNL A   1      43.219  27.945  32.312  1.00  0.00     0.029 A 
ATOM     63  C   UNL A   1      42.674  29.025  32.987  1.00  0.00     0.049 A 
ATOM     64  H   UNL A   1      41.000  30.205  32.478  1.00  0.00     0.167 HD
ATOM     65  C   UNL A   1      42.510  30.676  34.827  1.00  0.00     0.074 A 
ATOM     66  C   UNL A   1      42.949  31.254  36.079  1.00  0.00     0.031 C 
ATOM     67  C   UNL A   1      43.106  29.615  34.227  1.00  0.00     0.031 A 
BRANCH  54  68
ATOM     68  C   UNL A   1      40.420  27.883  28.941  1.00  0.00    -0.014 A 
ATOM     69  C   UNL A   1      39.677  26.692  28.989  1.00  0.00     0.009 A 
ATOM     70  C   UNL A   1      41.114  28.201  27.763  1.00  0.00     0.009 A 
ATOM     71  C   UNL A   1      39.658  25.823  27.895  1.00  0.00     0.001 A 
ATOM     72  C   UNL A   1      41.064  27.348  26.659  1.00  0.00     0.001 A 
ATOM     73  C   UNL A   1      40.345  26.157  26.729  1.00  0.00     0.000 A 
ENDBRANCH  54  68
BRANCH  55  74
ATOM     74  C   UNL A   1      40.178  34.385  36.521  1.00  0.00    -0.014 A 
ATOM     75  C   UNL A   1      39.427  34.106  37.674  1.00  0.00     0.009 A 
ATOM     76  C   UNL A   1      40.871  35.604  36.447  1.00  0.00     0.009 A 
ATOM     77  C   UNL A   1      39.329  35.045  38.703  1.00  0.00     0.001 A 
ATOM     78  C   UNL A   1      40.804  36.525  37.495  1.00  0.00     0.001 A 
ATOM     79  C   UNL A   1      40.019  36.252  38.614  1.00  0.00     0.000 A 
ENDBRANCH  55  74
BRANCH  67  80
ATOM     80  C   UNL A   1      44.336  29.050  34.885  1.00  0.00    -0.014 A 
ATOM     81  C   UNL A   1      45.620  29.538  34.597  1.00  0.00     0.009 A 
ATOM     82  C   UNL A   1      44.197  28.035  35.846  1.00  0.00     0.009 A 
ATOM     83  C   UNL A   1      46.742  28.989  35.223  1.00  0.00     0.001 A 
ATOM     84  C   UNL A   1      45.315  27.516  36.499  1.00  0.00     0.001 A 
ATOM     85  C   UNL A   1      46.587  27.984  36.178  1.00  0.00     0.000 A 
ENDBRANCH  67  80
ENDBRANCH  41  42
ENDBRANCH  33  36
ENDBRANCH  31  32
ENDBRANCH  30  31
ENDBRANCH   1  30
TORSDOF 15
ENDMDL
MODEL 3
REMARK VINA RESULT:     -10.9      1.687      6.012
REMARK SMILES N#Cc1ccc(C(=O)N2CCC(Oc3ccccc3)(C(=O)NCCCCNC(=O)c3ccc(-c4c5nc(c(-c6ccccc6)c6ccc([nH]6)c(-c6ccccc6)c6nc(c(-c7ccccc7)c7ccc4[nH]7)C=C6)C=C5)cc3)CC2)cc1
REMARK SMILES IDX 24 1 23 2 22 3 20 4 21 5 12 7 7 8 8 9 9 10 10 11 79 12 11 13
REMARK SMILES IDX 78 14 6 15 3 16 4 17 81 18 5 19 80 20 2 21 1 22 13 23 14 24
REMARK SMILES IDX 15 25 19 26 16 27 18 28 17 29 25 30 26 31 27 32 28 33 29 35
REMARK SMILES IDX 30 36 31 37 77 38 32 39 76 40 33 41 34 42 35 43 70 44 36 45
REMARK SMILES IDX 75 46 69 47 71 48 37 49 74 50 68 51 67 52 38 54 60 55 45 56
REMARK SMILES IDX 59 57 46 58 49 59 58 60 72 61 47 62 48 63 57 65 73 66 50 67
REMARK SMILES IDX 39 68 40 69 44 70 41 71 43 72 42 73 61 74 62 75 66 76 63 77
REMARK SMILES IDX 65 78 64 79 51 80 52 81 56 82 53 83 55 84 54 85
REMARK H PARENT 22 6 27 34 71 53 49 64
REMARK Flexibility Score: inf
ROOT
ATOM      1  C   UNL A   1      33.158  31.639  27.623  1.00  0.00     0.023 C 
ENDROOT
BRANCH   1   2
ATOM      2  C   UNL A   1      33.557  30.240  27.162  1.00  0.00     0.116 C 
BRANCH   2   3
ATOM      3  N   UNL A   1      32.614  29.249  27.640  1.00  0.00    -0.353 N 
ATOM      4  C   UNL A   1      31.805  28.397  26.945  1.00  0.00     0.264 C 
ATOM      5  O   UNL A   1      31.121  27.627  27.626  1.00  0.00    -0.270 OA
ATOM      6  H   UNL A   1      32.546  29.178  28.619  1.00  0.00     0.163 HD
BRANCH   4   7
ATOM      7  C   UNL A   1      31.744  28.419  25.387  1.00  0.00     0.190 C 
ATOM      8  C   UNL A   1      33.236  24.801  23.855  1.00  0.00     0.253 C 
ATOM      9  O   UNL A   1      32.532  24.452  22.911  1.00  0.00    -0.269 OA
ATOM     10  N   UNL A   1      32.895  25.856  24.685  1.00  0.00    -0.338 N 
ATOM     11  C   UNL A   1      31.540  25.914  25.189  1.00  0.00     0.124 C 
ATOM     12  C   UNL A   1      33.813  26.931  25.055  1.00  0.00     0.124 C 
ATOM     13  C   UNL A   1      30.908  27.243  24.850  1.00  0.00     0.080 C 
ATOM     14  C   UNL A   1      33.185  28.313  24.824  1.00  0.00     0.080 C 
BRANCH   8  15
ATOM     15  C   UNL A   1      34.382  23.945  24.270  1.00  0.00     0.040 A 
ATOM     16  C   UNL A   1      36.734  22.664  25.103  1.00  0.00     0.052 A 
ATOM     17  C   UNL A   1      35.825  23.148  26.050  1.00  0.00     0.020 A 
ATOM     18  C   UNL A   1      36.463  22.813  23.740  1.00  0.00     0.020 A 
ATOM     19  C   UNL A   1      34.652  23.789  25.635  1.00  0.00     0.015 A 
ATOM     20  C   UNL A   1      35.298  23.460  23.326  1.00  0.00     0.015 A 
BRANCH  16  21
ATOM     21  C   UNL A   1      37.962  22.050  25.518  1.00  0.00     0.099 C 
ATOM     22  N   UNL A   1      38.961  21.561  25.838  1.00  0.00    -0.192 NA
ENDBRANCH  16  21
ENDBRANCH   8  15
BRANCH   7  23
ATOM     23  O   UNL A   1      31.183  29.737  25.153  1.00  0.00    -0.477 OA
BRANCH  23  24
ATOM     24  C   UNL A   1      30.458  29.951  24.021  1.00  0.00     0.120 A 
ATOM     25  C   UNL A   1      29.346  30.784  24.121  1.00  0.00     0.046 A 
ATOM     26  C   UNL A   1      30.699  29.258  22.836  1.00  0.00     0.046 A 
ATOM     27  C   UNL A   1      28.535  31.000  23.006  1.00  0.00     0.004 A 
ATOM     28  C   UNL A   1      29.909  29.496  21.711  1.00  0.00     0.004 A 
ATOM     29  C   UNL A   1      28.831  30.375  21.796  1.00  0.00     0.000 A 
ENDBRANCH  23  24
ENDBRANCH   7  23
ENDBRANCH   4   7
ENDBRANCH   2   3
ENDBRANCH   1   2
BRANCH   1  30
ATOM     30  C   UNL A   1      34.330  32.501  28.088  1.00  0.00     0.023 C 
BRANCH  30  31
ATOM     31  C   UNL A   1      34.077  34.001  28.027  1.00  0.00     0.116 C 
BRANCH  31  32
ATOM     32  N   UNL A   1      33.609  34.543  29.294  1.00  0.00    -0.352 N 
ATOM     33  C   UNL A   1      34.066  34.285  30.562  1.00  0.00     0.251 C 
ATOM     34  H   UNL A   1      32.863  35.182  29.232  1.00  0.00     0.163 HD
ATOM     35  O   UNL A   1      33.450  34.694  31.539  1.00  0.00    -0.269 OA
BRANCH  33  36
ATOM     36  C   UNL A   1      35.294  33.483  30.739  1.00  0.00     0.039 A 
ATOM     37  C   UNL A   1      36.508  33.992  30.271  1.00  0.00     0.014 A 
ATOM     38  C   UNL A   1      35.250  32.248  31.390  1.00  0.00     0.014 A 
ATOM     39  C   UNL A   1      37.687  33.286  30.513  1.00  0.00     0.010 A 
ATOM     40  C   UNL A   1      36.434  31.595  31.713  1.00  0.00     0.010 A 
ATOM     41  C   UNL A   1      37.665  32.101  31.270  1.00  0.00    -0.014 A 
BRANCH  41  42
ATOM     42  C   UNL A   1      38.915  31.369  31.591  1.00  0.00     0.031 A 
ATOM     43  C   UNL A   1      39.359  30.221  30.725  1.00  0.00     0.074 A 
ATOM     44  C   UNL A   1      39.628  31.704  32.685  1.00  0.00     0.049 A 
ATOM     45  N   UNL A   1      40.391  29.429  30.869  1.00  0.00    -0.248 NA
ATOM     46  C   UNL A   1      38.521  29.905  29.555  1.00  0.00     0.031 C 
ATOM     47  C   UNL A   1      39.293  32.779  33.622  1.00  0.00     0.029 A 
ATOM     48  N   UNL A   1      40.786  31.172  33.194  1.00  0.00    -0.354 N 
ATOM     49  C   UNL A   1      40.323  28.525  29.816  1.00  0.00     0.074 A 
ATOM     50  C   UNL A   1      39.114  28.819  29.081  1.00  0.00     0.031 C 
ATOM     51  C   UNL A   1      40.246  32.853  34.566  1.00  0.00     0.029 A 
ATOM     52  C   UNL A   1      41.226  31.797  34.337  1.00  0.00     0.049 A 
ATOM     53  H   UNL A   1      41.259  30.414  32.779  1.00  0.00     0.167 HD
ATOM     54  C   UNL A   1      41.201  27.554  29.473  1.00  0.00     0.031 A 
ATOM     55  C   UNL A   1      42.294  31.543  35.116  1.00  0.00     0.031 A 
ATOM     56  C   UNL A   1      42.403  27.255  30.205  1.00  0.00     0.049 A 
ATOM     57  C   UNL A   1      43.217  30.413  34.747  1.00  0.00     0.074 A 
ATOM     58  C   UNL A   1      43.371  26.308  29.921  1.00  0.00     0.029 A 
ATOM     59  N   UNL A   1      42.797  27.897  31.369  1.00  0.00    -0.354 N 
ATOM     60  N   UNL A   1      43.169  29.606  33.715  1.00  0.00    -0.248 NA
ATOM     61  C   UNL A   1      44.353  30.167  35.648  1.00  0.00     0.031 C 
ATOM     62  C   UNL A   1      44.317  26.331  30.949  1.00  0.00     0.029 A 
ATOM     63  C   UNL A   1      43.982  27.347  31.829  1.00  0.00     0.049 A 
ATOM     64  H   UNL A   1      42.308  28.632  31.802  1.00  0.00     0.167 HD
ATOM     65  C   UNL A   1      44.289  28.789  33.819  1.00  0.00     0.074 A 
ATOM     66  C   UNL A   1      45.004  29.210  35.005  1.00  0.00     0.031 C 
ATOM     67  C   UNL A   1      44.690  27.782  33.005  1.00  0.00     0.031 A 
BRANCH  54  68
ATOM     68  C   UNL A   1      40.891  26.737  28.248  1.00  0.00    -0.014 A 
ATOM     69  C   UNL A   1      41.448  27.057  26.998  1.00  0.00     0.009 A 
ATOM     70  C   UNL A   1      40.068  25.604  28.350  1.00  0.00     0.009 A 
ATOM     71  C   UNL A   1      41.161  26.282  25.873  1.00  0.00     0.001 A 
ATOM     72  C   UNL A   1      39.811  24.809  27.231  1.00  0.00     0.001 A 
ATOM     73  C   UNL A   1      40.349  25.154  25.993  1.00  0.00     0.000 A 
ENDBRANCH  54  68
BRANCH  55  74
ATOM     74  C   UNL A   1      42.561  32.366  36.329  1.00  0.00    -0.014 A 
ATOM     75  C   UNL A   1      42.021  32.003  37.573  1.00  0.00     0.009 A 
ATOM     76  C   UNL A   1      43.318  33.545  36.241  1.00  0.00     0.009 A 
ATOM     77  C   UNL A   1      42.189  32.827  38.688  1.00  0.00     0.001 A 
ATOM     78  C   UNL A   1      43.518  34.347  37.367  1.00  0.00     0.001 A 
ATOM     79  C   UNL A   1      42.938  33.997  38.585  1.00  0.00     0.000 A 
ENDBRANCH  55  74
BRANCH  67  80
ATOM     80  C   UNL A   1      45.994  27.106  33.332  1.00  0.00    -0.014 A 
ATOM     81  C   UNL A   1      47.221  27.595  32.856  1.00  0.00     0.009 A 
ATOM     82  C   UNL A   1      45.994  25.979  34.169  1.00  0.00     0.009 A 
ATOM     83  C   UNL A   1      48.414  26.943  33.175  1.00  0.00     0.001 A 
ATOM     84  C   UNL A   1      47.190  25.352  34.519  1.00  0.00     0.001 A 
ATOM     85  C   UNL A   1      48.397  25.826  34.012  1.00  0.00     0.000 A 
ENDBRANCH  67  80
ENDBRANCH  41  42
ENDBRANCH  33  36
ENDBRANCH  31  32
ENDBRANCH  30  31
ENDBRANCH   1  30
TORSDOF 15
ENDMDL
