MODEL 1
REMARK VINA RESULT:     -12.2      0.000      0.000
REMARK SMILES Cc1cccc(OCC(=O)Nc2cc(C(=O)NCCCCNC(=O)c3ccc(-c4c5nc(c(-c6ccccc6)c6ccc([nH]6)c(-c6ccccc6)c6nc(c(-c7ccccc7)c7ccc4[nH]7)C=C6)C=C5)cc3)c(Cl)cc2Cl)c1
REMARK SMILES IDX 18 1 17 2 15 3 16 4 14 6 12 7 13 8 76 9 75 10 77 11 73 12
REMARK SMILES IDX 74 13 11 14 9 15 10 16 8 18 7 19 6 20 1 21 2 22 3 23 78 24
REMARK SMILES IDX 4 25 5 26 19 27 20 28 21 29 22 30 23 31 24 33 25 34 26 35
REMARK SMILES IDX 72 36 27 37 71 38 28 39 29 40 30 41 65 42 31 43 70 44 64 45
REMARK SMILES IDX 66 46 32 47 69 48 63 49 62 50 33 52 55 53 40 54 54 55 41 56
REMARK SMILES IDX 44 57 53 58 67 59 42 60 43 61 52 63 68 64 45 65 34 66 35 67
REMARK SMILES IDX 39 68 36 69 38 70 37 71 56 72 57 73 61 74 58 75 60 76 59 77
REMARK SMILES IDX 46 78 47 79 51 80 48 81 50 82 49 83
REMARK H PARENT 17 5 11 17 22 32 66 51 44 62
REMARK Flexibility Score: inf
ROOT
ATOM      1  C   UNL A   1      34.140  28.998  26.059  1.00  0.00     0.116 C 
ENDROOT
BRANCH   1   2
ATOM      2  N   UNL A   1      33.068  29.812  25.529  1.00  0.00    -0.352 N 
ATOM      3  C   UNL A   1      31.815  29.430  25.098  1.00  0.00     0.252 C 
ATOM      4  O   UNL A   1      30.945  30.290  24.983  1.00  0.00    -0.269 OA
ATOM      5  H   UNL A   1      33.261  30.775  25.465  1.00  0.00     0.163 HD
BRANCH   3   6
ATOM      6  C   UNL A   1      31.493  28.020  24.734  1.00  0.00     0.060 A 
ATOM      7  C   UNL A   1      30.597  25.817  25.312  1.00  0.00     0.061 A 
ATOM      8  C   UNL A   1      30.830  27.157  25.640  1.00  0.00     0.043 A 
ATOM      9  C   UNL A   1      30.940  25.383  24.012  1.00  0.00     0.066 A 
ATOM     10  C   UNL A   1      31.520  26.244  23.084  1.00  0.00     0.044 A 
ATOM     11  Cl  UNL A   1      30.653  23.746  23.510  1.00  0.00    -0.082 Cl
ATOM     12  C   UNL A   1      31.817  27.556  23.448  1.00  0.00     0.055 A 
ATOM     13  Cl  UNL A   1      32.635  28.513  22.261  1.00  0.00    -0.083 Cl
BRANCH   7  14
ATOM     14  N   UNL A   1      30.102  24.827  26.188  1.00  0.00    -0.322 N 
ATOM     15  C   UNL A   1      30.582  23.728  26.826  1.00  0.00     0.262 C 
ATOM     16  O   UNL A   1      29.759  23.049  27.455  1.00  0.00    -0.271 OA
ATOM     17  H   UNL A   1      29.150  24.973  26.392  1.00  0.00     0.170 HD
BRANCH  15  18
ATOM     18  C   UNL A   1      32.058  23.357  26.878  1.00  0.00     0.329 C 
BRANCH  18  19
ATOM     19  O   UNL A   1      32.535  22.379  25.975  1.00  0.00    -0.484 OA
BRANCH  19  20
ATOM     20  C   UNL A   1      33.880  22.243  25.787  1.00  0.00     0.120 A 
ATOM     21  C   UNL A   1      37.332  23.820  26.050  1.00  0.00     0.044 C 
ATOM     22  C   UNL A   1      36.235  22.819  25.853  1.00  0.00    -0.047 A 
ATOM     23  C   UNL A   1      36.564  21.567  25.318  1.00  0.00     0.003 A 
ATOM     24  C   UNL A   1      34.887  23.146  26.109  1.00  0.00     0.049 A 
ATOM     25  C   UNL A   1      35.561  20.680  24.974  1.00  0.00     0.004 A 
ATOM     26  C   UNL A   1      34.238  21.048  25.169  1.00  0.00     0.046 A 
ENDBRANCH  19  20
ENDBRANCH  18  19
ENDBRANCH  15  18
ENDBRANCH   7  14
ENDBRANCH   3   6
ENDBRANCH   1   2
BRANCH   1  27
ATOM     27  C   UNL A   1      34.294  28.977  27.584  1.00  0.00     0.023 C 
BRANCH  27  28
ATOM     28  C   UNL A   1      35.065  30.123  28.248  1.00  0.00     0.023 C 
BRANCH  28  29
ATOM     29  C   UNL A   1      35.004  31.511  27.598  1.00  0.00     0.116 C 
BRANCH  29  30
ATOM     30  N   UNL A   1      34.026  32.439  28.173  1.00  0.00    -0.352 N 
ATOM     31  C   UNL A   1      34.202  33.410  29.162  1.00  0.00     0.251 C 
ATOM     32  H   UNL A   1      33.113  32.369  27.810  1.00  0.00     0.163 HD
ATOM     33  O   UNL A   1      33.323  34.202  29.426  1.00  0.00    -0.269 OA
BRANCH  31  34
ATOM     34  C   UNL A   1      35.528  33.519  29.826  1.00  0.00     0.039 A 
ATOM     35  C   UNL A   1      36.601  34.068  29.116  1.00  0.00     0.014 A 
ATOM     36  C   UNL A   1      35.742  32.869  31.033  1.00  0.00     0.014 A 
ATOM     37  C   UNL A   1      37.898  33.698  29.468  1.00  0.00     0.010 A 
ATOM     38  C   UNL A   1      37.008  32.388  31.297  1.00  0.00     0.010 A 
ATOM     39  C   UNL A   1      38.077  32.741  30.466  1.00  0.00    -0.014 A 
BRANCH  39  40
ATOM     40  C   UNL A   1      39.272  31.906  30.567  1.00  0.00     0.031 A 
ATOM     41  C   UNL A   1      39.373  30.614  29.858  1.00  0.00     0.074 A 
ATOM     42  C   UNL A   1      40.350  32.396  31.220  1.00  0.00     0.049 A 
ATOM     43  N   UNL A   1      40.227  29.687  30.147  1.00  0.00    -0.248 NA
ATOM     44  C   UNL A   1      38.456  30.234  28.790  1.00  0.00     0.031 C 
ATOM     45  C   UNL A   1      41.736  31.939  31.141  1.00  0.00     0.029 A 
ATOM     46  N   UNL A   1      40.352  33.301  32.278  1.00  0.00    -0.354 N 
ATOM     47  C   UNL A   1      40.180  28.755  29.136  1.00  0.00     0.074 A 
ATOM     48  C   UNL A   1      38.996  29.085  28.379  1.00  0.00     0.031 C 
ATOM     49  C   UNL A   1      42.404  32.385  32.217  1.00  0.00     0.029 A 
ATOM     50  C   UNL A   1      41.423  32.974  33.117  1.00  0.00     0.049 A 
ATOM     51  H   UNL A   1      39.714  34.039  32.411  1.00  0.00     0.167 HD
ATOM     52  C   UNL A   1      41.229  27.901  28.959  1.00  0.00     0.031 A 
ATOM     53  C   UNL A   1      41.206  32.547  34.397  1.00  0.00     0.031 A 
ATOM     54  C   UNL A   1      42.214  28.015  30.036  1.00  0.00     0.049 A 
ATOM     55  C   UNL A   1      41.744  31.162  34.691  1.00  0.00     0.074 A 
ATOM     56  C   UNL A   1      43.459  28.620  30.119  1.00  0.00     0.029 A 
ATOM     57  N   UNL A   1      41.844  27.698  31.337  1.00  0.00    -0.354 N 
ATOM     58  N   UNL A   1      42.018  30.271  33.780  1.00  0.00    -0.248 NA
ATOM     59  C   UNL A   1      41.940  30.658  36.047  1.00  0.00     0.031 C 
ATOM     60  C   UNL A   1      43.808  28.717  31.491  1.00  0.00     0.029 A 
ATOM     61  C   UNL A   1      42.789  28.151  32.237  1.00  0.00     0.049 A 
ATOM     62  H   UNL A   1      41.022  27.215  31.584  1.00  0.00     0.167 HD
ATOM     63  C   UNL A   1      42.362  29.092  34.389  1.00  0.00     0.074 A 
ATOM     64  C   UNL A   1      42.330  29.395  35.807  1.00  0.00     0.031 C 
ATOM     65  C   UNL A   1      42.600  27.956  33.670  1.00  0.00     0.031 A 
BRANCH  52  66
ATOM     66  C   UNL A   1      41.508  27.189  27.649  1.00  0.00    -0.014 A 
ATOM     67  C   UNL A   1      41.110  25.848  27.490  1.00  0.00     0.009 A 
ATOM     68  C   UNL A   1      42.224  27.737  26.572  1.00  0.00     0.009 A 
ATOM     69  C   UNL A   1      41.496  25.078  26.383  1.00  0.00     0.001 A 
ATOM     70  C   UNL A   1      42.645  26.968  25.477  1.00  0.00     0.001 A 
ATOM     71  C   UNL A   1      42.293  25.631  25.390  1.00  0.00     0.000 A 
ENDBRANCH  52  66
BRANCH  53  72
ATOM     72  C   UNL A   1      39.953  33.064  35.018  1.00  0.00    -0.014 A 
ATOM     73  C   UNL A   1      38.779  32.292  34.941  1.00  0.00     0.009 A 
ATOM     74  C   UNL A   1      39.990  34.130  35.928  1.00  0.00     0.009 A 
ATOM     75  C   UNL A   1      37.713  32.520  35.816  1.00  0.00     0.001 A 
ATOM     76  C   UNL A   1      38.914  34.365  36.792  1.00  0.00     0.001 A 
ATOM     77  C   UNL A   1      37.791  33.541  36.758  1.00  0.00     0.000 A 
ENDBRANCH  53  72
BRANCH  65  78
ATOM     78  C   UNL A   1      42.721  26.559  34.232  1.00  0.00    -0.014 A 
ATOM     79  C   UNL A   1      41.771  25.956  35.068  1.00  0.00     0.009 A 
ATOM     80  C   UNL A   1      43.786  25.739  33.798  1.00  0.00     0.009 A 
ATOM     81  C   UNL A   1      41.903  24.624  35.487  1.00  0.00     0.001 A 
ATOM     82  C   UNL A   1      43.897  24.398  34.172  1.00  0.00     0.001 A 
ATOM     83  C   UNL A   1      42.959  23.842  35.030  1.00  0.00     0.000 A 
ENDBRANCH  65  78
ENDBRANCH  39  40
ENDBRANCH  31  34
ENDBRANCH  29  30
ENDBRANCH  28  29
ENDBRANCH  27  28
ENDBRANCH   1  27
TORSDOF 15
ENDMDL
MODEL 2
REMARK VINA RESULT:     -12.2      1.781      2.817
REMARK SMILES Cc1cccc(OCC(=O)Nc2cc(C(=O)NCCCCNC(=O)c3ccc(-c4c5nc(c(-c6ccccc6)c6ccc([nH]6)c(-c6ccccc6)c6nc(c(-c7ccccc7)c7ccc4[nH]7)C=C6)C=C5)cc3)c(Cl)cc2Cl)c1
REMARK SMILES IDX 18 1 17 2 15 3 16 4 14 6 12 7 13 8 76 9 75 10 77 11 73 12
REMARK SMILES IDX 74 13 11 14 9 15 10 16 8 18 7 19 6 20 1 21 2 22 3 23 78 24
REMARK SMILES IDX 4 25 5 26 19 27 20 28 21 29 22 30 23 31 24 33 25 34 26 35
REMARK SMILES IDX 72 36 27 37 71 38 28 39 29 40 30 41 65 42 31 43 70 44 64 45
REMARK SMILES IDX 66 46 32 47 69 48 63 49 62 50 33 52 55 53 40 54 54 55 41 56
REMARK SMILES IDX 44 57 53 58 67 59 42 60 43 61 52 63 68 64 45 65 34 66 35 67
REMARK SMILES IDX 39 68 36 69 38 70 37 71 56 72 57 73 61 74 58 75 60 76 59 77
REMARK SMILES IDX 46 78 47 79 51 80 48 81 50 82 49 83
REMARK H PARENT 17 5 11 17 22 32 66 51 44 62
REMARK Flexibility Score: inf
ROOT
ATOM      1  C   UNL A   1      31.940  27.740  26.144  1.00  0.00     0.116 C 
ENDROOT
BRANCH   1   2
ATOM      2  N   UNL A   1      31.170  26.590  26.567  1.00  0.00    -0.352 N 
ATOM      3  C   UNL A   1      31.477  25.249  26.463  1.00  0.00     0.252 C 
ATOM      4  O   UNL A   1      30.854  24.448  27.156  1.00  0.00    -0.269 OA
ATOM      5  H   UNL A   1      30.304  26.794  26.987  1.00  0.00     0.163 HD
BRANCH   3   6
ATOM      6  C   UNL A   1      32.510  24.740  25.517  1.00  0.00     0.060 A 
ATOM      7  C   UNL A   1      34.777  23.939  25.058  1.00  0.00     0.061 A 
ATOM      8  C   UNL A   1      33.795  24.349  25.967  1.00  0.00     0.043 A 
ATOM      9  C   UNL A   1      34.415  23.819  23.698  1.00  0.00     0.066 A 
ATOM     10  C   UNL A   1      33.131  24.124  23.255  1.00  0.00     0.044 A 
ATOM     11  Cl  UNL A   1      35.562  23.284  22.510  1.00  0.00    -0.082 Cl
ATOM     12  C   UNL A   1      32.183  24.605  24.157  1.00  0.00     0.055 A 
ATOM     13  Cl  UNL A   1      30.653  25.059  23.489  1.00  0.00    -0.083 Cl
BRANCH   7  14
ATOM     14  N   UNL A   1      36.132  23.689  25.365  1.00  0.00    -0.322 N 
ATOM     15  C   UNL A   1      36.922  22.608  25.592  1.00  0.00     0.262 C 
ATOM     16  O   UNL A   1      38.090  22.837  25.937  1.00  0.00    -0.271 OA
ATOM     17  H   UNL A   1      36.644  24.527  25.432  1.00  0.00     0.170 HD
BRANCH  15  18
ATOM     18  C   UNL A   1      36.476  21.171  25.360  1.00  0.00     0.329 C 
BRANCH  18  19
ATOM     19  O   UNL A   1      35.176  20.797  25.774  1.00  0.00    -0.484 OA
BRANCH  19  20
ATOM     20  C   UNL A   1      34.437  19.964  24.985  1.00  0.00     0.120 A 
ATOM     21  C   UNL A   1      34.130  16.556  23.323  1.00  0.00     0.044 C 
ATOM     22  C   UNL A   1      33.806  17.930  23.826  1.00  0.00    -0.047 A 
ATOM     23  C   UNL A   1      32.622  18.538  23.388  1.00  0.00     0.003 A 
ATOM     24  C   UNL A   1      34.704  18.643  24.647  1.00  0.00     0.049 A 
ATOM     25  C   UNL A   1      32.370  19.860  23.701  1.00  0.00     0.004 A 
ATOM     26  C   UNL A   1      33.300  20.565  24.452  1.00  0.00     0.046 A 
ENDBRANCH  19  20
ENDBRANCH  18  19
ENDBRANCH  15  18
ENDBRANCH   7  14
ENDBRANCH   3   6
ENDBRANCH   1   2
BRANCH   1  27
ATOM     27  C   UNL A   1      32.414  28.690  27.249  1.00  0.00     0.023 C 
BRANCH  27  28
ATOM     28  C   UNL A   1      33.922  28.841  27.474  1.00  0.00     0.023 C 
BRANCH  28  29
ATOM     29  C   UNL A   1      34.538  30.240  27.346  1.00  0.00     0.116 C 
BRANCH  29  30
ATOM     30  N   UNL A   1      33.598  31.360  27.443  1.00  0.00    -0.352 N 
ATOM     31  C   UNL A   1      33.767  32.608  28.050  1.00  0.00     0.251 C 
ATOM     32  H   UNL A   1      32.721  31.213  27.019  1.00  0.00     0.163 HD
ATOM     33  O   UNL A   1      32.941  33.485  27.916  1.00  0.00    -0.269 OA
BRANCH  31  34
ATOM     34  C   UNL A   1      35.028  32.875  28.790  1.00  0.00     0.039 A 
ATOM     35  C   UNL A   1      36.091  33.492  28.123  1.00  0.00     0.014 A 
ATOM     36  C   UNL A   1      35.219  32.305  30.041  1.00  0.00     0.014 A 
ATOM     37  C   UNL A   1      37.389  33.266  28.576  1.00  0.00     0.010 A 
ATOM     38  C   UNL A   1      36.502  31.962  30.411  1.00  0.00     0.010 A 
ATOM     39  C   UNL A   1      37.589  32.378  29.632  1.00  0.00    -0.014 A 
BRANCH  39  40
ATOM     40  C   UNL A   1      38.847  31.668  29.853  1.00  0.00     0.031 A 
ATOM     41  C   UNL A   1      39.090  30.331  29.274  1.00  0.00     0.074 A 
ATOM     42  C   UNL A   1      39.849  32.312  30.492  1.00  0.00     0.049 A 
ATOM     43  N   UNL A   1      40.009  29.517  29.680  1.00  0.00    -0.248 NA
ATOM     44  C   UNL A   1      38.256  29.772  28.218  1.00  0.00     0.031 C 
ATOM     45  C   UNL A   1      41.272  31.979  30.504  1.00  0.00     0.029 A 
ATOM     46  N   UNL A   1      39.727  33.307  31.458  1.00  0.00    -0.354 N 
ATOM     47  C   UNL A   1      40.087  28.494  28.762  1.00  0.00     0.074 A 
ATOM     48  C   UNL A   1      38.912  28.644  27.937  1.00  0.00     0.031 C 
ATOM     49  C   UNL A   1      41.852  32.581  31.556  1.00  0.00     0.029 A 
ATOM     50  C   UNL A   1      40.786  33.159  32.361  1.00  0.00     0.049 A 
ATOM     51  H   UNL A   1      39.021  33.993  31.499  1.00  0.00     0.167 HD
ATOM     52  C   UNL A   1      41.213  27.727  28.703  1.00  0.00     0.031 A 
ATOM     53  C   UNL A   1      40.553  32.833  33.668  1.00  0.00     0.031 A 
ATOM     54  C   UNL A   1      42.137  28.029  29.797  1.00  0.00     0.049 A 
ATOM     55  C   UNL A   1      41.197  31.537  34.111  1.00  0.00     0.074 A 
ATOM     56  C   UNL A   1      43.320  28.750  29.864  1.00  0.00     0.029 A 
ATOM     57  N   UNL A   1      41.742  27.801  31.109  1.00  0.00    -0.354 N 
ATOM     58  N   UNL A   1      41.587  30.593  33.300  1.00  0.00    -0.248 NA
ATOM     59  C   UNL A   1      41.379  31.179  35.515  1.00  0.00     0.031 C 
ATOM     60  C   UNL A   1      43.601  29.005  31.232  1.00  0.00     0.029 A 
ATOM     61  C   UNL A   1      42.605  28.419  31.993  1.00  0.00     0.049 A 
ATOM     62  H   UNL A   1      40.955  27.270  31.373  1.00  0.00     0.167 HD
ATOM     63  C   UNL A   1      42.006  29.512  34.029  1.00  0.00     0.074 A 
ATOM     64  C   UNL A   1      41.888  29.940  35.410  1.00  0.00     0.031 C 
ATOM     65  C   UNL A   1      42.373  28.341  33.431  1.00  0.00     0.031 A 
BRANCH  52  66
ATOM     66  C   UNL A   1      41.608  26.926  27.478  1.00  0.00    -0.014 A 
ATOM     67  C   UNL A   1      40.929  25.729  27.183  1.00  0.00     0.009 A 
ATOM     68  C   UNL A   1      42.681  27.235  26.625  1.00  0.00     0.009 A 
ATOM     69  C   UNL A   1      41.360  24.850  26.178  1.00  0.00     0.001 A 
ATOM     70  C   UNL A   1      43.143  26.349  25.641  1.00  0.00     0.001 A 
ATOM     71  C   UNL A   1      42.489  25.146  25.427  1.00  0.00     0.000 A 
ENDBRANCH  52  66
BRANCH  53  72
ATOM     72  C   UNL A   1      39.234  33.289  34.193  1.00  0.00    -0.014 A 
ATOM     73  C   UNL A   1      38.066  32.608  33.802  1.00  0.00     0.009 A 
ATOM     74  C   UNL A   1      39.161  34.161  35.289  1.00  0.00     0.009 A 
ATOM     75  C   UNL A   1      36.888  32.722  34.545  1.00  0.00     0.001 A 
ATOM     76  C   UNL A   1      37.974  34.285  36.021  1.00  0.00     0.001 A 
ATOM     77  C   UNL A   1      36.849  33.542  35.668  1.00  0.00     0.000 A 
ENDBRANCH  53  72
BRANCH  65  78
ATOM     78  C   UNL A   1      42.591  27.019  34.128  1.00  0.00    -0.014 A 
ATOM     79  C   UNL A   1      41.660  26.407  34.978  1.00  0.00     0.009 A 
ATOM     80  C   UNL A   1      43.746  26.267  33.818  1.00  0.00     0.009 A 
ATOM     81  C   UNL A   1      41.891  25.137  35.527  1.00  0.00     0.001 A 
ATOM     82  C   UNL A   1      43.960  24.982  34.323  1.00  0.00     0.001 A 
ATOM     83  C   UNL A   1      43.035  24.420  35.190  1.00  0.00     0.000 A 
ENDBRANCH  65  78
ENDBRANCH  39  40
ENDBRANCH  31  34
ENDBRANCH  29  30
ENDBRANCH  28  29
ENDBRANCH  27  28
ENDBRANCH   1  27
TORSDOF 15
ENDMDL
MODEL 3
REMARK VINA RESULT:     -12.2      2.242      3.716
REMARK SMILES Cc1cccc(OCC(=O)Nc2cc(C(=O)NCCCCNC(=O)c3ccc(-c4c5nc(c(-c6ccccc6)c6ccc([nH]6)c(-c6ccccc6)c6nc(c(-c7ccccc7)c7ccc4[nH]7)C=C6)C=C5)cc3)c(Cl)cc2Cl)c1
REMARK SMILES IDX 18 1 17 2 15 3 16 4 14 6 12 7 13 8 76 9 75 10 77 11 73 12
REMARK SMILES IDX 74 13 11 14 9 15 10 16 8 18 7 19 6 20 1 21 2 22 3 23 78 24
REMARK SMILES IDX 4 25 5 26 19 27 20 28 21 29 22 30 23 31 24 33 25 34 26 35
REMARK SMILES IDX 72 36 27 37 71 38 28 39 29 40 30 41 65 42 31 43 70 44 64 45
REMARK SMILES IDX 66 46 32 47 69 48 63 49 62 50 33 52 55 53 40 54 54 55 41 56
REMARK SMILES IDX 44 57 53 58 67 59 42 60 43 61 52 63 68 64 45 65 34 66 35 67
REMARK SMILES IDX 39 68 36 69 38 70 37 71 56 72 57 73 61 74 58 75 60 76 59 77
REMARK SMILES IDX 46 78 47 79 51 80 48 81 50 82 49 83
REMARK H PARENT 17 5 11 17 22 32 66 51 44 62
REMARK Flexibility Score: inf
ROOT
ATOM      1  C   UNL A   1      33.121  28.847  25.104  1.00  0.00     0.116 C 
ENDROOT
BRANCH   1   2
ATOM      2  N   UNL A   1      33.849  28.935  23.857  1.00  0.00    -0.352 N 
ATOM      3  C   UNL A   1      33.831  28.080  22.774  1.00  0.00     0.252 C 
ATOM      4  O   UNL A   1      34.266  28.484  21.698  1.00  0.00    -0.269 OA
ATOM      5  H   UNL A   1      34.443  29.715  23.769  1.00  0.00     0.163 HD
BRANCH   3   6
ATOM      6  C   UNL A   1      33.338  26.677  22.876  1.00  0.00     0.060 A 
ATOM      7  C   UNL A   1      33.732  24.300  23.310  1.00  0.00     0.061 A 
ATOM      8  C   UNL A   1      34.190  25.622  23.286  1.00  0.00     0.043 A 
ATOM      9  C   UNL A   1      32.369  24.065  23.022  1.00  0.00     0.066 A 
ATOM     10  C   UNL A   1      31.501  25.104  22.695  1.00  0.00     0.044 A 
ATOM     11  Cl  UNL A   1      31.710  22.460  23.063  1.00  0.00    -0.082 Cl
ATOM     12  C   UNL A   1      31.986  26.407  22.600  1.00  0.00     0.055 A 
ATOM     13  Cl  UNL A   1      30.855  27.608  22.081  1.00  0.00    -0.083 Cl
BRANCH   7  14
ATOM     14  N   UNL A   1      34.527  23.156  23.536  1.00  0.00    -0.322 N 
ATOM     15  C   UNL A   1      35.338  22.681  24.515  1.00  0.00     0.262 C 
ATOM     16  O   UNL A   1      35.950  21.632  24.269  1.00  0.00    -0.271 OA
ATOM     17  H   UNL A   1      34.478  22.532  22.776  1.00  0.00     0.170 HD
BRANCH  15  18
ATOM     18  C   UNL A   1      35.456  23.313  25.896  1.00  0.00     0.329 C 
BRANCH  18  19
ATOM     19  O   UNL A   1      34.470  23.004  26.862  1.00  0.00    -0.484 OA
BRANCH  19  20
ATOM     20  C   UNL A   1      33.202  23.477  26.696  1.00  0.00     0.120 A 
ATOM     21  C   UNL A   1      30.928  26.509  26.366  1.00  0.00     0.044 C 
ATOM     22  C   UNL A   1      31.424  25.095  26.375  1.00  0.00    -0.047 A 
ATOM     23  C   UNL A   1      30.485  24.059  26.291  1.00  0.00     0.003 A 
ATOM     24  C   UNL A   1      32.791  24.798  26.555  1.00  0.00     0.049 A 
ATOM     25  C   UNL A   1      30.890  22.748  26.458  1.00  0.00     0.004 A 
ATOM     26  C   UNL A   1      32.229  22.481  26.704  1.00  0.00     0.046 A 
ENDBRANCH  19  20
ENDBRANCH  18  19
ENDBRANCH  15  18
ENDBRANCH   7  14
ENDBRANCH   3   6
ENDBRANCH   1   2
BRANCH   1  27
ATOM     27  C   UNL A   1      32.074  29.935  25.363  1.00  0.00     0.023 C 
BRANCH  27  28
ATOM     28  C   UNL A   1      32.296  30.886  26.544  1.00  0.00     0.023 C 
BRANCH  28  29
ATOM     29  C   UNL A   1      33.346  30.504  27.594  1.00  0.00     0.116 C 
BRANCH  29  30
ATOM     30  N   UNL A   1      34.143  31.613  28.129  1.00  0.00    -0.352 N 
ATOM     31  C   UNL A   1      35.483  31.628  28.528  1.00  0.00     0.251 C 
ATOM     32  H   UNL A   1      33.667  32.470  28.219  1.00  0.00     0.163 HD
ATOM     33  O   UNL A   1      36.039  32.667  28.813  1.00  0.00    -0.269 OA
BRANCH  31  34
ATOM     34  C   UNL A   1      36.246  30.352  28.508  1.00  0.00     0.039 A 
ATOM     35  C   UNL A   1      36.466  29.671  29.710  1.00  0.00     0.014 A 
ATOM     36  C   UNL A   1      36.924  29.982  27.355  1.00  0.00     0.014 A 
ATOM     37  C   UNL A   1      37.575  28.834  29.814  1.00  0.00     0.010 A 
ATOM     38  C   UNL A   1      38.098  29.270  27.491  1.00  0.00     0.010 A 
ATOM     39  C   UNL A   1      38.465  28.760  28.742  1.00  0.00    -0.014 A 
BRANCH  39  40
ATOM     40  C   UNL A   1      39.866  28.372  28.892  1.00  0.00     0.031 A 
ATOM     41  C   UNL A   1      40.355  27.054  28.437  1.00  0.00     0.074 A 
ATOM     42  C   UNL A   1      40.748  29.295  29.337  1.00  0.00     0.049 A 
ATOM     43  N   UNL A   1      41.467  26.517  28.819  1.00  0.00    -0.248 NA
ATOM     44  C   UNL A   1      39.579  26.195  27.551  1.00  0.00     0.031 C 
ATOM     45  C   UNL A   1      42.205  29.280  29.220  1.00  0.00     0.029 A 
ATOM     46  N   UNL A   1      40.489  30.359  30.196  1.00  0.00    -0.354 N 
ATOM     47  C   UNL A   1      41.693  25.424  28.015  1.00  0.00     0.074 A 
ATOM     48  C   UNL A   1      40.447  25.208  27.320  1.00  0.00     0.031 C 
ATOM     49  C   UNL A   1      42.724  30.125  30.125  1.00  0.00     0.029 A 
ATOM     50  C   UNL A   1      41.630  30.561  30.981  1.00  0.00     0.049 A 
ATOM     51  H   UNL A   1      39.653  30.876  30.244  1.00  0.00     0.167 HD
ATOM     52  C   UNL A   1      42.954  24.916  27.909  1.00  0.00     0.031 A 
ATOM     53  C   UNL A   1      41.594  30.368  32.334  1.00  0.00     0.031 A 
ATOM     54  C   UNL A   1      43.879  25.550  28.849  1.00  0.00     0.049 A 
ATOM     55  C   UNL A   1      42.553  29.309  32.837  1.00  0.00     0.074 A 
ATOM     56  C   UNL A   1      44.868  26.510  28.700  1.00  0.00     0.029 A 
ATOM     57  N   UNL A   1      43.664  25.417  30.216  1.00  0.00    -0.354 N 
ATOM     58  N   UNL A   1      43.073  28.374  32.094  1.00  0.00    -0.248 NA
ATOM     59  C   UNL A   1      42.936  29.187  34.241  1.00  0.00     0.031 C 
ATOM     60  C   UNL A   1      45.204  26.998  29.991  1.00  0.00     0.029 A 
ATOM     61  C   UNL A   1      44.439  26.317  30.922  1.00  0.00     0.049 A 
ATOM     62  H   UNL A   1      43.046  24.769  30.625  1.00  0.00     0.167 HD
ATOM     63  C   UNL A   1      43.790  27.513  32.883  1.00  0.00     0.074 A 
ATOM     64  C   UNL A   1      43.702  28.084  34.213  1.00  0.00     0.031 C 
ATOM     65  C   UNL A   1      44.359  26.380  32.376  1.00  0.00     0.031 A 
BRANCH  52  66
ATOM     66  C   UNL A   1      43.411  24.064  26.741  1.00  0.00    -0.014 A 
ATOM     67  C   UNL A   1      43.277  22.664  26.808  1.00  0.00     0.009 A 
ATOM     68  C   UNL A   1      44.053  24.553  25.590  1.00  0.00     0.009 A 
ATOM     69  C   UNL A   1      43.843  21.810  25.850  1.00  0.00     0.001 A 
ATOM     70  C   UNL A   1      44.652  23.709  24.643  1.00  0.00     0.001 A 
ATOM     71  C   UNL A   1      44.560  22.333  24.782  1.00  0.00     0.000 A 
ENDBRANCH  52  66
BRANCH  53  72
ATOM     72  C   UNL A   1      40.258  30.594  32.956  1.00  0.00    -0.014 A 
ATOM     73  C   UNL A   1      39.777  31.910  33.089  1.00  0.00     0.009 A 
ATOM     74  C   UNL A   1      39.355  29.534  33.121  1.00  0.00     0.009 A 
ATOM     75  C   UNL A   1      38.414  32.157  33.284  1.00  0.00     0.001 A 
ATOM     76  C   UNL A   1      37.994  29.786  33.332  1.00  0.00     0.001 A 
ATOM     77  C   UNL A   1      37.521  31.096  33.381  1.00  0.00     0.000 A 
ENDBRANCH  53  72
BRANCH  65  78
ATOM     78  C   UNL A   1      44.934  25.239  33.182  1.00  0.00    -0.014 A 
ATOM     79  C   UNL A   1      44.217  24.096  33.560  1.00  0.00     0.009 A 
ATOM     80  C   UNL A   1      46.316  25.239  33.476  1.00  0.00     0.009 A 
ATOM     81  C   UNL A   1      44.835  23.033  34.237  1.00  0.00     0.001 A 
ATOM     82  C   UNL A   1      46.946  24.164  34.106  1.00  0.00     0.001 A 
ATOM     83  C   UNL A   1      46.200  23.062  34.499  1.00  0.00     0.000 A 
ENDBRANCH  65  78
ENDBRANCH  39  40
ENDBRANCH  31  34
ENDBRANCH  29  30
ENDBRANCH  28  29
ENDBRANCH  27  28
ENDBRANCH   1  27
TORSDOF 15
ENDMDL
