MODEL 1
REMARK VINA RESULT:     -10.5      0.000      0.000
REMARK SMILES O=C(NCCCCNC(=O)[C@@H]1C[C@H]1C(=O)N[C@@H]1CONC1=O)c1ccc(-c2c3nc(c(-c4ccccc4)c4ccc([nH]4)c(-c4ccccc4)c4nc(c(-c5ccccc5)c5ccc2[nH]5)C=C4)C=C3)cc1
REMARK SMILES IDX 5 1 4 2 3 3 1 4 2 5 23 7 24 8 70 9 25 10 69 11 26 12 27 13
REMARK SMILES IDX 28 14 63 15 29 16 68 17 62 18 64 19 30 20 67 21 61 22 60 23
REMARK SMILES IDX 31 25 53 26 38 27 52 28 39 29 42 30 51 31 65 32 40 33 41 34
REMARK SMILES IDX 50 36 66 37 43 38 32 39 33 40 37 41 34 42 36 43 35 44 54 45
REMARK SMILES IDX 55 46 59 47 56 48 58 49 57 50 44 51 45 52 49 53 46 54 48 55
REMARK SMILES IDX 47 56 6 57 7 58 8 59 9 60 10 62 11 63 12 64 13 65 14 66
REMARK SMILES IDX 15 67 16 68 17 70 18 71 21 72 19 73 20 74 22 75
REMARK H PARENT 3 6 64 24 42 35 8 61 16 69 20 76
REMARK Flexibility Score: inf
ROOT
ATOM      1  C   UNL A   1      33.211  34.531  28.935  1.00  0.00     0.023 C 
ENDROOT
BRANCH   1   2
ATOM      2  C   UNL A   1      33.537  35.876  29.567  1.00  0.00     0.116 C 
BRANCH   2   3
ATOM      3  N   UNL A   1      32.602  36.277  30.613  1.00  0.00    -0.352 N 
ATOM      4  O   UNL A   1      31.684  36.288  32.685  1.00  0.00    -0.269 OA
ATOM      5  C   UNL A   1      32.612  35.957  31.953  1.00  0.00     0.251 C 
ATOM      6  H   UNL A   1      31.861  36.856  30.321  1.00  0.00     0.163 HD
BRANCH   5   7
ATOM      7  C   UNL A   1      33.743  35.173  32.498  1.00  0.00     0.039 A 
ATOM      8  C   UNL A   1      35.014  35.741  32.559  1.00  0.00     0.014 A 
ATOM      9  C   UNL A   1      33.546  33.845  32.889  1.00  0.00     0.014 A 
ATOM     10  C   UNL A   1      36.112  34.932  32.805  1.00  0.00     0.010 A 
ATOM     11  C   UNL A   1      34.646  33.062  33.259  1.00  0.00     0.010 A 
ATOM     12  C   UNL A   1      35.944  33.586  33.177  1.00  0.00    -0.014 A 
BRANCH  12  13
ATOM     13  C   UNL A   1      37.153  32.799  33.535  1.00  0.00     0.031 A 
ATOM     14  C   UNL A   1      37.789  31.833  32.571  1.00  0.00     0.074 A 
ATOM     15  C   UNL A   1      37.727  33.036  34.732  1.00  0.00     0.049 A 
ATOM     16  N   UNL A   1      38.894  31.144  32.713  1.00  0.00    -0.248 NA
ATOM     17  C   UNL A   1      37.102  31.602  31.291  1.00  0.00     0.031 C 
ATOM     18  C   UNL A   1      37.199  33.944  35.754  1.00  0.00     0.029 A 
ATOM     19  N   UNL A   1      38.899  32.576  35.273  1.00  0.00    -0.354 N 
ATOM     20  C   UNL A   1      39.028  30.389  31.555  1.00  0.00     0.074 A 
ATOM     21  C   UNL A   1      37.879  30.685  30.727  1.00  0.00     0.031 C 
ATOM     22  C   UNL A   1      38.080  34.039  36.758  1.00  0.00     0.029 A 
ATOM     23  C   UNL A   1      39.194  33.138  36.492  1.00  0.00     0.049 A 
ATOM     24  H   UNL A   1      39.474  31.909  34.833  1.00  0.00     0.167 HD
ATOM     25  C   UNL A   1      40.022  29.533  31.212  1.00  0.00     0.031 A 
ATOM     26  C   UNL A   1      40.237  32.946  37.318  1.00  0.00     0.031 A 
ATOM     27  C   UNL A   1      41.166  29.241  32.039  1.00  0.00     0.049 A 
ATOM     28  C   UNL A   1      41.309  31.979  36.917  1.00  0.00     0.074 A 
ATOM     29  C   UNL A   1      42.227  28.390  31.774  1.00  0.00     0.029 A 
ATOM     30  N   UNL A   1      41.400  29.791  33.289  1.00  0.00    -0.354 N 
ATOM     31  N   UNL A   1      41.421  31.285  35.811  1.00  0.00    -0.248 NA
ATOM     32  C   UNL A   1      42.395  31.766  37.881  1.00  0.00     0.031 C 
ATOM     33  C   UNL A   1      43.080  28.393  32.883  1.00  0.00     0.029 A 
ATOM     34  C   UNL A   1      42.578  29.285  33.816  1.00  0.00     0.049 A 
ATOM     35  H   UNL A   1      40.816  30.445  33.738  1.00  0.00     0.167 HD
ATOM     36  C   UNL A   1      42.592  30.554  35.944  1.00  0.00     0.074 A 
ATOM     37  C   UNL A   1      43.173  30.921  37.220  1.00  0.00     0.031 C 
ATOM     38  C   UNL A   1      43.132  29.650  35.093  1.00  0.00     0.031 A 
BRANCH  25  39
ATOM     39  C   UNL A   1      39.915  28.826  29.889  1.00  0.00    -0.014 A 
ATOM     40  C   UNL A   1      40.400  29.414  28.709  1.00  0.00     0.009 A 
ATOM     41  C   UNL A   1      39.392  27.525  29.832  1.00  0.00     0.009 A 
ATOM     42  C   UNL A   1      40.345  28.718  27.498  1.00  0.00     0.001 A 
ATOM     43  C   UNL A   1      39.360  26.823  28.625  1.00  0.00     0.001 A 
ATOM     44  C   UNL A   1      39.832  27.422  27.458  1.00  0.00     0.000 A 
ENDBRANCH  25  39
BRANCH  26  45
ATOM     45  C   UNL A   1      40.293  33.658  38.620  1.00  0.00    -0.014 A 
ATOM     46  C   UNL A   1      40.896  34.920  38.726  1.00  0.00     0.009 A 
ATOM     47  C   UNL A   1      39.736  33.073  39.769  1.00  0.00     0.009 A 
ATOM     48  C   UNL A   1      40.963  35.567  39.962  1.00  0.00     0.001 A 
ATOM     49  C   UNL A   1      39.772  33.737  40.994  1.00  0.00     0.001 A 
ATOM     50  C   UNL A   1      40.397  34.979  41.092  1.00  0.00     0.000 A 
ENDBRANCH  26  45
BRANCH  38  51
ATOM     51  C   UNL A   1      44.422  29.011  35.523  1.00  0.00    -0.014 A 
ATOM     52  C   UNL A   1      44.426  27.825  36.274  1.00  0.00     0.009 A 
ATOM     53  C   UNL A   1      45.644  29.607  35.180  1.00  0.00     0.009 A 
ATOM     54  C   UNL A   1      45.632  27.273  36.711  1.00  0.00     0.001 A 
ATOM     55  C   UNL A   1      46.848  29.037  35.593  1.00  0.00     0.001 A 
ATOM     56  C   UNL A   1      46.840  27.878  36.369  1.00  0.00     0.000 A 
ENDBRANCH  38  51
ENDBRANCH  12  13
ENDBRANCH   5   7
ENDBRANCH   2   3
ENDBRANCH   1   2
BRANCH   1  57
ATOM     57  C   UNL A   1      34.292  33.471  29.088  1.00  0.00     0.023 C 
BRANCH  57  58
ATOM     58  C   UNL A   1      34.286  32.388  28.017  1.00  0.00     0.116 C 
BRANCH  58  59
ATOM     59  N   UNL A   1      35.318  31.390  28.180  1.00  0.00    -0.356 N 
ATOM     60  C   UNL A   1      35.239  30.052  27.878  1.00  0.00     0.223 C 
ATOM     61  H   UNL A   1      36.175  31.704  28.549  1.00  0.00     0.163 HD
ATOM     62  O   UNL A   1      36.227  29.339  27.961  1.00  0.00    -0.275 OA
BRANCH  60  63
ATOM     63  C   UNL A   1      33.923  29.498  27.430  1.00  0.00     0.091 C 
ATOM     64  C   UNL A   1      33.860  28.221  26.626  1.00  0.00     0.028 C 
ATOM     65  C   UNL A   1      33.594  29.545  25.955  1.00  0.00     0.091 C 
BRANCH  65  66
ATOM     66  C   UNL A   1      32.308  29.770  25.242  1.00  0.00     0.224 C 
ATOM     67  O   UNL A   1      31.566  30.652  25.670  1.00  0.00    -0.275 OA
ATOM     68  N   UNL A   1      31.877  29.087  24.139  1.00  0.00    -0.342 N 
ATOM     69  H   UNL A   1      31.006  29.385  23.790  1.00  0.00     0.164 HD
BRANCH  68  70
ATOM     70  C   UNL A   1      32.479  28.006  23.398  1.00  0.00     0.202 C 
ATOM     71  C   UNL A   1      33.700  28.367  22.566  1.00  0.00     0.228 C 
ATOM     72  C   UNL A   1      31.640  27.476  22.255  1.00  0.00     0.268 C 
ATOM     73  O   UNL A   1      33.846  27.255  21.661  1.00  0.00    -0.271 OA
ATOM     74  N   UNL A   1      32.513  26.853  21.390  1.00  0.00    -0.233 N 
ATOM     75  O   UNL A   1      30.428  27.526  22.129  1.00  0.00    -0.270 OA
ATOM     76  H   UNL A   1      32.248  26.222  20.683  1.00  0.00     0.199 HD
ENDBRANCH  68  70
ENDBRANCH  65  66
ENDBRANCH  60  63
ENDBRANCH  58  59
ENDBRANCH  57  58
ENDBRANCH   1  57
TORSDOF 13
ENDMDL
MODEL 2
REMARK VINA RESULT:     -10.4      6.441     11.108
REMARK SMILES O=C(NCCCCNC(=O)[C@@H]1C[C@H]1C(=O)N[C@@H]1CONC1=O)c1ccc(-c2c3nc(c(-c4ccccc4)c4ccc([nH]4)c(-c4ccccc4)c4nc(c(-c5ccccc5)c5ccc2[nH]5)C=C4)C=C3)cc1
REMARK SMILES IDX 5 1 4 2 3 3 1 4 2 5 23 7 24 8 70 9 25 10 69 11 26 12 27 13
REMARK SMILES IDX 28 14 63 15 29 16 68 17 62 18 64 19 30 20 67 21 61 22 60 23
REMARK SMILES IDX 31 25 53 26 38 27 52 28 39 29 42 30 51 31 65 32 40 33 41 34
REMARK SMILES IDX 50 36 66 37 43 38 32 39 33 40 37 41 34 42 36 43 35 44 54 45
REMARK SMILES IDX 55 46 59 47 56 48 58 49 57 50 44 51 45 52 49 53 46 54 48 55
REMARK SMILES IDX 47 56 6 57 7 58 8 59 9 60 10 62 11 63 12 64 13 65 14 66
REMARK SMILES IDX 15 67 16 68 17 70 18 71 21 72 19 73 20 74 22 75
REMARK H PARENT 3 6 64 24 42 35 8 61 16 69 20 76
REMARK Flexibility Score: inf
ROOT
ATOM      1  C   UNL A   1      37.784  20.217  24.756  1.00  0.00     0.023 C 
ENDROOT
BRANCH   1   2
ATOM      2  C   UNL A   1      38.900  20.517  25.746  1.00  0.00     0.116 C 
BRANCH   2   3
ATOM      3  N   UNL A   1      39.925  19.481  25.810  1.00  0.00    -0.352 N 
ATOM      4  O   UNL A   1      42.018  18.641  26.029  1.00  0.00    -0.269 OA
ATOM      5  C   UNL A   1      41.260  19.601  26.127  1.00  0.00     0.251 C 
ATOM      6  H   UNL A   1      39.620  18.569  25.598  1.00  0.00     0.163 HD
BRANCH   5   7
ATOM      7  C   UNL A   1      41.783  20.918  26.556  1.00  0.00     0.039 A 
ATOM      8  C   UNL A   1      41.769  21.263  27.906  1.00  0.00     0.014 A 
ATOM      9  C   UNL A   1      42.229  21.835  25.600  1.00  0.00     0.014 A 
ATOM     10  C   UNL A   1      41.995  22.579  28.276  1.00  0.00     0.010 A 
ATOM     11  C   UNL A   1      42.578  23.132  25.994  1.00  0.00     0.010 A 
ATOM     12  C   UNL A   1      42.422  23.529  27.330  1.00  0.00    -0.014 A 
BRANCH  12  13
ATOM     13  C   UNL A   1      42.755  24.896  27.808  1.00  0.00     0.031 A 
ATOM     14  C   UNL A   1      41.691  25.928  28.073  1.00  0.00     0.074 A 
ATOM     15  C   UNL A   1      44.046  25.170  28.083  1.00  0.00     0.049 A 
ATOM     16  N   UNL A   1      41.826  27.131  28.574  1.00  0.00    -0.248 NA
ATOM     17  C   UNL A   1      40.305  25.576  27.731  1.00  0.00     0.031 C 
ATOM     18  C   UNL A   1      45.168  24.254  27.859  1.00  0.00     0.029 A 
ATOM     19  N   UNL A   1      44.629  26.272  28.653  1.00  0.00    -0.354 N 
ATOM     20  C   UNL A   1      40.552  27.684  28.593  1.00  0.00     0.074 A 
ATOM     21  C   UNL A   1      39.657  26.695  28.031  1.00  0.00     0.031 C 
ATOM     22  C   UNL A   1      46.286  24.793  28.361  1.00  0.00     0.029 A 
ATOM     23  C   UNL A   1      45.979  26.125  28.866  1.00  0.00     0.049 A 
ATOM     24  H   UNL A   1      44.131  27.088  28.887  1.00  0.00     0.167 HD
ATOM     25  C   UNL A   1      40.164  28.903  29.043  1.00  0.00     0.031 A 
ATOM     26  C   UNL A   1      46.880  26.970  29.395  1.00  0.00     0.031 A 
ATOM     27  C   UNL A   1      41.057  29.886  29.602  1.00  0.00     0.049 A 
ATOM     28  C   UNL A   1      46.422  28.316  29.867  1.00  0.00     0.074 A 
ATOM     29  C   UNL A   1      40.756  31.147  30.090  1.00  0.00     0.029 A 
ATOM     30  N   UNL A   1      42.425  29.719  29.752  1.00  0.00    -0.354 N 
ATOM     31  N   UNL A   1      45.209  28.813  29.886  1.00  0.00    -0.248 NA
ATOM     32  C   UNL A   1      47.457  29.218  30.385  1.00  0.00     0.031 C 
ATOM     33  C   UNL A   1      41.947  31.759  30.493  1.00  0.00     0.029 A 
ATOM     34  C   UNL A   1      42.983  30.860  30.306  1.00  0.00     0.049 A 
ATOM     35  H   UNL A   1      42.926  28.909  29.500  1.00  0.00     0.167 HD
ATOM     36  C   UNL A   1      45.334  30.086  30.420  1.00  0.00     0.074 A 
ATOM     37  C   UNL A   1      46.734  30.267  30.749  1.00  0.00     0.031 C 
ATOM     38  C   UNL A   1      44.380  31.028  30.611  1.00  0.00     0.031 A 
BRANCH  25  39
ATOM     39  C   UNL A   1      38.707  29.260  28.935  1.00  0.00    -0.014 A 
ATOM     40  C   UNL A   1      38.153  29.703  27.722  1.00  0.00     0.009 A 
ATOM     41  C   UNL A   1      37.859  29.079  30.040  1.00  0.00     0.009 A 
ATOM     42  C   UNL A   1      36.785  29.973  27.626  1.00  0.00     0.001 A 
ATOM     43  C   UNL A   1      36.489  29.328  29.934  1.00  0.00     0.001 A 
ATOM     44  C   UNL A   1      35.954  29.780  28.728  1.00  0.00     0.000 A 
ENDBRANCH  25  39
BRANCH  26  45
ATOM     45  C   UNL A   1      48.310  26.575  29.471  1.00  0.00    -0.014 A 
ATOM     46  C   UNL A   1      49.187  26.838  28.408  1.00  0.00     0.009 A 
ATOM     47  C   UNL A   1      48.805  25.932  30.617  1.00  0.00     0.009 A 
ATOM     48  C   UNL A   1      50.524  26.439  28.482  1.00  0.00     0.001 A 
ATOM     49  C   UNL A   1      50.148  25.567  30.703  1.00  0.00     0.001 A 
ATOM     50  C   UNL A   1      51.004  25.809  29.630  1.00  0.00     0.000 A 
ENDBRANCH  26  45
BRANCH  38  51
ATOM     51  C   UNL A   1      44.831  32.328  31.212  1.00  0.00    -0.014 A 
ATOM     52  C   UNL A   1      44.816  32.527  32.601  1.00  0.00     0.009 A 
ATOM     53  C   UNL A   1      45.268  33.368  30.378  1.00  0.00     0.009 A 
ATOM     54  C   UNL A   1      45.187  33.759  33.141  1.00  0.00     0.001 A 
ATOM     55  C   UNL A   1      45.667  34.589  30.922  1.00  0.00     0.001 A 
ATOM     56  C   UNL A   1      45.613  34.788  32.302  1.00  0.00     0.000 A 
ENDBRANCH  38  51
ENDBRANCH  12  13
ENDBRANCH   5   7
ENDBRANCH   2   3
ENDBRANCH   1   2
BRANCH   1  57
ATOM     57  C   UNL A   1      36.385  20.563  25.243  1.00  0.00     0.023 C 
BRANCH  57  58
ATOM     58  C   UNL A   1      36.201  22.007  25.692  1.00  0.00     0.116 C 
BRANCH  58  59
ATOM     59  N   UNL A   1      35.300  22.167  26.811  1.00  0.00    -0.356 N 
ATOM     60  C   UNL A   1      33.927  22.130  26.788  1.00  0.00     0.223 C 
ATOM     61  H   UNL A   1      35.718  22.321  27.690  1.00  0.00     0.163 HD
ATOM     62  O   UNL A   1      33.289  22.169  27.828  1.00  0.00    -0.275 OA
BRANCH  60  63
ATOM     63  C   UNL A   1      33.238  22.022  25.463  1.00  0.00     0.091 C 
ATOM     64  C   UNL A   1      31.742  21.829  25.388  1.00  0.00     0.028 C 
ATOM     65  C   UNL A   1      32.665  20.681  25.064  1.00  0.00     0.091 C 
BRANCH  65  66
ATOM     66  C   UNL A   1      32.573  20.007  23.742  1.00  0.00     0.224 C 
ATOM     67  O   UNL A   1      32.007  20.611  22.832  1.00  0.00    -0.275 OA
ATOM     68  N   UNL A   1      33.073  18.771  23.439  1.00  0.00    -0.342 N 
ATOM     69  H   UNL A   1      32.934  18.493  22.505  1.00  0.00     0.164 HD
BRANCH  68  70
ATOM     70  C   UNL A   1      33.769  17.805  24.253  1.00  0.00     0.202 C 
ATOM     71  C   UNL A   1      34.402  16.638  23.509  1.00  0.00     0.228 C 
ATOM     72  C   UNL A   1      32.880  16.975  25.153  1.00  0.00     0.268 C 
ATOM     73  O   UNL A   1      34.665  15.668  24.541  1.00  0.00    -0.271 OA
ATOM     74  N   UNL A   1      33.588  15.831  25.449  1.00  0.00    -0.233 N 
ATOM     75  O   UNL A   1      31.778  17.263  25.588  1.00  0.00    -0.270 OA
ATOM     76  H   UNL A   1      33.375  15.214  26.185  1.00  0.00     0.199 HD
ENDBRANCH  68  70
ENDBRANCH  65  66
ENDBRANCH  60  63
ENDBRANCH  58  59
ENDBRANCH  57  58
ENDBRANCH   1  57
TORSDOF 13
ENDMDL
MODEL 3
REMARK VINA RESULT:     -10.3      5.747     10.606
REMARK SMILES O=C(NCCCCNC(=O)[C@@H]1C[C@H]1C(=O)N[C@@H]1CONC1=O)c1ccc(-c2c3nc(c(-c4ccccc4)c4ccc([nH]4)c(-c4ccccc4)c4nc(c(-c5ccccc5)c5ccc2[nH]5)C=C4)C=C3)cc1
REMARK SMILES IDX 5 1 4 2 3 3 1 4 2 5 23 7 24 8 70 9 25 10 69 11 26 12 27 13
REMARK SMILES IDX 28 14 63 15 29 16 68 17 62 18 64 19 30 20 67 21 61 22 60 23
REMARK SMILES IDX 31 25 53 26 38 27 52 28 39 29 42 30 51 31 65 32 40 33 41 34
REMARK SMILES IDX 50 36 66 37 43 38 32 39 33 40 37 41 34 42 36 43 35 44 54 45
REMARK SMILES IDX 55 46 59 47 56 48 58 49 57 50 44 51 45 52 49 53 46 54 48 55
REMARK SMILES IDX 47 56 6 57 7 58 8 59 9 60 10 62 11 63 12 64 13 65 14 66
REMARK SMILES IDX 15 67 16 68 17 70 18 71 21 72 19 73 20 74 22 75
REMARK H PARENT 3 6 64 24 42 35 8 61 16 69 20 76
REMARK Flexibility Score: inf
ROOT
ATOM      1  C   UNL A   1      41.199  21.695  27.893  1.00  0.00     0.023 C 
ENDROOT
BRANCH   1   2
ATOM      2  C   UNL A   1      41.121  22.026  26.410  1.00  0.00     0.116 C 
BRANCH   2   3
ATOM      3  N   UNL A   1      39.762  22.234  25.924  1.00  0.00    -0.352 N 
ATOM      4  O   UNL A   1      37.761  23.281  25.736  1.00  0.00    -0.269 OA
ATOM      5  C   UNL A   1      38.924  23.310  26.127  1.00  0.00     0.251 C 
ATOM      6  H   UNL A   1      39.391  21.506  25.374  1.00  0.00     0.163 HD
BRANCH   5   7
ATOM      7  C   UNL A   1      39.433  24.491  26.857  1.00  0.00     0.039 A 
ATOM      8  C   UNL A   1      39.134  24.653  28.209  1.00  0.00     0.014 A 
ATOM      9  C   UNL A   1      40.158  25.473  26.174  1.00  0.00     0.014 A 
ATOM     10  C   UNL A   1      39.370  25.875  28.817  1.00  0.00     0.010 A 
ATOM     11  C   UNL A   1      40.506  26.659  26.831  1.00  0.00     0.010 A 
ATOM     12  C   UNL A   1      40.076  26.890  28.146  1.00  0.00    -0.014 A 
BRANCH  12  13
ATOM     13  C   UNL A   1      40.394  28.136  28.889  1.00  0.00     0.031 A 
ATOM     14  C   UNL A   1      39.398  29.257  29.028  1.00  0.00     0.074 A 
ATOM     15  C   UNL A   1      41.583  28.208  29.520  1.00  0.00     0.049 A 
ATOM     16  N   UNL A   1      39.505  30.365  29.720  1.00  0.00    -0.248 NA
ATOM     17  C   UNL A   1      38.128  29.129  28.298  1.00  0.00     0.031 C 
ATOM     18  C   UNL A   1      42.634  27.188  29.453  1.00  0.00     0.029 A 
ATOM     19  N   UNL A   1      42.092  29.149  30.376  1.00  0.00    -0.354 N 
ATOM     20  C   UNL A   1      38.329  31.071  29.498  1.00  0.00     0.074 A 
ATOM     21  C   UNL A   1      37.529  30.278  28.588  1.00  0.00     0.031 C 
ATOM     22  C   UNL A   1      43.622  27.516  30.295  1.00  0.00     0.029 A 
ATOM     23  C   UNL A   1      43.316  28.806  30.898  1.00  0.00     0.049 A 
ATOM     24  H   UNL A   1      41.627  29.989  30.595  1.00  0.00     0.167 HD
ATOM     25  C   UNL A   1      37.950  32.267  30.011  1.00  0.00     0.031 A 
ATOM     26  C   UNL A   1      44.117  29.459  31.758  1.00  0.00     0.031 A 
ATOM     27  C   UNL A   1      38.748  33.053  30.918  1.00  0.00     0.049 A 
ATOM     28  C   UNL A   1      43.676  30.787  32.293  1.00  0.00     0.074 A 
ATOM     29  C   UNL A   1      38.445  34.276  31.496  1.00  0.00     0.029 A 
ATOM     30  N   UNL A   1      40.004  32.696  31.381  1.00  0.00    -0.354 N 
ATOM     31  N   UNL A   1      42.554  31.430  32.079  1.00  0.00    -0.248 NA
ATOM     32  C   UNL A   1      44.614  31.481  33.184  1.00  0.00     0.031 C 
ATOM     33  C   UNL A   1      39.536  34.677  32.273  1.00  0.00     0.029 A 
ATOM     34  C   UNL A   1      40.496  33.681  32.222  1.00  0.00     0.049 A 
ATOM     35  H   UNL A   1      40.477  31.864  31.147  1.00  0.00     0.167 HD
ATOM     36  C   UNL A   1      42.649  32.604  32.811  1.00  0.00     0.074 A 
ATOM     37  C   UNL A   1      43.920  32.563  33.505  1.00  0.00     0.031 C 
ATOM     38  C   UNL A   1      41.770  33.631  32.891  1.00  0.00     0.031 A 
BRANCH  25  39
ATOM     39  C   UNL A   1      36.614  32.819  29.593  1.00  0.00    -0.014 A 
ATOM     40  C   UNL A   1      36.451  33.476  28.363  1.00  0.00     0.009 A 
ATOM     41  C   UNL A   1      35.487  32.611  30.404  1.00  0.00     0.009 A 
ATOM     42  C   UNL A   1      35.190  33.930  27.965  1.00  0.00     0.001 A 
ATOM     43  C   UNL A   1      34.225  33.044  29.993  1.00  0.00     0.001 A 
ATOM     44  C   UNL A   1      34.079  33.708  28.776  1.00  0.00     0.000 A 
ENDBRANCH  25  39
BRANCH  26  45
ATOM     45  C   UNL A   1      45.432  28.878  32.133  1.00  0.00    -0.014 A 
ATOM     46  C   UNL A   1      46.581  29.149  31.376  1.00  0.00     0.009 A 
ATOM     47  C   UNL A   1      45.540  28.046  33.259  1.00  0.00     0.009 A 
ATOM     48  C   UNL A   1      47.806  28.575  31.726  1.00  0.00     0.001 A 
ATOM     49  C   UNL A   1      46.771  27.504  33.627  1.00  0.00     0.001 A 
ATOM     50  C   UNL A   1      47.901  27.759  32.852  1.00  0.00     0.000 A 
ENDBRANCH  26  45
BRANCH  38  51
ATOM     51  C   UNL A   1      42.161  34.781  33.773  1.00  0.00    -0.014 A 
ATOM     52  C   UNL A   1      42.844  35.892  33.253  1.00  0.00     0.009 A 
ATOM     53  C   UNL A   1      41.850  34.750  35.141  1.00  0.00     0.009 A 
ATOM     54  C   UNL A   1      43.248  36.929  34.096  1.00  0.00     0.001 A 
ATOM     55  C   UNL A   1      42.229  35.802  35.975  1.00  0.00     0.001 A 
ATOM     56  C   UNL A   1      42.939  36.884  35.454  1.00  0.00     0.000 A 
ENDBRANCH  38  51
ENDBRANCH  12  13
ENDBRANCH   5   7
ENDBRANCH   2   3
ENDBRANCH   1   2
BRANCH   1  57
ATOM     57  C   UNL A   1      42.173  22.548  28.691  1.00  0.00     0.023 C 
BRANCH  57  58
ATOM     58  C   UNL A   1      42.827  23.679  27.908  1.00  0.00     0.116 C 
BRANCH  58  59
ATOM     59  N   UNL A   1      44.054  24.171  28.492  1.00  0.00    -0.356 N 
ATOM     60  C   UNL A   1      45.336  23.941  28.056  1.00  0.00     0.223 C 
ATOM     61  H   UNL A   1      43.960  24.735  29.294  1.00  0.00     0.163 HD
ATOM     62  O   UNL A   1      46.279  24.512  28.580  1.00  0.00    -0.275 OA
BRANCH  60  63
ATOM     63  C   UNL A   1      45.542  22.993  26.917  1.00  0.00     0.091 C 
ATOM     64  C   UNL A   1      46.339  23.411  25.703  1.00  0.00     0.028 C 
ATOM     65  C   UNL A   1      44.839  23.284  25.609  1.00  0.00     0.091 C 
BRANCH  65  66
ATOM     66  C   UNL A   1      44.235  22.379  24.597  1.00  0.00     0.224 C 
ATOM     67  O   UNL A   1      43.446  22.870  23.791  1.00  0.00    -0.275 OA
ATOM     68  N   UNL A   1      44.484  21.040  24.472  1.00  0.00    -0.342 N 
ATOM     69  H   UNL A   1      44.006  20.604  23.730  1.00  0.00     0.164 HD
BRANCH  68  70
ATOM     70  C   UNL A   1      45.329  20.158  25.240  1.00  0.00     0.202 C 
ATOM     71  C   UNL A   1      46.683  19.831  24.628  1.00  0.00     0.228 C 
ATOM     72  C   UNL A   1      44.833  18.732  25.337  1.00  0.00     0.268 C 
ATOM     73  O   UNL A   1      47.127  18.675  25.364  1.00  0.00    -0.271 OA
ATOM     74  N   UNL A   1      45.934  17.958  25.635  1.00  0.00    -0.233 N 
ATOM     75  O   UNL A   1      43.687  18.328  25.234  1.00  0.00    -0.270 OA
ATOM     76  H   UNL A   1      45.897  17.038  25.983  1.00  0.00     0.199 HD
ENDBRANCH  68  70
ENDBRANCH  65  66
ENDBRANCH  60  63
ENDBRANCH  58  59
ENDBRANCH  57  58
ENDBRANCH   1  57
TORSDOF 13
ENDMDL
