MODEL 1
REMARK VINA RESULT:     -12.2      0.000      0.000
REMARK SMILES Cc1ccc(NC(=O)C[C@@H](C(=O)NCCCCNC(=O)c2ccc(-c3c4nc(c(-c5ccccc5)c5ccc([nH]5)c(-c5ccccc5)c5nc(c(-c6ccccc6)c6ccc3[nH]6)C=C5)C=C4)cc2)[NH+]2CCOCC2)cc1
REMARK SMILES IDX 15 1 14 2 13 3 11 4 12 5 10 7 9 8 7 9 6 10 8 12 5 13 1 14
REMARK SMILES IDX 2 15 3 16 76 17 4 18 75 19 69 20 70 21 74 22 71 24 73 25
REMARK SMILES IDX 72 26 16 27 17 28 18 29 19 30 20 32 21 33 22 34 68 35 23 36
REMARK SMILES IDX 67 37 24 38 25 39 26 40 61 41 27 42 66 43 60 44 62 45 28 46
REMARK SMILES IDX 65 47 59 48 58 49 29 51 51 52 36 53 50 54 37 55 40 56 49 57
REMARK SMILES IDX 63 58 38 59 39 60 48 62 64 63 41 64 30 65 31 66 35 67 32 68
REMARK SMILES IDX 34 69 33 70 52 71 53 72 57 73 54 74 56 75 55 76 42 77 43 78
REMARK SMILES IDX 47 79 44 80 46 81 45 82
REMARK H PARENT 13 6 6 11 69 23 18 31 62 50 40 61
REMARK Flexibility Score: inf
ROOT
ATOM      1  C   UNL A   1      31.842  29.553  26.781  1.00  0.00     0.023 C 
ENDROOT
BRANCH   1   2
ATOM      2  C   UNL A   1      32.083  28.207  27.498  1.00  0.00     0.116 C 
BRANCH   2   3
ATOM      3  N   UNL A   1      31.090  27.182  27.239  1.00  0.00    -0.351 N 
ATOM      4  C   UNL A   1      30.753  26.431  26.156  1.00  0.00     0.278 C 
ATOM      5  O   UNL A   1      29.981  25.500  26.422  1.00  0.00    -0.268 OA
ATOM      6  H   UNL A   1      30.534  26.984  28.027  1.00  0.00     0.163 HD
BRANCH   4   7
ATOM      7  C   UNL A   1      31.332  26.659  24.713  1.00  0.00     0.283 C 
BRANCH   7   8
ATOM      8  C   UNL A   1      30.423  27.484  23.773  1.00  0.00     0.175 C 
BRANCH   8   9
ATOM      9  C   UNL A   1      29.008  27.063  23.481  1.00  0.00     0.230 C 
ATOM     10  N   UNL A   1      28.014  27.934  23.151  1.00  0.00    -0.326 N 
ATOM     11  H   UNL A   1      27.141  27.504  23.005  1.00  0.00     0.169 HD
ATOM     12  O   UNL A   1      28.720  25.862  23.558  1.00  0.00    -0.274 OA
BRANCH  10  13
ATOM     13  C   UNL A   1      27.996  29.329  22.977  1.00  0.00     0.041 A 
ATOM     14  C   UNL A   1      28.831  33.547  22.877  1.00  0.00     0.044 C 
ATOM     15  C   UNL A   1      28.467  32.096  22.812  1.00  0.00    -0.051 A 
ATOM     16  C   UNL A   1      27.494  31.591  23.676  1.00  0.00     0.005 A 
ATOM     17  C   UNL A   1      29.109  31.221  21.935  1.00  0.00     0.005 A 
ATOM     18  C   UNL A   1      27.253  30.217  23.750  1.00  0.00     0.026 A 
ATOM     19  C   UNL A   1      28.852  29.848  21.999  1.00  0.00     0.026 A 
ENDBRANCH  10  13
ENDBRANCH   8   9
ENDBRANCH   7   8
BRANCH   7  20
ATOM     20  N   UNL A   1      31.667  25.325  24.099  1.00  0.00    -0.320 N 
ATOM     21  C   UNL A   1      32.766  24.589  24.766  1.00  0.00     0.291 C 
ATOM     22  C   UNL A   1      31.833  25.207  22.639  1.00  0.00     0.291 C 
ATOM     23  H   UNL A   1      30.767  24.884  24.289  1.00  0.00     0.348 HD
ATOM     24  C   UNL A   1      34.163  24.865  24.186  1.00  0.00     0.221 C 
ATOM     25  C   UNL A   1      33.247  25.480  22.118  1.00  0.00     0.221 C 
ATOM     26  O   UNL A   1      34.206  24.648  22.772  1.00  0.00    -0.370 OA
ENDBRANCH   7  20
ENDBRANCH   4   7
ENDBRANCH   2   3
ENDBRANCH   1   2
BRANCH   1  27
ATOM     27  C   UNL A   1      32.611  30.779  27.282  1.00  0.00     0.023 C 
BRANCH  27  28
ATOM     28  C   UNL A   1      34.097  30.549  27.502  1.00  0.00     0.116 C 
BRANCH  28  29
ATOM     29  N   UNL A   1      34.687  31.407  28.533  1.00  0.00    -0.352 N 
ATOM     30  C   UNL A   1      35.843  31.184  29.261  1.00  0.00     0.251 C 
ATOM     31  H   UNL A   1      34.202  32.241  28.732  1.00  0.00     0.163 HD
ATOM     32  O   UNL A   1      36.260  32.002  30.077  1.00  0.00    -0.269 OA
BRANCH  30  33
ATOM     33  C   UNL A   1      36.632  29.980  28.935  1.00  0.00     0.039 A 
ATOM     34  C   UNL A   1      36.977  29.137  29.993  1.00  0.00     0.014 A 
ATOM     35  C   UNL A   1      37.303  29.924  27.716  1.00  0.00     0.014 A 
ATOM     36  C   UNL A   1      38.175  28.436  29.922  1.00  0.00     0.010 A 
ATOM     37  C   UNL A   1      38.537  29.303  27.682  1.00  0.00     0.010 A 
ATOM     38  C   UNL A   1      39.007  28.631  28.815  1.00  0.00    -0.014 A 
BRANCH  38  39
ATOM     39  C   UNL A   1      40.423  28.287  28.845  1.00  0.00     0.031 A 
ATOM     40  C   UNL A   1      40.886  26.996  28.305  1.00  0.00     0.074 A 
ATOM     41  C   UNL A   1      41.330  29.095  29.442  1.00  0.00     0.049 A 
ATOM     42  N   UNL A   1      41.844  26.305  28.831  1.00  0.00    -0.248 NA
ATOM     43  C   UNL A   1      40.270  26.359  27.148  1.00  0.00     0.031 C 
ATOM     44  C   UNL A   1      42.784  28.954  29.430  1.00  0.00     0.029 A 
ATOM     45  N   UNL A   1      41.117  30.106  30.360  1.00  0.00    -0.354 N 
ATOM     46  C   UNL A   1      42.162  25.320  27.932  1.00  0.00     0.074 A 
ATOM     47  C   UNL A   1      41.101  25.332  26.949  1.00  0.00     0.031 C 
ATOM     48  C   UNL A   1      43.296  29.640  30.467  1.00  0.00     0.029 A 
ATOM     49  C   UNL A   1      42.185  30.147  31.253  1.00  0.00     0.049 A 
ATOM     50  H   UNL A   1      40.334  30.702  30.379  1.00  0.00     0.167 HD
ATOM     51  C   UNL A   1      43.369  24.694  27.991  1.00  0.00     0.031 A 
ATOM     52  C   UNL A   1      42.026  29.964  32.597  1.00  0.00     0.031 A 
ATOM     53  C   UNL A   1      44.215  25.193  29.067  1.00  0.00     0.049 A 
ATOM     54  C   UNL A   1      42.783  28.771  33.147  1.00  0.00     0.074 A 
ATOM     55  C   UNL A   1      45.281  26.079  29.091  1.00  0.00     0.029 A 
ATOM     56  N   UNL A   1      43.827  25.013  30.388  1.00  0.00    -0.354 N 
ATOM     57  N   UNL A   1      43.310  27.834  32.410  1.00  0.00    -0.248 NA
ATOM     58  C   UNL A   1      42.948  28.506  34.575  1.00  0.00     0.031 C 
ATOM     59  C   UNL A   1      45.520  26.449  30.438  1.00  0.00     0.029 A 
ATOM     60  C   UNL A   1      44.610  25.776  31.232  1.00  0.00     0.049 A 
ATOM     61  H   UNL A   1      43.096  24.421  30.682  1.00  0.00     0.167 HD
ATOM     62  C   UNL A   1      43.843  26.853  33.211  1.00  0.00     0.074 A 
ATOM     63  C   UNL A   1      43.610  27.335  34.559  1.00  0.00     0.031 C 
ATOM     64  C   UNL A   1      44.404  25.728  32.676  1.00  0.00     0.031 A 
BRANCH  51  65
ATOM     65  C   UNL A   1      43.858  23.871  26.831  1.00  0.00    -0.014 A 
ATOM     66  C   UNL A   1      44.589  24.476  25.796  1.00  0.00     0.009 A 
ATOM     67  C   UNL A   1      43.561  22.506  26.681  1.00  0.00     0.009 A 
ATOM     68  C   UNL A   1      44.907  23.788  24.620  1.00  0.00     0.001 A 
ATOM     69  C   UNL A   1      43.837  21.824  25.490  1.00  0.00     0.001 A 
ATOM     70  C   UNL A   1      44.499  22.470  24.453  1.00  0.00     0.000 A 
ENDBRANCH  51  65
BRANCH  52  71
ATOM     71  C   UNL A   1      40.719  30.443  33.123  1.00  0.00    -0.014 A 
ATOM     72  C   UNL A   1      40.458  31.827  33.106  1.00  0.00     0.009 A 
ATOM     73  C   UNL A   1      39.646  29.560  33.301  1.00  0.00     0.009 A 
ATOM     74  C   UNL A   1      39.147  32.308  33.144  1.00  0.00     0.001 A 
ATOM     75  C   UNL A   1      38.334  30.047  33.351  1.00  0.00     0.001 A 
ATOM     76  C   UNL A   1      38.083  31.415  33.237  1.00  0.00     0.000 A 
ENDBRANCH  52  71
BRANCH  64  77
ATOM     77  C   UNL A   1      44.877  24.487  33.408  1.00  0.00    -0.014 A 
ATOM     78  C   UNL A   1      46.126  24.332  34.021  1.00  0.00     0.009 A 
ATOM     79  C   UNL A   1      43.967  23.414  33.578  1.00  0.00     0.009 A 
ATOM     80  C   UNL A   1      46.455  23.168  34.736  1.00  0.00     0.001 A 
ATOM     81  C   UNL A   1      44.273  22.271  34.323  1.00  0.00     0.001 A 
ATOM     82  C   UNL A   1      45.527  22.145  34.897  1.00  0.00     0.000 A 
ENDBRANCH  64  77
ENDBRANCH  38  39
ENDBRANCH  30  33
ENDBRANCH  28  29
ENDBRANCH  27  28
ENDBRANCH   1  27
TORSDOF 15
ENDMDL
MODEL 2
REMARK VINA RESULT:     -12.0      2.904      5.168
REMARK SMILES Cc1ccc(NC(=O)C[C@@H](C(=O)NCCCCNC(=O)c2ccc(-c3c4nc(c(-c5ccccc5)c5ccc([nH]5)c(-c5ccccc5)c5nc(c(-c6ccccc6)c6ccc3[nH]6)C=C5)C=C4)cc2)[NH+]2CCOCC2)cc1
REMARK SMILES IDX 15 1 14 2 13 3 11 4 12 5 10 7 9 8 7 9 6 10 8 12 5 13 1 14
REMARK SMILES IDX 2 15 3 16 76 17 4 18 75 19 69 20 70 21 74 22 71 24 73 25
REMARK SMILES IDX 72 26 16 27 17 28 18 29 19 30 20 32 21 33 22 34 68 35 23 36
REMARK SMILES IDX 67 37 24 38 25 39 26 40 61 41 27 42 66 43 60 44 62 45 28 46
REMARK SMILES IDX 65 47 59 48 58 49 29 51 51 52 36 53 50 54 37 55 40 56 49 57
REMARK SMILES IDX 63 58 38 59 39 60 48 62 64 63 41 64 30 65 31 66 35 67 32 68
REMARK SMILES IDX 34 69 33 70 52 71 53 72 57 73 54 74 56 75 55 76 42 77 43 78
REMARK SMILES IDX 47 79 44 80 46 81 45 82
REMARK H PARENT 13 6 6 11 69 23 18 31 62 50 40 61
REMARK Flexibility Score: inf
ROOT
ATOM      1  C   UNL A   1      34.678  29.415  27.242  1.00  0.00     0.023 C 
ENDROOT
BRANCH   1   2
ATOM      2  C   UNL A   1      34.057  28.240  26.455  1.00  0.00     0.116 C 
BRANCH   2   3
ATOM      3  N   UNL A   1      32.879  28.572  25.677  1.00  0.00    -0.351 N 
ATOM      4  C   UNL A   1      31.962  27.851  24.978  1.00  0.00     0.278 C 
ATOM      5  O   UNL A   1      30.971  28.511  24.636  1.00  0.00    -0.268 OA
ATOM      6  H   UNL A   1      32.704  29.541  25.647  1.00  0.00     0.163 HD
BRANCH   4   7
ATOM      7  C   UNL A   1      32.091  26.312  24.685  1.00  0.00     0.283 C 
BRANCH   7   8
ATOM      8  C   UNL A   1      32.153  25.415  25.942  1.00  0.00     0.175 C 
BRANCH   8   9
ATOM      9  C   UNL A   1      31.033  24.473  26.290  1.00  0.00     0.230 C 
ATOM     10  N   UNL A   1      31.165  23.117  26.310  1.00  0.00    -0.326 N 
ATOM     11  H   UNL A   1      30.336  22.640  26.542  1.00  0.00     0.169 HD
ATOM     12  O   UNL A   1      29.923  24.948  26.561  1.00  0.00    -0.274 OA
BRANCH  10  13
ATOM     13  C   UNL A   1      32.257  22.268  26.062  1.00  0.00     0.041 A 
ATOM     14  C   UNL A   1      36.050  20.513  25.045  1.00  0.00     0.044 C 
ATOM     15  C   UNL A   1      34.712  21.028  25.477  1.00  0.00    -0.051 A 
ATOM     16  C   UNL A   1      33.597  20.813  24.666  1.00  0.00     0.005 A 
ATOM     17  C   UNL A   1      34.557  21.758  26.657  1.00  0.00     0.005 A 
ATOM     18  C   UNL A   1      32.375  21.422  24.964  1.00  0.00     0.026 A 
ATOM     19  C   UNL A   1      33.328  22.349  26.960  1.00  0.00     0.026 A 
ENDBRANCH  10  13
ENDBRANCH   8   9
ENDBRANCH   7   8
BRANCH   7  20
ATOM     20  N   UNL A   1      33.287  26.078  23.800  1.00  0.00    -0.320 N 
ATOM     21  C   UNL A   1      33.234  26.757  22.485  1.00  0.00     0.291 C 
ATOM     22  C   UNL A   1      33.806  24.711  23.609  1.00  0.00     0.291 C 
ATOM     23  H   UNL A   1      33.970  26.524  24.413  1.00  0.00     0.348 HD
ATOM     24  C   UNL A   1      32.616  25.915  21.356  1.00  0.00     0.221 C 
ATOM     25  C   UNL A   1      33.163  23.923  22.463  1.00  0.00     0.221 C 
ATOM     26  O   UNL A   1      33.254  24.640  21.232  1.00  0.00    -0.370 OA
ENDBRANCH   7  20
ENDBRANCH   4   7
ENDBRANCH   2   3
ENDBRANCH   1   2
BRANCH   1  27
ATOM     27  C   UNL A   1      33.884  30.722  27.321  1.00  0.00     0.023 C 
BRANCH  27  28
ATOM     28  C   UNL A   1      34.614  31.868  28.000  1.00  0.00     0.116 C 
BRANCH  28  29
ATOM     29  N   UNL A   1      33.728  32.889  28.565  1.00  0.00    -0.352 N 
ATOM     30  C   UNL A   1      34.032  33.837  29.527  1.00  0.00     0.251 C 
ATOM     31  H   UNL A   1      32.806  32.902  28.219  1.00  0.00     0.163 HD
ATOM     32  O   UNL A   1      33.209  34.671  29.894  1.00  0.00    -0.269 OA
BRANCH  30  33
ATOM     33  C   UNL A   1      35.425  33.893  30.012  1.00  0.00     0.039 A 
ATOM     34  C   UNL A   1      36.390  34.378  29.127  1.00  0.00     0.014 A 
ATOM     35  C   UNL A   1      35.781  33.142  31.131  1.00  0.00     0.014 A 
ATOM     36  C   UNL A   1      37.683  33.875  29.211  1.00  0.00     0.010 A 
ATOM     37  C   UNL A   1      37.038  32.571  31.155  1.00  0.00     0.010 A 
ATOM     38  C   UNL A   1      37.959  32.874  30.147  1.00  0.00    -0.014 A 
BRANCH  38  39
ATOM     39  C   UNL A   1      39.127  32.010  30.031  1.00  0.00     0.031 A 
ATOM     40  C   UNL A   1      38.979  30.618  29.571  1.00  0.00     0.074 A 
ATOM     41  C   UNL A   1      40.353  32.430  30.422  1.00  0.00     0.049 A 
ATOM     42  N   UNL A   1      39.676  29.635  30.037  1.00  0.00    -0.248 NA
ATOM     43  C   UNL A   1      37.995  30.218  28.572  1.00  0.00     0.031 C 
ATOM     44  C   UNL A   1      41.626  31.736  30.239  1.00  0.00     0.029 A 
ATOM     45  N   UNL A   1      40.683  33.484  31.252  1.00  0.00    -0.354 N 
ATOM     46  C   UNL A   1      39.454  28.563  29.210  1.00  0.00     0.074 A 
ATOM     47  C   UNL A   1      38.335  28.942  28.375  1.00  0.00     0.031 C 
ATOM     48  C   UNL A   1      42.514  32.216  31.127  1.00  0.00     0.029 A 
ATOM     49  C   UNL A   1      41.814  33.148  31.993  1.00  0.00     0.049 A 
ATOM     50  H   UNL A   1      40.196  34.337  31.310  1.00  0.00     0.167 HD
ATOM     51  C   UNL A   1      40.329  27.522  29.178  1.00  0.00     0.031 A 
ATOM     52  C   UNL A   1      41.811  33.102  33.358  1.00  0.00     0.031 A 
ATOM     53  C   UNL A   1      41.458  27.702  30.081  1.00  0.00     0.049 A 
ATOM     54  C   UNL A   1      42.139  31.735  33.925  1.00  0.00     0.074 A 
ATOM     55  C   UNL A   1      42.769  28.106  29.879  1.00  0.00     0.029 A 
ATOM     56  N   UNL A   1      41.243  27.746  31.452  1.00  0.00    -0.354 N 
ATOM     57  N   UNL A   1      42.152  30.635  33.226  1.00  0.00    -0.248 NA
ATOM     58  C   UNL A   1      42.414  31.491  35.340  1.00  0.00     0.031 C 
ATOM     59  C   UNL A   1      43.338  28.414  31.140  1.00  0.00     0.029 A 
ATOM     60  C   UNL A   1      42.378  28.183  32.108  1.00  0.00     0.049 A 
ATOM     61  H   UNL A   1      40.400  27.498  31.895  1.00  0.00     0.167 HD
ATOM     62  C   UNL A   1      42.394  29.560  34.048  1.00  0.00     0.074 A 
ATOM     63  C   UNL A   1      42.575  30.155  35.359  1.00  0.00     0.031 C 
ATOM     64  C   UNL A   1      42.398  28.283  33.563  1.00  0.00     0.031 A 
BRANCH  51  65
ATOM     65  C   UNL A   1      40.284  26.524  28.055  1.00  0.00    -0.014 A 
ATOM     66  C   UNL A   1      39.617  25.299  28.227  1.00  0.00     0.009 A 
ATOM     67  C   UNL A   1      40.944  26.717  26.830  1.00  0.00     0.009 A 
ATOM     68  C   UNL A   1      39.703  24.276  27.277  1.00  0.00     0.001 A 
ATOM     69  C   UNL A   1      41.070  25.682  25.895  1.00  0.00     0.001 A 
ATOM     70  C   UNL A   1      40.460  24.455  26.126  1.00  0.00     0.000 A 
ENDBRANCH  51  65
BRANCH  52  71
ATOM     71  C   UNL A   1      40.881  34.072  33.995  1.00  0.00    -0.014 A 
ATOM     72  C   UNL A   1      39.639  33.599  34.464  1.00  0.00     0.009 A 
ATOM     73  C   UNL A   1      41.334  35.321  34.440  1.00  0.00     0.009 A 
ATOM     74  C   UNL A   1      38.929  34.300  35.442  1.00  0.00     0.001 A 
ATOM     75  C   UNL A   1      40.612  36.026  35.411  1.00  0.00     0.001 A 
ATOM     76  C   UNL A   1      39.433  35.499  35.938  1.00  0.00     0.000 A 
ENDBRANCH  52  71
BRANCH  64  77
ATOM     77  C   UNL A   1      42.478  26.990  34.351  1.00  0.00    -0.014 A 
ATOM     78  C   UNL A   1      41.521  26.536  35.266  1.00  0.00     0.009 A 
ATOM     79  C   UNL A   1      43.555  26.106  34.093  1.00  0.00     0.009 A 
ATOM     80  C   UNL A   1      41.646  25.290  35.904  1.00  0.00     0.001 A 
ATOM     81  C   UNL A   1      43.664  24.848  34.693  1.00  0.00     0.001 A 
ATOM     82  C   UNL A   1      42.708  24.442  35.609  1.00  0.00     0.000 A 
ENDBRANCH  64  77
ENDBRANCH  38  39
ENDBRANCH  30  33
ENDBRANCH  28  29
ENDBRANCH  27  28
ENDBRANCH   1  27
TORSDOF 15
ENDMDL
MODEL 3
REMARK VINA RESULT:     -11.9      1.936      3.965
REMARK SMILES Cc1ccc(NC(=O)C[C@@H](C(=O)NCCCCNC(=O)c2ccc(-c3c4nc(c(-c5ccccc5)c5ccc([nH]5)c(-c5ccccc5)c5nc(c(-c6ccccc6)c6ccc3[nH]6)C=C5)C=C4)cc2)[NH+]2CCOCC2)cc1
REMARK SMILES IDX 15 1 14 2 13 3 11 4 12 5 10 7 9 8 7 9 6 10 8 12 5 13 1 14
REMARK SMILES IDX 2 15 3 16 76 17 4 18 75 19 69 20 70 21 74 22 71 24 73 25
REMARK SMILES IDX 72 26 16 27 17 28 18 29 19 30 20 32 21 33 22 34 68 35 23 36
REMARK SMILES IDX 67 37 24 38 25 39 26 40 61 41 27 42 66 43 60 44 62 45 28 46
REMARK SMILES IDX 65 47 59 48 58 49 29 51 51 52 36 53 50 54 37 55 40 56 49 57
REMARK SMILES IDX 63 58 38 59 39 60 48 62 64 63 41 64 30 65 31 66 35 67 32 68
REMARK SMILES IDX 34 69 33 70 52 71 53 72 57 73 54 74 56 75 55 76 42 77 43 78
REMARK SMILES IDX 47 79 44 80 46 81 45 82
REMARK H PARENT 13 6 6 11 69 23 18 31 62 50 40 61
REMARK Flexibility Score: inf
ROOT
ATOM      1  C   UNL A   1      33.213  28.712  27.240  1.00  0.00     0.023 C 
ENDROOT
BRANCH   1   2
ATOM      2  C   UNL A   1      33.394  28.300  25.763  1.00  0.00     0.116 C 
BRANCH   2   3
ATOM      3  N   UNL A   1      32.168  28.204  24.993  1.00  0.00    -0.351 N 
ATOM      4  C   UNL A   1      31.430  27.175  24.498  1.00  0.00     0.278 C 
ATOM      5  O   UNL A   1      30.316  27.522  24.081  1.00  0.00    -0.268 OA
ATOM      6  H   UNL A   1      31.783  29.085  24.782  1.00  0.00     0.163 HD
BRANCH   4   7
ATOM      7  C   UNL A   1      31.895  25.674  24.509  1.00  0.00     0.283 C 
BRANCH   7   8
ATOM      8  C   UNL A   1      32.085  25.063  25.916  1.00  0.00     0.175 C 
BRANCH   8   9
ATOM      9  C   UNL A   1      31.116  24.054  26.471  1.00  0.00     0.230 C 
ATOM     10  N   UNL A   1      31.387  22.723  26.571  1.00  0.00    -0.326 N 
ATOM     11  H   UNL A   1      30.645  22.193  26.941  1.00  0.00     0.169 HD
ATOM     12  O   UNL A   1      30.004  24.446  26.847  1.00  0.00    -0.274 OA
BRANCH  10  13
ATOM     13  C   UNL A   1      32.523  21.960  26.247  1.00  0.00     0.041 A 
ATOM     14  C   UNL A   1      36.353  20.497  24.947  1.00  0.00     0.044 C 
ATOM     15  C   UNL A   1      35.016  20.911  25.480  1.00  0.00    -0.051 A 
ATOM     16  C   UNL A   1      33.860  20.588  24.768  1.00  0.00     0.005 A 
ATOM     17  C   UNL A   1      34.898  21.653  26.657  1.00  0.00     0.005 A 
ATOM     18  C   UNL A   1      32.620  21.102  25.156  1.00  0.00     0.026 A 
ATOM     19  C   UNL A   1      33.652  22.149  27.052  1.00  0.00     0.026 A 
ENDBRANCH  10  13
ENDBRANCH   8   9
ENDBRANCH   7   8
BRANCH   7  20
ATOM     20  N   UNL A   1      33.155  25.542  23.694  1.00  0.00    -0.320 N 
ATOM     21  C   UNL A   1      33.136  26.253  22.395  1.00  0.00     0.291 C 
ATOM     22  C   UNL A   1      33.773  24.217  23.502  1.00  0.00     0.291 C 
ATOM     23  H   UNL A   1      33.769  26.014  24.358  1.00  0.00     0.348 HD
ATOM     24  C   UNL A   1      32.643  25.405  21.210  1.00  0.00     0.221 C 
ATOM     25  C   UNL A   1      33.254  23.422  22.300  1.00  0.00     0.221 C 
ATOM     26  O   UNL A   1      33.371  24.178  21.094  1.00  0.00    -0.370 OA
ENDBRANCH   7  20
ENDBRANCH   4   7
ENDBRANCH   2   3
ENDBRANCH   1   2
BRANCH   1  27
ATOM     27  C   UNL A   1      32.989  30.196  27.546  1.00  0.00     0.023 C 
BRANCH  27  28
ATOM     28  C   UNL A   1      34.231  31.064  27.422  1.00  0.00     0.116 C 
BRANCH  28  29
ATOM     29  N   UNL A   1      34.642  31.698  28.677  1.00  0.00    -0.352 N 
ATOM     30  C   UNL A   1      35.636  31.286  29.548  1.00  0.00     0.251 C 
ATOM     31  H   UNL A   1      34.152  32.513  28.932  1.00  0.00     0.163 HD
ATOM     32  O   UNL A   1      35.917  31.927  30.557  1.00  0.00    -0.269 OA
BRANCH  30  33
ATOM     33  C   UNL A   1      36.439  30.110  29.158  1.00  0.00     0.039 A 
ATOM     34  C   UNL A   1      36.795  29.216  30.170  1.00  0.00     0.014 A 
ATOM     35  C   UNL A   1      37.110  30.126  27.937  1.00  0.00     0.014 A 
ATOM     36  C   UNL A   1      38.001  28.534  30.061  1.00  0.00     0.010 A 
ATOM     37  C   UNL A   1      38.351  29.523  27.871  1.00  0.00     0.010 A 
ATOM     38  C   UNL A   1      38.830  28.797  28.966  1.00  0.00    -0.014 A 
BRANCH  38  39
ATOM     39  C   UNL A   1      40.250  28.468  28.977  1.00  0.00     0.031 A 
ATOM     40  C   UNL A   1      40.723  27.198  28.400  1.00  0.00     0.074 A 
ATOM     41  C   UNL A   1      41.151  29.270  29.591  1.00  0.00     0.049 A 
ATOM     42  N   UNL A   1      41.692  26.504  28.900  1.00  0.00    -0.248 NA
ATOM     43  C   UNL A   1      40.107  26.586  27.229  1.00  0.00     0.031 C 
ATOM     44  C   UNL A   1      42.607  29.146  29.566  1.00  0.00     0.029 A 
ATOM     45  N   UNL A   1      40.933  30.252  30.538  1.00  0.00    -0.354 N 
ATOM     46  C   UNL A   1      42.015  25.547  27.973  1.00  0.00     0.074 A 
ATOM     47  C   UNL A   1      40.947  25.574  26.997  1.00  0.00     0.031 C 
ATOM     48  C   UNL A   1      43.118  29.809  30.618  1.00  0.00     0.029 A 
ATOM     49  C   UNL A   1      42.007  30.281  31.425  1.00  0.00     0.049 A 
ATOM     50  H   UNL A   1      40.144  30.839  30.578  1.00  0.00     0.167 HD
ATOM     51  C   UNL A   1      43.229  24.933  28.007  1.00  0.00     0.031 A 
ATOM     52  C   UNL A   1      41.859  30.060  32.764  1.00  0.00     0.031 A 
ATOM     53  C   UNL A   1      44.077  25.412  29.090  1.00  0.00     0.049 A 
ATOM     54  C   UNL A   1      42.633  28.861  33.277  1.00  0.00     0.074 A 
ATOM     55  C   UNL A   1      45.133  26.309  29.132  1.00  0.00     0.029 A 
ATOM     56  N   UNL A   1      43.699  25.191  30.409  1.00  0.00    -0.354 N 
ATOM     57  N   UNL A   1      43.165  27.951  32.510  1.00  0.00    -0.248 NA
ATOM     58  C   UNL A   1      42.810  28.559  34.695  1.00  0.00     0.031 C 
ATOM     59  C   UNL A   1      45.378  26.644  30.488  1.00  0.00     0.029 A 
ATOM     60  C   UNL A   1      44.480  25.940  31.269  1.00  0.00     0.049 A 
ATOM     61  H   UNL A   1      42.977  24.584  30.691  1.00  0.00     0.167 HD
ATOM     62  C   UNL A   1      43.714  26.954  33.281  1.00  0.00     0.074 A 
ATOM     63  C   UNL A   1      43.485  27.396  34.643  1.00  0.00     0.031 C 
ATOM     64  C   UNL A   1      44.284  25.850  32.712  1.00  0.00     0.031 A 
BRANCH  51  65
ATOM     65  C   UNL A   1      43.719  24.148  26.822  1.00  0.00    -0.014 A 
ATOM     66  C   UNL A   1      44.616  24.731  25.912  1.00  0.00     0.009 A 
ATOM     67  C   UNL A   1      43.269  22.850  26.523  1.00  0.00     0.009 A 
ATOM     68  C   UNL A   1      44.955  24.103  24.709  1.00  0.00     0.001 A 
ATOM     69  C   UNL A   1      43.570  22.235  25.302  1.00  0.00     0.001 A 
ATOM     70  C   UNL A   1      44.403  22.868  24.387  1.00  0.00     0.000 A 
ENDBRANCH  51  65
BRANCH  52  71
ATOM     71  C   UNL A   1      40.551  30.509  33.311  1.00  0.00    -0.014 A 
ATOM     72  C   UNL A   1      40.288  31.893  33.366  1.00  0.00     0.009 A 
ATOM     73  C   UNL A   1      39.478  29.617  33.440  1.00  0.00     0.009 A 
ATOM     74  C   UNL A   1      38.976  32.370  33.426  1.00  0.00     0.001 A 
ATOM     75  C   UNL A   1      38.165  30.101  33.513  1.00  0.00     0.001 A 
ATOM     76  C   UNL A   1      37.913  31.472  33.469  1.00  0.00     0.000 A 
ENDBRANCH  52  71
BRANCH  64  77
ATOM     77  C   UNL A   1      44.776  24.595  33.406  1.00  0.00    -0.014 A 
ATOM     78  C   UNL A   1      46.072  24.393  33.896  1.00  0.00     0.009 A 
ATOM     79  C   UNL A   1      43.844  23.562  33.676  1.00  0.00     0.009 A 
ATOM     80  C   UNL A   1      46.422  23.220  34.586  1.00  0.00     0.001 A 
ATOM     81  C   UNL A   1      44.175  22.412  34.398  1.00  0.00     0.001 A 
ATOM     82  C   UNL A   1      45.473  22.237  34.848  1.00  0.00     0.000 A 
ENDBRANCH  64  77
ENDBRANCH  38  39
ENDBRANCH  30  33
ENDBRANCH  28  29
ENDBRANCH  27  28
ENDBRANCH   1  27
TORSDOF 15
ENDMDL
