MODEL 1
REMARK VINA RESULT:     -10.9      0.000      0.000
REMARK SMILES CCC(CC)([NH2+]CC(=O)Nc1ccc(C)cc1)C(=O)NCCCCNC(=O)c1ccc(-c2c3nc(c(-c4ccccc4)c4ccc([nH]4)c(-c4ccccc4)c4nc(c(-c5ccccc5)c5ccc2[nH]5)C=C4)C=C3)cc1
REMARK SMILES IDX 21 1 20 2 18 3 19 4 3 6 2 7 1 8 4 9 5 10 6 11 7 14 8 15 9 16
REMARK SMILES IDX 10 17 11 19 12 20 17 21 13 22 16 23 14 24 15 25 22 26 23 27
REMARK SMILES IDX 24 28 25 29 26 30 27 32 28 33 29 34 75 35 30 36 74 37 31 38
REMARK SMILES IDX 32 39 33 40 68 41 34 42 73 43 67 44 69 45 35 46 72 47 66 48
REMARK SMILES IDX 65 49 36 51 58 52 43 53 57 54 44 55 47 56 56 57 70 58 45 59
REMARK SMILES IDX 46 60 55 62 71 63 48 64 37 65 38 66 42 67 39 68 41 69 40 70
REMARK SMILES IDX 59 71 60 72 64 73 61 74 63 75 62 76 49 77 50 78 54 79 51 80
REMARK SMILES IDX 53 81 52 82
REMARK H PARENT 20 5 6 12 6 13 10 18 25 31 69 50 47 61
REMARK Flexibility Score: inf
ROOT
ATOM      1  C   UNL A   1      37.052  21.204  25.021  1.00  0.00     0.116 C 
ENDROOT
BRANCH   1   2
ATOM      2  N   UNL A   1      35.706  20.791  25.449  1.00  0.00    -0.351 N 
ATOM      3  C   UNL A   1      34.408  21.058  25.069  1.00  0.00     0.281 C 
ATOM      4  O   UNL A   1      33.726  20.017  25.055  1.00  0.00    -0.268 OA
ATOM      5  H   UNL A   1      35.742  20.159  26.203  1.00  0.00     0.163 HD
BRANCH   3   6
ATOM      6  C   UNL A   1      33.664  22.516  24.937  1.00  0.00     0.175 C 
BRANCH   6   7
ATOM      7  C   UNL A   1      34.045  22.892  23.429  1.00  0.00     0.076 C 
ATOM      8  C   UNL A   1      32.900  23.553  22.605  1.00  0.00     0.011 C 
ENDBRANCH   6   7
BRANCH   6   9
ATOM      9  C   UNL A   1      33.980  23.859  25.701  1.00  0.00     0.076 C 
ATOM     10  C   UNL A   1      35.194  24.672  25.206  1.00  0.00     0.011 C 
ENDBRANCH   6   9
BRANCH   6  11
ATOM     11  N   UNL A   1      32.237  22.269  25.120  1.00  0.00    -0.326 N 
ATOM     12  H   UNL A   1      32.072  21.297  24.854  1.00  0.00     0.347 HD
ATOM     13  H   UNL A   1      31.801  22.994  24.551  1.00  0.00     0.347 HD
BRANCH  11  14
ATOM     14  C   UNL A   1      31.609  22.459  26.447  1.00  0.00     0.363 C 
BRANCH  14  15
ATOM     15  C   UNL A   1      30.409  23.384  26.841  1.00  0.00     0.279 C 
ATOM     16  O   UNL A   1      29.587  22.888  27.638  1.00  0.00    -0.268 OA
ATOM     17  N   UNL A   1      30.292  24.750  26.707  1.00  0.00    -0.321 N 
ATOM     18  H   UNL A   1      29.941  25.145  27.539  1.00  0.00     0.170 HD
BRANCH  17  19
ATOM     19  C   UNL A   1      30.519  25.762  25.741  1.00  0.00     0.041 A 
ATOM     20  C   UNL A   1      29.685  26.074  24.679  1.00  0.00     0.026 A 
ATOM     21  C   UNL A   1      31.580  26.646  25.947  1.00  0.00     0.026 A 
ATOM     22  C   UNL A   1      30.009  27.033  23.711  1.00  0.00     0.005 A 
ATOM     23  C   UNL A   1      31.903  27.647  25.007  1.00  0.00     0.005 A 
ATOM     24  C   UNL A   1      31.158  27.793  23.836  1.00  0.00    -0.051 A 
ATOM     25  C   UNL A   1      31.510  28.775  22.760  1.00  0.00     0.044 C 
ENDBRANCH  17  19
ENDBRANCH  14  15
ENDBRANCH  11  14
ENDBRANCH   6  11
ENDBRANCH   3   6
ENDBRANCH   1   2
BRANCH   1  26
ATOM     26  C   UNL A   1      37.755  22.238  25.924  1.00  0.00     0.023 C 
BRANCH  26  27
ATOM     27  C   UNL A   1      39.291  22.225  25.852  1.00  0.00     0.023 C 
BRANCH  27  28
ATOM     28  C   UNL A   1      39.985  21.142  26.681  1.00  0.00     0.116 C 
BRANCH  28  29
ATOM     29  N   UNL A   1      41.090  20.437  26.039  1.00  0.00    -0.352 N 
ATOM     30  C   UNL A   1      42.444  20.758  25.985  1.00  0.00     0.251 C 
ATOM     31  H   UNL A   1      40.839  19.606  25.572  1.00  0.00     0.163 HD
ATOM     32  O   UNL A   1      43.201  20.065  25.335  1.00  0.00    -0.269 OA
BRANCH  30  33
ATOM     33  C   UNL A   1      42.999  21.864  26.822  1.00  0.00     0.039 A 
ATOM     34  C   UNL A   1      42.836  21.789  28.215  1.00  0.00     0.014 A 
ATOM     35  C   UNL A   1      43.513  23.029  26.265  1.00  0.00     0.014 A 
ATOM     36  C   UNL A   1      42.933  22.946  28.987  1.00  0.00     0.010 A 
ATOM     37  C   UNL A   1      43.498  24.196  26.996  1.00  0.00     0.010 A 
ATOM     38  C   UNL A   1      43.145  24.162  28.341  1.00  0.00    -0.014 A 
BRANCH  38  39
ATOM     39  C   UNL A   1      42.913  25.458  28.958  1.00  0.00     0.031 A 
ATOM     40  C   UNL A   1      41.735  26.256  28.590  1.00  0.00     0.074 A 
ATOM     41  C   UNL A   1      43.759  25.894  29.916  1.00  0.00     0.049 A 
ATOM     42  N   UNL A   1      41.728  27.545  28.559  1.00  0.00    -0.248 NA
ATOM     43  C   UNL A   1      40.469  25.648  28.194  1.00  0.00     0.031 C 
ATOM     44  C   UNL A   1      43.588  27.049  30.793  1.00  0.00     0.029 A 
ATOM     45  N   UNL A   1      45.071  25.480  30.151  1.00  0.00    -0.354 N 
ATOM     46  C   UNL A   1      40.416  27.930  28.429  1.00  0.00     0.074 A 
ATOM     47  C   UNL A   1      39.682  26.725  28.112  1.00  0.00     0.031 C 
ATOM     48  C   UNL A   1      44.801  27.441  31.220  1.00  0.00     0.029 A 
ATOM     49  C   UNL A   1      45.788  26.626  30.529  1.00  0.00     0.049 A 
ATOM     50  H   UNL A   1      45.424  24.565  30.069  1.00  0.00     0.167 HD
ATOM     51  C   UNL A   1      40.035  29.191  28.768  1.00  0.00     0.031 A 
ATOM     52  C   UNL A   1      46.860  27.094  29.827  1.00  0.00     0.031 A 
ATOM     53  C   UNL A   1      41.148  29.983  29.270  1.00  0.00     0.049 A 
ATOM     54  C   UNL A   1      46.640  28.496  29.301  1.00  0.00     0.074 A 
ATOM     55  C   UNL A   1      41.581  30.270  30.555  1.00  0.00     0.029 A 
ATOM     56  N   UNL A   1      42.192  30.318  28.418  1.00  0.00    -0.354 N 
ATOM     57  N   UNL A   1      45.469  29.070  29.231  1.00  0.00    -0.248 NA
ATOM     58  C   UNL A   1      47.703  29.340  28.759  1.00  0.00     0.031 C 
ATOM     59  C   UNL A   1      42.926  30.712  30.477  1.00  0.00     0.029 A 
ATOM     60  C   UNL A   1      43.294  30.724  29.144  1.00  0.00     0.049 A 
ATOM     61  H   UNL A   1      42.151  30.274  27.435  1.00  0.00     0.167 HD
ATOM     62  C   UNL A   1      45.597  30.310  28.664  1.00  0.00     0.074 A 
ATOM     63  C   UNL A   1      47.016  30.436  28.388  1.00  0.00     0.031 C 
ATOM     64  C   UNL A   1      44.518  31.122  28.463  1.00  0.00     0.031 A 
BRANCH  51  65
ATOM     65  C   UNL A   1      38.587  29.548  28.945  1.00  0.00    -0.014 A 
ATOM     66  C   UNL A   1      37.961  29.342  30.187  1.00  0.00     0.009 A 
ATOM     67  C   UNL A   1      37.783  30.046  27.906  1.00  0.00     0.009 A 
ATOM     68  C   UNL A   1      36.585  29.529  30.357  1.00  0.00     0.001 A 
ATOM     69  C   UNL A   1      36.398  30.199  28.060  1.00  0.00     0.001 A 
ATOM     70  C   UNL A   1      35.798  29.930  29.285  1.00  0.00     0.000 A 
ENDBRANCH  51  65
BRANCH  52  71
ATOM     71  C   UNL A   1      47.621  26.030  29.114  1.00  0.00    -0.014 A 
ATOM     72  C   UNL A   1      47.289  25.772  27.769  1.00  0.00     0.009 A 
ATOM     73  C   UNL A   1      48.870  25.604  29.592  1.00  0.00     0.009 A 
ATOM     74  C   UNL A   1      48.228  25.216  26.895  1.00  0.00     0.001 A 
ATOM     75  C   UNL A   1      49.802  25.037  28.712  1.00  0.00     0.001 A 
ATOM     76  C   UNL A   1      49.496  24.879  27.361  1.00  0.00     0.000 A 
ENDBRANCH  52  71
BRANCH  64  77
ATOM     77  C   UNL A   1      44.495  32.407  27.672  1.00  0.00    -0.014 A 
ATOM     78  C   UNL A   1      44.887  33.653  28.173  1.00  0.00     0.009 A 
ATOM     79  C   UNL A   1      44.194  32.346  26.290  1.00  0.00     0.009 A 
ATOM     80  C   UNL A   1      44.944  34.784  27.345  1.00  0.00     0.001 A 
ATOM     81  C   UNL A   1      44.295  33.457  25.453  1.00  0.00     0.001 A 
ATOM     82  C   UNL A   1      44.661  34.683  25.985  1.00  0.00     0.000 A 
ENDBRANCH  64  77
ENDBRANCH  38  39
ENDBRANCH  30  33
ENDBRANCH  28  29
ENDBRANCH  27  28
ENDBRANCH  26  27
ENDBRANCH   1  26
TORSDOF 17
ENDMDL
MODEL 2
REMARK VINA RESULT:     -10.9      3.026      8.316
REMARK SMILES CCC(CC)([NH2+]CC(=O)Nc1ccc(C)cc1)C(=O)NCCCCNC(=O)c1ccc(-c2c3nc(c(-c4ccccc4)c4ccc([nH]4)c(-c4ccccc4)c4nc(c(-c5ccccc5)c5ccc2[nH]5)C=C4)C=C3)cc1
REMARK SMILES IDX 21 1 20 2 18 3 19 4 3 6 2 7 1 8 4 9 5 10 6 11 7 14 8 15 9 16
REMARK SMILES IDX 10 17 11 19 12 20 17 21 13 22 16 23 14 24 15 25 22 26 23 27
REMARK SMILES IDX 24 28 25 29 26 30 27 32 28 33 29 34 75 35 30 36 74 37 31 38
REMARK SMILES IDX 32 39 33 40 68 41 34 42 73 43 67 44 69 45 35 46 72 47 66 48
REMARK SMILES IDX 65 49 36 51 58 52 43 53 57 54 44 55 47 56 56 57 70 58 45 59
REMARK SMILES IDX 46 60 55 62 71 63 48 64 37 65 38 66 42 67 39 68 41 69 40 70
REMARK SMILES IDX 59 71 60 72 64 73 61 74 63 75 62 76 49 77 50 78 54 79 51 80
REMARK SMILES IDX 53 81 52 82
REMARK H PARENT 20 5 6 12 6 13 10 18 25 31 69 50 47 61
REMARK Flexibility Score: inf
ROOT
ATOM      1  C   UNL A   1      31.708  28.568  27.158  1.00  0.00     0.116 C 
ENDROOT
BRANCH   1   2
ATOM      2  N   UNL A   1      32.421  27.371  26.686  1.00  0.00    -0.351 N 
ATOM      3  C   UNL A   1      32.701  26.784  25.470  1.00  0.00     0.281 C 
ATOM      4  O   UNL A   1      33.877  26.381  25.432  1.00  0.00    -0.268 OA
ATOM      5  H   UNL A   1      32.798  26.854  27.434  1.00  0.00     0.163 HD
BRANCH   3   6
ATOM      6  C   UNL A   1      31.651  26.338  24.290  1.00  0.00     0.175 C 
BRANCH   6   7
ATOM      7  C   UNL A   1      32.412  26.910  23.003  1.00  0.00     0.076 C 
ATOM      8  C   UNL A   1      33.183  25.846  22.166  1.00  0.00     0.011 C 
ENDBRANCH   6   7
BRANCH   6   9
ATOM      9  C   UNL A   1      30.173  26.829  24.044  1.00  0.00     0.076 C 
ATOM     10  C   UNL A   1      29.982  27.987  23.042  1.00  0.00     0.011 C 
ENDBRANCH   6   9
BRANCH   6  11
ATOM     11  N   UNL A   1      31.596  24.879  24.317  1.00  0.00    -0.326 N 
ATOM     12  H   UNL A   1      32.542  24.555  24.522  1.00  0.00     0.347 HD
ATOM     13  H   UNL A   1      31.204  24.644  23.406  1.00  0.00     0.347 HD
BRANCH  11  14
ATOM     14  C   UNL A   1      30.693  24.183  25.261  1.00  0.00     0.363 C 
BRANCH  14  15
ATOM     15  C   UNL A   1      31.061  23.285  26.490  1.00  0.00     0.279 C 
ATOM     16  O   UNL A   1      30.235  23.287  27.424  1.00  0.00    -0.268 OA
ATOM     17  N   UNL A   1      31.975  22.257  26.564  1.00  0.00    -0.321 N 
ATOM     18  H   UNL A   1      31.578  21.481  27.023  1.00  0.00     0.170 HD
BRANCH  17  19
ATOM     19  C   UNL A   1      33.312  21.973  26.186  1.00  0.00     0.041 A 
ATOM     20  C   UNL A   1      34.430  22.716  26.530  1.00  0.00     0.026 A 
ATOM     21  C   UNL A   1      33.575  20.757  25.553  1.00  0.00     0.026 A 
ATOM     22  C   UNL A   1      35.715  22.426  26.055  1.00  0.00     0.005 A 
ATOM     23  C   UNL A   1      34.868  20.422  25.100  1.00  0.00     0.005 A 
ATOM     24  C   UNL A   1      35.937  21.300  25.281  1.00  0.00    -0.051 A 
ATOM     25  C   UNL A   1      37.310  21.041  24.740  1.00  0.00     0.044 C 
ENDBRANCH  17  19
ENDBRANCH  14  15
ENDBRANCH  11  14
ENDBRANCH   6  11
ENDBRANCH   3   6
ENDBRANCH   1   2
BRANCH   1  26
ATOM     26  C   UNL A   1      31.927  29.850  26.328  1.00  0.00     0.023 C 
BRANCH  26  27
ATOM     27  C   UNL A   1      32.715  30.959  27.041  1.00  0.00     0.023 C 
BRANCH  27  28
ATOM     28  C   UNL A   1      34.076  30.547  27.610  1.00  0.00     0.116 C 
BRANCH  28  29
ATOM     29  N   UNL A   1      34.619  31.386  28.674  1.00  0.00    -0.352 N 
ATOM     30  C   UNL A   1      35.765  31.215  29.449  1.00  0.00     0.251 C 
ATOM     31  H   UNL A   1      34.096  32.195  28.874  1.00  0.00     0.163 HD
ATOM     32  O   UNL A   1      36.010  32.005  30.339  1.00  0.00    -0.269 OA
BRANCH  30  33
ATOM     33  C   UNL A   1      36.761  30.155  29.113  1.00  0.00     0.039 A 
ATOM     34  C   UNL A   1      37.004  29.147  30.060  1.00  0.00     0.014 A 
ATOM     35  C   UNL A   1      37.567  30.226  27.982  1.00  0.00     0.014 A 
ATOM     36  C   UNL A   1      38.187  28.410  30.001  1.00  0.00     0.010 A 
ATOM     37  C   UNL A   1      38.787  29.589  27.976  1.00  0.00     0.010 A 
ATOM     38  C   UNL A   1      39.123  28.731  29.020  1.00  0.00    -0.014 A 
BRANCH  38  39
ATOM     39  C   UNL A   1      40.513  28.310  29.058  1.00  0.00     0.031 A 
ATOM     40  C   UNL A   1      40.923  27.042  28.440  1.00  0.00     0.074 A 
ATOM     41  C   UNL A   1      41.435  29.124  29.616  1.00  0.00     0.049 A 
ATOM     42  N   UNL A   1      41.874  26.299  28.896  1.00  0.00    -0.248 NA
ATOM     43  C   UNL A   1      40.259  26.492  27.262  1.00  0.00     0.031 C 
ATOM     44  C   UNL A   1      42.888  28.986  29.568  1.00  0.00     0.029 A 
ATOM     45  N   UNL A   1      41.222  30.155  30.532  1.00  0.00    -0.354 N 
ATOM     46  C   UNL A   1      42.134  25.355  27.934  1.00  0.00     0.074 A 
ATOM     47  C   UNL A   1      41.050  25.453  26.982  1.00  0.00     0.031 C 
ATOM     48  C   UNL A   1      43.411  29.648  30.614  1.00  0.00     0.029 A 
ATOM     49  C   UNL A   1      42.302  30.122  31.427  1.00  0.00     0.049 A 
ATOM     50  H   UNL A   1      40.464  30.782  30.547  1.00  0.00     0.167 HD
ATOM     51  C   UNL A   1      43.322  24.693  27.927  1.00  0.00     0.031 A 
ATOM     52  C   UNL A   1      42.149  29.917  32.766  1.00  0.00     0.031 A 
ATOM     53  C   UNL A   1      44.201  25.134  28.999  1.00  0.00     0.049 A 
ATOM     54  C   UNL A   1      42.869  28.676  33.248  1.00  0.00     0.074 A 
ATOM     55  C   UNL A   1      45.242  26.048  29.032  1.00  0.00     0.029 A 
ATOM     56  N   UNL A   1      43.850  24.888  30.320  1.00  0.00    -0.354 N 
ATOM     57  N   UNL A   1      43.304  27.735  32.455  1.00  0.00    -0.248 NA
ATOM     58  C   UNL A   1      43.104  28.364  34.657  1.00  0.00     0.031 C 
ATOM     59  C   UNL A   1      45.467  26.409  30.385  1.00  0.00     0.029 A 
ATOM     60  C   UNL A   1      44.586  25.689  31.171  1.00  0.00     0.049 A 
ATOM     61  H   UNL A   1      43.174  24.234  30.608  1.00  0.00     0.167 HD
ATOM     62  C   UNL A   1      43.861  26.728  33.196  1.00  0.00     0.074 A 
ATOM     63  C   UNL A   1      43.714  27.168  34.571  1.00  0.00     0.031 C 
ATOM     64  C   UNL A   1      44.386  25.611  32.611  1.00  0.00     0.031 A 
BRANCH  51  65
ATOM     65  C   UNL A   1      43.769  23.903  26.730  1.00  0.00    -0.014 A 
ATOM     66  C   UNL A   1      43.311  22.586  26.548  1.00  0.00     0.009 A 
ATOM     67  C   UNL A   1      44.678  24.393  25.777  1.00  0.00     0.009 A 
ATOM     68  C   UNL A   1      43.808  21.768  25.528  1.00  0.00     0.001 A 
ATOM     69  C   UNL A   1      45.206  23.567  24.775  1.00  0.00     0.001 A 
ATOM     70  C   UNL A   1      44.778  22.250  24.658  1.00  0.00     0.000 A 
ENDBRANCH  51  65
BRANCH  52  71
ATOM     71  C   UNL A   1      40.847  30.405  33.303  1.00  0.00    -0.014 A 
ATOM     72  C   UNL A   1      40.669  31.797  33.434  1.00  0.00     0.009 A 
ATOM     73  C   UNL A   1      39.711  29.581  33.278  1.00  0.00     0.009 A 
ATOM     74  C   UNL A   1      39.389  32.359  33.415  1.00  0.00     0.001 A 
ATOM     75  C   UNL A   1      38.431  30.151  33.270  1.00  0.00     0.001 A 
ATOM     76  C   UNL A   1      38.272  31.536  33.299  1.00  0.00     0.000 A 
ENDBRANCH  52  71
BRANCH  64  77
ATOM     77  C   UNL A   1      44.835  24.354  33.314  1.00  0.00    -0.014 A 
ATOM     78  C   UNL A   1      46.139  24.123  33.768  1.00  0.00     0.009 A 
ATOM     79  C   UNL A   1      43.860  23.394  33.674  1.00  0.00     0.009 A 
ATOM     80  C   UNL A   1      46.457  22.977  34.512  1.00  0.00     0.001 A 
ATOM     81  C   UNL A   1      44.161  22.278  34.455  1.00  0.00     0.001 A 
ATOM     82  C   UNL A   1      45.468  22.063  34.866  1.00  0.00     0.000 A 
ENDBRANCH  64  77
ENDBRANCH  38  39
ENDBRANCH  30  33
ENDBRANCH  28  29
ENDBRANCH  27  28
ENDBRANCH  26  27
ENDBRANCH   1  26
TORSDOF 17
ENDMDL
MODEL 3
REMARK VINA RESULT:     -10.4      2.872      4.472
REMARK SMILES CCC(CC)([NH2+]CC(=O)Nc1ccc(C)cc1)C(=O)NCCCCNC(=O)c1ccc(-c2c3nc(c(-c4ccccc4)c4ccc([nH]4)c(-c4ccccc4)c4nc(c(-c5ccccc5)c5ccc2[nH]5)C=C4)C=C3)cc1
REMARK SMILES IDX 21 1 20 2 18 3 19 4 3 6 2 7 1 8 4 9 5 10 6 11 7 14 8 15 9 16
REMARK SMILES IDX 10 17 11 19 12 20 17 21 13 22 16 23 14 24 15 25 22 26 23 27
REMARK SMILES IDX 24 28 25 29 26 30 27 32 28 33 29 34 75 35 30 36 74 37 31 38
REMARK SMILES IDX 32 39 33 40 68 41 34 42 73 43 67 44 69 45 35 46 72 47 66 48
REMARK SMILES IDX 65 49 36 51 58 52 43 53 57 54 44 55 47 56 56 57 70 58 45 59
REMARK SMILES IDX 46 60 55 62 71 63 48 64 37 65 38 66 42 67 39 68 41 69 40 70
REMARK SMILES IDX 59 71 60 72 64 73 61 74 63 75 62 76 49 77 50 78 54 79 51 80
REMARK SMILES IDX 53 81 52 82
REMARK H PARENT 20 5 6 12 6 13 10 18 25 31 69 50 47 61
REMARK Flexibility Score: inf
ROOT
ATOM      1  C   UNL A   1      35.481  20.916  25.015  1.00  0.00     0.116 C 
ENDROOT
BRANCH   1   2
ATOM      2  N   UNL A   1      35.202  21.746  23.833  1.00  0.00    -0.351 N 
ATOM      3  C   UNL A   1      34.722  23.015  23.589  1.00  0.00     0.281 C 
ATOM      4  O   UNL A   1      35.379  23.574  22.693  1.00  0.00    -0.268 OA
ATOM      5  H   UNL A   1      35.413  21.271  22.997  1.00  0.00     0.163 HD
BRANCH   3   6
ATOM      6  C   UNL A   1      33.316  23.689  24.104  1.00  0.00     0.175 C 
BRANCH   6   7
ATOM      7  C   UNL A   1      33.843  25.131  24.557  1.00  0.00     0.076 C 
ATOM      8  C   UNL A   1      33.714  25.433  26.080  1.00  0.00     0.011 C 
ENDBRANCH   6   7
BRANCH   6   9
ATOM      9  C   UNL A   1      32.409  23.271  25.325  1.00  0.00     0.076 C 
ATOM     10  C   UNL A   1      30.882  23.340  25.111  1.00  0.00     0.011 C 
ENDBRANCH   6   9
BRANCH   6  11
ATOM     11  N   UNL A   1      32.435  23.743  22.941  1.00  0.00    -0.326 N 
ATOM     12  H   UNL A   1      31.672  24.376  23.183  1.00  0.00     0.347 HD
ATOM     13  H   UNL A   1      32.203  22.764  22.779  1.00  0.00     0.347 HD
BRANCH  11  14
ATOM     14  C   UNL A   1      32.957  24.186  21.629  1.00  0.00     0.363 C 
BRANCH  14  15
ATOM     15  C   UNL A   1      32.752  25.559  20.904  1.00  0.00     0.279 C 
ATOM     16  O   UNL A   1      32.919  25.545  19.667  1.00  0.00    -0.268 OA
ATOM     17  N   UNL A   1      32.109  26.688  21.360  1.00  0.00    -0.321 N 
ATOM     18  H   UNL A   1      31.508  27.043  20.665  1.00  0.00     0.170 HD
BRANCH  17  19
ATOM     19  C   UNL A   1      32.046  27.498  22.522  1.00  0.00     0.041 A 
ATOM     20  C   UNL A   1      31.062  27.446  23.497  1.00  0.00     0.026 A 
ATOM     21  C   UNL A   1      33.141  28.311  22.822  1.00  0.00     0.026 A 
ATOM     22  C   UNL A   1      31.014  28.332  24.581  1.00  0.00     0.005 A 
ATOM     23  C   UNL A   1      33.134  29.182  23.931  1.00  0.00     0.005 A 
ATOM     24  C   UNL A   1      32.027  29.253  24.776  1.00  0.00    -0.051 A 
ATOM     25  C   UNL A   1      31.925  30.226  25.912  1.00  0.00     0.044 C 
ENDBRANCH  17  19
ENDBRANCH  14  15
ENDBRANCH  11  14
ENDBRANCH   6  11
ENDBRANCH   3   6
ENDBRANCH   1   2
BRANCH   1  26
ATOM     26  C   UNL A   1      36.449  21.526  26.049  1.00  0.00     0.023 C 
BRANCH  26  27
ATOM     27  C   UNL A   1      37.912  21.627  25.589  1.00  0.00     0.023 C 
BRANCH  27  28
ATOM     28  C   UNL A   1      38.589  22.981  25.820  1.00  0.00     0.116 C 
BRANCH  28  29
ATOM     29  N   UNL A   1      39.924  22.951  26.410  1.00  0.00    -0.352 N 
ATOM     30  C   UNL A   1      40.656  23.969  27.017  1.00  0.00     0.251 C 
ATOM     31  H   UNL A   1      40.376  22.076  26.373  1.00  0.00     0.163 HD
ATOM     32  O   UNL A   1      41.791  23.751  27.391  1.00  0.00    -0.269 OA
BRANCH  30  33
ATOM     33  C   UNL A   1      40.017  25.282  27.334  1.00  0.00     0.039 A 
ATOM     34  C   UNL A   1      40.434  26.413  26.615  1.00  0.00     0.014 A 
ATOM     35  C   UNL A   1      39.160  25.447  28.415  1.00  0.00     0.014 A 
ATOM     36  C   UNL A   1      40.211  27.687  27.137  1.00  0.00     0.010 A 
ATOM     37  C   UNL A   1      39.035  26.688  28.999  1.00  0.00     0.010 A 
ATOM     38  C   UNL A   1      39.616  27.797  28.392  1.00  0.00    -0.014 A 
BRANCH  38  39
ATOM     39  C   UNL A   1      39.649  29.004  29.201  1.00  0.00     0.031 A 
ATOM     40  C   UNL A   1      38.633  30.050  29.018  1.00  0.00     0.074 A 
ATOM     41  C   UNL A   1      40.588  29.129  30.164  1.00  0.00     0.049 A 
ATOM     42  N   UNL A   1      38.867  31.308  29.173  1.00  0.00    -0.248 NA
ATOM     43  C   UNL A   1      37.264  29.750  28.609  1.00  0.00     0.031 C 
ATOM     44  C   UNL A   1      40.661  30.149  31.206  1.00  0.00     0.029 A 
ATOM     45  N   UNL A   1      41.804  28.453  30.263  1.00  0.00    -0.354 N 
ATOM     46  C   UNL A   1      37.648  31.940  29.173  1.00  0.00     0.074 A 
ATOM     47  C   UNL A   1      36.692  30.952  28.727  1.00  0.00     0.031 C 
ATOM     48  C   UNL A   1      41.938  30.244  31.616  1.00  0.00     0.029 A 
ATOM     49  C   UNL A   1      42.734  29.378  30.761  1.00  0.00     0.049 A 
ATOM     50  H   UNL A   1      41.976  27.512  30.030  1.00  0.00     0.167 HD
ATOM     51  C   UNL A   1      37.520  33.184  29.710  1.00  0.00     0.031 A 
ATOM     52  C   UNL A   1      43.855  29.744  30.076  1.00  0.00     0.031 A 
ATOM     53  C   UNL A   1      38.776  33.674  30.258  1.00  0.00     0.049 A 
ATOM     54  C   UNL A   1      43.889  31.227  29.770  1.00  0.00     0.074 A 
ATOM     55  C   UNL A   1      39.290  33.680  31.545  1.00  0.00     0.029 A 
ATOM     56  N   UNL A   1      39.840  33.940  29.407  1.00  0.00    -0.354 N 
ATOM     57  N   UNL A   1      42.846  32.007  29.848  1.00  0.00    -0.248 NA
ATOM     58  C   UNL A   1      45.077  31.935  29.297  1.00  0.00     0.031 C 
ATOM     59  C   UNL A   1      40.692  33.877  31.457  1.00  0.00     0.029 A 
ATOM     60  C   UNL A   1      41.019  34.024  30.121  1.00  0.00     0.049 A 
ATOM     61  H   UNL A   1      39.764  34.054  28.432  1.00  0.00     0.167 HD
ATOM     62  C   UNL A   1      43.189  33.275  29.460  1.00  0.00     0.074 A 
ATOM     63  C   UNL A   1      44.597  33.181  29.126  1.00  0.00     0.031 C 
ATOM     64  C   UNL A   1      42.277  34.291  29.438  1.00  0.00     0.031 A 
BRANCH  51  65
ATOM     65  C   UNL A   1      36.171  33.767  30.017  1.00  0.00    -0.014 A 
ATOM     66  C   UNL A   1      35.367  34.261  28.975  1.00  0.00     0.009 A 
ATOM     67  C   UNL A   1      35.665  33.897  31.321  1.00  0.00     0.009 A 
ATOM     68  C   UNL A   1      34.168  34.937  29.227  1.00  0.00     0.001 A 
ATOM     69  C   UNL A   1      34.484  34.605  31.582  1.00  0.00     0.001 A 
ATOM     70  C   UNL A   1      33.741  35.135  30.533  1.00  0.00     0.000 A 
ENDBRANCH  51  65
BRANCH  52  71
ATOM     71  C   UNL A   1      44.383  28.680  29.176  1.00  0.00    -0.014 A 
ATOM     72  C   UNL A   1      45.010  27.566  29.771  1.00  0.00     0.009 A 
ATOM     73  C   UNL A   1      43.917  28.565  27.858  1.00  0.00     0.009 A 
ATOM     74  C   UNL A   1      45.058  26.336  29.110  1.00  0.00     0.001 A 
ATOM     75  C   UNL A   1      43.978  27.330  27.197  1.00  0.00     0.001 A 
ATOM     76  C   UNL A   1      44.512  26.211  27.835  1.00  0.00     0.000 A 
ENDBRANCH  52  71
BRANCH  64  77
ATOM     77  C   UNL A   1      42.473  35.663  28.842  1.00  0.00    -0.014 A 
ATOM     78  C   UNL A   1      41.882  36.102  27.652  1.00  0.00     0.009 A 
ATOM     79  C   UNL A   1      43.184  36.631  29.591  1.00  0.00     0.009 A 
ATOM     80  C   UNL A   1      42.022  37.429  27.217  1.00  0.00     0.001 A 
ATOM     81  C   UNL A   1      43.285  37.963  29.187  1.00  0.00     0.001 A 
ATOM     82  C   UNL A   1      42.710  38.360  27.989  1.00  0.00     0.000 A 
ENDBRANCH  64  77
ENDBRANCH  38  39
ENDBRANCH  30  33
ENDBRANCH  28  29
ENDBRANCH  27  28
ENDBRANCH  26  27
ENDBRANCH   1  26
TORSDOF 17
ENDMDL
