MODEL 1
REMARK VINA RESULT:     -12.1      0.000      0.000
REMARK SMILES CCc1ccc2c(CC(=O)NCCCCNC(=O)c3ccc(-c4c5nc(c(-c6ccccc6)c6ccc([nH]6)c(-c6ccccc6)c6nc(c(-c7ccccc7)c7ccc4[nH]7)C=C6)C=C5)cc3)c(C(=O)c3cc(C)ccn3)[nH]c2c1
REMARK SMILES IDX 13 1 12 2 11 3 9 4 10 5 8 7 7 8 3 9 4 10 79 11 5 12 78 13
REMARK SMILES IDX 6 14 77 15 67 16 2 18 1 19 68 20 69 21 70 22 71 23 76 24
REMARK SMILES IDX 72 25 75 26 73 27 74 28 14 29 15 30 16 31 17 32 18 34 19 35
REMARK SMILES IDX 20 36 66 37 21 38 65 39 22 40 23 41 24 42 59 43 25 44 64 45
REMARK SMILES IDX 58 46 60 47 26 48 63 49 57 50 56 51 27 53 49 54 34 55 48 56
REMARK SMILES IDX 35 57 38 58 47 59 61 60 36 61 37 62 46 64 62 65 39 66 28 67
REMARK SMILES IDX 29 68 33 69 30 70 32 71 31 72 50 73 51 74 55 75 52 76 54 77
REMARK SMILES IDX 53 78 40 79 41 80 45 81 42 82 44 83 43 84
REMARK H PARENT 11 6 77 17 16 33 60 52 38 63
REMARK Flexibility Score: inf
ROOT
ATOM      1  C   UNL A   1      33.878  27.477  24.970  1.00  0.00     0.023 C 
ENDROOT
BRANCH   1   2
ATOM      2  C   UNL A   1      33.293  26.155  25.465  1.00  0.00     0.116 C 
BRANCH   2   3
ATOM      3  N   UNL A   1      34.302  25.267  25.998  1.00  0.00    -0.356 N 
ATOM      4  C   UNL A   1      35.145  24.417  25.341  1.00  0.00     0.224 C 
ATOM      5  O   UNL A   1      36.048  23.906  26.010  1.00  0.00    -0.275 OA
ATOM      6  H   UNL A   1      34.394  25.276  26.978  1.00  0.00     0.163 HD
BRANCH   4   7
ATOM      7  C   UNL A   1      35.062  24.220  23.830  1.00  0.00     0.138 C 
BRANCH   7   8
ATOM      8  C   UNL A   1      33.946  23.324  23.359  1.00  0.00    -0.002 A 
ATOM      9  C   UNL A   1      32.862  19.287  24.073  1.00  0.00    -0.046 A 
ATOM     10  C   UNL A   1      33.944  19.780  24.816  1.00  0.00     0.004 A 
ATOM     11  C   UNL A   1      32.206  20.141  23.173  1.00  0.00     0.030 A 
ATOM     12  C   UNL A   1      34.387  21.100  24.679  1.00  0.00     0.011 A 
ATOM     13  C   UNL A   1      32.665  21.463  23.050  1.00  0.00     0.046 A 
ATOM     14  C   UNL A   1      33.738  21.963  23.773  1.00  0.00     0.004 A 
ATOM     15  N   UNL A   1      32.211  22.483  22.250  1.00  0.00    -0.352 N 
ATOM     16  C   UNL A   1      32.910  23.650  22.482  1.00  0.00     0.093 A 
ATOM     17  H   UNL A   1      31.481  22.393  21.597  1.00  0.00     0.167 HD
BRANCH   9  18
ATOM     18  C   UNL A   1      32.444  17.852  24.315  1.00  0.00     0.032 C 
ATOM     19  C   UNL A   1      33.357  16.764  23.767  1.00  0.00     0.009 C 
ENDBRANCH   9  18
BRANCH  16  20
ATOM     20  C   UNL A   1      32.603  24.946  21.883  1.00  0.00     0.227 C 
ATOM     21  O   UNL A   1      33.229  25.423  20.943  1.00  0.00    -0.285 OA
BRANCH  20  22
ATOM     22  C   UNL A   1      31.514  25.767  22.475  1.00  0.00     0.113 A 
ATOM     23  C   UNL A   1      31.423  27.119  22.156  1.00  0.00     0.036 A 
ATOM     24  N   UNL A   1      30.667  25.127  23.318  1.00  0.00    -0.253 NA
ATOM     25  C   UNL A   1      30.400  27.869  22.739  1.00  0.00    -0.047 A 
ATOM     26  C   UNL A   1      29.666  25.865  23.837  1.00  0.00     0.112 A 
ATOM     27  C   UNL A   1      30.254  29.334  22.463  1.00  0.00     0.044 C 
ATOM     28  C   UNL A   1      29.498  27.219  23.587  1.00  0.00     0.023 A 
ENDBRANCH  20  22
ENDBRANCH  16  20
ENDBRANCH   7   8
ENDBRANCH   4   7
ENDBRANCH   2   3
ENDBRANCH   1   2
BRANCH   1  29
ATOM     29  C   UNL A   1      33.312  28.724  25.654  1.00  0.00     0.023 C 
BRANCH  29  30
ATOM     30  C   UNL A   1      33.535  28.797  27.160  1.00  0.00     0.116 C 
BRANCH  30  31
ATOM     31  N   UNL A   1      33.526  30.157  27.680  1.00  0.00    -0.352 N 
ATOM     32  C   UNL A   1      34.528  30.831  28.334  1.00  0.00     0.251 C 
ATOM     33  H   UNL A   1      32.689  30.659  27.545  1.00  0.00     0.163 HD
ATOM     34  O   UNL A   1      34.323  31.944  28.808  1.00  0.00    -0.269 OA
BRANCH  32  35
ATOM     35  C   UNL A   1      35.849  30.190  28.499  1.00  0.00     0.039 A 
ATOM     36  C   UNL A   1      36.737  30.188  27.420  1.00  0.00     0.014 A 
ATOM     37  C   UNL A   1      36.220  29.622  29.721  1.00  0.00     0.014 A 
ATOM     38  C   UNL A   1      38.028  29.681  27.590  1.00  0.00     0.010 A 
ATOM     39  C   UNL A   1      37.528  29.185  29.908  1.00  0.00     0.010 A 
ATOM     40  C   UNL A   1      38.445  29.211  28.846  1.00  0.00    -0.014 A 
BRANCH  40  41
ATOM     41  C   UNL A   1      39.837  28.747  29.074  1.00  0.00     0.031 A 
ATOM     42  C   UNL A   1      40.853  29.677  29.674  1.00  0.00     0.074 A 
ATOM     43  C   UNL A   1      40.205  27.516  28.671  1.00  0.00     0.049 A 
ATOM     44  N   UNL A   1      42.129  29.477  29.893  1.00  0.00    -0.248 NA
ATOM     45  C   UNL A   1      40.381  31.018  30.054  1.00  0.00     0.031 C 
ATOM     46  C   UNL A   1      39.325  26.527  28.044  1.00  0.00     0.029 A 
ATOM     47  N   UNL A   1      41.424  26.886  28.728  1.00  0.00    -0.354 N 
ATOM     48  C   UNL A   1      42.614  30.671  30.409  1.00  0.00     0.074 A 
ATOM     49  C   UNL A   1      41.508  31.604  30.431  1.00  0.00     0.031 C 
ATOM     50  C   UNL A   1      40.022  25.406  27.807  1.00  0.00     0.029 A 
ATOM     51  C   UNL A   1      41.407  25.609  28.222  1.00  0.00     0.049 A 
ATOM     52  H   UNL A   1      42.232  27.310  29.096  1.00  0.00     0.167 HD
ATOM     53  C   UNL A   1      43.864  30.964  30.840  1.00  0.00     0.031 A 
ATOM     54  C   UNL A   1      42.395  24.704  28.104  1.00  0.00     0.031 A 
ATOM     55  C   UNL A   1      44.961  30.033  30.833  1.00  0.00     0.049 A 
ATOM     56  C   UNL A   1      43.780  25.059  28.572  1.00  0.00     0.074 A 
ATOM     57  C   UNL A   1      46.245  30.209  31.319  1.00  0.00     0.029 A 
ATOM     58  N   UNL A   1      44.904  28.752  30.306  1.00  0.00    -0.354 N 
ATOM     59  N   UNL A   1      44.205  26.166  29.129  1.00  0.00    -0.248 NA
ATOM     60  C   UNL A   1      44.818  24.034  28.397  1.00  0.00     0.031 C 
ATOM     61  C   UNL A   1      46.981  29.054  31.035  1.00  0.00     0.029 A 
ATOM     62  C   UNL A   1      46.140  28.138  30.425  1.00  0.00     0.049 A 
ATOM     63  H   UNL A   1      44.104  28.340  29.906  1.00  0.00     0.167 HD
ATOM     64  C   UNL A   1      45.551  25.959  29.403  1.00  0.00     0.074 A 
ATOM     65  C   UNL A   1      45.868  24.617  28.958  1.00  0.00     0.031 C 
ATOM     66  C   UNL A   1      46.442  26.802  29.978  1.00  0.00     0.031 A 
BRANCH  53  67
ATOM     67  C   UNL A   1      44.113  32.360  31.338  1.00  0.00    -0.014 A 
ATOM     68  C   UNL A   1      44.534  33.383  30.472  1.00  0.00     0.009 A 
ATOM     69  C   UNL A   1      43.909  32.662  32.694  1.00  0.00     0.009 A 
ATOM     70  C   UNL A   1      44.788  34.666  30.962  1.00  0.00     0.001 A 
ATOM     71  C   UNL A   1      44.133  33.953  33.175  1.00  0.00     0.001 A 
ATOM     72  C   UNL A   1      44.584  34.950  32.311  1.00  0.00     0.000 A 
ENDBRANCH  53  67
BRANCH  54  73
ATOM     73  C   UNL A   1      42.109  23.357  27.546  1.00  0.00    -0.014 A 
ATOM     74  C   UNL A   1      42.376  23.082  26.195  1.00  0.00     0.009 A 
ATOM     75  C   UNL A   1      41.569  22.342  28.351  1.00  0.00     0.009 A 
ATOM     76  C   UNL A   1      42.088  21.826  25.658  1.00  0.00     0.001 A 
ATOM     77  C   UNL A   1      41.306  21.079  27.817  1.00  0.00     0.001 A 
ATOM     78  C   UNL A   1      41.558  20.824  26.469  1.00  0.00     0.000 A 
ENDBRANCH  54  73
BRANCH  66  79
ATOM     79  C   UNL A   1      47.836  26.287  30.195  1.00  0.00    -0.014 A 
ATOM     80  C   UNL A   1      48.796  26.319  29.172  1.00  0.00     0.009 A 
ATOM     81  C   UNL A   1      48.205  25.802  31.461  1.00  0.00     0.009 A 
ATOM     82  C   UNL A   1      50.090  25.845  29.404  1.00  0.00     0.001 A 
ATOM     83  C   UNL A   1      49.506  25.357  31.697  1.00  0.00     0.001 A 
ATOM     84  C   UNL A   1      50.444  25.370  30.667  1.00  0.00     0.000 A 
ENDBRANCH  66  79
ENDBRANCH  40  41
ENDBRANCH  32  35
ENDBRANCH  30  31
ENDBRANCH  29  30
ENDBRANCH   1  29
TORSDOF 15
ENDMDL
MODEL 2
REMARK VINA RESULT:     -11.8      2.401      7.952
REMARK SMILES CCc1ccc2c(CC(=O)NCCCCNC(=O)c3ccc(-c4c5nc(c(-c6ccccc6)c6ccc([nH]6)c(-c6ccccc6)c6nc(c(-c7ccccc7)c7ccc4[nH]7)C=C6)C=C5)cc3)c(C(=O)c3cc(C)ccn3)[nH]c2c1
REMARK SMILES IDX 13 1 12 2 11 3 9 4 10 5 8 7 7 8 3 9 4 10 79 11 5 12 78 13
REMARK SMILES IDX 6 14 77 15 67 16 2 18 1 19 68 20 69 21 70 22 71 23 76 24
REMARK SMILES IDX 72 25 75 26 73 27 74 28 14 29 15 30 16 31 17 32 18 34 19 35
REMARK SMILES IDX 20 36 66 37 21 38 65 39 22 40 23 41 24 42 59 43 25 44 64 45
REMARK SMILES IDX 58 46 60 47 26 48 63 49 57 50 56 51 27 53 49 54 34 55 48 56
REMARK SMILES IDX 35 57 38 58 47 59 61 60 36 61 37 62 46 64 62 65 39 66 28 67
REMARK SMILES IDX 29 68 33 69 30 70 32 71 31 72 50 73 51 74 55 75 52 76 54 77
REMARK SMILES IDX 53 78 40 79 41 80 45 81 42 82 44 83 43 84
REMARK H PARENT 11 6 77 17 16 33 60 52 38 63
REMARK Flexibility Score: inf
ROOT
ATOM      1  C   UNL A   1      36.774  20.619  24.983  1.00  0.00     0.023 C 
ENDROOT
BRANCH   1   2
ATOM      2  C   UNL A   1      37.142  22.042  24.566  1.00  0.00     0.116 C 
BRANCH   2   3
ATOM      3  N   UNL A   1      36.142  22.647  23.716  1.00  0.00    -0.356 N 
ATOM      4  C   UNL A   1      35.259  23.653  23.993  1.00  0.00     0.224 C 
ATOM      5  O   UNL A   1      34.636  24.122  23.036  1.00  0.00    -0.275 OA
ATOM      6  H   UNL A   1      36.088  22.281  22.803  1.00  0.00     0.163 HD
BRANCH   4   7
ATOM      7  C   UNL A   1      35.155  24.260  25.389  1.00  0.00     0.138 C 
BRANCH   7   8
ATOM      8  C   UNL A   1      33.811  24.847  25.735  1.00  0.00    -0.002 A 
ATOM      9  C   UNL A   1      31.981  28.632  25.185  1.00  0.00    -0.046 A 
ATOM     10  C   UNL A   1      33.244  28.462  24.599  1.00  0.00     0.004 A 
ATOM     11  C   UNL A   1      31.404  27.562  25.886  1.00  0.00     0.030 A 
ATOM     12  C   UNL A   1      33.942  27.254  24.699  1.00  0.00     0.011 A 
ATOM     13  C   UNL A   1      32.119  26.358  25.975  1.00  0.00     0.046 A 
ATOM     14  C   UNL A   1      33.372  26.176  25.406  1.00  0.00     0.004 A 
ATOM     15  N   UNL A   1      31.788  25.179  26.598  1.00  0.00    -0.352 N 
ATOM     16  C   UNL A   1      32.754  24.215  26.393  1.00  0.00     0.093 A 
ATOM     17  H   UNL A   1      30.968  25.040  27.123  1.00  0.00     0.167 HD
BRANCH   9  18
ATOM     18  C   UNL A   1      31.296  29.970  24.996  1.00  0.00     0.032 C 
ATOM     19  C   UNL A   1      31.415  30.975  26.134  1.00  0.00     0.009 C 
ENDBRANCH   9  18
BRANCH  16  20
ATOM     20  C   UNL A   1      32.656  22.823  26.821  1.00  0.00     0.227 C 
ATOM     21  O   UNL A   1      32.564  22.480  27.995  1.00  0.00    -0.285 OA
BRANCH  20  22
ATOM     22  C   UNL A   1      32.731  21.752  25.792  1.00  0.00     0.113 A 
ATOM     23  C   UNL A   1      32.239  21.994  24.513  1.00  0.00     0.036 A 
ATOM     24  N   UNL A   1      33.278  20.576  26.187  1.00  0.00    -0.253 NA
ATOM     25  C   UNL A   1      32.309  20.965  23.572  1.00  0.00    -0.047 A 
ATOM     26  C   UNL A   1      33.368  19.612  25.249  1.00  0.00     0.112 A 
ATOM     27  C   UNL A   1      31.778  21.142  22.182  1.00  0.00     0.044 C 
ATOM     28  C   UNL A   1      32.898  19.754  23.951  1.00  0.00     0.023 A 
ENDBRANCH  20  22
ENDBRANCH  16  20
ENDBRANCH   7   8
ENDBRANCH   4   7
ENDBRANCH   2   3
ENDBRANCH   1   2
BRANCH   1  29
ATOM     29  C   UNL A   1      37.936  19.624  24.960  1.00  0.00     0.023 C 
BRANCH  29  30
ATOM     30  C   UNL A   1      39.158  20.031  25.774  1.00  0.00     0.116 C 
BRANCH  30  31
ATOM     31  N   UNL A   1      40.182  18.999  25.835  1.00  0.00    -0.352 N 
ATOM     32  C   UNL A   1      41.527  19.140  26.078  1.00  0.00     0.251 C 
ATOM     33  H   UNL A   1      39.870  18.078  25.680  1.00  0.00     0.163 HD
ATOM     34  O   UNL A   1      42.280  18.175  25.988  1.00  0.00    -0.269 OA
BRANCH  32  35
ATOM     35  C   UNL A   1      42.070  20.473  26.412  1.00  0.00     0.039 A 
ATOM     36  C   UNL A   1      42.487  21.310  25.374  1.00  0.00     0.014 A 
ATOM     37  C   UNL A   1      42.137  20.906  27.739  1.00  0.00     0.014 A 
ATOM     38  C   UNL A   1      42.904  22.612  25.662  1.00  0.00     0.010 A 
ATOM     39  C   UNL A   1      42.482  22.225  28.016  1.00  0.00     0.010 A 
ATOM     40  C   UNL A   1      42.867  23.092  26.982  1.00  0.00    -0.014 A 
BRANCH  40  41
ATOM     41  C   UNL A   1      43.222  24.497  27.303  1.00  0.00     0.031 A 
ATOM     42  C   UNL A   1      44.657  24.942  27.260  1.00  0.00     0.074 A 
ATOM     43  C   UNL A   1      42.263  25.352  27.707  1.00  0.00     0.049 A 
ATOM     44  N   UNL A   1      45.170  26.107  27.566  1.00  0.00    -0.248 NA
ATOM     45  C   UNL A   1      45.649  23.938  26.844  1.00  0.00     0.031 C 
ATOM     46  C   UNL A   1      40.838  25.038  27.825  1.00  0.00     0.029 A 
ATOM     47  N   UNL A   1      42.347  26.666  28.097  1.00  0.00    -0.354 N 
ATOM     48  C   UNL A   1      46.542  25.967  27.406  1.00  0.00     0.074 A 
ATOM     49  C   UNL A   1      46.786  24.595  27.018  1.00  0.00     0.031 C 
ATOM     50  C   UNL A   1      40.177  26.136  28.223  1.00  0.00     0.029 A 
ATOM     51  C   UNL A   1      41.134  27.218  28.433  1.00  0.00     0.049 A 
ATOM     52  H   UNL A   1      43.195  27.164  28.133  1.00  0.00     0.167 HD
ATOM     53  C   UNL A   1      47.513  26.900  27.553  1.00  0.00     0.031 A 
ATOM     54  C   UNL A   1      40.827  28.456  28.861  1.00  0.00     0.031 A 
ATOM     55  C   UNL A   1      47.270  28.269  27.924  1.00  0.00     0.049 A 
ATOM     56  C   UNL A   1      41.925  29.469  29.037  1.00  0.00     0.074 A 
ATOM     57  C   UNL A   1      48.178  29.309  28.025  1.00  0.00     0.029 A 
ATOM     58  N   UNL A   1      46.029  28.786  28.261  1.00  0.00    -0.354 N 
ATOM     59  N   UNL A   1      43.209  29.344  28.806  1.00  0.00    -0.248 NA
ATOM     60  C   UNL A   1      41.527  30.795  29.527  1.00  0.00     0.031 C 
ATOM     61  C   UNL A   1      47.495  30.442  28.479  1.00  0.00     0.029 A 
ATOM     62  C   UNL A   1      46.153  30.122  28.603  1.00  0.00     0.049 A 
ATOM     63  H   UNL A   1      45.186  28.279  28.259  1.00  0.00     0.167 HD
ATOM     64  C   UNL A   1      43.767  30.584  29.090  1.00  0.00     0.074 A 
ATOM     65  C   UNL A   1      42.680  31.448  29.501  1.00  0.00     0.031 C 
ATOM     66  C   UNL A   1      45.063  30.972  29.011  1.00  0.00     0.031 A 
BRANCH  53  67
ATOM     67  C   UNL A   1      48.933  26.459  27.331  1.00  0.00    -0.014 A 
ATOM     68  C   UNL A   1      49.509  26.460  26.050  1.00  0.00     0.009 A 
ATOM     69  C   UNL A   1      49.714  26.052  28.425  1.00  0.00     0.009 A 
ATOM     70  C   UNL A   1      50.822  26.019  25.863  1.00  0.00     0.001 A 
ATOM     71  C   UNL A   1      51.036  25.642  28.239  1.00  0.00     0.001 A 
ATOM     72  C   UNL A   1      51.583  25.615  26.958  1.00  0.00     0.000 A 
ENDBRANCH  53  67
BRANCH  54  73
ATOM     73  C   UNL A   1      39.413  28.823  29.127  1.00  0.00    -0.014 A 
ATOM     74  C   UNL A   1      38.863  28.633  30.405  1.00  0.00     0.009 A 
ATOM     75  C   UNL A   1      38.604  29.360  28.114  1.00  0.00     0.009 A 
ATOM     76  C   UNL A   1      37.528  28.954  30.657  1.00  0.00     0.001 A 
ATOM     77  C   UNL A   1      37.276  29.704  28.375  1.00  0.00     0.001 A 
ATOM     78  C   UNL A   1      36.736  29.493  29.644  1.00  0.00     0.000 A 
ENDBRANCH  54  73
BRANCH  66  79
ATOM     79  C   UNL A   1      45.374  32.405  29.338  1.00  0.00    -0.014 A 
ATOM     80  C   UNL A   1      45.738  32.797  30.635  1.00  0.00     0.009 A 
ATOM     81  C   UNL A   1      45.342  33.369  28.317  1.00  0.00     0.009 A 
ATOM     82  C   UNL A   1      46.033  34.135  30.909  1.00  0.00     0.001 A 
ATOM     83  C   UNL A   1      45.668  34.699  28.589  1.00  0.00     0.001 A 
ATOM     84  C   UNL A   1      46.004  35.082  29.886  1.00  0.00     0.000 A 
ENDBRANCH  66  79
ENDBRANCH  40  41
ENDBRANCH  32  35
ENDBRANCH  30  31
ENDBRANCH  29  30
ENDBRANCH   1  29
TORSDOF 15
ENDMDL
MODEL 3
REMARK VINA RESULT:     -11.8      2.356      8.028
REMARK SMILES CCc1ccc2c(CC(=O)NCCCCNC(=O)c3ccc(-c4c5nc(c(-c6ccccc6)c6ccc([nH]6)c(-c6ccccc6)c6nc(c(-c7ccccc7)c7ccc4[nH]7)C=C6)C=C5)cc3)c(C(=O)c3cc(C)ccn3)[nH]c2c1
REMARK SMILES IDX 13 1 12 2 11 3 9 4 10 5 8 7 7 8 3 9 4 10 79 11 5 12 78 13
REMARK SMILES IDX 6 14 77 15 67 16 2 18 1 19 68 20 69 21 70 22 71 23 76 24
REMARK SMILES IDX 72 25 75 26 73 27 74 28 14 29 15 30 16 31 17 32 18 34 19 35
REMARK SMILES IDX 20 36 66 37 21 38 65 39 22 40 23 41 24 42 59 43 25 44 64 45
REMARK SMILES IDX 58 46 60 47 26 48 63 49 57 50 56 51 27 53 49 54 34 55 48 56
REMARK SMILES IDX 35 57 38 58 47 59 61 60 36 61 37 62 46 64 62 65 39 66 28 67
REMARK SMILES IDX 29 68 33 69 30 70 32 71 31 72 50 73 51 74 55 75 52 76 54 77
REMARK SMILES IDX 53 78 40 79 41 80 45 81 42 82 44 83 43 84
REMARK H PARENT 11 6 77 17 16 33 60 52 38 63
REMARK Flexibility Score: inf
ROOT
ATOM      1  C   UNL A   1      34.731  24.091  26.074  1.00  0.00     0.023 C 
ENDROOT
BRANCH   1   2
ATOM      2  C   UNL A   1      34.275  24.902  24.862  1.00  0.00     0.116 C 
BRANCH   2   3
ATOM      3  N   UNL A   1      34.405  26.327  25.068  1.00  0.00    -0.356 N 
ATOM      4  C   UNL A   1      33.621  27.174  25.799  1.00  0.00     0.224 C 
ATOM      5  O   UNL A   1      34.054  28.318  25.972  1.00  0.00    -0.275 OA
ATOM      6  H   UNL A   1      35.170  26.749  24.613  1.00  0.00     0.163 HD
BRANCH   4   7
ATOM      7  C   UNL A   1      32.348  26.689  26.486  1.00  0.00     0.138 C 
BRANCH   7   8
ATOM      8  C   UNL A   1      31.161  26.498  25.576  1.00  0.00    -0.002 A 
ATOM      9  C   UNL A   1      29.019  29.000  22.906  1.00  0.00    -0.046 A 
ATOM     10  C   UNL A   1      30.164  29.556  23.494  1.00  0.00     0.004 A 
ATOM     11  C   UNL A   1      28.667  27.677  23.214  1.00  0.00     0.030 A 
ATOM     12  C   UNL A   1      30.962  28.825  24.381  1.00  0.00     0.011 A 
ATOM     13  C   UNL A   1      29.480  26.959  24.105  1.00  0.00     0.046 A 
ATOM     14  C   UNL A   1      30.613  27.497  24.700  1.00  0.00     0.004 A 
ATOM     15  N   UNL A   1      29.358  25.672  24.570  1.00  0.00    -0.352 N 
ATOM     16  C   UNL A   1      30.412  25.334  25.394  1.00  0.00     0.093 A 
ATOM     17  H   UNL A   1      28.614  25.069  24.345  1.00  0.00     0.167 HD
BRANCH   9  18
ATOM     18  C   UNL A   1      28.239  29.866  21.938  1.00  0.00     0.032 C 
ATOM     19  C   UNL A   1      28.507  31.364  21.981  1.00  0.00     0.009 C 
ENDBRANCH   9  18
BRANCH  16  20
ATOM     20  C   UNL A   1      30.644  24.009  25.960  1.00  0.00     0.227 C 
ATOM     21  O   UNL A   1      30.396  23.716  27.125  1.00  0.00    -0.285 OA
BRANCH  20  22
ATOM     22  C   UNL A   1      31.273  22.967  25.105  1.00  0.00     0.113 A 
ATOM     23  C   UNL A   1      31.810  21.827  25.696  1.00  0.00     0.036 A 
ATOM     24  N   UNL A   1      31.290  23.211  23.772  1.00  0.00    -0.253 NA
ATOM     25  C   UNL A   1      32.407  20.873  24.871  1.00  0.00    -0.047 A 
ATOM     26  C   UNL A   1      31.838  22.257  22.994  1.00  0.00     0.112 A 
ATOM     27  C   UNL A   1      33.028  19.632  25.437  1.00  0.00     0.044 C 
ATOM     28  C   UNL A   1      32.407  21.092  23.490  1.00  0.00     0.023 A 
ENDBRANCH  20  22
ENDBRANCH  16  20
ENDBRANCH   7   8
ENDBRANCH   4   7
ENDBRANCH   2   3
ENDBRANCH   1   2
BRANCH   1  29
ATOM     29  C   UNL A   1      35.780  23.019  25.770  1.00  0.00     0.023 C 
BRANCH  29  30
ATOM     30  C   UNL A   1      37.101  23.541  25.219  1.00  0.00     0.116 C 
BRANCH  30  31
ATOM     31  N   UNL A   1      38.229  22.662  25.493  1.00  0.00    -0.352 N 
ATOM     32  C   UNL A   1      39.389  22.942  26.173  1.00  0.00     0.251 C 
ATOM     33  H   UNL A   1      38.150  21.745  25.143  1.00  0.00     0.163 HD
ATOM     34  O   UNL A   1      40.296  22.117  26.225  1.00  0.00    -0.269 OA
BRANCH  32  35
ATOM     35  C   UNL A   1      39.555  24.264  26.812  1.00  0.00     0.039 A 
ATOM     36  C   UNL A   1      39.077  24.450  28.112  1.00  0.00     0.014 A 
ATOM     37  C   UNL A   1      40.209  25.303  26.145  1.00  0.00     0.014 A 
ATOM     38  C   UNL A   1      39.319  25.658  28.771  1.00  0.00     0.010 A 
ATOM     39  C   UNL A   1      40.513  26.477  26.828  1.00  0.00     0.010 A 
ATOM     40  C   UNL A   1      40.072  26.666  28.147  1.00  0.00    -0.014 A 
BRANCH  40  41
ATOM     41  C   UNL A   1      40.417  27.924  28.857  1.00  0.00     0.031 A 
ATOM     42  C   UNL A   1      41.755  28.072  29.523  1.00  0.00     0.074 A 
ATOM     43  C   UNL A   1      39.497  28.902  28.967  1.00  0.00     0.049 A 
ATOM     44  N   UNL A   1      42.216  29.066  30.241  1.00  0.00    -0.248 NA
ATOM     45  C   UNL A   1      42.691  26.944  29.388  1.00  0.00     0.031 C 
ATOM     46  C   UNL A   1      38.149  28.870  28.397  1.00  0.00     0.029 A 
ATOM     47  N   UNL A   1      39.559  30.117  29.604  1.00  0.00    -0.354 N 
ATOM     48  C   UNL A   1      43.478  28.672  30.663  1.00  0.00     0.074 A 
ATOM     49  C   UNL A   1      43.696  27.334  30.158  1.00  0.00     0.031 C 
ATOM     50  C   UNL A   1      37.525  30.024  28.678  1.00  0.00     0.029 A 
ATOM     51  C   UNL A   1      38.409  30.858  29.486  1.00  0.00     0.049 A 
ATOM     52  H   UNL A   1      40.352  30.426  30.098  1.00  0.00     0.167 HD
ATOM     53  C   UNL A   1      44.384  29.366  31.392  1.00  0.00     0.031 A 
ATOM     54  C   UNL A   1      38.100  32.074  29.974  1.00  0.00     0.031 A 
ATOM     55  C   UNL A   1      44.175  30.703  31.882  1.00  0.00     0.049 A 
ATOM     56  C   UNL A   1      39.115  32.817  30.798  1.00  0.00     0.074 A 
ATOM     57  C   UNL A   1      45.060  31.519  32.565  1.00  0.00     0.029 A 
ATOM     58  N   UNL A   1      42.994  31.416  31.747  1.00  0.00    -0.354 N 
ATOM     59  N   UNL A   1      40.334  32.463  31.123  1.00  0.00    -0.248 NA
ATOM     60  C   UNL A   1      38.709  34.130  31.318  1.00  0.00     0.031 C 
ATOM     61  C   UNL A   1      44.396  32.706  32.893  1.00  0.00     0.029 A 
ATOM     62  C   UNL A   1      43.117  32.651  32.362  1.00  0.00     0.049 A 
ATOM     63  H   UNL A   1      42.189  31.093  31.283  1.00  0.00     0.167 HD
ATOM     64  C   UNL A   1      40.854  33.524  31.856  1.00  0.00     0.074 A 
ATOM     65  C   UNL A   1      39.819  34.536  31.919  1.00  0.00     0.031 C 
ATOM     66  C   UNL A   1      42.079  33.649  32.419  1.00  0.00     0.031 A 
BRANCH  53  67
ATOM     67  C   UNL A   1      45.679  28.677  31.722  1.00  0.00    -0.014 A 
ATOM     68  C   UNL A   1      46.795  28.770  30.873  1.00  0.00     0.009 A 
ATOM     69  C   UNL A   1      45.791  27.937  32.909  1.00  0.00     0.009 A 
ATOM     70  C   UNL A   1      47.979  28.097  31.185  1.00  0.00     0.001 A 
ATOM     71  C   UNL A   1      46.986  27.292  33.234  1.00  0.00     0.001 A 
ATOM     72  C   UNL A   1      48.074  27.363  32.366  1.00  0.00     0.000 A 
ENDBRANCH  53  67
BRANCH  54  73
ATOM     73  C   UNL A   1      36.781  32.685  29.671  1.00  0.00    -0.014 A 
ATOM     74  C   UNL A   1      36.576  33.355  28.454  1.00  0.00     0.009 A 
ATOM     75  C   UNL A   1      35.722  32.607  30.588  1.00  0.00     0.009 A 
ATOM     76  C   UNL A   1      35.346  33.952  28.171  1.00  0.00     0.001 A 
ATOM     77  C   UNL A   1      34.484  33.183  30.292  1.00  0.00     0.001 A 
ATOM     78  C   UNL A   1      34.300  33.862  29.088  1.00  0.00     0.000 A 
ENDBRANCH  54  73
BRANCH  66  79
ATOM     79  C   UNL A   1      42.386  34.942  33.120  1.00  0.00    -0.014 A 
ATOM     80  C   UNL A   1      43.131  35.954  32.496  1.00  0.00     0.009 A 
ATOM     81  C   UNL A   1      41.881  35.165  34.412  1.00  0.00     0.009 A 
ATOM     82  C   UNL A   1      43.391  37.152  33.166  1.00  0.00     0.001 A 
ATOM     83  C   UNL A   1      42.117  36.375  35.066  1.00  0.00     0.001 A 
ATOM     84  C   UNL A   1      42.880  37.363  34.446  1.00  0.00     0.000 A 
ENDBRANCH  66  79
ENDBRANCH  40  41
ENDBRANCH  32  35
ENDBRANCH  30  31
ENDBRANCH  29  30
ENDBRANCH   1  29
TORSDOF 15
ENDMDL
