MODEL 1
REMARK VINA RESULT:     -10.4      0.000      0.000
REMARK SMILES CC[C@](C)(NC(=O)CCOc1ccc(Cl)c(Cl)c1)C(=O)NCCCCNC(=O)c1ccc(-c2c3nc(c(-c4ccccc4)c4ccc([nH]4)c(-c4ccccc4)c4nc(c(-c5ccccc5)c5ccc2[nH]5)C=C4)C=C3)cc1
REMARK SMILES IDX 22 1 21 2 19 3 20 4 3 6 4 7 2 8 1 9 5 10 6 11 7 13 8 14 9 15
REMARK SMILES IDX 10 16 11 17 12 18 18 19 13 20 16 21 14 22 17 23 15 24 23 25
REMARK SMILES IDX 24 26 25 27 26 28 27 29 28 31 29 32 30 33 76 34 31 35 75 36
REMARK SMILES IDX 32 37 33 38 34 39 69 40 35 41 74 42 68 43 70 44 36 45 73 46
REMARK SMILES IDX 67 47 66 48 37 50 59 51 44 52 58 53 45 54 48 55 57 56 71 57
REMARK SMILES IDX 46 58 47 59 56 61 72 62 49 63 38 64 39 65 43 66 40 67 42 68
REMARK SMILES IDX 41 69 60 70 61 71 65 72 62 73 64 74 63 75 50 76 51 77 55 78
REMARK SMILES IDX 52 79 54 80 53 81
REMARK H PARENT 21 5 5 12 26 30 70 49 48 60
REMARK Flexibility Score: inf
ROOT
ATOM      1  C   UNL A   1      33.793  26.332  25.244  1.00  0.00     0.116 C 
ENDROOT
BRANCH   1   2
ATOM      2  N   UNL A   1      32.685  25.805  26.017  1.00  0.00    -0.354 N 
ATOM      3  C   UNL A   1      32.311  24.528  26.299  1.00  0.00     0.245 C 
ATOM      4  O   UNL A   1      31.407  24.399  27.132  1.00  0.00    -0.272 OA
ATOM      5  H   UNL A   1      32.102  26.494  26.408  1.00  0.00     0.163 HD
BRANCH   3   6
ATOM      6  C   UNL A   1      33.056  23.299  25.704  1.00  0.00     0.116 C 
ATOM      7  C   UNL A   1      32.241  22.036  26.003  1.00  0.00     0.045 C 
BRANCH   6   8
ATOM      8  C   UNL A   1      34.436  23.218  26.433  1.00  0.00     0.035 C 
ATOM      9  C   UNL A   1      35.124  21.857  26.406  1.00  0.00     0.007 C 
ENDBRANCH   6   8
BRANCH   6  10
ATOM     10  N   UNL A   1      33.285  23.475  24.252  1.00  0.00    -0.342 N 
ATOM     11  C   UNL A   1      32.425  23.546  23.199  1.00  0.00     0.224 C 
ATOM     12  H   UNL A   1      34.234  23.553  24.002  1.00  0.00     0.164 HD
ATOM     13  O   UNL A   1      32.912  23.775  22.087  1.00  0.00    -0.275 OA
BRANCH  11  14
ATOM     14  C   UNL A   1      30.927  23.445  23.371  1.00  0.00     0.141 C 
BRANCH  14  15
ATOM     15  C   UNL A   1      30.200  24.790  23.280  1.00  0.00     0.239 C 
BRANCH  15  16
ATOM     16  O   UNL A   1      31.034  25.948  23.411  1.00  0.00    -0.493 OA
BRANCH  16  17
ATOM     17  C   UNL A   1      30.489  27.182  23.191  1.00  0.00     0.120 A 
ATOM     18  C   UNL A   1      31.140  28.264  22.608  1.00  0.00     0.048 A 
ATOM     19  C   UNL A   1      29.136  27.301  23.513  1.00  0.00     0.068 A 
ATOM     20  C   UNL A   1      30.409  29.358  22.141  1.00  0.00     0.026 A 
ATOM     21  C   UNL A   1      28.405  28.418  23.093  1.00  0.00     0.063 A 
ATOM     22  C   UNL A   1      29.034  29.424  22.355  1.00  0.00     0.059 A 
ATOM     23  Cl  UNL A   1      26.714  28.454  23.446  1.00  0.00    -0.083 Cl
ATOM     24  Cl  UNL A   1      28.173  30.743  21.648  1.00  0.00    -0.083 Cl
ENDBRANCH  16  17
ENDBRANCH  15  16
ENDBRANCH  14  15
ENDBRANCH  11  14
ENDBRANCH   6  10
ENDBRANCH   3   6
ENDBRANCH   1   2
BRANCH   1  25
ATOM     25  C   UNL A   1      33.758  27.850  25.079  1.00  0.00     0.023 C 
BRANCH  25  26
ATOM     26  C   UNL A   1      32.943  28.600  26.126  1.00  0.00     0.023 C 
BRANCH  26  27
ATOM     27  C   UNL A   1      33.662  28.795  27.447  1.00  0.00     0.116 C 
BRANCH  27  28
ATOM     28  N   UNL A   1      33.651  30.179  27.896  1.00  0.00    -0.352 N 
ATOM     29  C   UNL A   1      34.664  30.889  28.482  1.00  0.00     0.251 C 
ATOM     30  H   UNL A   1      32.807  30.668  27.759  1.00  0.00     0.163 HD
ATOM     31  O   UNL A   1      34.473  32.017  28.922  1.00  0.00    -0.269 OA
BRANCH  29  32
ATOM     32  C   UNL A   1      35.981  30.246  28.603  1.00  0.00     0.039 A 
ATOM     33  C   UNL A   1      36.871  30.329  27.532  1.00  0.00     0.014 A 
ATOM     34  C   UNL A   1      36.354  29.646  29.809  1.00  0.00     0.014 A 
ATOM     35  C   UNL A   1      38.167  29.846  27.691  1.00  0.00     0.010 A 
ATOM     36  C   UNL A   1      37.672  29.260  29.996  1.00  0.00     0.010 A 
ATOM     37  C   UNL A   1      38.583  29.338  28.933  1.00  0.00    -0.014 A 
BRANCH  37  38
ATOM     38  C   UNL A   1      39.964  28.848  29.132  1.00  0.00     0.031 A 
ATOM     39  C   UNL A   1      40.991  29.760  29.746  1.00  0.00     0.074 A 
ATOM     40  C   UNL A   1      40.301  27.613  28.715  1.00  0.00     0.049 A 
ATOM     41  N   UNL A   1      42.260  29.538  29.970  1.00  0.00    -0.248 NA
ATOM     42  C   UNL A   1      40.539  31.108  30.130  1.00  0.00     0.031 C 
ATOM     43  C   UNL A   1      39.398  26.659  28.065  1.00  0.00     0.029 A 
ATOM     44  N   UNL A   1      41.498  26.948  28.777  1.00  0.00    -0.354 N 
ATOM     45  C   UNL A   1      42.757  30.723  30.497  1.00  0.00     0.074 A 
ATOM     46  C   UNL A   1      41.673  31.678  30.501  1.00  0.00     0.031 C 
ATOM     47  C   UNL A   1      40.064  25.518  27.828  1.00  0.00     0.029 A 
ATOM     48  C   UNL A   1      41.446  25.675  28.265  1.00  0.00     0.049 A 
ATOM     49  H   UNL A   1      42.317  27.346  29.151  1.00  0.00     0.167 HD
ATOM     50  C   UNL A   1      44.001  30.986  30.959  1.00  0.00     0.031 A 
ATOM     51  C   UNL A   1      42.410  24.740  28.164  1.00  0.00     0.031 A 
ATOM     52  C   UNL A   1      45.069  30.023  30.967  1.00  0.00     0.049 A 
ATOM     53  C   UNL A   1      43.787  25.060  28.677  1.00  0.00     0.074 A 
ATOM     54  C   UNL A   1      46.350  30.162  31.469  1.00  0.00     0.029 A 
ATOM     55  N   UNL A   1      44.977  28.743  30.442  1.00  0.00    -0.354 N 
ATOM     56  N   UNL A   1      44.224  26.159  29.243  1.00  0.00    -0.248 NA
ATOM     57  C   UNL A   1      44.800  24.005  28.545  1.00  0.00     0.031 C 
ATOM     58  C   UNL A   1      47.052  28.985  31.196  1.00  0.00     0.029 A 
ATOM     59  C   UNL A   1      46.188  28.090  30.583  1.00  0.00     0.049 A 
ATOM     60  H   UNL A   1      44.170  28.357  30.030  1.00  0.00     0.167 HD
ATOM     61  C   UNL A   1      45.552  25.917  29.564  1.00  0.00     0.074 A 
ATOM     62  C   UNL A   1      45.843  24.561  29.143  1.00  0.00     0.031 C 
ATOM     63  C   UNL A   1      46.453  26.740  30.156  1.00  0.00     0.031 A 
BRANCH  50  64
ATOM     64  C   UNL A   1      44.268  32.369  31.484  1.00  0.00    -0.014 A 
ATOM     65  C   UNL A   1      44.041  32.696  32.831  1.00  0.00     0.009 A 
ATOM     66  C   UNL A   1      44.775  33.354  30.624  1.00  0.00     0.009 A 
ATOM     67  C   UNL A   1      44.277  33.992  33.295  1.00  0.00     0.001 A 
ATOM     68  C   UNL A   1      45.041  34.640  31.099  1.00  0.00     0.001 A 
ATOM     69  C   UNL A   1      44.782  34.961  32.430  1.00  0.00     0.000 A 
ENDBRANCH  50  64
BRANCH  51  70
ATOM     70  C   UNL A   1      42.103  23.409  27.576  1.00  0.00    -0.014 A 
ATOM     71  C   UNL A   1      41.551  22.391  28.369  1.00  0.00     0.009 A 
ATOM     72  C   UNL A   1      42.365  23.146  26.223  1.00  0.00     0.009 A 
ATOM     73  C   UNL A   1      41.298  21.129  27.827  1.00  0.00     0.001 A 
ATOM     74  C   UNL A   1      42.082  21.892  25.676  1.00  0.00     0.001 A 
ATOM     75  C   UNL A   1      41.558  20.882  26.480  1.00  0.00     0.000 A 
ENDBRANCH  51  70
BRANCH  63  76
ATOM     76  C   UNL A   1      47.824  26.182  30.415  1.00  0.00    -0.014 A 
ATOM     77  C   UNL A   1      48.802  26.147  29.409  1.00  0.00     0.009 A 
ATOM     78  C   UNL A   1      48.153  25.729  31.702  1.00  0.00     0.009 A 
ATOM     79  C   UNL A   1      50.071  25.633  29.679  1.00  0.00     0.001 A 
ATOM     80  C   UNL A   1      49.432  25.247  31.977  1.00  0.00     0.001 A 
ATOM     81  C   UNL A   1      50.387  25.190  30.963  1.00  0.00     0.000 A 
ENDBRANCH  63  76
ENDBRANCH  37  38
ENDBRANCH  29  32
ENDBRANCH  27  28
ENDBRANCH  26  27
ENDBRANCH  25  26
ENDBRANCH   1  25
TORSDOF 17
ENDMDL
MODEL 2
REMARK VINA RESULT:     -10.2      2.689      7.317
REMARK SMILES CC[C@](C)(NC(=O)CCOc1ccc(Cl)c(Cl)c1)C(=O)NCCCCNC(=O)c1ccc(-c2c3nc(c(-c4ccccc4)c4ccc([nH]4)c(-c4ccccc4)c4nc(c(-c5ccccc5)c5ccc2[nH]5)C=C4)C=C3)cc1
REMARK SMILES IDX 22 1 21 2 19 3 20 4 3 6 4 7 2 8 1 9 5 10 6 11 7 13 8 14 9 15
REMARK SMILES IDX 10 16 11 17 12 18 18 19 13 20 16 21 14 22 17 23 15 24 23 25
REMARK SMILES IDX 24 26 25 27 26 28 27 29 28 31 29 32 30 33 76 34 31 35 75 36
REMARK SMILES IDX 32 37 33 38 34 39 69 40 35 41 74 42 68 43 70 44 36 45 73 46
REMARK SMILES IDX 67 47 66 48 37 50 59 51 44 52 58 53 45 54 48 55 57 56 71 57
REMARK SMILES IDX 46 58 47 59 56 61 72 62 49 63 38 64 39 65 43 66 40 67 42 68
REMARK SMILES IDX 41 69 60 70 61 71 65 72 62 73 64 74 63 75 50 76 51 77 55 78
REMARK SMILES IDX 52 79 54 80 53 81
REMARK H PARENT 21 5 5 12 26 30 70 49 48 60
REMARK Flexibility Score: inf
ROOT
ATOM      1  C   UNL A   1      36.205  21.570  25.223  1.00  0.00     0.116 C 
ENDROOT
BRANCH   1   2
ATOM      2  N   UNL A   1      35.554  21.786  26.501  1.00  0.00    -0.354 N 
ATOM      3  C   UNL A   1      34.315  22.250  26.814  1.00  0.00     0.245 C 
ATOM      4  O   UNL A   1      33.985  22.161  28.001  1.00  0.00    -0.272 OA
ATOM      5  H   UNL A   1      36.108  21.553  27.281  1.00  0.00     0.163 HD
BRANCH   3   6
ATOM      6  C   UNL A   1      33.322  22.749  25.724  1.00  0.00     0.116 C 
ATOM      7  C   UNL A   1      32.821  21.541  24.925  1.00  0.00     0.045 C 
BRANCH   6   8
ATOM      8  C   UNL A   1      34.131  23.700  24.785  1.00  0.00     0.035 C 
ATOM      9  C   UNL A   1      34.656  24.980  25.427  1.00  0.00     0.007 C 
ENDBRANCH   6   8
BRANCH   6  10
ATOM     10  N   UNL A   1      32.206  23.504  26.335  1.00  0.00    -0.342 N 
ATOM     11  C   UNL A   1      31.121  24.121  25.791  1.00  0.00     0.224 C 
ATOM     12  H   UNL A   1      32.258  23.575  27.316  1.00  0.00     0.164 HD
ATOM     13  O   UNL A   1      30.303  24.619  26.572  1.00  0.00    -0.275 OA
BRANCH  11  14
ATOM     14  C   UNL A   1      30.859  24.131  24.303  1.00  0.00     0.141 C 
BRANCH  14  15
ATOM     15  C   UNL A   1      30.114  25.375  23.812  1.00  0.00     0.239 C 
BRANCH  15  16
ATOM     16  O   UNL A   1      30.910  26.320  23.086  1.00  0.00    -0.493 OA
BRANCH  16  17
ATOM     17  C   UNL A   1      31.221  27.513  23.676  1.00  0.00     0.120 A 
ATOM     18  C   UNL A   1      30.564  28.720  23.462  1.00  0.00     0.048 A 
ATOM     19  C   UNL A   1      32.234  27.455  24.636  1.00  0.00     0.068 A 
ATOM     20  C   UNL A   1      30.748  29.788  24.342  1.00  0.00     0.026 A 
ATOM     21  C   UNL A   1      32.460  28.541  25.491  1.00  0.00     0.063 A 
ATOM     22  C   UNL A   1      31.674  29.691  25.378  1.00  0.00     0.059 A 
ATOM     23  Cl  UNL A   1      33.667  28.364  26.714  1.00  0.00    -0.083 Cl
ATOM     24  Cl  UNL A   1      31.766  30.999  26.500  1.00  0.00    -0.083 Cl
ENDBRANCH  16  17
ENDBRANCH  15  16
ENDBRANCH  14  15
ENDBRANCH  11  14
ENDBRANCH   6  10
ENDBRANCH   3   6
ENDBRANCH   1   2
BRANCH   1  25
ATOM     25  C   UNL A   1      36.662  20.130  25.004  1.00  0.00     0.023 C 
BRANCH  25  26
ATOM     26  C   UNL A   1      38.129  19.961  24.627  1.00  0.00     0.023 C 
BRANCH  26  27
ATOM     27  C   UNL A   1      39.088  20.114  25.792  1.00  0.00     0.116 C 
BRANCH  27  28
ATOM     28  N   UNL A   1      40.087  19.057  25.841  1.00  0.00    -0.352 N 
ATOM     29  C   UNL A   1      41.432  19.171  26.068  1.00  0.00     0.251 C 
ATOM     30  H   UNL A   1      39.752  18.142  25.694  1.00  0.00     0.163 HD
ATOM     31  O   UNL A   1      42.176  18.203  25.959  1.00  0.00    -0.269 OA
BRANCH  29  32
ATOM     32  C   UNL A   1      41.968  20.497  26.411  1.00  0.00     0.039 A 
ATOM     33  C   UNL A   1      42.292  21.378  25.380  1.00  0.00     0.014 A 
ATOM     34  C   UNL A   1      42.059  20.886  27.750  1.00  0.00     0.014 A 
ATOM     35  C   UNL A   1      42.665  22.681  25.695  1.00  0.00     0.010 A 
ATOM     36  C   UNL A   1      42.333  22.210  28.055  1.00  0.00     0.010 A 
ATOM     37  C   UNL A   1      42.658  23.112  27.032  1.00  0.00    -0.014 A 
BRANCH  37  38
ATOM     38  C   UNL A   1      43.022  24.501  27.388  1.00  0.00     0.031 A 
ATOM     39  C   UNL A   1      44.462  24.928  27.321  1.00  0.00     0.074 A 
ATOM     40  C   UNL A   1      42.071  25.351  27.820  1.00  0.00     0.049 A 
ATOM     41  N   UNL A   1      44.994  26.083  27.628  1.00  0.00    -0.248 NA
ATOM     42  C   UNL A   1      45.437  23.916  26.881  1.00  0.00     0.031 C 
ATOM     43  C   UNL A   1      40.648  25.030  27.968  1.00  0.00     0.029 A 
ATOM     44  N   UNL A   1      42.159  26.661  28.212  1.00  0.00    -0.354 N 
ATOM     45  C   UNL A   1      46.361  25.925  27.438  1.00  0.00     0.074 A 
ATOM     46  C   UNL A   1      46.584  24.551  27.053  1.00  0.00     0.031 C 
ATOM     47  C   UNL A   1      39.993  26.128  28.379  1.00  0.00     0.029 A 
ATOM     48  C   UNL A   1      40.951  27.211  28.565  1.00  0.00     0.049 A 
ATOM     49  H   UNL A   1      43.007  27.160  28.240  1.00  0.00     0.167 HD
ATOM     50  C   UNL A   1      47.341  26.851  27.552  1.00  0.00     0.031 A 
ATOM     51  C   UNL A   1      40.654  28.453  28.990  1.00  0.00     0.031 A 
ATOM     52  C   UNL A   1      47.107  28.221  27.920  1.00  0.00     0.049 A 
ATOM     53  C   UNL A   1      41.763  29.460  29.117  1.00  0.00     0.074 A 
ATOM     54  C   UNL A   1      48.018  29.257  28.004  1.00  0.00     0.029 A 
ATOM     55  N   UNL A   1      45.870  28.740  28.268  1.00  0.00    -0.354 N 
ATOM     56  N   UNL A   1      43.042  29.319  28.862  1.00  0.00    -0.248 NA
ATOM     57  C   UNL A   1      41.385  30.801  29.582  1.00  0.00     0.031 C 
ATOM     58  C   UNL A   1      47.341  30.392  28.459  1.00  0.00     0.029 A 
ATOM     59  C   UNL A   1      45.997  30.078  28.596  1.00  0.00     0.049 A 
ATOM     60  H   UNL A   1      45.025  28.233  28.280  1.00  0.00     0.167 HD
ATOM     61  C   UNL A   1      43.615  30.560  29.103  1.00  0.00     0.074 A 
ATOM     62  C   UNL A   1      42.541  31.444  29.510  1.00  0.00     0.031 C 
ATOM     63  C   UNL A   1      44.914  30.938  28.998  1.00  0.00     0.031 A 
BRANCH  50  64
ATOM     64  C   UNL A   1      48.751  26.403  27.284  1.00  0.00    -0.014 A 
ATOM     65  C   UNL A   1      49.288  26.417  25.986  1.00  0.00     0.009 A 
ATOM     66  C   UNL A   1      49.562  25.982  28.348  1.00  0.00     0.009 A 
ATOM     67  C   UNL A   1      50.593  25.978  25.754  1.00  0.00     0.001 A 
ATOM     68  C   UNL A   1      50.878  25.576  28.118  1.00  0.00     0.001 A 
ATOM     69  C   UNL A   1      51.389  25.564  26.821  1.00  0.00     0.000 A 
ENDBRANCH  50  64
BRANCH  51  70
ATOM     70  C   UNL A   1      39.248  28.822  29.303  1.00  0.00    -0.014 A 
ATOM     71  C   UNL A   1      38.743  28.659  30.603  1.00  0.00     0.009 A 
ATOM     72  C   UNL A   1      38.402  29.331  28.307  1.00  0.00     0.009 A 
ATOM     73  C   UNL A   1      37.411  28.969  30.890  1.00  0.00     0.001 A 
ATOM     74  C   UNL A   1      37.079  29.670  28.604  1.00  0.00     0.001 A 
ATOM     75  C   UNL A   1      36.582  29.479  29.892  1.00  0.00     0.000 A 
ENDBRANCH  51  70
BRANCH  63  76
ATOM     76  C   UNL A   1      45.235  32.376  29.291  1.00  0.00    -0.014 A 
ATOM     77  C   UNL A   1      45.664  32.785  30.563  1.00  0.00     0.009 A 
ATOM     78  C   UNL A   1      45.150  33.326  28.261  1.00  0.00     0.009 A 
ATOM     79  C   UNL A   1      45.966  34.126  30.805  1.00  0.00     0.001 A 
ATOM     80  C   UNL A   1      45.485  34.659  28.498  1.00  0.00     0.001 A 
ATOM     81  C   UNL A   1      45.883  35.059  29.772  1.00  0.00     0.000 A 
ENDBRANCH  63  76
ENDBRANCH  37  38
ENDBRANCH  29  32
ENDBRANCH  27  28
ENDBRANCH  26  27
ENDBRANCH  25  26
ENDBRANCH   1  25
TORSDOF 17
ENDMDL
MODEL 3
REMARK VINA RESULT:     -10.1      3.793      5.752
REMARK SMILES CC[C@](C)(NC(=O)CCOc1ccc(Cl)c(Cl)c1)C(=O)NCCCCNC(=O)c1ccc(-c2c3nc(c(-c4ccccc4)c4ccc([nH]4)c(-c4ccccc4)c4nc(c(-c5ccccc5)c5ccc2[nH]5)C=C4)C=C3)cc1
REMARK SMILES IDX 22 1 21 2 19 3 20 4 3 6 4 7 2 8 1 9 5 10 6 11 7 13 8 14 9 15
REMARK SMILES IDX 10 16 11 17 12 18 18 19 13 20 16 21 14 22 17 23 15 24 23 25
REMARK SMILES IDX 24 26 25 27 26 28 27 29 28 31 29 32 30 33 76 34 31 35 75 36
REMARK SMILES IDX 32 37 33 38 34 39 69 40 35 41 74 42 68 43 70 44 36 45 73 46
REMARK SMILES IDX 67 47 66 48 37 50 59 51 44 52 58 53 45 54 48 55 57 56 71 57
REMARK SMILES IDX 46 58 47 59 56 61 72 62 49 63 38 64 39 65 43 66 40 67 42 68
REMARK SMILES IDX 41 69 60 70 61 71 65 72 62 73 64 74 63 75 50 76 51 77 55 78
REMARK SMILES IDX 52 79 54 80 53 81
REMARK H PARENT 21 5 5 12 26 30 70 49 48 60
REMARK Flexibility Score: inf
ROOT
ATOM      1  C   UNL A   1      32.148  30.059  25.321  1.00  0.00     0.116 C 
ENDROOT
BRANCH   1   2
ATOM      2  N   UNL A   1      31.031  29.559  24.543  1.00  0.00    -0.354 N 
ATOM      3  C   UNL A   1      30.938  28.531  23.658  1.00  0.00     0.245 C 
ATOM      4  O   UNL A   1      29.798  28.243  23.279  1.00  0.00    -0.272 OA
ATOM      5  H   UNL A   1      30.190  30.051  24.682  1.00  0.00     0.163 HD
BRANCH   3   6
ATOM      6  C   UNL A   1      32.176  27.687  23.242  1.00  0.00     0.116 C 
ATOM      7  C   UNL A   1      33.149  28.587  22.472  1.00  0.00     0.045 C 
BRANCH   6   8
ATOM      8  C   UNL A   1      31.651  26.556  22.300  1.00  0.00     0.035 C 
ATOM      9  C   UNL A   1      32.699  25.876  21.427  1.00  0.00     0.007 C 
ENDBRANCH   6   8
BRANCH   6  10
ATOM     10  N   UNL A   1      32.817  27.072  24.426  1.00  0.00    -0.342 N 
ATOM     11  C   UNL A   1      32.345  26.213  25.370  1.00  0.00     0.224 C 
ATOM     12  H   UNL A   1      33.757  27.335  24.555  1.00  0.00     0.164 HD
ATOM     13  O   UNL A   1      33.150  25.806  26.216  1.00  0.00    -0.275 OA
BRANCH  11  14
ATOM     14  C   UNL A   1      30.927  25.691  25.353  1.00  0.00     0.141 C 
BRANCH  14  15
ATOM     15  C   UNL A   1      30.827  24.164  25.331  1.00  0.00     0.239 C 
BRANCH  15  16
ATOM     16  O   UNL A   1      31.207  23.542  24.097  1.00  0.00    -0.493 OA
BRANCH  16  17
ATOM     17  C   UNL A   1      32.331  22.765  24.068  1.00  0.00     0.120 A 
ATOM     18  C   UNL A   1      33.609  23.198  23.732  1.00  0.00     0.048 A 
ATOM     19  C   UNL A   1      32.156  21.450  24.503  1.00  0.00     0.068 A 
ATOM     20  C   UNL A   1      34.723  22.416  24.043  1.00  0.00     0.026 A 
ATOM     21  C   UNL A   1      33.266  20.639  24.770  1.00  0.00     0.063 A 
ATOM     22  C   UNL A   1      34.556  21.146  24.591  1.00  0.00     0.059 A 
ATOM     23  Cl  UNL A   1      32.976  19.055  25.394  1.00  0.00    -0.083 Cl
ATOM     24  Cl  UNL A   1      35.974  20.281  25.062  1.00  0.00    -0.083 Cl
ENDBRANCH  16  17
ENDBRANCH  15  16
ENDBRANCH  14  15
ENDBRANCH  11  14
ENDBRANCH   6  10
ENDBRANCH   3   6
ENDBRANCH   1   2
BRANCH   1  25
ATOM     25  C   UNL A   1      31.755  30.551  26.712  1.00  0.00     0.023 C 
BRANCH  25  26
ATOM     26  C   UNL A   1      31.506  32.051  26.827  1.00  0.00     0.023 C 
BRANCH  26  27
ATOM     27  C   UNL A   1      32.727  32.850  27.241  1.00  0.00     0.116 C 
BRANCH  27  28
ATOM     28  N   UNL A   1      32.397  34.203  27.664  1.00  0.00    -0.352 N 
ATOM     29  C   UNL A   1      33.002  34.962  28.629  1.00  0.00     0.251 C 
ATOM     30  H   UNL A   1      31.642  34.627  27.194  1.00  0.00     0.163 HD
ATOM     31  O   UNL A   1      32.538  36.045  28.966  1.00  0.00    -0.269 OA
BRANCH  29  32
ATOM     32  C   UNL A   1      34.207  34.424  29.279  1.00  0.00     0.039 A 
ATOM     33  C   UNL A   1      34.062  33.665  30.440  1.00  0.00     0.014 A 
ATOM     34  C   UNL A   1      35.458  34.603  28.683  1.00  0.00     0.014 A 
ATOM     35  C   UNL A   1      35.180  33.037  30.981  1.00  0.00     0.010 A 
ATOM     36  C   UNL A   1      36.548  33.896  29.166  1.00  0.00     0.010 A 
ATOM     37  C   UNL A   1      36.422  33.124  30.330  1.00  0.00    -0.014 A 
BRANCH  37  38
ATOM     38  C   UNL A   1      37.617  32.440  30.871  1.00  0.00     0.031 A 
ATOM     39  C   UNL A   1      38.267  32.966  32.120  1.00  0.00     0.074 A 
ATOM     40  C   UNL A   1      38.141  31.390  30.211  1.00  0.00     0.049 A 
ATOM     41  N   UNL A   1      39.341  32.537  32.733  1.00  0.00    -0.248 NA
ATOM     42  C   UNL A   1      37.649  34.146  32.747  1.00  0.00     0.031 C 
ATOM     43  C   UNL A   1      37.619  30.823  28.964  1.00  0.00     0.029 A 
ATOM     44  N   UNL A   1      39.230  30.611  30.500  1.00  0.00    -0.354 N 
ATOM     45  C   UNL A   1      39.534  33.408  33.798  1.00  0.00     0.074 A 
ATOM     46  C   UNL A   1      38.509  34.422  33.713  1.00  0.00     0.031 C 
ATOM     47  C   UNL A   1      38.365  29.761  28.620  1.00  0.00     0.029 A 
ATOM     48  C   UNL A   1      39.440  29.601  29.593  1.00  0.00     0.049 A 
ATOM     49  H   UNL A   1      39.809  30.761  31.282  1.00  0.00     0.167 HD
ATOM     50  C   UNL A   1      40.468  33.353  34.775  1.00  0.00     0.031 A 
ATOM     51  C   UNL A   1      40.393  28.652  29.555  1.00  0.00     0.031 A 
ATOM     52  C   UNL A   1      41.474  32.329  34.861  1.00  0.00     0.049 A 
ATOM     53  C   UNL A   1      41.426  28.618  30.648  1.00  0.00     0.074 A 
ATOM     54  C   UNL A   1      42.430  32.141  35.842  1.00  0.00     0.029 A 
ATOM     55  N   UNL A   1      41.652  31.322  33.924  1.00  0.00    -0.354 N 
ATOM     56  N   UNL A   1      41.552  29.402  31.691  1.00  0.00    -0.248 NA
ATOM     57  C   UNL A   1      42.442  27.561  30.561  1.00  0.00     0.031 C 
ATOM     58  C   UNL A   1      43.224  31.054  35.469  1.00  0.00     0.029 A 
ATOM     59  C   UNL A   1      42.722  30.525  34.290  1.00  0.00     0.049 A 
ATOM     60  H   UNL A   1      41.100  31.194  33.119  1.00  0.00     0.167 HD
ATOM     61  C   UNL A   1      42.640  28.914  32.402  1.00  0.00     0.074 A 
ATOM     62  C   UNL A   1      43.127  27.757  31.678  1.00  0.00     0.031 C 
ATOM     63  C   UNL A   1      43.188  29.379  33.552  1.00  0.00     0.031 A 
BRANCH  50  64
ATOM     64  C   UNL A   1      40.446  34.435  35.817  1.00  0.00    -0.014 A 
ATOM     65  C   UNL A   1      41.255  35.578  35.703  1.00  0.00     0.009 A 
ATOM     66  C   UNL A   1      39.585  34.322  36.920  1.00  0.00     0.009 A 
ATOM     67  C   UNL A   1      41.234  36.563  36.692  1.00  0.00     0.001 A 
ATOM     68  C   UNL A   1      39.542  35.325  37.890  1.00  0.00     0.001 A 
ATOM     69  C   UNL A   1      40.373  36.439  37.782  1.00  0.00     0.000 A 
ENDBRANCH  50  64
BRANCH  51  70
ATOM     70  C   UNL A   1      40.404  27.643  28.462  1.00  0.00    -0.014 A 
ATOM     71  C   UNL A   1      39.727  26.423  28.613  1.00  0.00     0.009 A 
ATOM     72  C   UNL A   1      41.094  27.891  27.266  1.00  0.00     0.009 A 
ATOM     73  C   UNL A   1      39.767  25.460  27.602  1.00  0.00     0.001 A 
ATOM     74  C   UNL A   1      41.107  26.938  26.244  1.00  0.00     0.001 A 
ATOM     75  C   UNL A   1      40.453  25.720  26.417  1.00  0.00     0.000 A 
ENDBRANCH  51  70
BRANCH  63  76
ATOM     76  C   UNL A   1      44.352  28.613  34.115  1.00  0.00    -0.014 A 
ATOM     77  C   UNL A   1      45.675  28.953  33.795  1.00  0.00     0.009 A 
ATOM     78  C   UNL A   1      44.116  27.563  35.017  1.00  0.00     0.009 A 
ATOM     79  C   UNL A   1      46.738  28.231  34.340  1.00  0.00     0.001 A 
ATOM     80  C   UNL A   1      45.181  26.866  35.586  1.00  0.00     0.001 A 
ATOM     81  C   UNL A   1      46.491  27.194  35.239  1.00  0.00     0.000 A 
ENDBRANCH  63  76
ENDBRANCH  37  38
ENDBRANCH  29  32
ENDBRANCH  27  28
ENDBRANCH  26  27
ENDBRANCH  25  26
ENDBRANCH   1  25
TORSDOF 17
ENDMDL
