MODEL 1
REMARK VINA RESULT:     -10.9      0.000      0.000
REMARK SMILES C[C@@H]1CCC[C@](CCSc2ccccc2)(C(=O)NCCCCNC(=O)c2ccc(-c3c4nc(c(-c5ccccc5)c5ccc([nH]5)c(-c5ccccc5)c5nc(c(-c6ccccc6)c6ccc3[nH]6)C=C5)C=C4)cc2)C1
REMARK SMILES IDX 19 1 18 2 16 3 17 4 6 6 1 7 2 8 3 9 74 10 4 11 5 12 7 13
REMARK SMILES IDX 8 14 9 15 10 16 11 17 15 18 12 19 14 20 13 21 20 22 21 23
REMARK SMILES IDX 22 24 23 25 24 26 25 28 26 29 27 30 73 31 28 32 72 33 29 34
REMARK SMILES IDX 30 35 31 36 66 37 32 38 71 39 65 40 67 41 33 42 70 43 64 44
REMARK SMILES IDX 63 45 34 47 56 48 41 49 55 50 42 51 45 52 54 53 68 54 43 55
REMARK SMILES IDX 44 56 53 58 69 59 46 60 35 61 36 62 40 63 37 64 39 65 38 66
REMARK SMILES IDX 57 67 58 68 62 69 59 70 61 71 60 72 47 73 48 74 52 75 49 76
REMARK SMILES IDX 51 77 50 78
REMARK H PARENT 18 5 23 27 67 46 45 57
REMARK Flexibility Score: inf
ROOT
ATOM      1  C   UNL A   1      32.326  27.836  26.660  1.00  0.00     0.116 C 
ENDROOT
BRANCH   1   2
ATOM      2  N   UNL A   1      31.368  26.770  26.763  1.00  0.00    -0.356 N 
ATOM      3  C   UNL A   1      30.640  26.093  25.848  1.00  0.00     0.226 C 
ATOM      4  O   UNL A   1      29.700  25.460  26.348  1.00  0.00    -0.274 OA
ATOM      5  H   UNL A   1      31.210  26.472  27.688  1.00  0.00     0.163 HD
BRANCH   3   6
ATOM      6  C   UNL A   1      30.848  26.133  24.301  1.00  0.00     0.050 C 
ATOM      7  C   UNL A   1      34.037  28.218  23.705  1.00  0.00     0.007 C 
ATOM      8  C   UNL A   1      32.668  27.759  23.168  1.00  0.00    -0.013 C 
ATOM      9  C   UNL A   1      31.630  28.888  23.152  1.00  0.00     0.003 C 
ATOM     10  C   UNL A   1      32.280  26.410  23.801  1.00  0.00     0.020 C 
ATOM     11  C   UNL A   1      30.251  28.591  23.731  1.00  0.00     0.001 C 
ATOM     12  C   UNL A   1      29.840  27.129  23.682  1.00  0.00     0.017 C 
BRANCH   6  13
ATOM     13  C   UNL A   1      30.423  24.685  23.797  1.00  0.00     0.028 C 
BRANCH  13  14
ATOM     14  C   UNL A   1      31.506  23.658  23.387  1.00  0.00     0.076 C 
BRANCH  14  15
ATOM     15  S   UNL A   1      32.226  22.565  24.664  1.00  0.00    -0.126 SA
BRANCH  15  16
ATOM     16  C   UNL A   1      33.953  23.011  24.655  1.00  0.00     0.007 A 
ATOM     17  C   UNL A   1      34.728  22.627  23.553  1.00  0.00     0.015 A 
ATOM     18  C   UNL A   1      34.556  23.749  25.678  1.00  0.00     0.015 A 
ATOM     19  C   UNL A   1      36.096  22.907  23.510  1.00  0.00     0.001 A 
ATOM     20  C   UNL A   1      35.926  24.025  25.639  1.00  0.00     0.001 A 
ATOM     21  C   UNL A   1      36.699  23.593  24.561  1.00  0.00     0.000 A 
ENDBRANCH  15  16
ENDBRANCH  14  15
ENDBRANCH  13  14
ENDBRANCH   6  13
ENDBRANCH   3   6
ENDBRANCH   1   2
BRANCH   1  22
ATOM     22  C   UNL A   1      31.766  29.117  27.276  1.00  0.00     0.023 C 
BRANCH  22  23
ATOM     23  C   UNL A   1      32.121  30.377  26.492  1.00  0.00     0.023 C 
BRANCH  23  24
ATOM     24  C   UNL A   1      33.075  31.319  27.216  1.00  0.00     0.116 C 
BRANCH  24  25
ATOM     25  N   UNL A   1      32.522  32.647  27.448  1.00  0.00    -0.352 N 
ATOM     26  C   UNL A   1      33.082  33.669  28.174  1.00  0.00     0.251 C 
ATOM     27  H   UNL A   1      31.646  32.833  27.036  1.00  0.00     0.163 HD
ATOM     28  O   UNL A   1      32.494  34.727  28.363  1.00  0.00    -0.269 OA
BRANCH  26  29
ATOM     29  C   UNL A   1      34.414  33.436  28.753  1.00  0.00     0.039 A 
ATOM     30  C   UNL A   1      34.519  32.733  29.954  1.00  0.00     0.014 A 
ATOM     31  C   UNL A   1      35.547  33.786  28.014  1.00  0.00     0.014 A 
ATOM     32  C   UNL A   1      35.776  32.314  30.388  1.00  0.00     0.010 A 
ATOM     33  C   UNL A   1      36.786  33.309  28.413  1.00  0.00     0.010 A 
ATOM     34  C   UNL A   1      36.911  32.567  29.601  1.00  0.00    -0.014 A 
BRANCH  34  35
ATOM     35  C   UNL A   1      38.257  32.094  29.998  1.00  0.00     0.031 A 
ATOM     36  C   UNL A   1      38.753  30.780  29.469  1.00  0.00     0.074 A 
ATOM     37  C   UNL A   1      38.980  32.784  30.901  1.00  0.00     0.049 A 
ATOM     38  N   UNL A   1      39.815  30.098  29.812  1.00  0.00    -0.248 NA
ATOM     39  C   UNL A   1      37.919  30.127  28.446  1.00  0.00     0.031 C 
ATOM     40  C   UNL A   1      38.594  34.058  31.510  1.00  0.00     0.029 A 
ATOM     41  N   UNL A   1      40.191  32.493  31.476  1.00  0.00    -0.354 N 
ATOM     42  C   UNL A   1      39.754  28.922  29.075  1.00  0.00     0.074 A 
ATOM     43  C   UNL A   1      38.534  28.965  28.300  1.00  0.00     0.031 C 
ATOM     44  C   UNL A   1      39.557  34.445  32.363  1.00  0.00     0.029 A 
ATOM     45  C   UNL A   1      40.605  33.430  32.392  1.00  0.00     0.049 A 
ATOM     46  H   UNL A   1      40.714  31.689  31.255  1.00  0.00     0.167 HD
ATOM     47  C   UNL A   1      40.645  27.904  29.034  1.00  0.00     0.031 A 
ATOM     48  C   UNL A   1      41.700  33.458  33.173  1.00  0.00     0.031 A 
ATOM     49  C   UNL A   1      41.871  27.879  29.780  1.00  0.00     0.049 A 
ATOM     50  C   UNL A   1      42.685  32.324  33.098  1.00  0.00     0.074 A 
ATOM     51  C   UNL A   1      42.865  26.918  29.773  1.00  0.00     0.029 A 
ATOM     52  N   UNL A   1      42.274  28.870  30.660  1.00  0.00    -0.354 N 
ATOM     53  N   UNL A   1      42.635  31.236  32.368  1.00  0.00    -0.248 NA
ATOM     54  C   UNL A   1      43.880  32.425  33.948  1.00  0.00     0.031 C 
ATOM     55  C   UNL A   1      43.861  27.315  30.672  1.00  0.00     0.029 A 
ATOM     56  C   UNL A   1      43.504  28.543  31.205  1.00  0.00     0.049 A 
ATOM     57  H   UNL A   1      41.763  29.686  30.866  1.00  0.00     0.167 HD
ATOM     58  C   UNL A   1      43.807  30.542  32.643  1.00  0.00     0.074 A 
ATOM     59  C   UNL A   1      44.548  31.332  33.604  1.00  0.00     0.031 C 
ATOM     60  C   UNL A   1      44.231  29.356  32.142  1.00  0.00     0.031 A 
BRANCH  47  61
ATOM     61  C   UNL A   1      40.309  26.736  28.152  1.00  0.00    -0.014 A 
ATOM     62  C   UNL A   1      39.494  25.689  28.612  1.00  0.00     0.009 A 
ATOM     63  C   UNL A   1      40.809  26.684  26.843  1.00  0.00     0.009 A 
ATOM     64  C   UNL A   1      39.223  24.592  27.792  1.00  0.00     0.001 A 
ATOM     65  C   UNL A   1      40.513  25.599  26.015  1.00  0.00     0.001 A 
ATOM     66  C   UNL A   1      39.730  24.550  26.494  1.00  0.00     0.000 A 
ENDBRANCH  47  61
BRANCH  48  67
ATOM     67  C   UNL A   1      41.940  34.608  34.083  1.00  0.00    -0.014 A 
ATOM     68  C   UNL A   1      41.528  34.548  35.423  1.00  0.00     0.009 A 
ATOM     69  C   UNL A   1      42.573  35.771  33.618  1.00  0.00     0.009 A 
ATOM     70  C   UNL A   1      41.721  35.640  36.273  1.00  0.00     0.001 A 
ATOM     71  C   UNL A   1      42.786  36.852  34.477  1.00  0.00     0.001 A 
ATOM     72  C   UNL A   1      42.353  36.789  35.801  1.00  0.00     0.000 A 
ENDBRANCH  48  67
BRANCH  60  73
ATOM     73  C   UNL A   1      45.583  28.869  32.576  1.00  0.00    -0.014 A 
ATOM     74  C   UNL A   1      46.748  29.241  31.891  1.00  0.00     0.009 A 
ATOM     75  C   UNL A   1      45.691  28.079  33.732  1.00  0.00     0.009 A 
ATOM     76  C   UNL A   1      47.996  28.814  32.344  1.00  0.00     0.001 A 
ATOM     77  C   UNL A   1      46.942  27.674  34.197  1.00  0.00     0.001 A 
ATOM     78  C   UNL A   1      48.093  28.037  33.499  1.00  0.00     0.000 A 
ENDBRANCH  60  73
ENDBRANCH  34  35
ENDBRANCH  26  29
ENDBRANCH  24  25
ENDBRANCH  23  24
ENDBRANCH  22  23
ENDBRANCH   1  22
TORSDOF 15
ENDMDL
MODEL 2
REMARK VINA RESULT:     -10.8      3.432      8.378
REMARK SMILES C[C@@H]1CCC[C@](CCSc2ccccc2)(C(=O)NCCCCNC(=O)c2ccc(-c3c4nc(c(-c5ccccc5)c5ccc([nH]5)c(-c5ccccc5)c5nc(c(-c6ccccc6)c6ccc3[nH]6)C=C5)C=C4)cc2)C1
REMARK SMILES IDX 19 1 18 2 16 3 17 4 6 6 1 7 2 8 3 9 74 10 4 11 5 12 7 13
REMARK SMILES IDX 8 14 9 15 10 16 11 17 15 18 12 19 14 20 13 21 20 22 21 23
REMARK SMILES IDX 22 24 23 25 24 26 25 28 26 29 27 30 73 31 28 32 72 33 29 34
REMARK SMILES IDX 30 35 31 36 66 37 32 38 71 39 65 40 67 41 33 42 70 43 64 44
REMARK SMILES IDX 63 45 34 47 56 48 41 49 55 50 42 51 45 52 54 53 68 54 43 55
REMARK SMILES IDX 44 56 53 58 69 59 46 60 35 61 36 62 40 63 37 64 39 65 38 66
REMARK SMILES IDX 57 67 58 68 62 69 59 70 61 71 60 72 47 73 48 74 52 75 49 76
REMARK SMILES IDX 51 77 50 78
REMARK H PARENT 18 5 23 27 67 46 45 57
REMARK Flexibility Score: inf
ROOT
ATOM      1  C   UNL A   1      34.917  20.546  24.992  1.00  0.00     0.116 C 
ENDROOT
BRANCH   1   2
ATOM      2  N   UNL A   1      34.569  21.091  26.275  1.00  0.00    -0.356 N 
ATOM      3  C   UNL A   1      33.910  22.207  26.656  1.00  0.00     0.226 C 
ATOM      4  O   UNL A   1      34.080  22.488  27.850  1.00  0.00    -0.274 OA
ATOM      5  H   UNL A   1      34.874  20.539  27.032  1.00  0.00     0.163 HD
BRANCH   3   6
ATOM      6  C   UNL A   1      33.078  23.142  25.721  1.00  0.00     0.050 C 
ATOM      7  C   UNL A   1      32.221  21.045  22.600  1.00  0.00     0.007 C 
ATOM      8  C   UNL A   1      32.495  22.442  23.189  1.00  0.00    -0.013 C 
ATOM      9  C   UNL A   1      33.839  23.023  22.733  1.00  0.00     0.003 C 
ATOM     10  C   UNL A   1      32.158  22.453  24.692  1.00  0.00     0.020 C 
ATOM     11  C   UNL A   1      34.750  23.622  23.798  1.00  0.00     0.001 C 
ATOM     12  C   UNL A   1      34.033  24.144  25.032  1.00  0.00     0.017 C 
BRANCH   6  13
ATOM     13  C   UNL A   1      32.164  23.991  26.707  1.00  0.00     0.028 C 
BRANCH  13  14
ATOM     14  C   UNL A   1      30.703  24.323  26.317  1.00  0.00     0.076 C 
BRANCH  14  15
ATOM     15  S   UNL A   1      30.374  25.767  25.244  1.00  0.00    -0.126 SA
BRANCH  15  16
ATOM     16  C   UNL A   1      31.612  26.945  25.756  1.00  0.00     0.007 A 
ATOM     17  C   UNL A   1      31.445  27.584  26.991  1.00  0.00     0.015 A 
ATOM     18  C   UNL A   1      32.751  27.233  24.998  1.00  0.00     0.015 A 
ATOM     19  C   UNL A   1      32.356  28.549  27.425  1.00  0.00     0.001 A 
ATOM     20  C   UNL A   1      33.661  28.203  25.428  1.00  0.00     0.001 A 
ATOM     21  C   UNL A   1      33.457  28.871  26.636  1.00  0.00     0.000 A 
ENDBRANCH  15  16
ENDBRANCH  14  15
ENDBRANCH  13  14
ENDBRANCH   6  13
ENDBRANCH   3   6
ENDBRANCH   1   2
BRANCH   1  22
ATOM     22  C   UNL A   1      36.396  20.165  24.958  1.00  0.00     0.023 C 
BRANCH  22  23
ATOM     23  C   UNL A   1      37.331  21.360  24.796  1.00  0.00     0.023 C 
BRANCH  23  24
ATOM     24  C   UNL A   1      38.548  21.334  25.713  1.00  0.00     0.116 C 
BRANCH  24  25
ATOM     25  N   UNL A   1      39.344  20.119  25.592  1.00  0.00    -0.352 N 
ATOM     26  C   UNL A   1      40.661  19.947  25.940  1.00  0.00     0.251 C 
ATOM     27  H   UNL A   1      38.885  19.331  25.219  1.00  0.00     0.163 HD
ATOM     28  O   UNL A   1      41.254  18.897  25.729  1.00  0.00    -0.269 OA
BRANCH  26  29
ATOM     29  C   UNL A   1      41.354  21.093  26.550  1.00  0.00     0.039 A 
ATOM     30  C   UNL A   1      41.953  22.044  25.723  1.00  0.00     0.014 A 
ATOM     31  C   UNL A   1      41.264  21.283  27.932  1.00  0.00     0.014 A 
ATOM     32  C   UNL A   1      42.409  23.237  26.281  1.00  0.00     0.010 A 
ATOM     33  C   UNL A   1      41.657  22.498  28.471  1.00  0.00     0.010 A 
ATOM     34  C   UNL A   1      42.229  23.487  27.651  1.00  0.00    -0.014 A 
BRANCH  34  35
ATOM     35  C   UNL A   1      42.651  24.762  28.274  1.00  0.00     0.031 A 
ATOM     36  C   UNL A   1      41.626  25.833  28.506  1.00  0.00     0.074 A 
ATOM     37  C   UNL A   1      43.952  24.994  28.533  1.00  0.00     0.049 A 
ATOM     38  N   UNL A   1      41.797  27.075  28.877  1.00  0.00    -0.248 NA
ATOM     39  C   UNL A   1      40.223  25.467  28.246  1.00  0.00     0.031 C 
ATOM     40  C   UNL A   1      45.047  24.044  28.324  1.00  0.00     0.029 A 
ATOM     41  N   UNL A   1      44.574  26.118  29.014  1.00  0.00    -0.354 N 
ATOM     42  C   UNL A   1      40.531  27.646  28.857  1.00  0.00     0.074 A 
ATOM     43  C   UNL A   1      39.610  26.630  28.399  1.00  0.00     0.031 C 
ATOM     44  C   UNL A   1      46.203  24.621  28.689  1.00  0.00     0.029 A 
ATOM     45  C   UNL A   1      45.938  25.992  29.116  1.00  0.00     0.049 A 
ATOM     46  H   UNL A   1      44.089  26.938  29.262  1.00  0.00     0.167 HD
ATOM     47  C   UNL A   1      40.165  28.902  29.206  1.00  0.00     0.031 A 
ATOM     48  C   UNL A   1      46.868  26.885  29.501  1.00  0.00     0.031 A 
ATOM     49  C   UNL A   1      41.076  29.899  29.691  1.00  0.00     0.049 A 
ATOM     50  C   UNL A   1      46.436  28.268  29.901  1.00  0.00     0.074 A 
ATOM     51  C   UNL A   1      40.800  31.185  30.117  1.00  0.00     0.029 A 
ATOM     52  N   UNL A   1      42.443  29.714  29.823  1.00  0.00    -0.354 N 
ATOM     53  N   UNL A   1      45.231  28.784  29.915  1.00  0.00    -0.248 NA
ATOM     54  C   UNL A   1      47.491  29.191  30.346  1.00  0.00     0.031 C 
ATOM     55  C   UNL A   1      42.008  31.791  30.483  1.00  0.00     0.029 A 
ATOM     56  C   UNL A   1      43.027  30.865  30.324  1.00  0.00     0.049 A 
ATOM     57  H   UNL A   1      42.927  28.887  29.597  1.00  0.00     0.167 HD
ATOM     58  C   UNL A   1      45.377  30.077  30.402  1.00  0.00     0.074 A 
ATOM     59  C   UNL A   1      46.787  30.265  30.675  1.00  0.00     0.031 C 
ATOM     60  C   UNL A   1      44.428  31.021  30.608  1.00  0.00     0.031 A 
BRANCH  47  61
ATOM     61  C   UNL A   1      38.712  29.255  29.065  1.00  0.00    -0.014 A 
ATOM     62  C   UNL A   1      38.201  29.758  27.858  1.00  0.00     0.009 A 
ATOM     63  C   UNL A   1      37.842  29.077  30.151  1.00  0.00     0.009 A 
ATOM     64  C   UNL A   1      36.856  30.119  27.756  1.00  0.00     0.001 A 
ATOM     65  C   UNL A   1      36.492  29.410  30.037  1.00  0.00     0.001 A 
ATOM     66  C   UNL A   1      36.002  29.941  28.844  1.00  0.00     0.000 A 
ENDBRANCH  47  61
BRANCH  48  67
ATOM     67  C   UNL A   1      48.302  26.498  29.548  1.00  0.00    -0.014 A 
ATOM     68  C   UNL A   1      48.841  25.920  30.709  1.00  0.00     0.009 A 
ATOM     69  C   UNL A   1      49.140  26.707  28.442  1.00  0.00     0.009 A 
ATOM     70  C   UNL A   1      50.196  25.586  30.769  1.00  0.00     0.001 A 
ATOM     71  C   UNL A   1      50.488  26.348  28.498  1.00  0.00     0.001 A 
ATOM     72  C   UNL A   1      51.017  25.796  29.663  1.00  0.00     0.000 A 
ENDBRANCH  48  67
BRANCH  60  73
ATOM     73  C   UNL A   1      44.870  32.323  31.209  1.00  0.00    -0.014 A 
ATOM     74  C   UNL A   1      45.253  33.407  30.405  1.00  0.00     0.009 A 
ATOM     75  C   UNL A   1      44.834  32.485  32.604  1.00  0.00     0.009 A 
ATOM     76  C   UNL A   1      45.612  34.622  30.988  1.00  0.00     0.001 A 
ATOM     77  C   UNL A   1      45.171  33.709  33.182  1.00  0.00     0.001 A 
ATOM     78  C   UNL A   1      45.565  34.774  32.374  1.00  0.00     0.000 A 
ENDBRANCH  60  73
ENDBRANCH  34  35
ENDBRANCH  26  29
ENDBRANCH  24  25
ENDBRANCH  23  24
ENDBRANCH  22  23
ENDBRANCH   1  22
TORSDOF 15
ENDMDL
MODEL 3
REMARK VINA RESULT:     -10.8      2.498      6.950
REMARK SMILES C[C@@H]1CCC[C@](CCSc2ccccc2)(C(=O)NCCCCNC(=O)c2ccc(-c3c4nc(c(-c5ccccc5)c5ccc([nH]5)c(-c5ccccc5)c5nc(c(-c6ccccc6)c6ccc3[nH]6)C=C5)C=C4)cc2)C1
REMARK SMILES IDX 19 1 18 2 16 3 17 4 6 6 1 7 2 8 3 9 74 10 4 11 5 12 7 13
REMARK SMILES IDX 8 14 9 15 10 16 11 17 15 18 12 19 14 20 13 21 20 22 21 23
REMARK SMILES IDX 22 24 23 25 24 26 25 28 26 29 27 30 73 31 28 32 72 33 29 34
REMARK SMILES IDX 30 35 31 36 66 37 32 38 71 39 65 40 67 41 33 42 70 43 64 44
REMARK SMILES IDX 63 45 34 47 56 48 41 49 55 50 42 51 45 52 54 53 68 54 43 55
REMARK SMILES IDX 44 56 53 58 69 59 46 60 35 61 36 62 40 63 37 64 39 65 38 66
REMARK SMILES IDX 57 67 58 68 62 69 59 70 61 71 60 72 47 73 48 74 52 75 49 76
REMARK SMILES IDX 51 77 50 78
REMARK H PARENT 18 5 23 27 67 46 45 57
REMARK Flexibility Score: inf
ROOT
ATOM      1  C   UNL A   1      31.228  27.657  25.002  1.00  0.00     0.116 C 
ENDROOT
BRANCH   1   2
ATOM      2  N   UNL A   1      30.463  26.820  25.884  1.00  0.00    -0.356 N 
ATOM      3  C   UNL A   1      30.473  25.492  26.134  1.00  0.00     0.226 C 
ATOM      4  O   UNL A   1      29.459  25.103  26.729  1.00  0.00    -0.274 OA
ATOM      5  H   UNL A   1      29.797  27.313  26.414  1.00  0.00     0.163 HD
BRANCH   3   6
ATOM      6  C   UNL A   1      31.569  24.481  25.670  1.00  0.00     0.050 C 
ATOM      7  C   UNL A   1      34.052  26.507  23.524  1.00  0.00     0.007 C 
ATOM      8  C   UNL A   1      33.395  25.143  23.808  1.00  0.00    -0.013 C 
ATOM      9  C   UNL A   1      32.409  24.722  22.711  1.00  0.00     0.003 C 
ATOM     10  C   UNL A   1      32.937  25.074  25.277  1.00  0.00     0.020 C 
ATOM     11  C   UNL A   1      31.038  24.217  23.146  1.00  0.00     0.001 C 
ATOM     12  C   UNL A   1      30.996  23.601  24.535  1.00  0.00     0.017 C 
BRANCH   6  13
ATOM     13  C   UNL A   1      31.790  23.522  26.919  1.00  0.00     0.028 C 
BRANCH  13  14
ATOM     14  C   UNL A   1      32.448  22.134  26.725  1.00  0.00     0.076 C 
BRANCH  14  15
ATOM     15  S   UNL A   1      34.159  21.869  27.314  1.00  0.00    -0.126 SA
BRANCH  15  16
ATOM     16  C   UNL A   1      35.152  22.386  25.924  1.00  0.00     0.007 A 
ATOM     17  C   UNL A   1      36.209  23.272  26.161  1.00  0.00     0.015 A 
ATOM     18  C   UNL A   1      34.940  21.924  24.622  1.00  0.00     0.015 A 
ATOM     19  C   UNL A   1      36.993  23.748  25.107  1.00  0.00     0.001 A 
ATOM     20  C   UNL A   1      35.719  22.404  23.564  1.00  0.00     0.001 A 
ATOM     21  C   UNL A   1      36.737  23.326  23.805  1.00  0.00     0.000 A 
ENDBRANCH  15  16
ENDBRANCH  14  15
ENDBRANCH  13  14
ENDBRANCH   6  13
ENDBRANCH   3   6
ENDBRANCH   1   2
BRANCH   1  22
ATOM     22  C   UNL A   1      31.726  28.896  25.743  1.00  0.00     0.023 C 
BRANCH  22  23
ATOM     23  C   UNL A   1      32.189  28.610  27.169  1.00  0.00     0.023 C 
BRANCH  23  24
ATOM     24  C   UNL A   1      33.608  29.073  27.473  1.00  0.00     0.116 C 
BRANCH  24  25
ATOM     25  N   UNL A   1      33.683  30.439  27.975  1.00  0.00    -0.352 N 
ATOM     26  C   UNL A   1      34.767  31.060  28.546  1.00  0.00     0.251 C 
ATOM     27  H   UNL A   1      32.863  30.979  27.894  1.00  0.00     0.163 HD
ATOM     28  O   UNL A   1      34.697  32.196  28.999  1.00  0.00    -0.269 OA
BRANCH  26  29
ATOM     29  C   UNL A   1      36.020  30.294  28.627  1.00  0.00     0.039 A 
ATOM     30  C   UNL A   1      36.895  30.306  27.540  1.00  0.00     0.014 A 
ATOM     31  C   UNL A   1      36.375  29.700  29.841  1.00  0.00     0.014 A 
ATOM     32  C   UNL A   1      38.175  29.775  27.693  1.00  0.00     0.010 A 
ATOM     33  C   UNL A   1      37.671  29.235  30.009  1.00  0.00     0.010 A 
ATOM     34  C   UNL A   1      38.582  29.271  28.939  1.00  0.00    -0.014 A 
BRANCH  34  35
ATOM     35  C   UNL A   1      39.949  28.746  29.159  1.00  0.00     0.031 A 
ATOM     36  C   UNL A   1      41.002  29.664  29.707  1.00  0.00     0.074 A 
ATOM     37  C   UNL A   1      40.265  27.495  28.776  1.00  0.00     0.049 A 
ATOM     38  N   UNL A   1      42.290  29.470  29.820  1.00  0.00    -0.248 NA
ATOM     39  C   UNL A   1      40.549  30.994  30.149  1.00  0.00     0.031 C 
ATOM     40  C   UNL A   1      39.338  26.516  28.203  1.00  0.00     0.029 A 
ATOM     41  N   UNL A   1      41.470  26.838  28.797  1.00  0.00    -0.354 N 
ATOM     42  C   UNL A   1      42.803  30.665  30.309  1.00  0.00     0.074 A 
ATOM     43  C   UNL A   1      41.697  31.588  30.431  1.00  0.00     0.031 C 
ATOM     44  C   UNL A   1      40.006  25.380  27.941  1.00  0.00     0.029 A 
ATOM     45  C   UNL A   1      41.412  25.564  28.287  1.00  0.00     0.049 A 
ATOM     46  H   UNL A   1      42.298  27.242  29.144  1.00  0.00     0.167 HD
ATOM     47  C   UNL A   1      44.081  30.962  30.643  1.00  0.00     0.031 A 
ATOM     48  C   UNL A   1      42.387  24.653  28.109  1.00  0.00     0.031 A 
ATOM     49  C   UNL A   1      45.172  30.033  30.552  1.00  0.00     0.049 A 
ATOM     50  C   UNL A   1      43.796  24.999  28.504  1.00  0.00     0.074 A 
ATOM     51  C   UNL A   1      46.495  30.218  30.911  1.00  0.00     0.029 A 
ATOM     52  N   UNL A   1      45.061  28.737  30.074  1.00  0.00    -0.354 N 
ATOM     53  N   UNL A   1      44.262  26.119  29.002  1.00  0.00    -0.248 NA
ATOM     54  C   UNL A   1      44.812  23.952  28.321  1.00  0.00     0.031 C 
ATOM     55  C   UNL A   1      47.192  29.040  30.624  1.00  0.00     0.029 A 
ATOM     56  C   UNL A   1      46.293  28.109  30.126  1.00  0.00     0.049 A 
ATOM     57  H   UNL A   1      44.229  28.323  29.747  1.00  0.00     0.167 HD
ATOM     58  C   UNL A   1      45.615  25.900  29.224  1.00  0.00     0.074 A 
ATOM     59  C   UNL A   1      45.895  24.541  28.810  1.00  0.00     0.031 C 
ATOM     60  C   UNL A   1      46.542  26.750  29.729  1.00  0.00     0.031 A 
BRANCH  47  61
ATOM     61  C   UNL A   1      44.354  32.354  31.134  1.00  0.00    -0.014 A 
ATOM     62  C   UNL A   1      44.693  33.385  30.243  1.00  0.00     0.009 A 
ATOM     63  C   UNL A   1      44.266  32.641  32.504  1.00  0.00     0.009 A 
ATOM     64  C   UNL A   1      44.982  34.665  30.719  1.00  0.00     0.001 A 
ATOM     65  C   UNL A   1      44.527  33.929  32.975  1.00  0.00     0.001 A 
ATOM     66  C   UNL A   1      44.895  34.936  32.084  1.00  0.00     0.000 A 
ENDBRANCH  47  61
BRANCH  48  67
ATOM     67  C   UNL A   1      42.066  23.315  27.548  1.00  0.00    -0.014 A 
ATOM     68  C   UNL A   1      42.274  23.051  26.185  1.00  0.00     0.009 A 
ATOM     69  C   UNL A   1      41.545  22.299  28.365  1.00  0.00     0.009 A 
ATOM     70  C   UNL A   1      41.941  21.805  25.647  1.00  0.00     0.001 A 
ATOM     71  C   UNL A   1      41.238  21.047  27.828  1.00  0.00     0.001 A 
ATOM     72  C   UNL A   1      41.428  20.804  26.469  1.00  0.00     0.000 A 
ENDBRANCH  48  67
BRANCH  60  73
ATOM     73  C   UNL A   1      47.933  26.219  29.918  1.00  0.00    -0.014 A 
ATOM     74  C   UNL A   1      48.875  26.252  28.879  1.00  0.00     0.009 A 
ATOM     75  C   UNL A   1      48.323  25.742  31.180  1.00  0.00     0.009 A 
ATOM     76  C   UNL A   1      50.176  25.797  29.096  1.00  0.00     0.001 A 
ATOM     77  C   UNL A   1      49.631  25.310  31.400  1.00  0.00     0.001 A 
ATOM     78  C   UNL A   1      50.555  25.333  30.356  1.00  0.00     0.000 A 
ENDBRANCH  60  73
ENDBRANCH  34  35
ENDBRANCH  26  29
ENDBRANCH  24  25
ENDBRANCH  23  24
ENDBRANCH  22  23
ENDBRANCH   1  22
TORSDOF 15
ENDMDL
