MODEL 1
REMARK VINA RESULT:     -10.8      0.000      0.000
REMARK SMILES Cc1ccc(OCC(=O)Oc2ccc(C(=O)NCCCCNC(=O)c3ccc(-c4c5nc(c(-c6ccccc6)c6ccc([nH]6)c(-c6ccccc6)c6nc(c(-c7ccccc7)c7ccc4[nH]7)C=C6)C=C5)cc3)cc2)cc1C
REMARK SMILES IDX 18 1 17 2 15 3 16 4 14 6 11 7 12 8 74 9 13 10 73 11 10 12
REMARK SMILES IDX 8 13 9 14 7 15 6 16 5 17 1 18 2 19 3 20 76 21 4 22 75 23
REMARK SMILES IDX 77 24 19 25 20 26 21 27 22 28 23 29 24 31 25 32 26 33 72 34
REMARK SMILES IDX 27 35 71 36 28 37 29 38 30 39 65 40 31 41 70 42 64 43 66 44
REMARK SMILES IDX 32 45 69 46 63 47 62 48 33 50 55 51 40 52 54 53 41 54 44 55
REMARK SMILES IDX 53 56 67 57 42 58 43 59 52 61 68 62 45 63 34 64 35 65 39 66
REMARK SMILES IDX 36 67 38 68 37 69 56 70 57 71 61 72 58 73 60 74 59 75 46 76
REMARK SMILES IDX 47 77 51 78 48 79 50 80 49 81
REMARK H PARENT 17 5 22 30 66 49 44 60
REMARK Flexibility Score: inf
ROOT
ATOM      1  C   UNL A   1      37.560  23.374  25.713  1.00  0.00     0.116 C 
ENDROOT
BRANCH   1   2
ATOM      2  N   UNL A   1      37.194  23.008  24.358  1.00  0.00    -0.352 N 
ATOM      3  C   UNL A   1      36.114  23.359  23.585  1.00  0.00     0.251 C 
ATOM      4  O   UNL A   1      36.069  22.938  22.429  1.00  0.00    -0.269 OA
ATOM      5  H   UNL A   1      37.831  22.403  23.915  1.00  0.00     0.163 HD
BRANCH   3   6
ATOM      6  C   UNL A   1      35.040  24.268  24.070  1.00  0.00     0.040 A 
ATOM      7  C   UNL A   1      33.040  26.083  24.795  1.00  0.00     0.131 A 
ATOM      8  C   UNL A   1      32.991  25.475  23.543  1.00  0.00     0.048 A 
ATOM      9  C   UNL A   1      34.013  25.721  25.722  1.00  0.00     0.048 A 
ATOM     10  C   UNL A   1      33.996  24.571  23.182  1.00  0.00     0.017 A 
ATOM     11  C   UNL A   1      35.001  24.806  25.360  1.00  0.00     0.017 A 
BRANCH   7  12
ATOM     12  O   UNL A   1      32.040  27.013  25.109  1.00  0.00    -0.424 OA
BRANCH  12  13
ATOM     13  C   UNL A   1      31.280  26.733  26.243  1.00  0.00     0.349 C 
ATOM     14  O   UNL A   1      31.428  27.211  27.364  1.00  0.00    -0.248 OA
BRANCH  13  15
ATOM     15  C   UNL A   1      30.222  25.690  25.916  1.00  0.00     0.352 C 
BRANCH  15  16
ATOM     16  O   UNL A   1      30.283  24.474  26.638  1.00  0.00    -0.482 OA
BRANCH  16  17
ATOM     17  C   UNL A   1      31.090  23.482  26.152  1.00  0.00     0.120 A 
ATOM     18  C   UNL A   1      33.964  20.500  24.906  1.00  0.00     0.044 C 
ATOM     19  C   UNL A   1      32.973  21.526  25.381  1.00  0.00    -0.048 A 
ATOM     20  C   UNL A   1      31.912  21.885  24.536  1.00  0.00     0.007 A 
ATOM     21  C   UNL A   1      33.071  22.132  26.646  1.00  0.00    -0.045 A 
ATOM     22  C   UNL A   1      30.971  22.845  24.920  1.00  0.00     0.047 A 
ATOM     23  C   UNL A   1      32.128  23.111  27.009  1.00  0.00     0.050 A 
ATOM     24  C   UNL A   1      34.138  21.788  27.647  1.00  0.00     0.045 C 
ENDBRANCH  16  17
ENDBRANCH  15  16
ENDBRANCH  13  15
ENDBRANCH  12  13
ENDBRANCH   7  12
ENDBRANCH   3   6
ENDBRANCH   1   2
BRANCH   1  25
ATOM     25  C   UNL A   1      38.757  22.548  26.189  1.00  0.00     0.023 C 
BRANCH  25  26
ATOM     26  C   UNL A   1      38.924  21.209  25.468  1.00  0.00     0.023 C 
BRANCH  26  27
ATOM     27  C   UNL A   1      39.345  20.051  26.363  1.00  0.00     0.116 C 
BRANCH  27  28
ATOM     28  N   UNL A   1      40.517  19.344  25.870  1.00  0.00    -0.352 N 
ATOM     29  C   UNL A   1      41.823  19.768  25.829  1.00  0.00     0.251 C 
ATOM     30  H   UNL A   1      40.350  18.439  25.518  1.00  0.00     0.163 HD
ATOM     31  O   UNL A   1      42.673  19.094  25.266  1.00  0.00    -0.269 OA
BRANCH  29  32
ATOM     32  C   UNL A   1      42.184  21.065  26.438  1.00  0.00     0.039 A 
ATOM     33  C   UNL A   1      42.535  22.123  25.597  1.00  0.00     0.014 A 
ATOM     34  C   UNL A   1      42.165  21.242  27.824  1.00  0.00     0.014 A 
ATOM     35  C   UNL A   1      42.817  23.374  26.146  1.00  0.00     0.010 A 
ATOM     36  C   UNL A   1      42.365  22.509  28.364  1.00  0.00     0.010 A 
ATOM     37  C   UNL A   1      42.706  23.585  27.532  1.00  0.00    -0.014 A 
BRANCH  37  38
ATOM     38  C   UNL A   1      42.947  24.928  28.115  1.00  0.00     0.031 A 
ATOM     39  C   UNL A   1      44.332  25.336  28.538  1.00  0.00     0.074 A 
ATOM     40  C   UNL A   1      41.909  25.767  28.297  1.00  0.00     0.049 A 
ATOM     41  N   UNL A   1      44.736  26.473  29.048  1.00  0.00    -0.248 NA
ATOM     42  C   UNL A   1      45.399  24.333  28.393  1.00  0.00     0.031 C 
ATOM     43  C   UNL A   1      40.510  25.467  27.983  1.00  0.00     0.029 A 
ATOM     44  N   UNL A   1      41.871  27.049  28.787  1.00  0.00    -0.354 N 
ATOM     45  C   UNL A   1      46.093  26.314  29.298  1.00  0.00     0.074 A 
ATOM     46  C   UNL A   1      46.434  24.956  28.936  1.00  0.00     0.031 C 
ATOM     47  C   UNL A   1      39.758  26.547  28.254  1.00  0.00     0.029 A 
ATOM     48  C   UNL A   1      40.612  27.599  28.792  1.00  0.00     0.049 A 
ATOM     49  H   UNL A   1      42.671  27.528  29.104  1.00  0.00     0.167 HD
ATOM     50  C   UNL A   1      46.981  27.221  29.769  1.00  0.00     0.031 A 
ATOM     51  C   UNL A   1      40.193  28.816  29.184  1.00  0.00     0.031 A 
ATOM     52  C   UNL A   1      46.642  28.575  30.119  1.00  0.00     0.049 A 
ATOM     53  C   UNL A   1      41.204  29.810  29.686  1.00  0.00     0.074 A 
ATOM     54  C   UNL A   1      47.482  29.592  30.541  1.00  0.00     0.029 A 
ATOM     55  N   UNL A   1      45.360  29.101  30.093  1.00  0.00    -0.354 N 
ATOM     56  N   UNL A   1      42.499  29.673  29.831  1.00  0.00    -0.248 NA
ATOM     57  C   UNL A   1      40.693  31.137  30.056  1.00  0.00     0.031 C 
ATOM     58  C   UNL A   1      46.699  30.714  30.827  1.00  0.00     0.029 A 
ATOM     59  C   UNL A   1      45.382  30.420  30.515  1.00  0.00     0.049 A 
ATOM     60  H   UNL A   1      44.553  28.609  29.816  1.00  0.00     0.167 HD
ATOM     61  C   UNL A   1      42.963  30.904  30.276  1.00  0.00     0.074 A 
ATOM     62  C   UNL A   1      41.812  31.781  30.355  1.00  0.00     0.031 C 
ATOM     63  C   UNL A   1      44.228  31.278  30.592  1.00  0.00     0.031 A 
BRANCH  50  64
ATOM     64  C   UNL A   1      48.408  26.777  29.941  1.00  0.00    -0.014 A 
ATOM     65  C   UNL A   1      48.838  26.134  31.113  1.00  0.00     0.009 A 
ATOM     66  C   UNL A   1      49.325  26.963  28.895  1.00  0.00     0.009 A 
ATOM     67  C   UNL A   1      50.164  25.716  31.247  1.00  0.00     0.001 A 
ATOM     68  C   UNL A   1      50.642  26.515  29.018  1.00  0.00     0.001 A 
ATOM     69  C   UNL A   1      51.063  25.901  30.198  1.00  0.00     0.000 A 
ENDBRANCH  50  64
BRANCH  51  70
ATOM     70  C   UNL A   1      38.752  29.175  29.101  1.00  0.00    -0.014 A 
ATOM     71  C   UNL A   1      38.209  29.698  27.917  1.00  0.00     0.009 A 
ATOM     72  C   UNL A   1      37.916  29.017  30.217  1.00  0.00     0.009 A 
ATOM     73  C   UNL A   1      36.869  30.090  27.865  1.00  0.00     0.001 A 
ATOM     74  C   UNL A   1      36.568  29.377  30.151  1.00  0.00     0.001 A 
ATOM     75  C   UNL A   1      36.049  29.926  28.981  1.00  0.00     0.000 A 
ENDBRANCH  51  70
BRANCH  63  76
ATOM     76  C   UNL A   1      44.435  32.709  31.005  1.00  0.00    -0.014 A 
ATOM     77  C   UNL A   1      44.750  33.708  30.070  1.00  0.00     0.009 A 
ATOM     78  C   UNL A   1      44.302  33.063  32.357  1.00  0.00     0.009 A 
ATOM     79  C   UNL A   1      44.981  35.020  30.489  1.00  0.00     0.001 A 
ATOM     80  C   UNL A   1      44.497  34.382  32.769  1.00  0.00     0.001 A 
ATOM     81  C   UNL A   1      44.851  35.356  31.837  1.00  0.00     0.000 A 
ENDBRANCH  63  76
ENDBRANCH  37  38
ENDBRANCH  29  32
ENDBRANCH  27  28
ENDBRANCH  26  27
ENDBRANCH  25  26
ENDBRANCH   1  25
TORSDOF 16
ENDMDL
MODEL 2
REMARK VINA RESULT:     -10.5      4.352      9.426
REMARK SMILES Cc1ccc(OCC(=O)Oc2ccc(C(=O)NCCCCNC(=O)c3ccc(-c4c5nc(c(-c6ccccc6)c6ccc([nH]6)c(-c6ccccc6)c6nc(c(-c7ccccc7)c7ccc4[nH]7)C=C6)C=C5)cc3)cc2)cc1C
REMARK SMILES IDX 18 1 17 2 15 3 16 4 14 6 11 7 12 8 74 9 13 10 73 11 10 12
REMARK SMILES IDX 8 13 9 14 7 15 6 16 5 17 1 18 2 19 3 20 76 21 4 22 75 23
REMARK SMILES IDX 77 24 19 25 20 26 21 27 22 28 23 29 24 31 25 32 26 33 72 34
REMARK SMILES IDX 27 35 71 36 28 37 29 38 30 39 65 40 31 41 70 42 64 43 66 44
REMARK SMILES IDX 32 45 69 46 63 47 62 48 33 50 55 51 40 52 54 53 41 54 44 55
REMARK SMILES IDX 53 56 67 57 42 58 43 59 52 61 68 62 45 63 34 64 35 65 39 66
REMARK SMILES IDX 36 67 38 68 37 69 56 70 57 71 61 72 58 73 60 74 59 75 46 76
REMARK SMILES IDX 47 77 51 78 48 79 50 80 49 81
REMARK H PARENT 17 5 22 30 66 49 44 60
REMARK Flexibility Score: inf
ROOT
ATOM      1  C   UNL A   1      31.770  29.782  27.238  1.00  0.00     0.116 C 
ENDROOT
BRANCH   1   2
ATOM      2  N   UNL A   1      33.174  29.676  27.589  1.00  0.00    -0.352 N 
ATOM      3  C   UNL A   1      34.191  28.932  27.042  1.00  0.00     0.251 C 
ATOM      4  O   UNL A   1      35.321  29.066  27.511  1.00  0.00    -0.269 OA
ATOM      5  H   UNL A   1      33.444  30.234  28.353  1.00  0.00     0.163 HD
BRANCH   3   6
ATOM      6  C   UNL A   1      33.988  28.027  25.878  1.00  0.00     0.040 A 
ATOM      7  C   UNL A   1      33.734  26.183  23.791  1.00  0.00     0.131 A 
ATOM      8  C   UNL A   1      33.544  25.761  25.105  1.00  0.00     0.048 A 
ATOM      9  C   UNL A   1      33.948  27.528  23.503  1.00  0.00     0.048 A 
ATOM     10  C   UNL A   1      33.676  26.684  26.146  1.00  0.00     0.017 A 
ATOM     11  C   UNL A   1      34.062  28.446  24.546  1.00  0.00     0.017 A 
BRANCH   7  12
ATOM     12  O   UNL A   1      33.633  25.223  22.776  1.00  0.00    -0.424 OA
BRANCH  12  13
ATOM     13  C   UNL A   1      32.837  25.570  21.685  1.00  0.00     0.349 C 
ATOM     14  O   UNL A   1      33.224  25.926  20.576  1.00  0.00    -0.248 OA
BRANCH  13  15
ATOM     15  C   UNL A   1      31.367  25.484  22.066  1.00  0.00     0.352 C 
BRANCH  15  16
ATOM     16  O   UNL A   1      30.957  26.237  23.193  1.00  0.00    -0.482 OA
BRANCH  16  17
ATOM     17  C   UNL A   1      30.282  27.405  22.969  1.00  0.00     0.120 A 
ATOM     18  C   UNL A   1      27.762  30.847  22.254  1.00  0.00     0.044 C 
ATOM     19  C   UNL A   1      28.611  29.639  22.536  1.00  0.00    -0.048 A 
ATOM     20  C   UNL A   1      29.975  29.677  22.207  1.00  0.00     0.007 A 
ATOM     21  C   UNL A   1      28.085  28.474  23.122  1.00  0.00    -0.045 A 
ATOM     22  C   UNL A   1      30.807  28.577  22.431  1.00  0.00     0.047 A 
ATOM     23  C   UNL A   1      28.931  27.368  23.323  1.00  0.00     0.050 A 
ATOM     24  C   UNL A   1      26.652  28.342  23.555  1.00  0.00     0.045 C 
ENDBRANCH  16  17
ENDBRANCH  15  16
ENDBRANCH  13  15
ENDBRANCH  12  13
ENDBRANCH   7  12
ENDBRANCH   3   6
ENDBRANCH   1   2
BRANCH   1  25
ATOM     25  C   UNL A   1      31.574  30.792  26.105  1.00  0.00     0.023 C 
BRANCH  25  26
ATOM     26  C   UNL A   1      31.344  32.230  26.577  1.00  0.00     0.023 C 
BRANCH  26  27
ATOM     27  C   UNL A   1      32.561  32.898  27.202  1.00  0.00     0.116 C 
BRANCH  27  28
ATOM     28  N   UNL A   1      32.292  34.246  27.677  1.00  0.00    -0.352 N 
ATOM     29  C   UNL A   1      32.971  34.974  28.624  1.00  0.00     0.251 C 
ATOM     30  H   UNL A   1      31.520  34.696  27.264  1.00  0.00     0.163 HD
ATOM     31  O   UNL A   1      32.538  36.054  28.998  1.00  0.00    -0.269 OA
BRANCH  29  32
ATOM     32  C   UNL A   1      34.209  34.424  29.214  1.00  0.00     0.039 A 
ATOM     33  C   UNL A   1      34.118  33.706  30.408  1.00  0.00     0.014 A 
ATOM     34  C   UNL A   1      35.446  34.600  28.590  1.00  0.00     0.014 A 
ATOM     35  C   UNL A   1      35.263  33.123  30.949  1.00  0.00     0.010 A 
ATOM     36  C   UNL A   1      36.572  33.948  29.086  1.00  0.00     0.010 A 
ATOM     37  C   UNL A   1      36.494  33.214  30.277  1.00  0.00    -0.014 A 
BRANCH  37  38
ATOM     38  C   UNL A   1      37.703  32.545  30.818  1.00  0.00     0.031 A 
ATOM     39  C   UNL A   1      38.334  33.029  32.095  1.00  0.00     0.074 A 
ATOM     40  C   UNL A   1      38.255  31.522  30.136  1.00  0.00     0.049 A 
ATOM     41  N   UNL A   1      39.379  32.558  32.727  1.00  0.00    -0.248 NA
ATOM     42  C   UNL A   1      37.729  34.208  32.735  1.00  0.00     0.031 C 
ATOM     43  C   UNL A   1      37.774  30.997  28.856  1.00  0.00     0.029 A 
ATOM     44  N   UNL A   1      39.341  30.736  30.429  1.00  0.00    -0.354 N 
ATOM     45  C   UNL A   1      39.565  33.391  33.824  1.00  0.00     0.074 A 
ATOM     46  C   UNL A   1      38.560  34.427  33.744  1.00  0.00     0.031 C 
ATOM     47  C   UNL A   1      38.538  29.955  28.493  1.00  0.00     0.029 A 
ATOM     48  C   UNL A   1      39.582  29.760  29.493  1.00  0.00     0.049 A 
ATOM     49  H   UNL A   1      39.895  30.860  31.234  1.00  0.00     0.167 HD
ATOM     50  C   UNL A   1      40.477  33.292  34.820  1.00  0.00     0.031 A 
ATOM     51  C   UNL A   1      40.536  28.811  29.446  1.00  0.00     0.031 A 
ATOM     52  C   UNL A   1      41.469  32.254  34.905  1.00  0.00     0.049 A 
ATOM     53  C   UNL A   1      41.525  28.713  30.575  1.00  0.00     0.074 A 
ATOM     54  C   UNL A   1      42.395  32.028  35.909  1.00  0.00     0.029 A 
ATOM     55  N   UNL A   1      41.670  31.272  33.947  1.00  0.00    -0.354 N 
ATOM     56  N   UNL A   1      41.630  29.454  31.651  1.00  0.00    -0.248 NA
ATOM     57  C   UNL A   1      42.514  27.630  30.491  1.00  0.00     0.031 C 
ATOM     58  C   UNL A   1      43.194  30.944  35.529  1.00  0.00     0.029 A 
ATOM     59  C   UNL A   1      42.721  30.453  34.324  1.00  0.00     0.049 A 
ATOM     60  H   UNL A   1      41.144  31.173  33.121  1.00  0.00     0.167 HD
ATOM     61  C   UNL A   1      42.672  28.907  32.388  1.00  0.00     0.074 A 
ATOM     62  C   UNL A   1      43.151  27.759  31.645  1.00  0.00     0.031 C 
ATOM     63  C   UNL A   1      43.188  29.316  33.573  1.00  0.00     0.031 A 
BRANCH  50  64
ATOM     64  C   UNL A   1      40.449  34.341  35.898  1.00  0.00    -0.014 A 
ATOM     65  C   UNL A   1      41.171  35.539  35.772  1.00  0.00     0.009 A 
ATOM     66  C   UNL A   1      39.652  34.148  37.037  1.00  0.00     0.009 A 
ATOM     67  C   UNL A   1      41.120  36.506  36.778  1.00  0.00     0.001 A 
ATOM     68  C   UNL A   1      39.577  35.130  38.027  1.00  0.00     0.001 A 
ATOM     69  C   UNL A   1      40.318  36.304  37.901  1.00  0.00     0.000 A 
ENDBRANCH  50  64
BRANCH  51  70
ATOM     70  C   UNL A   1      40.594  27.863  28.302  1.00  0.00    -0.014 A 
ATOM     71  C   UNL A   1      39.927  26.629  28.357  1.00  0.00     0.009 A 
ATOM     72  C   UNL A   1      41.338  28.180  27.155  1.00  0.00     0.009 A 
ATOM     73  C   UNL A   1      40.037  25.717  27.304  1.00  0.00     0.001 A 
ATOM     74  C   UNL A   1      41.417  27.281  26.089  1.00  0.00     0.001 A 
ATOM     75  C   UNL A   1      40.778  26.045  26.170  1.00  0.00     0.000 A 
ENDBRANCH  51  70
BRANCH  63  76
ATOM     76  C   UNL A   1      44.298  28.486  34.159  1.00  0.00    -0.014 A 
ATOM     77  C   UNL A   1      44.035  27.393  35.000  1.00  0.00     0.009 A 
ATOM     78  C   UNL A   1      45.631  28.803  33.854  1.00  0.00     0.009 A 
ATOM     79  C   UNL A   1      45.087  26.668  35.565  1.00  0.00     0.001 A 
ATOM     80  C   UNL A   1      46.679  28.055  34.390  1.00  0.00     0.001 A 
ATOM     81  C   UNL A   1      46.407  26.999  35.258  1.00  0.00     0.000 A 
ENDBRANCH  63  76
ENDBRANCH  37  38
ENDBRANCH  29  32
ENDBRANCH  27  28
ENDBRANCH  26  27
ENDBRANCH  25  26
ENDBRANCH   1  25
TORSDOF 16
ENDMDL
MODEL 3
REMARK VINA RESULT:     -10.4      4.249      9.066
REMARK SMILES Cc1ccc(OCC(=O)Oc2ccc(C(=O)NCCCCNC(=O)c3ccc(-c4c5nc(c(-c6ccccc6)c6ccc([nH]6)c(-c6ccccc6)c6nc(c(-c7ccccc7)c7ccc4[nH]7)C=C6)C=C5)cc3)cc2)cc1C
REMARK SMILES IDX 18 1 17 2 15 3 16 4 14 6 11 7 12 8 74 9 13 10 73 11 10 12
REMARK SMILES IDX 8 13 9 14 7 15 6 16 5 17 1 18 2 19 3 20 76 21 4 22 75 23
REMARK SMILES IDX 77 24 19 25 20 26 21 27 22 28 23 29 24 31 25 32 26 33 72 34
REMARK SMILES IDX 27 35 71 36 28 37 29 38 30 39 65 40 31 41 70 42 64 43 66 44
REMARK SMILES IDX 32 45 69 46 63 47 62 48 33 50 55 51 40 52 54 53 41 54 44 55
REMARK SMILES IDX 53 56 67 57 42 58 43 59 52 61 68 62 45 63 34 64 35 65 39 66
REMARK SMILES IDX 36 67 38 68 37 69 56 70 57 71 61 72 58 73 60 74 59 75 46 76
REMARK SMILES IDX 47 77 51 78 48 79 50 80 49 81
REMARK H PARENT 17 5 22 30 66 49 44 60
REMARK Flexibility Score: inf
ROOT
ATOM      1  C   UNL A   1      32.816  30.250  25.900  1.00  0.00     0.116 C 
ENDROOT
BRANCH   1   2
ATOM      2  N   UNL A   1      32.946  29.700  24.563  1.00  0.00    -0.352 N 
ATOM      3  C   UNL A   1      32.784  28.421  24.091  1.00  0.00     0.251 C 
ATOM      4  O   UNL A   1      32.910  28.231  22.881  1.00  0.00    -0.269 OA
ATOM      5  H   UNL A   1      33.193  30.359  23.876  1.00  0.00     0.163 HD
BRANCH   3   6
ATOM      6  C   UNL A   1      32.408  27.280  24.972  1.00  0.00     0.040 A 
ATOM      7  C   UNL A   1      31.832  25.015  26.506  1.00  0.00     0.131 A 
ATOM      8  C   UNL A   1      33.158  25.332  26.224  1.00  0.00     0.048 A 
ATOM      9  C   UNL A   1      30.802  25.868  26.120  1.00  0.00     0.048 A 
ATOM     10  C   UNL A   1      33.443  26.463  25.452  1.00  0.00     0.017 A 
ATOM     11  C   UNL A   1      31.095  27.003  25.364  1.00  0.00     0.017 A 
BRANCH   7  12
ATOM     12  O   UNL A   1      31.581  23.854  27.248  1.00  0.00    -0.424 OA
BRANCH  12  13
ATOM     13  C   UNL A   1      30.433  23.145  26.903  1.00  0.00     0.349 C 
ATOM     14  O   UNL A   1      29.391  23.073  27.548  1.00  0.00    -0.248 OA
BRANCH  13  15
ATOM     15  C   UNL A   1      30.650  22.411  25.588  1.00  0.00     0.352 C 
BRANCH  15  16
ATOM     16  O   UNL A   1      31.653  21.412  25.576  1.00  0.00    -0.482 OA
BRANCH  16  17
ATOM     17  C   UNL A   1      32.882  21.746  25.078  1.00  0.00     0.120 A 
ATOM     18  C   UNL A   1      36.549  22.946  23.124  1.00  0.00     0.044 C 
ATOM     19  C   UNL A   1      35.257  22.569  23.794  1.00  0.00    -0.048 A 
ATOM     20  C   UNL A   1      35.281  21.614  24.822  1.00  0.00     0.007 A 
ATOM     21  C   UNL A   1      34.027  23.144  23.427  1.00  0.00    -0.045 A 
ATOM     22  C   UNL A   1      34.108  21.213  25.467  1.00  0.00     0.047 A 
ATOM     23  C   UNL A   1      32.854  22.715  24.073  1.00  0.00     0.050 A 
ATOM     24  C   UNL A   1      33.894  24.207  22.374  1.00  0.00     0.045 C 
ENDBRANCH  16  17
ENDBRANCH  15  16
ENDBRANCH  13  15
ENDBRANCH  12  13
ENDBRANCH   7  12
ENDBRANCH   3   6
ENDBRANCH   1   2
BRANCH   1  25
ATOM     25  C   UNL A   1      31.397  30.774  26.131  1.00  0.00     0.023 C 
BRANCH  25  26
ATOM     26  C   UNL A   1      31.328  32.248  26.536  1.00  0.00     0.023 C 
BRANCH  26  27
ATOM     27  C   UNL A   1      32.639  32.830  27.049  1.00  0.00     0.116 C 
BRANCH  27  28
ATOM     28  N   UNL A   1      32.491  34.161  27.615  1.00  0.00    -0.352 N 
ATOM     29  C   UNL A   1      33.201  34.743  28.637  1.00  0.00     0.251 C 
ATOM     30  H   UNL A   1      31.788  34.719  27.211  1.00  0.00     0.163 HD
ATOM     31  O   UNL A   1      32.867  35.834  29.077  1.00  0.00    -0.269 OA
BRANCH  29  32
ATOM     32  C   UNL A   1      34.349  34.023  29.226  1.00  0.00     0.039 A 
ATOM     33  C   UNL A   1      35.636  34.351  28.794  1.00  0.00     0.014 A 
ATOM     34  C   UNL A   1      34.161  33.044  30.205  1.00  0.00     0.014 A 
ATOM     35  C   UNL A   1      36.738  33.730  29.382  1.00  0.00     0.010 A 
ATOM     36  C   UNL A   1      35.263  32.487  30.848  1.00  0.00     0.010 A 
ATOM     37  C   UNL A   1      36.562  32.815  30.435  1.00  0.00    -0.014 A 
BRANCH  37  38
ATOM     38  C   UNL A   1      37.733  32.196  31.103  1.00  0.00     0.031 A 
ATOM     39  C   UNL A   1      38.216  32.717  32.429  1.00  0.00     0.074 A 
ATOM     40  C   UNL A   1      38.386  31.186  30.495  1.00  0.00     0.049 A 
ATOM     41  N   UNL A   1      39.209  32.292  33.169  1.00  0.00    -0.248 NA
ATOM     42  C   UNL A   1      37.510  33.882  32.988  1.00  0.00     0.031 C 
ATOM     43  C   UNL A   1      38.053  30.629  29.182  1.00  0.00     0.029 A 
ATOM     44  N   UNL A   1      39.464  30.443  30.907  1.00  0.00    -0.354 N 
ATOM     45  C   UNL A   1      39.255  33.144  34.266  1.00  0.00     0.074 A 
ATOM     46  C   UNL A   1      38.228  34.142  34.071  1.00  0.00     0.031 C 
ATOM     47  C   UNL A   1      38.886  29.611  28.913  1.00  0.00     0.029 A 
ATOM     48  C   UNL A   1      39.831  29.465  30.014  1.00  0.00     0.049 A 
ATOM     49  H   UNL A   1      39.929  30.596  31.760  1.00  0.00     0.167 HD
ATOM     50  C   UNL A   1      40.066  33.089  35.349  1.00  0.00     0.031 A 
ATOM     51  C   UNL A   1      40.816  28.551  30.076  1.00  0.00     0.031 A 
ATOM     52  C   UNL A   1      41.080  32.088  35.548  1.00  0.00     0.049 A 
ATOM     53  C   UNL A   1      41.690  28.502  31.299  1.00  0.00     0.074 A 
ATOM     54  C   UNL A   1      41.909  31.907  36.643  1.00  0.00     0.029 A 
ATOM     55  N   UNL A   1      41.409  31.103  34.630  1.00  0.00    -0.354 N 
ATOM     56  N   UNL A   1      41.661  29.259  32.369  1.00  0.00    -0.248 NA
ATOM     57  C   UNL A   1      42.720  27.454  31.330  1.00  0.00     0.031 C 
ATOM     58  C   UNL A   1      42.778  30.849  36.361  1.00  0.00     0.029 A 
ATOM     59  C   UNL A   1      42.445  30.327  35.122  1.00  0.00     0.049 A 
ATOM     60  H   UNL A   1      40.972  30.976  33.757  1.00  0.00     0.167 HD
ATOM     61  C   UNL A   1      42.643  28.758  33.214  1.00  0.00     0.074 A 
ATOM     62  C   UNL A   1      43.233  27.619  32.540  1.00  0.00     0.031 C 
ATOM     63  C   UNL A   1      43.024  29.199  34.438  1.00  0.00     0.031 A 
BRANCH  50  64
ATOM     64  C   UNL A   1      39.894  34.149  36.403  1.00  0.00    -0.014 A 
ATOM     65  C   UNL A   1      39.045  33.955  37.504  1.00  0.00     0.009 A 
ATOM     66  C   UNL A   1      40.631  35.341  36.318  1.00  0.00     0.009 A 
ATOM     67  C   UNL A   1      38.911  34.946  38.479  1.00  0.00     0.001 A 
ATOM     68  C   UNL A   1      40.521  36.317  37.311  1.00  0.00     0.001 A 
ATOM     69  C   UNL A   1      39.654  36.123  38.386  1.00  0.00     0.000 A 
ENDBRANCH  50  64
BRANCH  51  70
ATOM     70  C   UNL A   1      41.021  27.592  28.958  1.00  0.00    -0.014 A 
ATOM     71  C   UNL A   1      41.951  27.862  27.942  1.00  0.00     0.009 A 
ATOM     72  C   UNL A   1      40.269  26.408  28.891  1.00  0.00     0.009 A 
ATOM     73  C   UNL A   1      42.095  26.986  26.863  1.00  0.00     0.001 A 
ATOM     74  C   UNL A   1      40.441  25.518  27.829  1.00  0.00     0.001 A 
ATOM     75  C   UNL A   1      41.343  25.814  26.809  1.00  0.00     0.000 A 
ENDBRANCH  51  70
BRANCH  63  76
ATOM     76  C   UNL A   1      44.098  28.417  35.144  1.00  0.00    -0.014 A 
ATOM     77  C   UNL A   1      45.457  28.736  35.001  1.00  0.00     0.009 A 
ATOM     78  C   UNL A   1      43.736  27.345  35.976  1.00  0.00     0.009 A 
ATOM     79  C   UNL A   1      46.434  27.965  35.634  1.00  0.00     0.001 A 
ATOM     80  C   UNL A   1      44.713  26.598  36.636  1.00  0.00     0.001 A 
ATOM     81  C   UNL A   1      46.061  26.899  36.452  1.00  0.00     0.000 A 
ENDBRANCH  63  76
ENDBRANCH  37  38
ENDBRANCH  29  32
ENDBRANCH  27  28
ENDBRANCH  26  27
ENDBRANCH  25  26
ENDBRANCH   1  25
TORSDOF 16
ENDMDL
