MODEL 1
REMARK VINA RESULT:     -11.5      0.000      0.000
REMARK SMILES O=C(C[C@@H]([NH2+]Cc1ccccc1)C(=O)/N=c1/[nH]c(-c2ccccc2)cs1)NCCCCNC(=O)c1ccc(-c2c3nc(c(-c4ccccc4)c4ccc([nH]4)c(-c4ccccc4)c4nc(c(-c5ccccc5)c5ccc2[nH]5)C=C4)C=C3)cc1
REMARK SMILES IDX 28 1 27 2 1 3 2 4 3 6 4 7 5 8 6 11 7 12 8 13 12 14 9 15
REMARK SMILES IDX 11 16 10 17 13 18 14 19 15 20 16 21 17 22 26 23 18 24 25 26
REMARK SMILES IDX 19 27 20 28 24 29 21 30 23 31 22 32 29 33 30 34 31 35 32 36
REMARK SMILES IDX 33 37 34 39 35 40 36 41 82 42 37 43 81 44 38 45 39 46 40 47
REMARK SMILES IDX 75 48 41 49 80 50 74 51 76 52 42 53 79 54 73 55 72 56 43 58
REMARK SMILES IDX 65 59 50 60 64 61 51 62 54 63 63 64 77 65 52 66 53 67 62 69
REMARK SMILES IDX 78 70 55 71 44 72 45 73 49 74 46 75 48 76 47 77 66 78 67 79
REMARK SMILES IDX 71 80 68 81 70 82 69 83 56 84 57 85 61 86 58 87 60 88 59 89
REMARK H PARENT 27 5 5 9 5 10 17 25 32 38 76 57 54 68
REMARK Flexibility Score: inf
ROOT
ATOM      1  C   UNL A   1      36.811  21.967  25.286  1.00  0.00     0.116 C 
ENDROOT
BRANCH   1   2
ATOM      2  N   UNL A   1      35.625  22.722  24.961  1.00  0.00    -0.356 N 
ATOM      3  O   UNL A   1      36.151  23.150  22.762  1.00  0.00    -0.275 OA
ATOM      4  C   UNL A   1      35.441  23.325  23.738  1.00  0.00     0.226 C 
ATOM      5  H   UNL A   1      34.918  22.809  25.641  1.00  0.00     0.163 HD
BRANCH   4   6
ATOM      6  C   UNL A   1      34.295  24.296  23.759  1.00  0.00     0.175 C 
BRANCH   6   7
ATOM      7  C   UNL A   1      33.205  23.967  24.772  1.00  0.00     0.284 C 
BRANCH   7   8
ATOM      8  N   UNL A   1      33.205  24.911  25.933  1.00  0.00    -0.332 N 
ATOM      9  H   UNL A   1      33.537  24.412  26.759  1.00  0.00     0.347 HD
ATOM     10  H   UNL A   1      32.251  25.249  26.059  1.00  0.00     0.347 HD
BRANCH   8  11
ATOM     11  C   UNL A   1      34.074  26.083  25.705  1.00  0.00     0.297 C 
BRANCH  11  12
ATOM     12  C   UNL A   1      33.392  27.377  26.088  1.00  0.00     0.006 A 
ATOM     13  C   UNL A   1      32.358  27.388  27.037  1.00  0.00     0.009 A 
ATOM     14  C   UNL A   1      33.717  28.573  25.430  1.00  0.00     0.009 A 
ATOM     15  C   UNL A   1      31.645  28.561  27.293  1.00  0.00     0.001 A 
ATOM     16  C   UNL A   1      32.985  29.736  25.666  1.00  0.00     0.001 A 
ATOM     17  C   UNL A   1      31.947  29.728  26.593  1.00  0.00     0.000 A 
ENDBRANCH  11  12
ENDBRANCH   8  11
ENDBRANCH   7   8
BRANCH   7  18
ATOM     18  C   UNL A   1      31.845  23.941  24.017  1.00  0.00     0.307 C 
ATOM     19  O   UNL A   1      31.622  23.087  23.163  1.00  0.00    -0.265 OA
BRANCH  18  20
ATOM     20  N   UNL A   1      30.907  24.882  24.384  1.00  0.00    -0.180 NA
ATOM     21  C   UNL A   1      30.844  25.979  23.707  1.00  0.00     0.190 A 
ATOM     22  N   UNL A   1      29.970  27.013  23.933  1.00  0.00    -0.330 N 
ATOM     23  S   UNL A   1      31.906  26.483  22.362  1.00  0.00    -0.105 S 
ATOM     24  C   UNL A   1      30.188  28.177  23.220  1.00  0.00     0.058 A 
ATOM     25  H   UNL A   1      29.225  26.929  24.570  1.00  0.00     0.169 HD
ATOM     26  C   UNL A   1      31.249  28.096  22.395  1.00  0.00     0.095 A 
BRANCH  24  27
ATOM     27  C   UNL A   1      29.303  29.348  23.320  1.00  0.00    -0.001 A 
ATOM     28  C   UNL A   1      27.988  29.340  22.833  1.00  0.00     0.010 A 
ATOM     29  C   UNL A   1      29.804  30.555  23.842  1.00  0.00     0.010 A 
ATOM     30  C   UNL A   1      27.215  30.506  22.845  1.00  0.00     0.001 A 
ATOM     31  C   UNL A   1      29.031  31.716  23.863  1.00  0.00     0.001 A 
ATOM     32  C   UNL A   1      27.739  31.692  23.354  1.00  0.00     0.000 A 
ENDBRANCH  24  27
ENDBRANCH  18  20
ENDBRANCH   7  18
ENDBRANCH   6   7
ENDBRANCH   4   6
ENDBRANCH   1   2
BRANCH   1  33
ATOM     33  C   UNL A   1      36.585  20.480  25.023  1.00  0.00     0.023 C 
BRANCH  33  34
ATOM     34  C   UNL A   1      37.865  19.638  24.962  1.00  0.00     0.023 C 
BRANCH  34  35
ATOM     35  C   UNL A   1      39.038  20.192  25.762  1.00  0.00     0.116 C 
BRANCH  35  36
ATOM     36  N   UNL A   1      40.161  19.273  25.804  1.00  0.00    -0.352 N 
ATOM     37  C   UNL A   1      41.479  19.518  26.098  1.00  0.00     0.251 C 
ATOM     38  H   UNL A   1      39.947  18.337  25.589  1.00  0.00     0.163 HD
ATOM     39  O   UNL A   1      42.325  18.650  25.909  1.00  0.00    -0.269 OA
BRANCH  37  40
ATOM     40  C   UNL A   1      41.888  20.841  26.620  1.00  0.00     0.039 A 
ATOM     41  C   UNL A   1      42.326  21.813  25.717  1.00  0.00     0.014 A 
ATOM     42  C   UNL A   1      41.843  21.124  27.988  1.00  0.00     0.014 A 
ATOM     43  C   UNL A   1      42.660  23.087  26.179  1.00  0.00     0.010 A 
ATOM     44  C   UNL A   1      42.102  22.417  28.437  1.00  0.00     0.010 A 
ATOM     45  C   UNL A   1      42.513  23.413  27.537  1.00  0.00    -0.014 A 
BRANCH  45  46
ATOM     46  C   UNL A   1      42.778  24.789  28.031  1.00  0.00     0.031 A 
ATOM     47  C   UNL A   1      44.167  25.202  28.432  1.00  0.00     0.074 A 
ATOM     48  C   UNL A   1      41.753  25.653  28.174  1.00  0.00     0.049 A 
ATOM     49  N   UNL A   1      44.579  26.341  28.929  1.00  0.00    -0.248 NA
ATOM     50  C   UNL A   1      45.230  24.197  28.275  1.00  0.00     0.031 C 
ATOM     51  C   UNL A   1      40.352  25.369  27.852  1.00  0.00     0.029 A 
ATOM     52  N   UNL A   1      41.731  26.947  28.631  1.00  0.00    -0.354 N 
ATOM     53  C   UNL A   1      45.940  26.184  29.158  1.00  0.00     0.074 A 
ATOM     54  C   UNL A   1      46.276  24.825  28.795  1.00  0.00     0.031 C 
ATOM     55  C   UNL A   1      39.615  26.465  28.090  1.00  0.00     0.029 A 
ATOM     56  C   UNL A   1      40.478  27.513  28.625  1.00  0.00     0.049 A 
ATOM     57  H   UNL A   1      42.536  27.425  28.934  1.00  0.00     0.167 HD
ATOM     58  C   UNL A   1      46.834  27.093  29.616  1.00  0.00     0.031 A 
ATOM     59  C   UNL A   1      40.068  28.735  29.014  1.00  0.00     0.031 A 
ATOM     60  C   UNL A   1      46.503  28.447  29.972  1.00  0.00     0.049 A 
ATOM     61  C   UNL A   1      41.078  29.714  29.549  1.00  0.00     0.074 A 
ATOM     62  C   UNL A   1      47.350  29.459  30.390  1.00  0.00     0.029 A 
ATOM     63  N   UNL A   1      45.222  28.976  29.962  1.00  0.00    -0.354 N 
ATOM     64  N   UNL A   1      42.372  29.572  29.692  1.00  0.00    -0.248 NA
ATOM     65  C   UNL A   1      40.565  31.027  29.968  1.00  0.00     0.031 C 
ATOM     66  C   UNL A   1      46.574  30.581  30.694  1.00  0.00     0.029 A 
ATOM     67  C   UNL A   1      45.251  30.291  30.398  1.00  0.00     0.049 A 
ATOM     68  H   UNL A   1      44.412  28.490  29.685  1.00  0.00     0.167 HD
ATOM     69  C   UNL A   1      42.835  30.786  30.184  1.00  0.00     0.074 A 
ATOM     70  C   UNL A   1      41.684  31.657  30.299  1.00  0.00     0.031 C 
ATOM     71  C   UNL A   1      44.099  31.148  30.508  1.00  0.00     0.031 A 
BRANCH  58  72
ATOM     72  C   UNL A   1      48.263  26.646  29.771  1.00  0.00    -0.014 A 
ATOM     73  C   UNL A   1      49.207  26.843  28.750  1.00  0.00     0.009 A 
ATOM     74  C   UNL A   1      48.682  26.058  30.975  1.00  0.00     0.009 A 
ATOM     75  C   UNL A   1      50.529  26.426  28.918  1.00  0.00     0.001 A 
ATOM     76  C   UNL A   1      50.011  25.672  31.153  1.00  0.00     0.001 A 
ATOM     77  C   UNL A   1      50.931  25.847  30.121  1.00  0.00     0.000 A 
ENDBRANCH  58  72
BRANCH  59  78
ATOM     78  C   UNL A   1      38.633  29.113  28.907  1.00  0.00    -0.014 A 
ATOM     79  C   UNL A   1      38.114  29.598  27.697  1.00  0.00     0.009 A 
ATOM     80  C   UNL A   1      37.781  29.009  30.017  1.00  0.00     0.009 A 
ATOM     81  C   UNL A   1      36.780  30.002  27.609  1.00  0.00     0.001 A 
ATOM     82  C   UNL A   1      36.438  29.382  29.917  1.00  0.00     0.001 A 
ATOM     83  C   UNL A   1      35.942  29.889  28.718  1.00  0.00     0.000 A 
ENDBRANCH  59  78
BRANCH  71  84
ATOM     84  C   UNL A   1      44.315  32.560  30.979  1.00  0.00    -0.014 A 
ATOM     85  C   UNL A   1      44.561  33.605  30.075  1.00  0.00     0.009 A 
ATOM     86  C   UNL A   1      44.231  32.854  32.349  1.00  0.00     0.009 A 
ATOM     87  C   UNL A   1      44.755  34.909  30.538  1.00  0.00     0.001 A 
ATOM     88  C   UNL A   1      44.391  34.163  32.806  1.00  0.00     0.001 A 
ATOM     89  C   UNL A   1      44.664  35.186  31.901  1.00  0.00     0.000 A 
ENDBRANCH  71  84
ENDBRANCH  45  46
ENDBRANCH  37  40
ENDBRANCH  35  36
ENDBRANCH  34  35
ENDBRANCH  33  34
ENDBRANCH   1  33
TORSDOF 18
ENDMDL
MODEL 2
REMARK VINA RESULT:     -11.5      2.668      5.511
REMARK SMILES O=C(C[C@@H]([NH2+]Cc1ccccc1)C(=O)/N=c1/[nH]c(-c2ccccc2)cs1)NCCCCNC(=O)c1ccc(-c2c3nc(c(-c4ccccc4)c4ccc([nH]4)c(-c4ccccc4)c4nc(c(-c5ccccc5)c5ccc2[nH]5)C=C4)C=C3)cc1
REMARK SMILES IDX 28 1 27 2 1 3 2 4 3 6 4 7 5 8 6 11 7 12 8 13 12 14 9 15
REMARK SMILES IDX 11 16 10 17 13 18 14 19 15 20 16 21 17 22 26 23 18 24 25 26
REMARK SMILES IDX 19 27 20 28 24 29 21 30 23 31 22 32 29 33 30 34 31 35 32 36
REMARK SMILES IDX 33 37 34 39 35 40 36 41 82 42 37 43 81 44 38 45 39 46 40 47
REMARK SMILES IDX 75 48 41 49 80 50 74 51 76 52 42 53 79 54 73 55 72 56 43 58
REMARK SMILES IDX 65 59 50 60 64 61 51 62 54 63 63 64 77 65 52 66 53 67 62 69
REMARK SMILES IDX 78 70 55 71 44 72 45 73 49 74 46 75 48 76 47 77 66 78 67 79
REMARK SMILES IDX 71 80 68 81 70 82 69 83 56 84 57 85 61 86 58 87 60 88 59 89
REMARK H PARENT 27 5 5 9 5 10 17 25 32 38 76 57 54 68
REMARK Flexibility Score: inf
ROOT
ATOM      1  C   UNL A   1      34.040  23.225  22.698  1.00  0.00     0.116 C 
ENDROOT
BRANCH   1   2
ATOM      2  N   UNL A   1      32.724  23.597  23.157  1.00  0.00    -0.356 N 
ATOM      3  O   UNL A   1      32.544  25.554  21.960  1.00  0.00    -0.275 OA
ATOM      4  C   UNL A   1      32.123  24.785  22.808  1.00  0.00     0.226 C 
ATOM      5  H   UNL A   1      32.234  22.975  23.743  1.00  0.00     0.163 HD
BRANCH   4   6
ATOM      6  C   UNL A   1      30.916  25.071  23.653  1.00  0.00     0.175 C 
BRANCH   6   7
ATOM      7  C   UNL A   1      31.221  25.362  25.118  1.00  0.00     0.284 C 
BRANCH   7   8
ATOM      8  N   UNL A   1      30.718  26.704  25.547  1.00  0.00    -0.332 N 
ATOM      9  H   UNL A   1      30.847  26.795  26.555  1.00  0.00     0.347 HD
ATOM     10  H   UNL A   1      29.734  26.765  25.289  1.00  0.00     0.347 HD
BRANCH   8  11
ATOM     11  C   UNL A   1      31.429  27.812  24.877  1.00  0.00     0.297 C 
BRANCH  11  12
ATOM     12  C   UNL A   1      32.242  28.635  25.851  1.00  0.00     0.006 A 
ATOM     13  C   UNL A   1      31.931  29.984  26.082  1.00  0.00     0.009 A 
ATOM     14  C   UNL A   1      33.378  28.089  26.467  1.00  0.00     0.009 A 
ATOM     15  C   UNL A   1      32.760  30.773  26.881  1.00  0.00     0.001 A 
ATOM     16  C   UNL A   1      34.220  28.887  27.241  1.00  0.00     0.001 A 
ATOM     17  C   UNL A   1      33.914  30.229  27.444  1.00  0.00     0.000 A 
ENDBRANCH  11  12
ENDBRANCH   8  11
ENDBRANCH   7   8
BRANCH   7  18
ATOM     18  C   UNL A   1      30.634  24.199  25.967  1.00  0.00     0.307 C 
ATOM     19  O   UNL A   1      30.129  24.422  27.065  1.00  0.00    -0.265 OA
BRANCH  18  20
ATOM     20  N   UNL A   1      30.670  22.938  25.412  1.00  0.00    -0.180 NA
ATOM     21  C   UNL A   1      31.639  22.152  25.743  1.00  0.00     0.190 A 
ATOM     22  N   UNL A   1      31.822  20.869  25.290  1.00  0.00    -0.330 N 
ATOM     23  S   UNL A   1      33.027  22.531  26.800  1.00  0.00    -0.105 S 
ATOM     24  C   UNL A   1      33.020  20.261  25.615  1.00  0.00     0.058 A 
ATOM     25  H   UNL A   1      31.133  20.405  24.762  1.00  0.00     0.169 HD
ATOM     26  C   UNL A   1      33.827  21.051  26.348  1.00  0.00     0.095 A 
BRANCH  24  27
ATOM     27  C   UNL A   1      33.333  18.872  25.243  1.00  0.00    -0.001 A 
ATOM     28  C   UNL A   1      32.585  17.782  25.712  1.00  0.00     0.010 A 
ATOM     29  C   UNL A   1      34.472  18.602  24.462  1.00  0.00     0.010 A 
ATOM     30  C   UNL A   1      32.981  16.471  25.427  1.00  0.00     0.001 A 
ATOM     31  C   UNL A   1      34.862  17.296  24.170  1.00  0.00     0.001 A 
ATOM     32  C   UNL A   1      34.120  16.229  24.663  1.00  0.00     0.000 A 
ENDBRANCH  24  27
ENDBRANCH  18  20
ENDBRANCH   7  18
ENDBRANCH   6   7
ENDBRANCH   4   6
ENDBRANCH   1   2
BRANCH   1  33
ATOM     33  C   UNL A   1      35.112  23.872  23.573  1.00  0.00     0.023 C 
BRANCH  33  34
ATOM     34  C   UNL A   1      36.243  22.930  24.003  1.00  0.00     0.023 C 
BRANCH  34  35
ATOM     35  C   UNL A   1      37.068  23.413  25.190  1.00  0.00     0.116 C 
BRANCH  35  36
ATOM     36  N   UNL A   1      38.194  22.542  25.472  1.00  0.00    -0.352 N 
ATOM     37  C   UNL A   1      39.389  22.829  26.083  1.00  0.00     0.251 C 
ATOM     38  H   UNL A   1      38.085  21.607  25.183  1.00  0.00     0.163 HD
ATOM     39  O   UNL A   1      40.298  22.006  26.075  1.00  0.00    -0.269 OA
BRANCH  37  40
ATOM     40  C   UNL A   1      39.592  24.144  26.729  1.00  0.00     0.039 A 
ATOM     41  C   UNL A   1      39.110  24.338  28.026  1.00  0.00     0.014 A 
ATOM     42  C   UNL A   1      40.251  25.182  26.063  1.00  0.00     0.014 A 
ATOM     43  C   UNL A   1      39.342  25.550  28.677  1.00  0.00     0.010 A 
ATOM     44  C   UNL A   1      40.549  26.362  26.742  1.00  0.00     0.010 A 
ATOM     45  C   UNL A   1      40.097  26.558  28.056  1.00  0.00    -0.014 A 
BRANCH  45  46
ATOM     46  C   UNL A   1      40.431  27.818  28.769  1.00  0.00     0.031 A 
ATOM     47  C   UNL A   1      41.763  27.982  29.448  1.00  0.00     0.074 A 
ATOM     48  C   UNL A   1      39.509  28.798  28.856  1.00  0.00     0.049 A 
ATOM     49  N   UNL A   1      42.211  28.988  30.156  1.00  0.00    -0.248 NA
ATOM     50  C   UNL A   1      42.709  26.860  29.334  1.00  0.00     0.031 C 
ATOM     51  C   UNL A   1      38.166  28.754  28.270  1.00  0.00     0.029 A 
ATOM     52  N   UNL A   1      39.560  30.022  29.475  1.00  0.00    -0.354 N 
ATOM     53  C   UNL A   1      43.479  28.614  30.584  1.00  0.00     0.074 A 
ATOM     54  C   UNL A   1      43.709  27.270  30.101  1.00  0.00     0.031 C 
ATOM     55  C   UNL A   1      37.536  29.911  28.529  1.00  0.00     0.029 A 
ATOM     56  C   UNL A   1      38.407  30.758  29.338  1.00  0.00     0.049 A 
ATOM     57  H   UNL A   1      40.348  30.344  29.969  1.00  0.00     0.167 HD
ATOM     58  C   UNL A   1      44.377  29.329  31.303  1.00  0.00     0.031 A 
ATOM     59  C   UNL A   1      38.083  31.975  29.815  1.00  0.00     0.031 A 
ATOM     60  C   UNL A   1      44.152  30.668  31.780  1.00  0.00     0.049 A 
ATOM     61  C   UNL A   1      39.088  32.733  30.638  1.00  0.00     0.074 A 
ATOM     62  C   UNL A   1      45.024  31.496  32.466  1.00  0.00     0.029 A 
ATOM     63  N   UNL A   1      42.968  31.372  31.629  1.00  0.00    -0.354 N 
ATOM     64  N   UNL A   1      40.308  32.393  30.973  1.00  0.00    -0.248 NA
ATOM     65  C   UNL A   1      38.670  34.051  31.140  1.00  0.00     0.031 C 
ATOM     66  C   UNL A   1      44.347  32.675  32.785  1.00  0.00     0.029 A 
ATOM     67  C   UNL A   1      43.075  32.612  32.238  1.00  0.00     0.049 A 
ATOM     68  H   UNL A   1      42.170  31.040  31.158  1.00  0.00     0.167 HD
ATOM     69  C   UNL A   1      40.816  33.467  31.695  1.00  0.00     0.074 A 
ATOM     70  C   UNL A   1      39.777  34.474  31.734  1.00  0.00     0.031 C 
ATOM     71  C   UNL A   1      42.034  33.606  32.271  1.00  0.00     0.031 A 
BRANCH  58  72
ATOM     72  C   UNL A   1      45.689  28.668  31.631  1.00  0.00    -0.014 A 
ATOM     73  C   UNL A   1      45.821  27.809  32.734  1.00  0.00     0.009 A 
ATOM     74  C   UNL A   1      46.800  28.873  30.797  1.00  0.00     0.009 A 
ATOM     75  C   UNL A   1      47.047  27.202  33.016  1.00  0.00     0.001 A 
ATOM     76  C   UNL A   1      48.014  28.239  31.062  1.00  0.00     0.001 A 
ATOM     77  C   UNL A   1      48.140  27.412  32.177  1.00  0.00     0.000 A 
ENDBRANCH  58  72
BRANCH  59  78
ATOM     78  C   UNL A   1      36.748  32.563  29.523  1.00  0.00    -0.014 A 
ATOM     79  C   UNL A   1      36.514  33.230  28.312  1.00  0.00     0.009 A 
ATOM     80  C   UNL A   1      35.707  32.477  30.461  1.00  0.00     0.009 A 
ATOM     81  C   UNL A   1      35.277  33.827  28.058  1.00  0.00     0.001 A 
ATOM     82  C   UNL A   1      34.460  33.046  30.191  1.00  0.00     0.001 A 
ATOM     83  C   UNL A   1      34.250  33.731  28.996  1.00  0.00     0.000 A 
ENDBRANCH  59  78
BRANCH  71  84
ATOM     84  C   UNL A   1      42.328  34.911  32.957  1.00  0.00    -0.014 A 
ATOM     85  C   UNL A   1      41.843  35.189  34.245  1.00  0.00     0.009 A 
ATOM     86  C   UNL A   1      43.139  35.863  32.318  1.00  0.00     0.009 A 
ATOM     87  C   UNL A   1      42.134  36.408  34.861  1.00  0.00     0.001 A 
ATOM     88  C   UNL A   1      43.455  37.066  32.950  1.00  0.00     0.001 A 
ATOM     89  C   UNL A   1      42.943  37.342  34.216  1.00  0.00     0.000 A 
ENDBRANCH  71  84
ENDBRANCH  45  46
ENDBRANCH  37  40
ENDBRANCH  35  36
ENDBRANCH  34  35
ENDBRANCH  33  34
ENDBRANCH   1  33
TORSDOF 18
ENDMDL
MODEL 3
REMARK VINA RESULT:     -11.3      3.832      9.283
REMARK SMILES O=C(C[C@@H]([NH2+]Cc1ccccc1)C(=O)/N=c1/[nH]c(-c2ccccc2)cs1)NCCCCNC(=O)c1ccc(-c2c3nc(c(-c4ccccc4)c4ccc([nH]4)c(-c4ccccc4)c4nc(c(-c5ccccc5)c5ccc2[nH]5)C=C4)C=C3)cc1
REMARK SMILES IDX 28 1 27 2 1 3 2 4 3 6 4 7 5 8 6 11 7 12 8 13 12 14 9 15
REMARK SMILES IDX 11 16 10 17 13 18 14 19 15 20 16 21 17 22 26 23 18 24 25 26
REMARK SMILES IDX 19 27 20 28 24 29 21 30 23 31 22 32 29 33 30 34 31 35 32 36
REMARK SMILES IDX 33 37 34 39 35 40 36 41 82 42 37 43 81 44 38 45 39 46 40 47
REMARK SMILES IDX 75 48 41 49 80 50 74 51 76 52 42 53 79 54 73 55 72 56 43 58
REMARK SMILES IDX 65 59 50 60 64 61 51 62 54 63 63 64 77 65 52 66 53 67 62 69
REMARK SMILES IDX 78 70 55 71 44 72 45 73 49 74 46 75 48 76 47 77 66 78 67 79
REMARK SMILES IDX 71 80 68 81 70 82 69 83 56 84 57 85 61 86 58 87 60 88 59 89
REMARK H PARENT 27 5 5 9 5 10 17 25 32 38 76 57 54 68
REMARK Flexibility Score: inf
ROOT
ATOM      1  C   UNL A   1      33.143  30.109  26.355  1.00  0.00     0.116 C 
ENDROOT
BRANCH   1   2
ATOM      2  N   UNL A   1      33.019  29.448  25.079  1.00  0.00    -0.356 N 
ATOM      3  O   UNL A   1      33.805  27.390  25.742  1.00  0.00    -0.275 OA
ATOM      4  C   UNL A   1      33.447  28.158  24.865  1.00  0.00     0.226 C 
ATOM      5  H   UNL A   1      32.612  29.941  24.329  1.00  0.00     0.163 HD
BRANCH   4   6
ATOM      6  C   UNL A   1      33.497  27.820  23.402  1.00  0.00     0.175 C 
BRANCH   6   7
ATOM      7  C   UNL A   1      32.286  27.051  22.888  1.00  0.00     0.284 C 
BRANCH   7   8
ATOM      8  N   UNL A   1      31.264  27.951  22.266  1.00  0.00    -0.332 N 
ATOM      9  H   UNL A   1      31.263  27.796  21.258  1.00  0.00     0.347 HD
ATOM     10  H   UNL A   1      31.515  28.912  22.496  1.00  0.00     0.347 HD
BRANCH   8  11
ATOM     11  C   UNL A   1      29.905  27.703  22.787  1.00  0.00     0.297 C 
BRANCH  11  12
ATOM     12  C   UNL A   1      29.182  28.989  23.122  1.00  0.00     0.006 A 
ATOM     13  C   UNL A   1      27.844  29.177  22.744  1.00  0.00     0.009 A 
ATOM     14  C   UNL A   1      29.868  30.050  23.732  1.00  0.00     0.009 A 
ATOM     15  C   UNL A   1      27.221  30.411  22.941  1.00  0.00     0.001 A 
ATOM     16  C   UNL A   1      29.253  31.290  23.900  1.00  0.00     0.001 A 
ATOM     17  C   UNL A   1      27.932  31.471  23.500  1.00  0.00     0.000 A 
ENDBRANCH  11  12
ENDBRANCH   8  11
ENDBRANCH   7   8
BRANCH   7  18
ATOM     18  C   UNL A   1      32.797  25.955  21.910  1.00  0.00     0.307 C 
ATOM     19  O   UNL A   1      33.682  26.209  21.096  1.00  0.00    -0.265 OA
BRANCH  18  20
ATOM     20  N   UNL A   1      32.247  24.698  22.036  1.00  0.00    -0.180 NA
ATOM     21  C   UNL A   1      32.830  23.850  22.815  1.00  0.00     0.190 A 
ATOM     22  N   UNL A   1      32.413  22.565  23.058  1.00  0.00    -0.330 N 
ATOM     23  S   UNL A   1      34.354  24.081  23.718  1.00  0.00    -0.105 S 
ATOM     24  C   UNL A   1      33.278  21.758  23.774  1.00  0.00     0.058 A 
ATOM     25  H   UNL A   1      31.543  22.235  22.740  1.00  0.00     0.169 HD
ATOM     26  C   UNL A   1      34.413  22.389  24.128  1.00  0.00     0.095 A 
BRANCH  24  27
ATOM     27  C   UNL A   1      32.944  20.376  24.154  1.00  0.00    -0.001 A 
ATOM     28  C   UNL A   1      33.079  19.904  25.468  1.00  0.00     0.010 A 
ATOM     29  C   UNL A   1      32.556  19.457  23.161  1.00  0.00     0.010 A 
ATOM     30  C   UNL A   1      32.858  18.555  25.767  1.00  0.00     0.001 A 
ATOM     31  C   UNL A   1      32.327  18.115  23.461  1.00  0.00     0.001 A 
ATOM     32  C   UNL A   1      32.489  17.662  24.764  1.00  0.00     0.000 A 
ENDBRANCH  24  27
ENDBRANCH  18  20
ENDBRANCH   7  18
ENDBRANCH   6   7
ENDBRANCH   4   6
ENDBRANCH   1   2
BRANCH   1  33
ATOM     33  C   UNL A   1      31.770  30.538  26.869  1.00  0.00     0.023 C 
BRANCH  33  34
ATOM     34  C   UNL A   1      31.539  32.054  26.892  1.00  0.00     0.023 C 
BRANCH  34  35
ATOM     35  C   UNL A   1      32.799  32.894  27.059  1.00  0.00     0.116 C 
BRANCH  35  36
ATOM     36  N   UNL A   1      32.523  34.194  27.644  1.00  0.00    -0.352 N 
ATOM     37  C   UNL A   1      33.133  34.824  28.700  1.00  0.00     0.251 C 
ATOM     38  H   UNL A   1      31.789  34.697  27.222  1.00  0.00     0.163 HD
ATOM     39  O   UNL A   1      32.647  35.846  29.171  1.00  0.00    -0.269 OA
BRANCH  37  40
ATOM     40  C   UNL A   1      34.364  34.255  29.290  1.00  0.00     0.039 A 
ATOM     41  C   UNL A   1      34.258  33.473  30.443  1.00  0.00     0.014 A 
ATOM     42  C   UNL A   1      35.617  34.490  28.715  1.00  0.00     0.014 A 
ATOM     43  C   UNL A   1      35.398  32.877  30.983  1.00  0.00     0.010 A 
ATOM     44  C   UNL A   1      36.741  33.833  29.210  1.00  0.00     0.010 A 
ATOM     45  C   UNL A   1      36.643  33.019  30.350  1.00  0.00    -0.014 A 
BRANCH  45  46
ATOM     46  C   UNL A   1      37.850  32.319  30.860  1.00  0.00     0.031 A 
ATOM     47  C   UNL A   1      38.614  32.870  32.033  1.00  0.00     0.074 A 
ATOM     48  C   UNL A   1      38.295  31.214  30.229  1.00  0.00     0.049 A 
ATOM     49  N   UNL A   1      39.713  32.423  32.585  1.00  0.00    -0.248 NA
ATOM     50  C   UNL A   1      38.085  34.095  32.653  1.00  0.00     0.031 C 
ATOM     51  C   UNL A   1      37.666  30.593  29.060  1.00  0.00     0.029 A 
ATOM     52  N   UNL A   1      39.384  30.417  30.481  1.00  0.00    -0.354 N 
ATOM     53  C   UNL A   1      40.016  33.318  33.604  1.00  0.00     0.074 A 
ATOM     54  C   UNL A   1      39.014  34.361  33.561  1.00  0.00     0.031 C 
ATOM     55  C   UNL A   1      38.360  29.496  28.718  1.00  0.00     0.029 A 
ATOM     56  C   UNL A   1      39.507  29.360  29.610  1.00  0.00     0.049 A 
ATOM     57  H   UNL A   1      40.016  30.585  31.216  1.00  0.00     0.167 HD
ATOM     58  C   UNL A   1      41.027  33.271  34.504  1.00  0.00     0.031 A 
ATOM     59  C   UNL A   1      40.443  28.395  29.532  1.00  0.00     0.031 A 
ATOM     60  C   UNL A   1      42.021  32.232  34.552  1.00  0.00     0.049 A 
ATOM     61  C   UNL A   1      41.573  28.385  30.524  1.00  0.00     0.074 A 
ATOM     62  C   UNL A   1      43.050  32.065  35.462  1.00  0.00     0.029 A 
ATOM     63  N   UNL A   1      42.116  31.187  33.646  1.00  0.00    -0.354 N 
ATOM     64  N   UNL A   1      41.803  29.199  31.525  1.00  0.00    -0.248 NA
ATOM     65  C   UNL A   1      42.568  27.312  30.379  1.00  0.00     0.031 C 
ATOM     66  C   UNL A   1      43.805  30.957  35.071  1.00  0.00     0.029 A 
ATOM     67  C   UNL A   1      43.207  30.390  33.956  1.00  0.00     0.049 A 
ATOM     68  H   UNL A   1      41.499  31.033  32.893  1.00  0.00     0.167 HD
ATOM     69  C   UNL A   1      42.948  28.719  32.149  1.00  0.00     0.074 A 
ATOM     70  C   UNL A   1      43.355  27.533  31.423  1.00  0.00     0.031 C 
ATOM     71  C   UNL A   1      43.602  29.214  33.227  1.00  0.00     0.031 A 
BRANCH  58  72
ATOM     72  C   UNL A   1      41.118  34.388  35.508  1.00  0.00    -0.014 A 
ATOM     73  C   UNL A   1      41.887  35.537  35.258  1.00  0.00     0.009 A 
ATOM     74  C   UNL A   1      40.386  34.310  36.704  1.00  0.00     0.009 A 
ATOM     75  C   UNL A   1      41.951  36.565  36.202  1.00  0.00     0.001 A 
ATOM     76  C   UNL A   1      40.427  35.354  37.630  1.00  0.00     0.001 A 
ATOM     77  C   UNL A   1      41.217  36.475  37.383  1.00  0.00     0.000 A 
ENDBRANCH  58  72
BRANCH  59  78
ATOM     78  C   UNL A   1      40.352  27.347  28.480  1.00  0.00    -0.014 A 
ATOM     79  C   UNL A   1      40.969  27.534  27.234  1.00  0.00     0.009 A 
ATOM     80  C   UNL A   1      39.632  26.164  28.708  1.00  0.00     0.009 A 
ATOM     81  C   UNL A   1      40.840  26.575  26.227  1.00  0.00     0.001 A 
ATOM     82  C   UNL A   1      39.532  25.190  27.711  1.00  0.00     0.001 A 
ATOM     83  C   UNL A   1      40.126  25.402  26.468  1.00  0.00     0.000 A 
ENDBRANCH  59  78
BRANCH  71  84
ATOM     84  C   UNL A   1      44.802  28.452  33.717  1.00  0.00    -0.014 A 
ATOM     85  C   UNL A   1      46.088  28.706  33.216  1.00  0.00     0.009 A 
ATOM     86  C   UNL A   1      44.646  27.488  34.726  1.00  0.00     0.009 A 
ATOM     87  C   UNL A   1      47.187  27.986  33.690  1.00  0.00     0.001 A 
ATOM     88  C   UNL A   1      45.750  26.794  35.222  1.00  0.00     0.001 A 
ATOM     89  C   UNL A   1      47.017  27.036  34.696  1.00  0.00     0.000 A 
ENDBRANCH  71  84
ENDBRANCH  45  46
ENDBRANCH  37  40
ENDBRANCH  35  36
ENDBRANCH  34  35
ENDBRANCH  33  34
ENDBRANCH   1  33
TORSDOF 18
ENDMDL
