MODEL 1
REMARK VINA RESULT:     -10.3      0.000      0.000
REMARK SMILES Cc1ccc(S(=O)(=O)/C=C/C(=O)NCCCCNC(=O)c2ccc(-c3c4nc(c(-c5ccccc5)c5ccc([nH]5)c(-c5ccccc5)c5nc(c(-c6ccccc6)c6ccc3[nH]6)C=C5)C=C4)cc2)cc1
REMARK SMILES IDX 15 1 14 2 13 3 11 4 12 5 10 7 9 8 6 9 7 10 8 11 5 12 1 13
REMARK SMILES IDX 2 14 3 15 70 16 4 17 69 18 16 19 17 20 18 21 19 22 20 24
REMARK SMILES IDX 21 25 22 26 68 27 23 28 67 29 24 30 25 31 26 32 61 33 27 34
REMARK SMILES IDX 66 35 60 36 62 37 28 38 65 39 59 40 58 41 29 43 51 44 36 45
REMARK SMILES IDX 50 46 37 47 40 48 49 49 63 50 38 51 39 52 48 54 64 55 41 56
REMARK SMILES IDX 30 57 31 58 35 59 32 60 34 61 33 62 52 63 53 64 57 65 54 66
REMARK SMILES IDX 56 67 55 68 42 69 43 70 47 71 44 72 46 73 45 74
REMARK H PARENT 13 6 18 23 62 42 40 53
REMARK Flexibility Score: inf
ROOT
ATOM      1  C   UNL A   1      34.778  34.445  28.300  1.00  0.00     0.023 C 
ENDROOT
BRANCH   1   2
ATOM      2  C   UNL A   1      33.251  34.555  28.406  1.00  0.00     0.116 C 
BRANCH   2   3
ATOM      3  N   UNL A   1      32.832  35.715  29.179  1.00  0.00    -0.353 N 
ATOM      4  C   UNL A   1      33.039  36.000  30.492  1.00  0.00     0.244 C 
ATOM      5  O   UNL A   1      32.685  37.068  30.977  1.00  0.00    -0.270 OA
ATOM      6  H   UNL A   1      32.326  36.393  28.677  1.00  0.00     0.163 HD
BRANCH   4   7
ATOM      7  C   UNL A   1      33.733  35.013  31.328  1.00  0.00     0.083 C 
ATOM      8  C   UNL A   1      34.581  35.431  32.274  1.00  0.00     0.117 C 
BRANCH   8   9
ATOM      9  S   UNL A   1      35.411  34.268  33.244  1.00  0.00     0.200 S 
ATOM     10  O   UNL A   1      34.644  33.025  33.232  1.00  0.00    -0.219 OA
ATOM     11  O   UNL A   1      35.755  34.904  34.490  1.00  0.00    -0.219 OA
BRANCH   9  12
ATOM     12  C   UNL A   1      36.946  33.907  32.420  1.00  0.00     0.071 A 
ATOM     13  C   UNL A   1      40.503  32.942  30.206  1.00  0.00     0.044 C 
ATOM     14  C   UNL A   1      39.267  33.278  30.987  1.00  0.00    -0.051 A 
ATOM     15  C   UNL A   1      38.120  32.483  30.858  1.00  0.00     0.005 A 
ATOM     16  C   UNL A   1      39.248  34.370  31.862  1.00  0.00     0.005 A 
ATOM     17  C   UNL A   1      36.961  32.798  31.567  1.00  0.00     0.021 A 
ATOM     18  C   UNL A   1      38.094  34.686  32.583  1.00  0.00     0.021 A 
ENDBRANCH   9  12
ENDBRANCH   8   9
ENDBRANCH   4   7
ENDBRANCH   2   3
ENDBRANCH   1   2
BRANCH   1  19
ATOM     19  C   UNL A   1      35.312  33.043  27.988  1.00  0.00     0.023 C 
BRANCH  19  20
ATOM     20  C   UNL A   1      34.814  31.960  28.936  1.00  0.00     0.116 C 
BRANCH  20  21
ATOM     21  N   UNL A   1      34.598  30.655  28.326  1.00  0.00    -0.352 N 
ATOM     22  C   UNL A   1      35.512  29.658  28.027  1.00  0.00     0.251 C 
ATOM     23  H   UNL A   1      33.664  30.452  28.092  1.00  0.00     0.163 HD
ATOM     24  O   UNL A   1      35.143  28.661  27.412  1.00  0.00    -0.269 OA
BRANCH  22  25
ATOM     25  C   UNL A   1      36.892  29.718  28.573  1.00  0.00     0.039 A 
ATOM     26  C   UNL A   1      37.890  30.275  27.763  1.00  0.00     0.014 A 
ATOM     27  C   UNL A   1      37.245  29.042  29.737  1.00  0.00     0.014 A 
ATOM     28  C   UNL A   1      39.218  29.910  27.963  1.00  0.00     0.010 A 
ATOM     29  C   UNL A   1      38.540  28.584  29.870  1.00  0.00     0.010 A 
ATOM     30  C   UNL A   1      39.509  28.959  28.939  1.00  0.00    -0.014 A 
BRANCH  30  31
ATOM     31  C   UNL A   1      40.768  28.230  29.001  1.00  0.00     0.031 A 
ATOM     32  C   UNL A   1      40.805  26.793  28.688  1.00  0.00     0.074 A 
ATOM     33  C   UNL A   1      41.912  28.894  29.272  1.00  0.00     0.049 A 
ATOM     34  N   UNL A   1      41.742  25.996  29.071  1.00  0.00    -0.248 NA
ATOM     35  C   UNL A   1      39.743  26.125  27.947  1.00  0.00     0.031 C 
ATOM     36  C   UNL A   1      43.285  28.422  29.121  1.00  0.00     0.029 A 
ATOM     37  N   UNL A   1      42.034  30.091  29.977  1.00  0.00    -0.354 N 
ATOM     38  C   UNL A   1      41.565  24.804  28.413  1.00  0.00     0.074 A 
ATOM     39  C   UNL A   1      40.267  24.907  27.786  1.00  0.00     0.031 C 
ATOM     40  C   UNL A   1      44.081  29.150  29.920  1.00  0.00     0.029 A 
ATOM     41  C   UNL A   1      43.223  30.001  30.727  1.00  0.00     0.049 A 
ATOM     42  H   UNL A   1      41.410  30.852  29.955  1.00  0.00     0.167 HD
ATOM     43  C   UNL A   1      42.589  23.909  28.371  1.00  0.00     0.031 A 
ATOM     44  C   UNL A   1      43.174  29.998  32.093  1.00  0.00     0.031 A 
ATOM     45  C   UNL A   1      43.732  24.340  29.176  1.00  0.00     0.049 A 
ATOM     46  C   UNL A   1      43.672  28.717  32.736  1.00  0.00     0.074 A 
ATOM     47  C   UNL A   1      44.964  24.905  28.891  1.00  0.00     0.029 A 
ATOM     48  N   UNL A   1      43.554  24.484  30.542  1.00  0.00    -0.354 N 
ATOM     49  N   UNL A   1      44.034  27.649  32.079  1.00  0.00    -0.248 NA
ATOM     50  C   UNL A   1      43.693  28.508  34.185  1.00  0.00     0.031 C 
ATOM     51  C   UNL A   1      45.517  25.399  30.108  1.00  0.00     0.029 A 
ATOM     52  C   UNL A   1      44.631  25.115  31.131  1.00  0.00     0.049 A 
ATOM     53  H   UNL A   1      42.758  24.175  31.034  1.00  0.00     0.167 HD
ATOM     54  C   UNL A   1      44.277  26.631  32.960  1.00  0.00     0.074 A 
ATOM     55  C   UNL A   1      44.054  27.216  34.270  1.00  0.00     0.031 C 
ATOM     56  C   UNL A   1      44.596  25.367  32.560  1.00  0.00     0.031 A 
BRANCH  43  57
ATOM     57  C   UNL A   1      42.635  22.742  27.417  1.00  0.00    -0.014 A 
ATOM     58  C   UNL A   1      41.787  21.640  27.630  1.00  0.00     0.009 A 
ATOM     59  C   UNL A   1      43.510  22.643  26.322  1.00  0.00     0.009 A 
ATOM     60  C   UNL A   1      41.874  20.476  26.855  1.00  0.00     0.001 A 
ATOM     61  C   UNL A   1      43.633  21.468  25.569  1.00  0.00     0.001 A 
ATOM     62  C   UNL A   1      42.819  20.378  25.843  1.00  0.00     0.000 A 
ENDBRANCH  43  57
BRANCH  44  63
ATOM     63  C   UNL A   1      42.062  30.839  32.631  1.00  0.00    -0.014 A 
ATOM     64  C   UNL A   1      40.791  30.245  32.788  1.00  0.00     0.009 A 
ATOM     65  C   UNL A   1      42.331  32.033  33.311  1.00  0.00     0.009 A 
ATOM     66  C   UNL A   1      39.873  30.753  33.710  1.00  0.00     0.001 A 
ATOM     67  C   UNL A   1      41.395  32.555  34.214  1.00  0.00     0.001 A 
ATOM     68  C   UNL A   1      40.190  31.892  34.445  1.00  0.00     0.000 A 
ENDBRANCH  44  63
BRANCH  56  69
ATOM     69  C   UNL A   1      44.870  24.238  33.512  1.00  0.00    -0.014 A 
ATOM     70  C   UNL A   1      46.168  23.893  33.912  1.00  0.00     0.009 A 
ATOM     71  C   UNL A   1      43.820  23.402  33.941  1.00  0.00     0.009 A 
ATOM     72  C   UNL A   1      46.395  22.796  34.753  1.00  0.00     0.001 A 
ATOM     73  C   UNL A   1      44.046  22.294  34.760  1.00  0.00     0.001 A 
ATOM     74  C   UNL A   1      45.336  21.998  35.177  1.00  0.00     0.000 A 
ENDBRANCH  56  69
ENDBRANCH  30  31
ENDBRANCH  22  25
ENDBRANCH  20  21
ENDBRANCH  19  20
ENDBRANCH   1  19
TORSDOF 13
ENDMDL
MODEL 2
REMARK VINA RESULT:     -10.0      3.147      5.984
REMARK SMILES Cc1ccc(S(=O)(=O)/C=C/C(=O)NCCCCNC(=O)c2ccc(-c3c4nc(c(-c5ccccc5)c5ccc([nH]5)c(-c5ccccc5)c5nc(c(-c6ccccc6)c6ccc3[nH]6)C=C5)C=C4)cc2)cc1
REMARK SMILES IDX 15 1 14 2 13 3 11 4 12 5 10 7 9 8 6 9 7 10 8 11 5 12 1 13
REMARK SMILES IDX 2 14 3 15 70 16 4 17 69 18 16 19 17 20 18 21 19 22 20 24
REMARK SMILES IDX 21 25 22 26 68 27 23 28 67 29 24 30 25 31 26 32 61 33 27 34
REMARK SMILES IDX 66 35 60 36 62 37 28 38 65 39 59 40 58 41 29 43 51 44 36 45
REMARK SMILES IDX 50 46 37 47 40 48 49 49 63 50 38 51 39 52 48 54 64 55 41 56
REMARK SMILES IDX 30 57 31 58 35 59 32 60 34 61 33 62 52 63 53 64 57 65 54 66
REMARK SMILES IDX 56 67 55 68 42 69 43 70 47 71 44 72 46 73 45 74
REMARK H PARENT 13 6 18 23 62 42 40 53
REMARK Flexibility Score: inf
ROOT
ATOM      1  C   UNL A   1      31.942  30.159  26.663  1.00  0.00     0.023 C 
ENDROOT
BRANCH   1   2
ATOM      2  C   UNL A   1      31.644  29.406  25.358  1.00  0.00     0.116 C 
BRANCH   2   3
ATOM      3  N   UNL A   1      32.700  29.574  24.370  1.00  0.00    -0.353 N 
ATOM      4  C   UNL A   1      33.296  28.645  23.575  1.00  0.00     0.244 C 
ATOM      5  O   UNL A   1      34.124  28.965  22.730  1.00  0.00    -0.270 OA
ATOM      6  H   UNL A   1      33.030  30.494  24.261  1.00  0.00     0.163 HD
BRANCH   4   7
ATOM      7  C   UNL A   1      32.904  27.238  23.718  1.00  0.00     0.083 C 
ATOM      8  C   UNL A   1      33.793  26.350  24.176  1.00  0.00     0.117 C 
BRANCH   8   9
ATOM      9  S   UNL A   1      33.336  24.692  24.327  1.00  0.00     0.200 S 
ATOM     10  O   UNL A   1      32.771  24.251  23.055  1.00  0.00    -0.219 OA
ATOM     11  O   UNL A   1      32.584  24.555  25.549  1.00  0.00    -0.219 OA
BRANCH   9  12
ATOM     12  C   UNL A   1      34.835  23.759  24.549  1.00  0.00     0.071 A 
ATOM     13  C   UNL A   1      38.335  21.382  25.312  1.00  0.00     0.044 C 
ATOM     14  C   UNL A   1      37.120  22.219  25.041  1.00  0.00    -0.051 A 
ATOM     15  C   UNL A   1      36.343  22.690  26.108  1.00  0.00     0.005 A 
ATOM     16  C   UNL A   1      36.759  22.552  23.730  1.00  0.00     0.005 A 
ATOM     17  C   UNL A   1      35.201  23.453  25.864  1.00  0.00     0.021 A 
ATOM     18  C   UNL A   1      35.622  23.325  23.480  1.00  0.00     0.021 A 
ENDBRANCH   9  12
ENDBRANCH   8   9
ENDBRANCH   4   7
ENDBRANCH   2   3
ENDBRANCH   1   2
BRANCH   1  19
ATOM     19  C   UNL A   1      33.253  30.953  26.674  1.00  0.00     0.023 C 
BRANCH  19  20
ATOM     20  C   UNL A   1      34.194  30.589  27.815  1.00  0.00     0.116 C 
BRANCH  20  21
ATOM     21  N   UNL A   1      35.212  31.584  28.120  1.00  0.00    -0.352 N 
ATOM     22  C   UNL A   1      36.539  31.410  28.472  1.00  0.00     0.251 C 
ATOM     23  H   UNL A   1      34.910  32.520  28.069  1.00  0.00     0.163 HD
ATOM     24  O   UNL A   1      37.215  32.383  28.795  1.00  0.00    -0.269 OA
BRANCH  22  25
ATOM     25  C   UNL A   1      37.188  30.082  28.317  1.00  0.00     0.039 A 
ATOM     26  C   UNL A   1      37.318  29.283  29.460  1.00  0.00     0.014 A 
ATOM     27  C   UNL A   1      37.857  29.730  27.148  1.00  0.00     0.014 A 
ATOM     28  C   UNL A   1      38.322  28.320  29.512  1.00  0.00     0.010 A 
ATOM     29  C   UNL A   1      38.926  28.863  27.232  1.00  0.00     0.010 A 
ATOM     30  C   UNL A   1      39.202  28.216  28.438  1.00  0.00    -0.014 A 
BRANCH  30  31
ATOM     31  C   UNL A   1      40.486  27.532  28.513  1.00  0.00     0.031 A 
ATOM     32  C   UNL A   1      40.562  26.078  28.307  1.00  0.00     0.074 A 
ATOM     33  C   UNL A   1      41.615  28.250  28.697  1.00  0.00     0.049 A 
ATOM     34  N   UNL A   1      41.535  25.341  28.719  1.00  0.00    -0.248 NA
ATOM     35  C   UNL A   1      39.500  25.324  27.653  1.00  0.00     0.031 C 
ATOM     36  C   UNL A   1      42.998  27.810  28.537  1.00  0.00     0.029 A 
ATOM     37  N   UNL A   1      41.719  29.500  29.306  1.00  0.00    -0.354 N 
ATOM     38  C   UNL A   1      41.378  24.098  28.158  1.00  0.00     0.074 A 
ATOM     39  C   UNL A   1      40.059  24.113  27.567  1.00  0.00     0.031 C 
ATOM     40  C   UNL A   1      43.793  28.620  29.254  1.00  0.00     0.029 A 
ATOM     41  C   UNL A   1      42.932  29.503  30.022  1.00  0.00     0.049 A 
ATOM     42  H   UNL A   1      41.070  30.237  29.248  1.00  0.00     0.167 HD
ATOM     43  C   UNL A   1      42.429  23.234  28.149  1.00  0.00     0.031 A 
ATOM     44  C   UNL A   1      42.924  29.602  31.385  1.00  0.00     0.031 A 
ATOM     45  C   UNL A   1      43.580  23.760  28.882  1.00  0.00     0.049 A 
ATOM     46  C   UNL A   1      43.483  28.389  32.106  1.00  0.00     0.074 A 
ATOM     47  C   UNL A   1      44.784  24.339  28.516  1.00  0.00     0.029 A 
ATOM     48  N   UNL A   1      43.439  24.001  30.239  1.00  0.00    -0.354 N 
ATOM     49  N   UNL A   1      43.860  27.286  31.518  1.00  0.00    -0.248 NA
ATOM     50  C   UNL A   1      43.555  28.290  33.565  1.00  0.00     0.031 C 
ATOM     51  C   UNL A   1      45.357  24.940  29.674  1.00  0.00     0.029 A 
ATOM     52  C   UNL A   1      44.512  24.707  30.743  1.00  0.00     0.049 A 
ATOM     53  H   UNL A   1      42.669  23.705  30.777  1.00  0.00     0.167 HD
ATOM     54  C   UNL A   1      44.164  26.346  32.465  1.00  0.00     0.074 A 
ATOM     55  C   UNL A   1      43.960  27.020  33.735  1.00  0.00     0.031 C 
ATOM     56  C   UNL A   1      44.512  25.066  32.150  1.00  0.00     0.031 A 
BRANCH  43  57
ATOM     57  C   UNL A   1      42.485  22.001  27.283  1.00  0.00    -0.014 A 
ATOM     58  C   UNL A   1      41.648  20.909  27.579  1.00  0.00     0.009 A 
ATOM     59  C   UNL A   1      43.359  21.828  26.197  1.00  0.00     0.009 A 
ATOM     60  C   UNL A   1      41.745  19.692  26.892  1.00  0.00     0.001 A 
ATOM     61  C   UNL A   1      43.492  20.602  25.533  1.00  0.00     0.001 A 
ATOM     62  C   UNL A   1      42.690  19.529  25.888  1.00  0.00     0.000 A 
ENDBRANCH  43  57
BRANCH  44  63
ATOM     63  C   UNL A   1      41.802  30.446  31.895  1.00  0.00    -0.014 A 
ATOM     64  C   UNL A   1      41.804  31.822  31.580  1.00  0.00     0.009 A 
ATOM     65  C   UNL A   1      40.605  29.862  32.329  1.00  0.00     0.009 A 
ATOM     66  C   UNL A   1      40.614  32.554  31.562  1.00  0.00     0.001 A 
ATOM     67  C   UNL A   1      39.419  30.608  32.337  1.00  0.00     0.001 A 
ATOM     68  C   UNL A   1      39.417  31.936  31.912  1.00  0.00     0.000 A 
ENDBRANCH  44  63
BRANCH  56  69
ATOM     69  C   UNL A   1      44.851  24.021  33.174  1.00  0.00    -0.014 A 
ATOM     70  C   UNL A   1      43.904  23.105  33.654  1.00  0.00     0.009 A 
ATOM     71  C   UNL A   1      46.123  24.011  33.783  1.00  0.00     0.009 A 
ATOM     72  C   UNL A   1      44.236  22.182  34.654  1.00  0.00     0.001 A 
ATOM     73  C   UNL A   1      46.449  23.108  34.796  1.00  0.00     0.001 A 
ATOM     74  C   UNL A   1      45.506  22.183  35.224  1.00  0.00     0.000 A 
ENDBRANCH  56  69
ENDBRANCH  30  31
ENDBRANCH  22  25
ENDBRANCH  20  21
ENDBRANCH  19  20
ENDBRANCH   1  19
TORSDOF 13
ENDMDL
MODEL 3
REMARK VINA RESULT:      -9.6      4.517     10.642
REMARK SMILES Cc1ccc(S(=O)(=O)/C=C/C(=O)NCCCCNC(=O)c2ccc(-c3c4nc(c(-c5ccccc5)c5ccc([nH]5)c(-c5ccccc5)c5nc(c(-c6ccccc6)c6ccc3[nH]6)C=C5)C=C4)cc2)cc1
REMARK SMILES IDX 15 1 14 2 13 3 11 4 12 5 10 7 9 8 6 9 7 10 8 11 5 12 1 13
REMARK SMILES IDX 2 14 3 15 70 16 4 17 69 18 16 19 17 20 18 21 19 22 20 24
REMARK SMILES IDX 21 25 22 26 68 27 23 28 67 29 24 30 25 31 26 32 61 33 27 34
REMARK SMILES IDX 66 35 60 36 62 37 28 38 65 39 59 40 58 41 29 43 51 44 36 45
REMARK SMILES IDX 50 46 37 47 40 48 49 49 63 50 38 51 39 52 48 54 64 55 41 56
REMARK SMILES IDX 30 57 31 58 35 59 32 60 34 61 33 62 52 63 53 64 57 65 54 66
REMARK SMILES IDX 56 67 55 68 42 69 43 70 47 71 44 72 46 73 45 74
REMARK H PARENT 13 6 18 23 62 42 40 53
REMARK Flexibility Score: inf
ROOT
ATOM      1  C   UNL A   1      36.815  23.708  25.352  1.00  0.00     0.023 C 
ENDROOT
BRANCH   1   2
ATOM      2  C   UNL A   1      36.197  22.924  24.187  1.00  0.00     0.116 C 
BRANCH   2   3
ATOM      3  N   UNL A   1      35.768  21.591  24.583  1.00  0.00    -0.353 N 
ATOM      4  C   UNL A   1      34.512  21.107  24.777  1.00  0.00     0.244 C 
ATOM      5  O   UNL A   1      34.315  19.926  25.036  1.00  0.00    -0.270 OA
ATOM      6  H   UNL A   1      36.494  20.943  24.731  1.00  0.00     0.163 HD
BRANCH   4   7
ATOM      7  C   UNL A   1      33.374  22.023  24.636  1.00  0.00     0.083 C 
ATOM      8  C   UNL A   1      32.829  22.570  25.728  1.00  0.00     0.117 C 
BRANCH   8   9
ATOM      9  S   UNL A   1      31.479  23.634  25.561  1.00  0.00     0.200 S 
ATOM     10  O   UNL A   1      30.518  23.329  26.617  1.00  0.00    -0.219 OA
ATOM     11  O   UNL A   1      31.077  23.618  24.177  1.00  0.00    -0.219 OA
BRANCH   9  12
ATOM     12  C   UNL A   1      32.072  25.279  25.895  1.00  0.00     0.071 A 
ATOM     13  C   UNL A   1      33.309  29.268  26.912  1.00  0.00     0.044 C 
ATOM     14  C   UNL A   1      32.881  27.878  26.547  1.00  0.00    -0.051 A 
ATOM     15  C   UNL A   1      31.534  27.509  26.659  1.00  0.00     0.005 A 
ATOM     16  C   UNL A   1      33.811  26.942  26.078  1.00  0.00     0.005 A 
ATOM     17  C   UNL A   1      31.129  26.213  26.339  1.00  0.00     0.021 A 
ATOM     18  C   UNL A   1      33.411  25.645  25.746  1.00  0.00     0.021 A 
ENDBRANCH   9  12
ENDBRANCH   8   9
ENDBRANCH   4   7
ENDBRANCH   2   3
ENDBRANCH   1   2
BRANCH   1  19
ATOM     19  C   UNL A   1      38.342  23.624  25.459  1.00  0.00     0.023 C 
BRANCH  19  20
ATOM     20  C   UNL A   1      38.841  22.644  26.512  1.00  0.00     0.116 C 
BRANCH  20  21
ATOM     21  N   UNL A   1      40.219  22.841  26.938  1.00  0.00    -0.352 N 
ATOM     22  C   UNL A   1      40.881  24.010  27.274  1.00  0.00     0.251 C 
ATOM     23  H   UNL A   1      40.761  22.021  26.994  1.00  0.00     0.163 HD
ATOM     24  O   UNL A   1      42.086  23.980  27.509  1.00  0.00    -0.269 OA
BRANCH  22  25
ATOM     25  C   UNL A   1      40.119  25.266  27.496  1.00  0.00     0.039 A 
ATOM     26  C   UNL A   1      40.425  26.367  26.686  1.00  0.00     0.014 A 
ATOM     27  C   UNL A   1      39.302  25.434  28.611  1.00  0.00     0.014 A 
ATOM     28  C   UNL A   1      40.157  27.652  27.148  1.00  0.00     0.010 A 
ATOM     29  C   UNL A   1      39.139  26.703  29.127  1.00  0.00     0.010 A 
ATOM     30  C   UNL A   1      39.634  27.805  28.430  1.00  0.00    -0.014 A 
BRANCH  30  31
ATOM     31  C   UNL A   1      39.654  29.065  29.161  1.00  0.00     0.031 A 
ATOM     32  C   UNL A   1      38.640  30.094  28.888  1.00  0.00     0.074 A 
ATOM     33  C   UNL A   1      40.561  29.251  30.144  1.00  0.00     0.049 A 
ATOM     34  N   UNL A   1      38.782  31.342  29.176  1.00  0.00    -0.248 NA
ATOM     35  C   UNL A   1      37.384  29.795  28.211  1.00  0.00     0.031 C 
ATOM     36  C   UNL A   1      40.586  30.300  31.160  1.00  0.00     0.029 A 
ATOM     37  N   UNL A   1      41.802  28.625  30.264  1.00  0.00    -0.354 N 
ATOM     38  C   UNL A   1      37.566  31.950  28.990  1.00  0.00     0.074 A 
ATOM     39  C   UNL A   1      36.749  30.966  28.316  1.00  0.00     0.031 C 
ATOM     40  C   UNL A   1      41.843  30.430  31.615  1.00  0.00     0.029 A 
ATOM     41  C   UNL A   1      42.690  29.583  30.793  1.00  0.00     0.049 A 
ATOM     42  H   UNL A   1      42.015  27.694  30.026  1.00  0.00     0.167 HD
ATOM     43  C   UNL A   1      37.346  33.177  29.535  1.00  0.00     0.031 A 
ATOM     44  C   UNL A   1      43.751  30.017  30.048  1.00  0.00     0.031 A 
ATOM     45  C   UNL A   1      38.547  33.723  30.166  1.00  0.00     0.049 A 
ATOM     46  C   UNL A   1      43.708  31.494  29.698  1.00  0.00     0.074 A 
ATOM     47  C   UNL A   1      38.987  33.847  31.474  1.00  0.00     0.029 A 
ATOM     48  N   UNL A   1      39.650  33.976  29.368  1.00  0.00    -0.354 N 
ATOM     49  N   UNL A   1      42.716  32.294  29.979  1.00  0.00    -0.248 NA
ATOM     50  C   UNL A   1      44.743  32.155  28.901  1.00  0.00     0.031 C 
ATOM     51  C   UNL A   1      40.375  34.169  31.445  1.00  0.00     0.029 A 
ATOM     52  C   UNL A   1      40.769  34.260  30.123  1.00  0.00     0.049 A 
ATOM     53  H   UNL A   1      39.637  33.956  28.383  1.00  0.00     0.167 HD
ATOM     54  C   UNL A   1      42.930  33.510  29.389  1.00  0.00     0.074 A 
ATOM     55  C   UNL A   1      44.215  33.378  28.726  1.00  0.00     0.031 C 
ATOM     56  C   UNL A   1      42.022  34.526  29.440  1.00  0.00     0.031 A 
BRANCH  43  57
ATOM     57  C   UNL A   1      35.974  33.785  29.686  1.00  0.00    -0.014 A 
ATOM     58  C   UNL A   1      35.280  34.221  28.543  1.00  0.00     0.009 A 
ATOM     59  C   UNL A   1      35.328  33.998  30.916  1.00  0.00     0.009 A 
ATOM     60  C   UNL A   1      34.062  34.909  28.630  1.00  0.00     0.001 A 
ATOM     61  C   UNL A   1      34.133  34.721  31.016  1.00  0.00     0.001 A 
ATOM     62  C   UNL A   1      33.503  35.186  29.871  1.00  0.00     0.000 A 
ENDBRANCH  43  57
BRANCH  44  63
ATOM     63  C   UNL A   1      44.307  28.953  29.160  1.00  0.00    -0.014 A 
ATOM     64  C   UNL A   1      45.054  27.912  29.752  1.00  0.00     0.009 A 
ATOM     65  C   UNL A   1      43.803  28.763  27.867  1.00  0.00     0.009 A 
ATOM     66  C   UNL A   1      45.169  26.668  29.126  1.00  0.00     0.001 A 
ATOM     67  C   UNL A   1      43.946  27.522  27.231  1.00  0.00     0.001 A 
ATOM     68  C   UNL A   1      44.587  26.466  27.878  1.00  0.00     0.000 A 
ENDBRANCH  44  63
BRANCH  56  69
ATOM     69  C   UNL A   1      42.240  35.868  28.802  1.00  0.00    -0.014 A 
ATOM     70  C   UNL A   1      41.890  36.132  27.470  1.00  0.00     0.009 A 
ATOM     71  C   UNL A   1      42.928  36.882  29.500  1.00  0.00     0.009 A 
ATOM     72  C   UNL A   1      42.162  37.375  26.886  1.00  0.00     0.001 A 
ATOM     73  C   UNL A   1      43.222  38.114  28.912  1.00  0.00     0.001 A 
ATOM     74  C   UNL A   1      42.826  38.365  27.605  1.00  0.00     0.000 A 
ENDBRANCH  56  69
ENDBRANCH  30  31
ENDBRANCH  22  25
ENDBRANCH  20  21
ENDBRANCH  19  20
ENDBRANCH   1  19
TORSDOF 13
ENDMDL
