MODEL 1
REMARK VINA RESULT:     -13.4      0.000      0.000
REMARK SMILES Cc1ccnc(C(=O)c2[nH]c3cc(Cl)c(F)cc3c2CC(=O)NCCCCNC(=O)c2ccc(-c3c4nc(c(-c5ccccc5)c5ccc([nH]5)c(-c5ccccc5)c5nc(c(-c6ccccc6)c6ccc3[nH]6)C=C5)C=C4)cc2)c1
REMARK SMILES IDX 25 1 24 2 23 3 21 4 22 5 20 7 19 8 9 9 10 10 11 11 18 13
REMARK SMILES IDX 12 14 17 15 13 16 15 17 14 18 16 19 7 20 8 21 6 22 1 23 2 24
REMARK SMILES IDX 3 25 79 26 4 27 5 28 26 29 27 30 28 31 29 32 30 34 31 35
REMARK SMILES IDX 32 36 78 37 33 38 77 39 34 40 35 41 36 42 71 43 37 44 76 45
REMARK SMILES IDX 70 46 72 47 38 48 75 49 69 50 68 51 39 53 61 54 46 55 60 56
REMARK SMILES IDX 47 57 50 58 59 59 73 60 48 61 49 62 58 64 74 65 51 66 40 67
REMARK SMILES IDX 41 68 45 69 42 70 44 71 43 72 62 73 63 74 67 75 64 76 66 77
REMARK SMILES IDX 65 78 52 79 53 80 57 81 54 82 56 83 55 84
REMARK H PARENT 23 6 10 12 28 33 72 52 50 63
REMARK Flexibility Score: inf
ROOT
ATOM      1  C   UNL A   1      31.555  28.262  26.219  1.00  0.00     0.023 C 
ENDROOT
BRANCH   1   2
ATOM      2  C   UNL A   1      32.361  26.973  26.410  1.00  0.00     0.116 C 
BRANCH   2   3
ATOM      3  N   UNL A   1      31.567  25.818  26.774  1.00  0.00    -0.356 N 
ATOM      4  C   UNL A   1      31.830  24.486  26.660  1.00  0.00     0.224 C 
ATOM      5  O   UNL A   1      31.060  23.720  27.250  1.00  0.00    -0.275 OA
ATOM      6  H   UNL A   1      30.692  26.031  27.170  1.00  0.00     0.163 HD
BRANCH   4   7
ATOM      7  C   UNL A   1      33.032  23.940  25.915  1.00  0.00     0.138 C 
BRANCH   7   8
ATOM      8  C   UNL A   1      32.779  23.356  24.552  1.00  0.00    -0.002 A 
ATOM      9  C   UNL A   1      32.560  24.006  23.332  1.00  0.00     0.093 A 
ATOM     10  N   UNL A   1      32.245  23.026  22.412  1.00  0.00    -0.351 N 
ATOM     11  C   UNL A   1      32.326  21.773  22.954  1.00  0.00     0.048 A 
ATOM     12  H   UNL A   1      31.994  23.207  21.478  1.00  0.00     0.167 HD
ATOM     13  C   UNL A   1      32.582  21.943  24.311  1.00  0.00     0.007 A 
ATOM     14  C   UNL A   1      32.163  20.516  22.354  1.00  0.00     0.050 A 
ATOM     15  C   UNL A   1      32.611  20.790  25.127  1.00  0.00     0.051 A 
ATOM     16  C   UNL A   1      32.263  19.391  23.176  1.00  0.00     0.078 A 
ATOM     17  C   UNL A   1      32.472  19.530  24.543  1.00  0.00     0.142 A 
ATOM     18  Cl  UNL A   1      32.123  17.825  22.471  1.00  0.00    -0.081 Cl
ATOM     19  F   UNL A   1      32.563  18.451  25.335  1.00  0.00    -0.205 F 
BRANCH   9  20
ATOM     20  C   UNL A   1      32.490  25.399  22.901  1.00  0.00     0.227 C 
ATOM     21  O   UNL A   1      33.514  25.946  22.476  1.00  0.00    -0.285 OA
BRANCH  20  22
ATOM     22  C   UNL A   1      31.266  26.242  23.087  1.00  0.00     0.113 A 
ATOM     23  C   UNL A   1      29.865  29.677  22.285  1.00  0.00     0.044 C 
ATOM     24  C   UNL A   1      29.996  28.258  22.748  1.00  0.00    -0.047 A 
ATOM     25  C   UNL A   1      28.919  27.634  23.374  1.00  0.00     0.023 A 
ATOM     26  C   UNL A   1      31.173  27.524  22.555  1.00  0.00     0.036 A 
ATOM     27  C   UNL A   1      29.075  26.333  23.823  1.00  0.00     0.112 A 
ATOM     28  N   UNL A   1      30.220  25.630  23.703  1.00  0.00    -0.253 NA
ENDBRANCH  20  22
ENDBRANCH   9  20
ENDBRANCH   7   8
ENDBRANCH   4   7
ENDBRANCH   2   3
ENDBRANCH   1   2
BRANCH   1  29
ATOM     29  C   UNL A   1      32.138  29.548  26.822  1.00  0.00     0.023 C 
BRANCH  29  30
ATOM     30  C   UNL A   1      33.630  29.766  26.598  1.00  0.00     0.116 C 
BRANCH  30  31
ATOM     31  N   UNL A   1      34.106  31.020  27.138  1.00  0.00    -0.352 N 
ATOM     32  C   UNL A   1      35.205  31.406  27.850  1.00  0.00     0.251 C 
ATOM     33  H   UNL A   1      33.496  31.770  26.947  1.00  0.00     0.163 HD
ATOM     34  O   UNL A   1      35.258  32.604  28.148  1.00  0.00    -0.269 OA
BRANCH  32  35
ATOM     35  C   UNL A   1      36.311  30.511  28.299  1.00  0.00     0.039 A 
ATOM     36  C   UNL A   1      36.337  29.769  29.481  1.00  0.00     0.014 A 
ATOM     37  C   UNL A   1      37.410  30.398  27.427  1.00  0.00     0.014 A 
ATOM     38  C   UNL A   1      37.434  28.969  29.797  1.00  0.00     0.010 A 
ATOM     39  C   UNL A   1      38.503  29.585  27.729  1.00  0.00     0.010 A 
ATOM     40  C   UNL A   1      38.528  28.881  28.930  1.00  0.00    -0.014 A 
BRANCH  40  41
ATOM     41  C   UNL A   1      39.629  27.996  29.318  1.00  0.00     0.031 A 
ATOM     42  C   UNL A   1      40.048  28.011  30.751  1.00  0.00     0.074 A 
ATOM     43  C   UNL A   1      40.209  27.095  28.500  1.00  0.00     0.049 A 
ATOM     44  N   UNL A   1      41.226  28.239  31.239  1.00  0.00    -0.248 NA
ATOM     45  C   UNL A   1      39.019  27.737  31.764  1.00  0.00     0.031 C 
ATOM     46  C   UNL A   1      39.746  26.661  27.182  1.00  0.00     0.029 A 
ATOM     47  N   UNL A   1      41.297  26.296  28.738  1.00  0.00    -0.354 N 
ATOM     48  C   UNL A   1      41.128  28.012  32.612  1.00  0.00     0.074 A 
ATOM     49  C   UNL A   1      39.734  27.772  32.890  1.00  0.00     0.031 C 
ATOM     50  C   UNL A   1      40.406  25.535  26.834  1.00  0.00     0.029 A 
ATOM     51  C   UNL A   1      41.434  25.265  27.828  1.00  0.00     0.049 A 
ATOM     52  H   UNL A   1      41.920  26.443  29.486  1.00  0.00     0.167 HD
ATOM     53  C   UNL A   1      42.218  27.884  33.416  1.00  0.00     0.031 A 
ATOM     54  C   UNL A   1      42.299  24.229  27.884  1.00  0.00     0.031 A 
ATOM     55  C   UNL A   1      43.430  28.331  32.792  1.00  0.00     0.049 A 
ATOM     56  C   UNL A   1      43.443  24.576  28.751  1.00  0.00     0.074 A 
ATOM     57  C   UNL A   1      44.021  29.541  32.508  1.00  0.00     0.029 A 
ATOM     58  N   UNL A   1      44.143  27.365  32.135  1.00  0.00    -0.354 N 
ATOM     59  N   UNL A   1      44.324  25.488  28.459  1.00  0.00    -0.248 NA
ATOM     60  C   UNL A   1      43.532  24.038  30.104  1.00  0.00     0.031 C 
ATOM     61  C   UNL A   1      44.943  29.288  31.450  1.00  0.00     0.029 A 
ATOM     62  C   UNL A   1      44.862  27.937  31.116  1.00  0.00     0.049 A 
ATOM     63  H   UNL A   1      44.141  26.406  32.360  1.00  0.00     0.167 HD
ATOM     64  C   UNL A   1      44.792  25.923  29.682  1.00  0.00     0.074 A 
ATOM     65  C   UNL A   1      44.431  24.877  30.625  1.00  0.00     0.031 C 
ATOM     66  C   UNL A   1      45.127  27.230  29.879  1.00  0.00     0.031 A 
BRANCH  53  67
ATOM     67  C   UNL A   1      42.271  27.052  34.673  1.00  0.00    -0.014 A 
ATOM     68  C   UNL A   1      41.791  27.505  35.915  1.00  0.00     0.009 A 
ATOM     69  C   UNL A   1      42.552  25.675  34.570  1.00  0.00     0.009 A 
ATOM     70  C   UNL A   1      41.608  26.637  36.998  1.00  0.00     0.001 A 
ATOM     71  C   UNL A   1      42.333  24.797  35.640  1.00  0.00     0.001 A 
ATOM     72  C   UNL A   1      41.861  25.279  36.855  1.00  0.00     0.000 A 
ENDBRANCH  53  67
BRANCH  54  73
ATOM     73  C   UNL A   1      42.119  22.871  27.339  1.00  0.00    -0.014 A 
ATOM     74  C   UNL A   1      41.258  21.964  27.984  1.00  0.00     0.009 A 
ATOM     75  C   UNL A   1      42.966  22.378  26.336  1.00  0.00     0.009 A 
ATOM     76  C   UNL A   1      41.261  20.607  27.657  1.00  0.00     0.001 A 
ATOM     77  C   UNL A   1      42.975  21.017  26.014  1.00  0.00     0.001 A 
ATOM     78  C   UNL A   1      42.131  20.131  26.683  1.00  0.00     0.000 A 
ENDBRANCH  54  73
BRANCH  66  79
ATOM     79  C   UNL A   1      45.480  28.054  28.670  1.00  0.00    -0.014 A 
ATOM     80  C   UNL A   1      44.469  28.803  28.048  1.00  0.00     0.009 A 
ATOM     81  C   UNL A   1      46.754  28.033  28.081  1.00  0.00     0.009 A 
ATOM     82  C   UNL A   1      44.727  29.517  26.876  1.00  0.00     0.001 A 
ATOM     83  C   UNL A   1      47.020  28.770  26.924  1.00  0.00     0.001 A 
ATOM     84  C   UNL A   1      46.004  29.507  26.319  1.00  0.00     0.000 A 
ENDBRANCH  66  79
ENDBRANCH  40  41
ENDBRANCH  32  35
ENDBRANCH  30  31
ENDBRANCH  29  30
ENDBRANCH   1  29
TORSDOF 14
ENDMDL
MODEL 2
REMARK VINA RESULT:     -12.9      2.084      2.367
REMARK SMILES Cc1ccnc(C(=O)c2[nH]c3cc(Cl)c(F)cc3c2CC(=O)NCCCCNC(=O)c2ccc(-c3c4nc(c(-c5ccccc5)c5ccc([nH]5)c(-c5ccccc5)c5nc(c(-c6ccccc6)c6ccc3[nH]6)C=C5)C=C4)cc2)c1
REMARK SMILES IDX 25 1 24 2 23 3 21 4 22 5 20 7 19 8 9 9 10 10 11 11 18 13
REMARK SMILES IDX 12 14 17 15 13 16 15 17 14 18 16 19 7 20 8 21 6 22 1 23 2 24
REMARK SMILES IDX 3 25 79 26 4 27 5 28 26 29 27 30 28 31 29 32 30 34 31 35
REMARK SMILES IDX 32 36 78 37 33 38 77 39 34 40 35 41 36 42 71 43 37 44 76 45
REMARK SMILES IDX 70 46 72 47 38 48 75 49 69 50 68 51 39 53 61 54 46 55 60 56
REMARK SMILES IDX 47 57 50 58 59 59 73 60 48 61 49 62 58 64 74 65 51 66 40 67
REMARK SMILES IDX 41 68 45 69 42 70 44 71 43 72 62 73 63 74 67 75 64 76 66 77
REMARK SMILES IDX 65 78 52 79 53 80 57 81 54 82 56 83 55 84
REMARK H PARENT 23 6 10 12 28 33 72 52 50 63
REMARK Flexibility Score: inf
ROOT
ATOM      1  C   UNL A   1      31.975  30.692  26.441  1.00  0.00     0.023 C 
ENDROOT
BRANCH   1   2
ATOM      2  C   UNL A   1      31.809  29.629  25.351  1.00  0.00     0.116 C 
BRANCH   2   3
ATOM      3  N   UNL A   1      32.946  29.497  24.464  1.00  0.00    -0.356 N 
ATOM      4  C   UNL A   1      33.721  28.417  24.165  1.00  0.00     0.224 C 
ATOM      5  O   UNL A   1      34.493  28.541  23.208  1.00  0.00    -0.275 OA
ATOM      6  H   UNL A   1      33.202  30.325  23.999  1.00  0.00     0.163 HD
BRANCH   4   7
ATOM      7  C   UNL A   1      33.619  27.095  24.901  1.00  0.00     0.138 C 
BRANCH   7   8
ATOM      8  C   UNL A   1      33.871  25.849  24.097  1.00  0.00    -0.002 A 
ATOM      9  C   UNL A   1      33.223  25.386  22.947  1.00  0.00     0.093 A 
ATOM     10  N   UNL A   1      33.738  24.133  22.679  1.00  0.00    -0.351 N 
ATOM     11  C   UNL A   1      34.738  23.797  23.549  1.00  0.00     0.048 A 
ATOM     12  H   UNL A   1      33.424  23.552  21.949  1.00  0.00     0.167 HD
ATOM     13  C   UNL A   1      34.797  24.812  24.498  1.00  0.00     0.007 A 
ATOM     14  C   UNL A   1      35.565  22.665  23.582  1.00  0.00     0.050 A 
ATOM     15  C   UNL A   1      35.692  24.654  25.580  1.00  0.00     0.051 A 
ATOM     16  C   UNL A   1      36.486  22.568  24.628  1.00  0.00     0.078 A 
ATOM     17  C   UNL A   1      36.538  23.543  25.617  1.00  0.00     0.142 A 
ATOM     18  Cl  UNL A   1      37.558  21.221  24.677  1.00  0.00    -0.081 Cl
ATOM     19  F   UNL A   1      37.417  23.450  26.625  1.00  0.00    -0.205 F 
BRANCH   9  20
ATOM     20  C   UNL A   1      32.126  25.868  22.113  1.00  0.00     0.227 C 
ATOM     21  O   UNL A   1      32.250  25.833  20.883  1.00  0.00    -0.285 OA
BRANCH  20  22
ATOM     22  C   UNL A   1      30.914  26.541  22.681  1.00  0.00     0.113 A 
ATOM     23  C   UNL A   1      28.971  29.797  22.532  1.00  0.00     0.044 C 
ATOM     24  C   UNL A   1      29.382  28.390  22.840  1.00  0.00    -0.047 A 
ATOM     25  C   UNL A   1      28.597  27.610  23.687  1.00  0.00     0.023 A 
ATOM     26  C   UNL A   1      30.535  27.820  22.286  1.00  0.00     0.036 A 
ATOM     27  C   UNL A   1      29.016  26.324  23.983  1.00  0.00     0.112 A 
ATOM     28  N   UNL A   1      30.154  25.778  23.510  1.00  0.00    -0.253 NA
ENDBRANCH  20  22
ENDBRANCH   9  20
ENDBRANCH   7   8
ENDBRANCH   4   7
ENDBRANCH   2   3
ENDBRANCH   1   2
BRANCH   1  29
ATOM     29  C   UNL A   1      33.054  30.443  27.505  1.00  0.00     0.023 C 
BRANCH  29  30
ATOM     30  C   UNL A   1      34.318  31.285  27.374  1.00  0.00     0.116 C 
BRANCH  30  31
ATOM     31  N   UNL A   1      34.556  32.131  28.522  1.00  0.00    -0.352 N 
ATOM     32  C   UNL A   1      35.518  32.191  29.490  1.00  0.00     0.251 C 
ATOM     33  H   UNL A   1      33.866  32.825  28.631  1.00  0.00     0.163 HD
ATOM     34  O   UNL A   1      35.370  33.077  30.337  1.00  0.00    -0.269 OA
BRANCH  32  35
ATOM     35  C   UNL A   1      36.694  31.282  29.608  1.00  0.00     0.039 A 
ATOM     36  C   UNL A   1      38.035  31.662  29.525  1.00  0.00     0.014 A 
ATOM     37  C   UNL A   1      36.408  29.925  29.849  1.00  0.00     0.014 A 
ATOM     38  C   UNL A   1      39.053  30.716  29.645  1.00  0.00     0.010 A 
ATOM     39  C   UNL A   1      37.423  28.977  29.989  1.00  0.00     0.010 A 
ATOM     40  C   UNL A   1      38.753  29.368  29.865  1.00  0.00    -0.014 A 
BRANCH  40  41
ATOM     41  C   UNL A   1      39.878  28.440  30.011  1.00  0.00     0.031 A 
ATOM     42  C   UNL A   1      40.500  28.324  31.363  1.00  0.00     0.074 A 
ATOM     43  C   UNL A   1      40.314  27.610  29.042  1.00  0.00     0.049 A 
ATOM     44  N   UNL A   1      41.741  28.496  31.692  1.00  0.00    -0.248 NA
ATOM     45  C   UNL A   1      39.622  27.972  32.488  1.00  0.00     0.031 C 
ATOM     46  C   UNL A   1      39.656  27.300  27.773  1.00  0.00     0.029 A 
ATOM     47  N   UNL A   1      41.406  26.783  29.049  1.00  0.00    -0.354 N 
ATOM     48  C   UNL A   1      41.837  28.149  33.040  1.00  0.00     0.074 A 
ATOM     49  C   UNL A   1      40.492  27.899  33.496  1.00  0.00     0.031 C 
ATOM     50  C   UNL A   1      40.232  26.203  27.237  1.00  0.00     0.029 A 
ATOM     51  C   UNL A   1      41.386  25.835  28.043  1.00  0.00     0.049 A 
ATOM     52  H   UNL A   1      42.133  26.856  29.708  1.00  0.00     0.167 HD
ATOM     53  C   UNL A   1      43.028  27.939  33.662  1.00  0.00     0.031 A 
ATOM     54  C   UNL A   1      42.227  24.789  27.883  1.00  0.00     0.031 A 
ATOM     55  C   UNL A   1      44.147  28.428  32.909  1.00  0.00     0.049 A 
ATOM     56  C   UNL A   1      43.491  25.046  28.601  1.00  0.00     0.074 A 
ATOM     57  C   UNL A   1      44.719  29.651  32.648  1.00  0.00     0.029 A 
ATOM     58  N   UNL A   1      44.736  27.516  32.075  1.00  0.00    -0.354 N 
ATOM     59  N   UNL A   1      44.342  25.971  28.263  1.00  0.00    -0.248 NA
ATOM     60  C   UNL A   1      43.762  24.389  29.874  1.00  0.00     0.031 C 
ATOM     61  C   UNL A   1      45.473  29.484  31.449  1.00  0.00     0.029 A 
ATOM     62  C   UNL A   1      45.313  28.169  31.015  1.00  0.00     0.049 A 
ATOM     63  H   UNL A   1      44.744  26.541  32.214  1.00  0.00     0.167 HD
ATOM     64  C   UNL A   1      44.991  26.292  29.438  1.00  0.00     0.074 A 
ATOM     65  C   UNL A   1      44.746  25.170  30.329  1.00  0.00     0.031 C 
ATOM     66  C   UNL A   1      45.381  27.572  29.696  1.00  0.00     0.031 A 
BRANCH  53  67
ATOM     67  C   UNL A   1      43.243  26.998  34.822  1.00  0.00    -0.014 A 
ATOM     68  C   UNL A   1      43.186  27.409  36.166  1.00  0.00     0.009 A 
ATOM     69  C   UNL A   1      43.228  25.608  34.587  1.00  0.00     0.009 A 
ATOM     70  C   UNL A   1      43.126  26.488  37.219  1.00  0.00     0.001 A 
ATOM     71  C   UNL A   1      43.129  24.685  35.635  1.00  0.00     0.001 A 
ATOM     72  C   UNL A   1      43.078  25.126  36.953  1.00  0.00     0.000 A 
ENDBRANCH  53  67
BRANCH  54  73
ATOM     73  C   UNL A   1      41.939  23.487  27.254  1.00  0.00    -0.014 A 
ATOM     74  C   UNL A   1      40.813  22.746  27.659  1.00  0.00     0.009 A 
ATOM     75  C   UNL A   1      42.887  22.855  26.438  1.00  0.00     0.009 A 
ATOM     76  C   UNL A   1      40.653  21.411  27.283  1.00  0.00     0.001 A 
ATOM     77  C   UNL A   1      42.731  21.514  26.068  1.00  0.00     0.001 A 
ATOM     78  C   UNL A   1      41.620  20.791  26.500  1.00  0.00     0.000 A 
ENDBRANCH  54  73
BRANCH  66  79
ATOM     79  C   UNL A   1      45.574  28.496  28.524  1.00  0.00    -0.014 A 
ATOM     80  C   UNL A   1      44.476  29.241  28.066  1.00  0.00     0.009 A 
ATOM     81  C   UNL A   1      46.780  28.578  27.811  1.00  0.00     0.009 A 
ATOM     82  C   UNL A   1      44.584  30.048  26.932  1.00  0.00     0.001 A 
ATOM     83  C   UNL A   1      46.897  29.408  26.693  1.00  0.00     0.001 A 
ATOM     84  C   UNL A   1      45.796  30.139  26.251  1.00  0.00     0.000 A 
ENDBRANCH  66  79
ENDBRANCH  40  41
ENDBRANCH  32  35
ENDBRANCH  30  31
ENDBRANCH  29  30
ENDBRANCH   1  29
TORSDOF 14
ENDMDL
MODEL 3
REMARK VINA RESULT:     -12.9      2.381      4.084
REMARK SMILES Cc1ccnc(C(=O)c2[nH]c3cc(Cl)c(F)cc3c2CC(=O)NCCCCNC(=O)c2ccc(-c3c4nc(c(-c5ccccc5)c5ccc([nH]5)c(-c5ccccc5)c5nc(c(-c6ccccc6)c6ccc3[nH]6)C=C5)C=C4)cc2)c1
REMARK SMILES IDX 25 1 24 2 23 3 21 4 22 5 20 7 19 8 9 9 10 10 11 11 18 13
REMARK SMILES IDX 12 14 17 15 13 16 15 17 14 18 16 19 7 20 8 21 6 22 1 23 2 24
REMARK SMILES IDX 3 25 79 26 4 27 5 28 26 29 27 30 28 31 29 32 30 34 31 35
REMARK SMILES IDX 32 36 78 37 33 38 77 39 34 40 35 41 36 42 71 43 37 44 76 45
REMARK SMILES IDX 70 46 72 47 38 48 75 49 69 50 68 51 39 53 61 54 46 55 60 56
REMARK SMILES IDX 47 57 50 58 59 59 73 60 48 61 49 62 58 64 74 65 51 66 40 67
REMARK SMILES IDX 41 68 45 69 42 70 44 71 43 72 62 73 63 74 67 75 64 76 66 77
REMARK SMILES IDX 65 78 52 79 53 80 57 81 54 82 56 83 55 84
REMARK H PARENT 23 6 10 12 28 33 72 52 50 63
REMARK Flexibility Score: inf
ROOT
ATOM      1  C   UNL A   1      32.300  29.371  24.208  1.00  0.00     0.023 C 
ENDROOT
BRANCH   1   2
ATOM      2  C   UNL A   1      31.574  28.170  23.593  1.00  0.00     0.116 C 
BRANCH   2   3
ATOM      3  N   UNL A   1      32.326  27.476  22.569  1.00  0.00    -0.356 N 
ATOM      4  C   UNL A   1      33.343  26.574  22.668  1.00  0.00     0.224 C 
ATOM      5  O   UNL A   1      33.655  25.979  21.631  1.00  0.00    -0.275 OA
ATOM      6  H   UNL A   1      32.058  27.690  21.647  1.00  0.00     0.163 HD
BRANCH   4   7
ATOM      7  C   UNL A   1      34.031  26.243  23.979  1.00  0.00     0.138 C 
BRANCH   7   8
ATOM      8  C   UNL A   1      33.741  24.892  24.575  1.00  0.00    -0.002 A 
ATOM      9  C   UNL A   1      34.507  23.723  24.544  1.00  0.00     0.093 A 
ATOM     10  N   UNL A   1      33.739  22.730  25.119  1.00  0.00    -0.351 N 
ATOM     11  C   UNL A   1      32.550  23.215  25.590  1.00  0.00     0.048 A 
ATOM     12  H   UNL A   1      34.014  21.787  25.183  1.00  0.00     0.167 HD
ATOM     13  C   UNL A   1      32.482  24.548  25.199  1.00  0.00     0.007 A 
ATOM     14  C   UNL A   1      31.528  22.568  26.299  1.00  0.00     0.050 A 
ATOM     15  C   UNL A   1      31.292  25.258  25.478  1.00  0.00     0.051 A 
ATOM     16  C   UNL A   1      30.391  23.315  26.618  1.00  0.00     0.078 A 
ATOM     17  C   UNL A   1      30.273  24.635  26.202  1.00  0.00     0.142 A 
ATOM     18  Cl  UNL A   1      29.135  22.575  27.536  1.00  0.00    -0.081 Cl
ATOM     19  F   UNL A   1      29.181  25.353  26.503  1.00  0.00    -0.205 F 
BRANCH   9  20
ATOM     20  C   UNL A   1      35.796  23.347  23.971  1.00  0.00     0.227 C 
ATOM     21  O   UNL A   1      35.875  23.152  22.752  1.00  0.00    -0.285 OA
BRANCH  20  22
ATOM     22  C   UNL A   1      36.997  23.042  24.812  1.00  0.00     0.113 A 
ATOM     23  C   UNL A   1      39.234  24.566  27.472  1.00  0.00     0.044 C 
ATOM     24  C   UNL A   1      38.601  23.601  26.517  1.00  0.00    -0.047 A 
ATOM     25  C   UNL A   1      39.118  22.313  26.392  1.00  0.00     0.023 A 
ATOM     26  C   UNL A   1      37.484  23.950  25.748  1.00  0.00     0.036 A 
ATOM     27  C   UNL A   1      38.537  21.450  25.478  1.00  0.00     0.112 A 
ATOM     28  N   UNL A   1      37.500  21.786  24.684  1.00  0.00    -0.253 NA
ENDBRANCH  20  22
ENDBRANCH   9  20
ENDBRANCH   7   8
ENDBRANCH   4   7
ENDBRANCH   2   3
ENDBRANCH   1   2
BRANCH   1  29
ATOM     29  C   UNL A   1      32.116  29.605  25.714  1.00  0.00     0.023 C 
BRANCH  29  30
ATOM     30  C   UNL A   1      33.401  29.717  26.528  1.00  0.00     0.116 C 
BRANCH  30  31
ATOM     31  N   UNL A   1      33.522  30.978  27.224  1.00  0.00    -0.352 N 
ATOM     32  C   UNL A   1      34.495  31.574  27.974  1.00  0.00     0.251 C 
ATOM     33  H   UNL A   1      32.716  31.537  27.138  1.00  0.00     0.163 HD
ATOM     34  O   UNL A   1      34.216  32.689  28.426  1.00  0.00    -0.269 OA
BRANCH  32  35
ATOM     35  C   UNL A   1      35.830  30.989  28.295  1.00  0.00     0.039 A 
ATOM     36  C   UNL A   1      36.934  31.687  28.786  1.00  0.00     0.014 A 
ATOM     37  C   UNL A   1      35.961  29.601  28.101  1.00  0.00     0.014 A 
ATOM     38  C   UNL A   1      38.137  31.030  29.043  1.00  0.00     0.010 A 
ATOM     39  C   UNL A   1      37.157  28.935  28.374  1.00  0.00     0.010 A 
ATOM     40  C   UNL A   1      38.259  29.654  28.828  1.00  0.00    -0.014 A 
BRANCH  40  41
ATOM     41  C   UNL A   1      39.545  29.031  29.151  1.00  0.00     0.031 A 
ATOM     42  C   UNL A   1      39.876  28.850  30.595  1.00  0.00     0.074 A 
ATOM     43  C   UNL A   1      40.393  28.514  28.239  1.00  0.00     0.049 A 
ATOM     44  N   UNL A   1      40.919  29.273  31.238  1.00  0.00    -0.248 NA
ATOM     45  C   UNL A   1      38.920  28.103  31.424  1.00  0.00     0.031 C 
ATOM     46  C   UNL A   1      40.133  28.265  26.821  1.00  0.00     0.029 A 
ATOM     47  N   UNL A   1      41.649  28.001  28.431  1.00  0.00    -0.354 N 
ATOM     48  C   UNL A   1      40.824  28.741  32.523  1.00  0.00     0.074 A 
ATOM     49  C   UNL A   1      39.542  28.085  32.604  1.00  0.00     0.031 C 
ATOM     50  C   UNL A   1      41.099  27.455  26.334  1.00  0.00     0.029 A 
ATOM     51  C   UNL A   1      42.114  27.262  27.358  1.00  0.00     0.049 A 
ATOM     52  H   UNL A   1      42.170  28.144  29.254  1.00  0.00     0.167 HD
ATOM     53  C   UNL A   1      41.868  28.738  33.397  1.00  0.00     0.031 A 
ATOM     54  C   UNL A   1      43.232  26.506  27.304  1.00  0.00     0.031 A 
ATOM     55  C   UNL A   1      42.932  29.613  33.000  1.00  0.00     0.049 A 
ATOM     56  C   UNL A   1      44.190  26.950  28.336  1.00  0.00     0.074 A 
ATOM     57  C   UNL A   1      43.172  30.968  33.017  1.00  0.00     0.029 A 
ATOM     58  N   UNL A   1      43.918  29.034  32.248  1.00  0.00    -0.354 N 
ATOM     59  N   UNL A   1      44.792  28.104  28.317  1.00  0.00    -0.248 NA
ATOM     60  C   UNL A   1      44.364  26.179  29.561  1.00  0.00     0.031 C 
ATOM     61  C   UNL A   1      44.176  31.201  32.033  1.00  0.00     0.029 A 
ATOM     62  C   UNL A   1      44.494  29.981  31.438  1.00  0.00     0.049 A 
ATOM     63  H   UNL A   1      44.175  28.085  32.283  1.00  0.00     0.167 HD
ATOM     64  C   UNL A   1      45.060  28.376  29.644  1.00  0.00     0.074 A 
ATOM     65  C   UNL A   1      44.964  27.096  30.324  1.00  0.00     0.031 C 
ATOM     66  C   UNL A   1      45.004  29.652  30.122  1.00  0.00     0.031 A 
BRANCH  53  67
ATOM     67  C   UNL A   1      42.093  27.700  34.469  1.00  0.00    -0.014 A 
ATOM     68  C   UNL A   1      41.534  27.792  35.757  1.00  0.00     0.009 A 
ATOM     69  C   UNL A   1      42.650  26.456  34.110  1.00  0.00     0.009 A 
ATOM     70  C   UNL A   1      41.537  26.708  36.642  1.00  0.00     0.001 A 
ATOM     71  C   UNL A   1      42.619  25.358  34.979  1.00  0.00     0.001 A 
ATOM     72  C   UNL A   1      42.062  25.484  36.247  1.00  0.00     0.000 A 
ENDBRANCH  53  67
BRANCH  54  73
ATOM     73  C   UNL A   1      43.467  25.298  26.491  1.00  0.00    -0.014 A 
ATOM     74  C   UNL A   1      42.805  24.098  26.811  1.00  0.00     0.009 A 
ATOM     75  C   UNL A   1      44.513  25.248  25.560  1.00  0.00     0.009 A 
ATOM     76  C   UNL A   1      43.193  22.884  26.239  1.00  0.00     0.001 A 
ATOM     77  C   UNL A   1      44.907  24.031  24.993  1.00  0.00     0.001 A 
ATOM     78  C   UNL A   1      44.254  22.849  25.342  1.00  0.00     0.000 A 
ENDBRANCH  54  73
BRANCH  66  79
ATOM     79  C   UNL A   1      45.167  30.778  29.138  1.00  0.00    -0.014 A 
ATOM     80  C   UNL A   1      44.017  31.343  28.565  1.00  0.00     0.009 A 
ATOM     81  C   UNL A   1      46.422  31.227  28.696  1.00  0.00     0.009 A 
ATOM     82  C   UNL A   1      44.119  32.333  27.586  1.00  0.00     0.001 A 
ATOM     83  C   UNL A   1      46.524  32.237  27.737  1.00  0.00     0.001 A 
ATOM     84  C   UNL A   1      45.371  32.786  27.179  1.00  0.00     0.000 A 
ENDBRANCH  66  79
ENDBRANCH  40  41
ENDBRANCH  32  35
ENDBRANCH  30  31
ENDBRANCH  29  30
ENDBRANCH   1  29
TORSDOF 14
ENDMDL
