MODEL 1
REMARK VINA RESULT:     -10.4      0.000      0.000
REMARK SMILES [NH3+][C@@]1(C(=O)NCCCCNC(=O)c2ccc(-c3c4nc(c(-c5ccccc5)c5ccc([nH]5)c(-c5ccccc5)c5nc(c(-c6ccccc6)c6ccc3[nH]6)C=C5)C=C4)cc2)CCC[C@H]1CCOc1ccccc1
REMARK SMILES IDX 6 1 5 2 3 3 4 4 2 6 61 7 64 8 62 9 63 10 1 11 65 15 66 16
REMARK SMILES IDX 67 17 68 18 69 19 73 20 70 21 72 22 71 23 7 24 8 25 9 26
REMARK SMILES IDX 10 27 11 28 12 30 13 31 14 32 60 33 15 34 59 35 16 36 17 37
REMARK SMILES IDX 18 38 53 39 19 40 58 41 52 42 54 43 20 44 57 45 51 46 50 47
REMARK SMILES IDX 21 49 43 50 28 51 42 52 29 53 32 54 41 55 55 56 30 57 31 58
REMARK SMILES IDX 40 60 56 61 33 62 22 63 23 64 27 65 24 66 26 67 25 68 44 69
REMARK SMILES IDX 45 70 49 71 46 72 48 73 47 74 34 75 35 76 39 77 36 78 38 79
REMARK SMILES IDX 37 80
REMARK H PARENT 5 5 1 12 1 13 1 14 10 29 54 48 32 59
REMARK Flexibility Score: inf
ROOT
ATOM      1  C   UNL A   1      32.926  29.911  26.124  1.00  0.00     0.116 C 
ENDROOT
BRANCH   1   2
ATOM      2  N   UNL A   1      33.280  29.703  24.741  1.00  0.00    -0.351 N 
ATOM      3  C   UNL A   1      33.228  28.603  23.948  1.00  0.00     0.281 C 
ATOM      4  O   UNL A   1      33.485  28.800  22.750  1.00  0.00    -0.268 OA
ATOM      5  H   UNL A   1      33.622  30.508  24.290  1.00  0.00     0.163 HD
BRANCH   3   6
ATOM      6  C   UNL A   1      32.861  27.142  24.440  1.00  0.00     0.176 C 
ATOM      7  C   UNL A   1      33.274  26.050  23.437  1.00  0.00     0.079 C 
ATOM      8  C   UNL A   1      31.346  26.947  24.718  1.00  0.00     0.064 C 
ATOM      9  C   UNL A   1      32.017  25.500  22.792  1.00  0.00     0.008 C 
ATOM     10  C   UNL A   1      30.862  25.876  23.707  1.00  0.00     0.011 C 
BRANCH   6  11
ATOM     11  N   UNL A   1      33.706  26.911  25.649  1.00  0.00    -0.345 N 
ATOM     12  H   UNL A   1      33.145  27.057  26.488  1.00  0.00     0.345 HD
ATOM     13  H   UNL A   1      34.491  27.563  25.645  1.00  0.00     0.345 HD
ATOM     14  H   UNL A   1      34.058  25.954  25.639  1.00  0.00     0.345 HD
ENDBRANCH   6  11
BRANCH   8  15
ATOM     15  C   UNL A   1      30.896  26.500  26.135  1.00  0.00     0.052 C 
BRANCH  15  16
ATOM     16  C   UNL A   1      30.187  25.149  26.296  1.00  0.00     0.230 C 
BRANCH  16  17
ATOM     17  O   UNL A   1      30.997  24.215  27.018  1.00  0.00    -0.494 OA
BRANCH  17  18
ATOM     18  C   UNL A   1      31.855  23.510  26.227  1.00  0.00     0.119 A 
ATOM     19  C   UNL A   1      31.432  22.599  25.262  1.00  0.00     0.046 A 
ATOM     20  C   UNL A   1      33.212  23.677  26.485  1.00  0.00     0.046 A 
ATOM     21  C   UNL A   1      32.380  21.916  24.495  1.00  0.00     0.004 A 
ATOM     22  C   UNL A   1      34.156  22.996  25.721  1.00  0.00     0.004 A 
ATOM     23  C   UNL A   1      33.742  22.131  24.712  1.00  0.00     0.000 A 
ENDBRANCH  17  18
ENDBRANCH  16  17
ENDBRANCH  15  16
ENDBRANCH   8  15
ENDBRANCH   3   6
ENDBRANCH   1   2
BRANCH   1  24
ATOM     24  C   UNL A   1      31.508  30.425  26.332  1.00  0.00     0.023 C 
BRANCH  24  25
ATOM     25  C   UNL A   1      31.402  31.935  26.501  1.00  0.00     0.023 C 
BRANCH  25  26
ATOM     26  C   UNL A   1      32.563  32.564  27.254  1.00  0.00     0.116 C 
BRANCH  26  27
ATOM     27  N   UNL A   1      32.341  33.970  27.563  1.00  0.00    -0.352 N 
ATOM     28  C   UNL A   1      32.989  34.756  28.485  1.00  0.00     0.251 C 
ATOM     29  H   UNL A   1      31.633  34.416  27.043  1.00  0.00     0.163 HD
ATOM     30  O   UNL A   1      32.582  35.880  28.751  1.00  0.00    -0.269 OA
BRANCH  28  31
ATOM     31  C   UNL A   1      34.174  34.208  29.171  1.00  0.00     0.039 A 
ATOM     32  C   UNL A   1      34.003  33.405  30.299  1.00  0.00     0.014 A 
ATOM     33  C   UNL A   1      35.449  34.440  28.647  1.00  0.00     0.014 A 
ATOM     34  C   UNL A   1      35.112  32.776  30.865  1.00  0.00     0.010 A 
ATOM     35  C   UNL A   1      36.533  33.733  29.148  1.00  0.00     0.010 A 
ATOM     36  C   UNL A   1      36.377  32.904  30.269  1.00  0.00    -0.014 A 
BRANCH  36  37
ATOM     37  C   UNL A   1      37.569  32.209  30.813  1.00  0.00     0.031 A 
ATOM     38  C   UNL A   1      38.237  32.743  32.050  1.00  0.00     0.074 A 
ATOM     39  C   UNL A   1      38.091  31.155  30.157  1.00  0.00     0.049 A 
ATOM     40  N   UNL A   1      39.339  32.345  32.631  1.00  0.00    -0.248 NA
ATOM     41  C   UNL A   1      37.601  33.903  32.699  1.00  0.00     0.031 C 
ATOM     42  C   UNL A   1      37.558  30.569  28.925  1.00  0.00     0.029 A 
ATOM     43  N   UNL A   1      39.199  30.393  30.433  1.00  0.00    -0.354 N 
ATOM     44  C   UNL A   1      39.538  33.218  33.693  1.00  0.00     0.074 A 
ATOM     45  C   UNL A   1      38.481  34.202  33.641  1.00  0.00     0.031 C 
ATOM     46  C   UNL A   1      38.320  29.521  28.571  1.00  0.00     0.029 A 
ATOM     47  C   UNL A   1      39.420  29.391  29.520  1.00  0.00     0.049 A 
ATOM     48  H   UNL A   1      39.779  30.551  31.212  1.00  0.00     0.167 HD
ATOM     49  C   UNL A   1      40.501  33.189  34.644  1.00  0.00     0.031 A 
ATOM     50  C   UNL A   1      40.405  28.475  29.452  1.00  0.00     0.031 A 
ATOM     51  C   UNL A   1      41.539  32.197  34.703  1.00  0.00     0.049 A 
ATOM     52  C   UNL A   1      41.473  28.473  30.511  1.00  0.00     0.074 A 
ATOM     53  C   UNL A   1      42.528  32.040  35.658  1.00  0.00     0.029 A 
ATOM     54  N   UNL A   1      41.721  31.192  33.766  1.00  0.00    -0.354 N 
ATOM     55  N   UNL A   1      41.608  29.262  31.550  1.00  0.00    -0.248 NA
ATOM     56  C   UNL A   1      42.519  27.448  30.393  1.00  0.00     0.031 C 
ATOM     57  C   UNL A   1      43.342  30.973  35.268  1.00  0.00     0.029 A 
ATOM     58  C   UNL A   1      42.822  30.427  34.105  1.00  0.00     0.049 A 
ATOM     59  H   UNL A   1      41.151  31.045  32.976  1.00  0.00     0.167 HD
ATOM     60  C   UNL A   1      42.734  28.809  32.226  1.00  0.00     0.074 A 
ATOM     61  C   UNL A   1      43.236  27.670  31.486  1.00  0.00     0.031 C 
ATOM     62  C   UNL A   1      43.302  29.293  33.357  1.00  0.00     0.031 A 
BRANCH  49  63
ATOM     63  C   UNL A   1      40.473  34.267  35.691  1.00  0.00    -0.014 A 
ATOM     64  C   UNL A   1      41.187  35.466  35.522  1.00  0.00     0.009 A 
ATOM     65  C   UNL A   1      39.703  34.095  36.851  1.00  0.00     0.009 A 
ATOM     66  C   UNL A   1      41.161  36.451  36.513  1.00  0.00     0.001 A 
ATOM     67  C   UNL A   1      39.653  35.095  37.825  1.00  0.00     0.001 A 
ATOM     68  C   UNL A   1      40.390  36.266  37.660  1.00  0.00     0.000 A 
ENDBRANCH  49  63
BRANCH  50  69
ATOM     69  C   UNL A   1      40.422  27.475  28.352  1.00  0.00    -0.014 A 
ATOM     70  C   UNL A   1      39.737  26.257  28.484  1.00  0.00     0.009 A 
ATOM     71  C   UNL A   1      41.127  27.728  27.164  1.00  0.00     0.009 A 
ATOM     72  C   UNL A   1      39.782  25.303  27.464  1.00  0.00     0.001 A 
ATOM     73  C   UNL A   1      41.145  26.786  26.133  1.00  0.00     0.001 A 
ATOM     74  C   UNL A   1      40.481  25.570  26.289  1.00  0.00     0.000 A 
ENDBRANCH  50  69
BRANCH  62  75
ATOM     75  C   UNL A   1      44.503  28.568  33.892  1.00  0.00    -0.014 A 
ATOM     76  C   UNL A   1      44.369  27.473  34.761  1.00  0.00     0.009 A 
ATOM     77  C   UNL A   1      45.786  28.947  33.467  1.00  0.00     0.009 A 
ATOM     78  C   UNL A   1      45.501  26.793  35.215  1.00  0.00     0.001 A 
ATOM     79  C   UNL A   1      46.912  28.246  33.898  1.00  0.00     0.001 A 
ATOM     80  C   UNL A   1      46.769  27.174  34.777  1.00  0.00     0.000 A 
ENDBRANCH  62  75
ENDBRANCH  36  37
ENDBRANCH  28  31
ENDBRANCH  26  27
ENDBRANCH  25  26
ENDBRANCH  24  25
ENDBRANCH   1  24
TORSDOF 16
ENDMDL
MODEL 2
REMARK VINA RESULT:     -10.4      4.708      9.853
REMARK SMILES [NH3+][C@@]1(C(=O)NCCCCNC(=O)c2ccc(-c3c4nc(c(-c5ccccc5)c5ccc([nH]5)c(-c5ccccc5)c5nc(c(-c6ccccc6)c6ccc3[nH]6)C=C5)C=C4)cc2)CCC[C@H]1CCOc1ccccc1
REMARK SMILES IDX 6 1 5 2 3 3 4 4 2 6 61 7 64 8 62 9 63 10 1 11 65 15 66 16
REMARK SMILES IDX 67 17 68 18 69 19 73 20 70 21 72 22 71 23 7 24 8 25 9 26
REMARK SMILES IDX 10 27 11 28 12 30 13 31 14 32 60 33 15 34 59 35 16 36 17 37
REMARK SMILES IDX 18 38 53 39 19 40 58 41 52 42 54 43 20 44 57 45 51 46 50 47
REMARK SMILES IDX 21 49 43 50 28 51 42 52 29 53 32 54 41 55 55 56 30 57 31 58
REMARK SMILES IDX 40 60 56 61 33 62 22 63 23 64 27 65 24 66 26 67 25 68 44 69
REMARK SMILES IDX 45 70 49 71 46 72 48 73 47 74 34 75 35 76 39 77 36 78 38 79
REMARK SMILES IDX 37 80
REMARK H PARENT 5 5 1 12 1 13 1 14 10 29 54 48 32 59
REMARK Flexibility Score: inf
ROOT
ATOM      1  C   UNL A   1      36.940  22.042  25.513  1.00  0.00     0.116 C 
ENDROOT
BRANCH   1   2
ATOM      2  N   UNL A   1      35.924  21.918  26.529  1.00  0.00    -0.351 N 
ATOM      3  C   UNL A   1      34.653  22.389  26.601  1.00  0.00     0.281 C 
ATOM      4  O   UNL A   1      33.990  21.983  27.569  1.00  0.00    -0.268 OA
ATOM      5  H   UNL A   1      36.203  21.394  27.314  1.00  0.00     0.163 HD
BRANCH   3   6
ATOM      6  C   UNL A   1      33.987  23.378  25.557  1.00  0.00     0.176 C 
ATOM      7  C   UNL A   1      32.713  24.051  26.097  1.00  0.00     0.079 C 
ATOM      8  C   UNL A   1      33.601  22.694  24.218  1.00  0.00     0.064 C 
ATOM      9  C   UNL A   1      31.519  23.450  25.380  1.00  0.00     0.008 C 
ATOM     10  C   UNL A   1      32.058  22.804  24.113  1.00  0.00     0.011 C 
BRANCH   6  11
ATOM     11  N   UNL A   1      34.975  24.484  25.379  1.00  0.00    -0.345 N 
ATOM     12  H   UNL A   1      34.986  25.067  26.214  1.00  0.00     0.345 HD
ATOM     13  H   UNL A   1      34.709  25.049  24.572  1.00  0.00     0.345 HD
ATOM     14  H   UNL A   1      35.902  24.089  25.227  1.00  0.00     0.345 HD
ENDBRANCH   6  11
BRANCH   8  15
ATOM     15  C   UNL A   1      34.206  23.238  22.897  1.00  0.00     0.052 C 
BRANCH  15  16
ATOM     16  C   UNL A   1      33.281  23.929  21.885  1.00  0.00     0.230 C 
BRANCH  16  17
ATOM     17  O   UNL A   1      33.551  25.332  21.803  1.00  0.00    -0.494 OA
BRANCH  17  18
ATOM     18  C   UNL A   1      32.789  26.086  22.646  1.00  0.00     0.119 A 
ATOM     19  C   UNL A   1      33.325  26.890  23.649  1.00  0.00     0.046 A 
ATOM     20  C   UNL A   1      31.410  25.955  22.516  1.00  0.00     0.046 A 
ATOM     21  C   UNL A   1      32.471  27.630  24.471  1.00  0.00     0.004 A 
ATOM     22  C   UNL A   1      30.560  26.693  23.336  1.00  0.00     0.004 A 
ATOM     23  C   UNL A   1      31.089  27.546  24.301  1.00  0.00     0.000 A 
ENDBRANCH  17  18
ENDBRANCH  16  17
ENDBRANCH  15  16
ENDBRANCH   8  15
ENDBRANCH   3   6
ENDBRANCH   1   2
BRANCH   1  24
ATOM     24  C   UNL A   1      36.977  20.885  24.525  1.00  0.00     0.023 C 
BRANCH  24  25
ATOM     25  C   UNL A   1      37.897  19.739  24.928  1.00  0.00     0.023 C 
BRANCH  25  26
ATOM     26  C   UNL A   1      39.101  20.163  25.752  1.00  0.00     0.116 C 
BRANCH  26  27
ATOM     27  N   UNL A   1      40.094  19.106  25.887  1.00  0.00    -0.352 N 
ATOM     28  C   UNL A   1      41.444  19.225  26.110  1.00  0.00     0.251 C 
ATOM     29  H   UNL A   1      39.753  18.185  25.808  1.00  0.00     0.163 HD
ATOM     30  O   UNL A   1      42.183  18.250  26.035  1.00  0.00    -0.269 OA
BRANCH  28  31
ATOM     31  C   UNL A   1      41.996  20.558  26.416  1.00  0.00     0.039 A 
ATOM     32  C   UNL A   1      42.396  21.391  25.371  1.00  0.00     0.014 A 
ATOM     33  C   UNL A   1      42.046  21.002  27.741  1.00  0.00     0.014 A 
ATOM     34  C   UNL A   1      42.786  22.701  25.652  1.00  0.00     0.010 A 
ATOM     35  C   UNL A   1      42.336  22.332  28.006  1.00  0.00     0.010 A 
ATOM     36  C   UNL A   1      42.721  23.191  26.966  1.00  0.00    -0.014 A 
BRANCH  36  37
ATOM     37  C   UNL A   1      43.079  24.592  27.294  1.00  0.00     0.031 A 
ATOM     38  C   UNL A   1      44.524  25.010  27.276  1.00  0.00     0.074 A 
ATOM     39  C   UNL A   1      42.124  25.459  27.679  1.00  0.00     0.049 A 
ATOM     40  N   UNL A   1      45.058  26.153  27.622  1.00  0.00    -0.248 NA
ATOM     41  C   UNL A   1      45.503  23.995  26.848  1.00  0.00     0.031 C 
ATOM     42  C   UNL A   1      40.692  25.162  27.775  1.00  0.00     0.029 A 
ATOM     43  N   UNL A   1      42.216  26.770  28.073  1.00  0.00    -0.354 N 
ATOM     44  C   UNL A   1      46.429  25.985  27.476  1.00  0.00     0.074 A 
ATOM     45  C   UNL A   1      46.650  24.615  27.071  1.00  0.00     0.031 C 
ATOM     46  C   UNL A   1      40.039  26.267  28.169  1.00  0.00     0.029 A 
ATOM     47  C   UNL A   1      41.006  27.335  28.399  1.00  0.00     0.049 A 
ATOM     48  H   UNL A   1      43.069  27.260  28.117  1.00  0.00     0.167 HD
ATOM     49  C   UNL A   1      47.416  26.897  27.639  1.00  0.00     0.031 A 
ATOM     50  C   UNL A   1      40.713  28.571  28.843  1.00  0.00     0.031 A 
ATOM     51  C   UNL A   1      47.189  28.263  28.023  1.00  0.00     0.049 A 
ATOM     52  C   UNL A   1      41.828  29.562  29.033  1.00  0.00     0.074 A 
ATOM     53  C   UNL A   1      48.112  29.284  28.158  1.00  0.00     0.029 A 
ATOM     54  N   UNL A   1      45.948  28.797  28.334  1.00  0.00    -0.354 N 
ATOM     55  N   UNL A   1      43.114  29.409  28.823  1.00  0.00    -0.248 NA
ATOM     56  C   UNL A   1      41.452  30.899  29.512  1.00  0.00     0.031 C 
ATOM     57  C   UNL A   1      47.436  30.423  28.604  1.00  0.00     0.029 A 
ATOM     58  C   UNL A   1      46.084  30.128  28.686  1.00  0.00     0.049 A 
ATOM     59  H   UNL A   1      45.097  28.302  28.308  1.00  0.00     0.167 HD
ATOM     60  C   UNL A   1      43.694  30.637  29.113  1.00  0.00     0.074 A 
ATOM     61  C   UNL A   1      42.620  31.527  29.501  1.00  0.00     0.031 C 
ATOM     62  C   UNL A   1      45.000  30.997  29.063  1.00  0.00     0.031 A 
BRANCH  49  63
ATOM     63  C   UNL A   1      48.828  26.437  27.408  1.00  0.00    -0.014 A 
ATOM     64  C   UNL A   1      49.632  25.985  28.468  1.00  0.00     0.009 A 
ATOM     65  C   UNL A   1      49.356  26.430  26.107  1.00  0.00     0.009 A 
ATOM     66  C   UNL A   1      50.947  25.577  28.235  1.00  0.00     0.001 A 
ATOM     67  C   UNL A   1      50.661  25.990  25.873  1.00  0.00     0.001 A 
ATOM     68  C   UNL A   1      51.458  25.574  26.938  1.00  0.00     0.000 A 
ENDBRANCH  49  63
BRANCH  50  69
ATOM     69  C   UNL A   1      39.303  28.950  29.126  1.00  0.00    -0.014 A 
ATOM     70  C   UNL A   1      38.507  29.533  28.128  1.00  0.00     0.009 A 
ATOM     71  C   UNL A   1      38.744  28.736  30.396  1.00  0.00     0.009 A 
ATOM     72  C   UNL A   1      37.193  29.920  28.403  1.00  0.00     0.001 A 
ATOM     73  C   UNL A   1      37.420  29.096  30.660  1.00  0.00     0.001 A 
ATOM     74  C   UNL A   1      36.650  29.696  29.666  1.00  0.00     0.000 A 
ENDBRANCH  50  69
BRANCH  62  75
ATOM     75  C   UNL A   1      45.337  32.423  29.393  1.00  0.00    -0.014 A 
ATOM     76  C   UNL A   1      45.697  32.807  30.694  1.00  0.00     0.009 A 
ATOM     77  C   UNL A   1      45.357  33.383  28.369  1.00  0.00     0.009 A 
ATOM     78  C   UNL A   1      46.042  34.132  30.966  1.00  0.00     0.001 A 
ATOM     79  C   UNL A   1      45.733  34.699  28.638  1.00  0.00     0.001 A 
ATOM     80  C   UNL A   1      46.067  35.074  29.938  1.00  0.00     0.000 A 
ENDBRANCH  62  75
ENDBRANCH  36  37
ENDBRANCH  28  31
ENDBRANCH  26  27
ENDBRANCH  25  26
ENDBRANCH  24  25
ENDBRANCH   1  24
TORSDOF 16
ENDMDL
MODEL 3
REMARK VINA RESULT:     -10.4      4.059      9.241
REMARK SMILES [NH3+][C@@]1(C(=O)NCCCCNC(=O)c2ccc(-c3c4nc(c(-c5ccccc5)c5ccc([nH]5)c(-c5ccccc5)c5nc(c(-c6ccccc6)c6ccc3[nH]6)C=C5)C=C4)cc2)CCC[C@H]1CCOc1ccccc1
REMARK SMILES IDX 6 1 5 2 3 3 4 4 2 6 61 7 64 8 62 9 63 10 1 11 65 15 66 16
REMARK SMILES IDX 67 17 68 18 69 19 73 20 70 21 72 22 71 23 7 24 8 25 9 26
REMARK SMILES IDX 10 27 11 28 12 30 13 31 14 32 60 33 15 34 59 35 16 36 17 37
REMARK SMILES IDX 18 38 53 39 19 40 58 41 52 42 54 43 20 44 57 45 51 46 50 47
REMARK SMILES IDX 21 49 43 50 28 51 42 52 29 53 32 54 41 55 55 56 30 57 31 58
REMARK SMILES IDX 40 60 56 61 33 62 22 63 23 64 27 65 24 66 26 67 25 68 44 69
REMARK SMILES IDX 45 70 49 71 46 72 48 73 47 74 34 75 35 76 39 77 36 78 38 79
REMARK SMILES IDX 37 80
REMARK H PARENT 5 5 1 12 1 13 1 14 10 29 54 48 32 59
REMARK Flexibility Score: inf
ROOT
ATOM      1  C   UNL A   1      35.338  20.745  25.154  1.00  0.00     0.116 C 
ENDROOT
BRANCH   1   2
ATOM      2  N   UNL A   1      34.810  21.578  26.207  1.00  0.00    -0.351 N 
ATOM      3  C   UNL A   1      33.554  22.023  26.466  1.00  0.00     0.281 C 
ATOM      4  O   UNL A   1      33.415  22.621  27.545  1.00  0.00    -0.268 OA
ATOM      5  H   UNL A   1      35.485  21.879  26.857  1.00  0.00     0.163 HD
BRANCH   3   6
ATOM      6  C   UNL A   1      32.302  21.820  25.516  1.00  0.00     0.176 C 
ATOM      7  C   UNL A   1      32.153  20.370  25.022  1.00  0.00     0.079 C 
ATOM      8  C   UNL A   1      32.332  22.724  24.254  1.00  0.00     0.064 C 
ATOM      9  C   UNL A   1      32.519  20.331  23.551  1.00  0.00     0.008 C 
ATOM     10  C   UNL A   1      32.414  21.761  23.042  1.00  0.00     0.011 C 
BRANCH   6  11
ATOM     11  N   UNL A   1      31.109  22.071  26.379  1.00  0.00    -0.345 N 
ATOM     12  H   UNL A   1      31.189  22.991  26.809  1.00  0.00     0.345 HD
ATOM     13  H   UNL A   1      31.061  21.357  27.107  1.00  0.00     0.345 HD
ATOM     14  H   UNL A   1      30.265  22.033  25.809  1.00  0.00     0.345 HD
ENDBRANCH   6  11
BRANCH   8  15
ATOM     15  C   UNL A   1      31.153  23.702  24.004  1.00  0.00     0.052 C 
BRANCH  15  16
ATOM     16  C   UNL A   1      31.202  25.100  24.635  1.00  0.00     0.230 C 
BRANCH  16  17
ATOM     17  O   UNL A   1      32.106  25.142  25.745  1.00  0.00    -0.494 OA
BRANCH  17  18
ATOM     18  C   UNL A   1      32.342  26.402  26.210  1.00  0.00     0.119 A 
ATOM     19  C   UNL A   1      31.368  27.185  26.827  1.00  0.00     0.046 A 
ATOM     20  C   UNL A   1      33.608  26.924  25.965  1.00  0.00     0.046 A 
ATOM     21  C   UNL A   1      31.695  28.468  27.274  1.00  0.00     0.004 A 
ATOM     22  C   UNL A   1      33.932  28.203  26.411  1.00  0.00     0.004 A 
ATOM     23  C   UNL A   1      32.983  28.968  27.083  1.00  0.00     0.000 A 
ENDBRANCH  17  18
ENDBRANCH  16  17
ENDBRANCH  15  16
ENDBRANCH   8  15
ENDBRANCH   3   6
ENDBRANCH   1   2
BRANCH   1  24
ATOM     24  C   UNL A   1      36.746  21.119  24.713  1.00  0.00     0.023 C 
BRANCH  24  25
ATOM     25  C   UNL A   1      37.783  20.021  24.915  1.00  0.00     0.023 C 
BRANCH  25  26
ATOM     26  C   UNL A   1      38.989  20.443  25.739  1.00  0.00     0.116 C 
BRANCH  26  27
ATOM     27  N   UNL A   1      40.015  19.412  25.806  1.00  0.00    -0.352 N 
ATOM     28  C   UNL A   1      41.347  19.550  26.114  1.00  0.00     0.251 C 
ATOM     29  H   UNL A   1      39.716  18.495  25.605  1.00  0.00     0.163 HD
ATOM     30  O   UNL A   1      42.127  18.617  25.969  1.00  0.00    -0.269 OA
BRANCH  28  31
ATOM     31  C   UNL A   1      41.829  20.858  26.599  1.00  0.00     0.039 A 
ATOM     32  C   UNL A   1      42.295  21.799  25.681  1.00  0.00     0.014 A 
ATOM     33  C   UNL A   1      41.748  21.166  27.959  1.00  0.00     0.014 A 
ATOM     34  C   UNL A   1      42.619  23.082  26.124  1.00  0.00     0.010 A 
ATOM     35  C   UNL A   1      41.972  22.469  28.379  1.00  0.00     0.010 A 
ATOM     36  C   UNL A   1      42.422  23.437  27.468  1.00  0.00    -0.014 A 
BRANCH  36  37
ATOM     37  C   UNL A   1      42.707  24.805  27.963  1.00  0.00     0.031 A 
ATOM     38  C   UNL A   1      44.113  25.174  28.349  1.00  0.00     0.074 A 
ATOM     39  C   UNL A   1      41.700  25.681  28.138  1.00  0.00     0.049 A 
ATOM     40  N   UNL A   1      44.558  26.278  28.892  1.00  0.00    -0.248 NA
ATOM     41  C   UNL A   1      45.152  24.152  28.130  1.00  0.00     0.031 C 
ATOM     42  C   UNL A   1      40.288  25.428  27.838  1.00  0.00     0.029 A 
ATOM     43  N   UNL A   1      41.710  26.965  28.622  1.00  0.00    -0.354 N 
ATOM     44  C   UNL A   1      45.916  26.072  29.099  1.00  0.00     0.074 A 
ATOM     45  C   UNL A   1      46.211  24.720  28.682  1.00  0.00     0.031 C 
ATOM     46  C   UNL A   1      39.575  26.531  28.115  1.00  0.00     0.029 A 
ATOM     47  C   UNL A   1      40.467  27.551  28.655  1.00  0.00     0.049 A 
ATOM     48  H   UNL A   1      42.529  27.423  28.917  1.00  0.00     0.167 HD
ATOM     49  C   UNL A   1      46.842  26.940  29.570  1.00  0.00     0.031 A 
ATOM     50  C   UNL A   1      40.090  28.771  29.082  1.00  0.00     0.031 A 
ATOM     51  C   UNL A   1      46.547  28.290  29.964  1.00  0.00     0.049 A 
ATOM     52  C   UNL A   1      41.134  29.712  29.616  1.00  0.00     0.074 A 
ATOM     53  C   UNL A   1      47.421  29.271  30.398  1.00  0.00     0.029 A 
ATOM     54  N   UNL A   1      45.279  28.848  29.972  1.00  0.00    -0.354 N 
ATOM     55  N   UNL A   1      42.427  29.528  29.740  1.00  0.00    -0.248 NA
ATOM     56  C   UNL A   1      40.670  31.034  30.061  1.00  0.00     0.031 C 
ATOM     57  C   UNL A   1      46.673  30.406  30.721  1.00  0.00     0.029 A 
ATOM     58  C   UNL A   1      45.342  30.152  30.428  1.00  0.00     0.049 A 
ATOM     59  H   UNL A   1      44.455  28.384  29.694  1.00  0.00     0.167 HD
ATOM     60  C   UNL A   1      42.933  30.718  30.247  1.00  0.00     0.074 A 
ATOM     61  C   UNL A   1      41.811  31.621  30.395  1.00  0.00     0.031 C 
ATOM     62  C   UNL A   1      44.212  31.036  30.562  1.00  0.00     0.031 A 
BRANCH  49  63
ATOM     63  C   UNL A   1      48.257  26.446  29.687  1.00  0.00    -0.014 A 
ATOM     64  C   UNL A   1      49.178  26.613  28.639  1.00  0.00     0.009 A 
ATOM     65  C   UNL A   1      48.685  25.828  30.872  1.00  0.00     0.009 A 
ATOM     66  C   UNL A   1      50.484  26.134  28.762  1.00  0.00     0.001 A 
ATOM     67  C   UNL A   1      50.000  25.379  31.004  1.00  0.00     0.001 A 
ATOM     68  C   UNL A   1      50.895  25.523  29.945  1.00  0.00     0.000 A 
ENDBRANCH  49  63
BRANCH  50  69
ATOM     69  C   UNL A   1      38.662  29.182  29.009  1.00  0.00    -0.014 A 
ATOM     70  C   UNL A   1      38.146  29.763  27.841  1.00  0.00     0.009 A 
ATOM     71  C   UNL A   1      37.807  28.998  30.108  1.00  0.00     0.009 A 
ATOM     72  C   UNL A   1      36.814  30.180  27.784  1.00  0.00     0.001 A 
ATOM     73  C   UNL A   1      36.467  29.388  30.038  1.00  0.00     0.001 A 
ATOM     74  C   UNL A   1      35.975  29.987  28.880  1.00  0.00     0.000 A 
ENDBRANCH  50  69
BRANCH  62  75
ATOM     75  C   UNL A   1      44.477  32.430  31.054  1.00  0.00    -0.014 A 
ATOM     76  C   UNL A   1      44.479  32.732  32.425  1.00  0.00     0.009 A 
ATOM     77  C   UNL A   1      44.793  33.441  30.133  1.00  0.00     0.009 A 
ATOM     78  C   UNL A   1      44.765  34.028  32.859  1.00  0.00     0.001 A 
ATOM     79  C   UNL A   1      45.109  34.726  30.572  1.00  0.00     0.001 A 
ATOM     80  C   UNL A   1      45.087  35.021  31.934  1.00  0.00     0.000 A 
ENDBRANCH  62  75
ENDBRANCH  36  37
ENDBRANCH  28  31
ENDBRANCH  26  27
ENDBRANCH  25  26
ENDBRANCH  24  25
ENDBRANCH   1  24
TORSDOF 16
ENDMDL
