MODEL 1
REMARK VINA RESULT:     -11.5      0.000      0.000
REMARK SMILES C[N@H+]1C[C@@H](Oc2cccc3cccnc23)C[C@H]1C(=O)NCCCCNC(=O)c1ccc(-c2c3nc(c(-c4ccccc4)c4ccc([nH]4)c(-c4ccccc4)c4nc(c(-c5ccccc5)c5ccc2[nH]5)C=C4)C=C3)cc1
REMARK SMILES IDX 22 1 21 2 20 3 18 4 19 5 17 7 1 8 2 9 3 10 4 12 16 13 5 14
REMARK SMILES IDX 6 15 7 16 15 17 8 18 10 19 14 20 9 21 11 22 13 23 12 24
REMARK SMILES IDX 23 25 24 26 25 27 26 28 27 30 28 31 29 32 75 33 30 34 74 35
REMARK SMILES IDX 31 36 32 37 33 38 68 39 34 40 73 41 67 42 69 43 35 44 72 45
REMARK SMILES IDX 66 46 65 47 36 49 58 50 43 51 57 52 44 53 47 54 56 55 70 56
REMARK SMILES IDX 45 57 46 58 55 60 71 61 48 62 37 63 38 64 42 65 39 66 41 67
REMARK SMILES IDX 40 68 59 69 60 70 64 71 61 72 63 73 62 74 49 75 50 76 54 77
REMARK SMILES IDX 51 78 53 79 52 80
REMARK H PARENT 20 6 2 11 25 29 69 48 47 59
REMARK Flexibility Score: inf
ROOT
ATOM      1  C   UNL A   1      36.893  22.599  23.726  1.00  0.00     0.023 C 
ENDROOT
BRANCH   1   2
ATOM      2  C   UNL A   1      35.473  22.889  23.249  1.00  0.00     0.116 C 
BRANCH   2   3
ATOM      3  N   UNL A   1      34.798  24.010  23.868  1.00  0.00    -0.351 N 
ATOM      4  C   UNL A   1      33.908  24.012  24.904  1.00  0.00     0.278 C 
ATOM      5  O   UNL A   1      34.027  24.962  25.696  1.00  0.00    -0.268 OA
ATOM      6  H   UNL A   1      35.012  24.893  23.490  1.00  0.00     0.163 HD
BRANCH   4   7
ATOM      7  C   UNL A   1      32.762  22.998  25.144  1.00  0.00     0.278 C 
ATOM      8  C   UNL A   1      33.663  21.798  27.129  1.00  0.00     0.333 C 
ATOM      9  N   UNL A   1      32.569  22.456  26.478  1.00  0.00    -0.324 N 
ATOM     10  C   UNL A   1      31.533  23.176  27.200  1.00  0.00     0.308 C 
ATOM     11  H   UNL A   1      32.153  21.528  26.402  1.00  0.00     0.348 HD
ATOM     12  C   UNL A   1      30.707  23.892  26.094  1.00  0.00     0.234 C 
ATOM     13  C   UNL A   1      31.349  23.436  24.785  1.00  0.00     0.126 C 
BRANCH  12  14
ATOM     14  O   UNL A   1      30.404  25.267  26.361  1.00  0.00    -0.482 OA
BRANCH  14  15
ATOM     15  C   UNL A   1      30.448  26.331  25.499  1.00  0.00     0.146 A 
ATOM     16  C   UNL A   1      29.639  26.456  24.367  1.00  0.00     0.049 A 
ATOM     17  C   UNL A   1      31.301  27.398  25.868  1.00  0.00     0.112 A 
ATOM     18  C   UNL A   1      29.738  27.561  23.524  1.00  0.00     0.005 A 
ATOM     19  C   UNL A   1      31.335  28.546  25.035  1.00  0.00     0.004 A 
ATOM     20  N   UNL A   1      32.088  27.334  26.968  1.00  0.00    -0.252 NA
ATOM     21  C   UNL A   1      30.584  28.606  23.855  1.00  0.00     0.010 A 
ATOM     22  C   UNL A   1      32.131  29.634  25.405  1.00  0.00     0.012 A 
ATOM     23  C   UNL A   1      32.857  28.400  27.289  1.00  0.00     0.112 A 
ATOM     24  C   UNL A   1      32.902  29.567  26.555  1.00  0.00     0.021 A 
ENDBRANCH  14  15
ENDBRANCH  12  14
ENDBRANCH   4   7
ENDBRANCH   2   3
ENDBRANCH   1   2
BRANCH   1  25
ATOM     25  C   UNL A   1      37.049  21.340  24.579  1.00  0.00     0.023 C 
BRANCH  25  26
ATOM     26  C   UNL A   1      38.213  21.350  25.567  1.00  0.00     0.116 C 
BRANCH  26  27
ATOM     27  N   UNL A   1      39.068  20.177  25.514  1.00  0.00    -0.352 N 
ATOM     28  C   UNL A   1      40.377  20.044  25.928  1.00  0.00     0.251 C 
ATOM     29  H   UNL A   1      38.658  19.369  25.130  1.00  0.00     0.163 HD
ATOM     30  O   UNL A   1      40.970  18.983  25.767  1.00  0.00    -0.269 OA
BRANCH  28  31
ATOM     31  C   UNL A   1      41.091  21.188  26.549  1.00  0.00     0.039 A 
ATOM     32  C   UNL A   1      41.773  22.085  25.720  1.00  0.00     0.014 A 
ATOM     33  C   UNL A   1      41.092  21.391  27.931  1.00  0.00     0.014 A 
ATOM     34  C   UNL A   1      42.355  23.231  26.267  1.00  0.00     0.010 A 
ATOM     35  C   UNL A   1      41.623  22.556  28.473  1.00  0.00     0.010 A 
ATOM     36  C   UNL A   1      42.231  23.500  27.641  1.00  0.00    -0.014 A 
BRANCH  36  37
ATOM     37  C   UNL A   1      42.582  24.828  28.192  1.00  0.00     0.031 A 
ATOM     38  C   UNL A   1      43.975  25.148  28.644  1.00  0.00     0.074 A 
ATOM     39  C   UNL A   1      41.583  25.713  28.380  1.00  0.00     0.049 A 
ATOM     40  N   UNL A   1      44.446  26.275  29.117  1.00  0.00    -0.248 NA
ATOM     41  C   UNL A   1      44.962  24.059  28.589  1.00  0.00     0.031 C 
ATOM     42  C   UNL A   1      40.170  25.463  28.078  1.00  0.00     0.029 A 
ATOM     43  N   UNL A   1      41.596  26.993  28.870  1.00  0.00    -0.354 N 
ATOM     44  C   UNL A   1      45.781  26.034  29.413  1.00  0.00     0.074 A 
ATOM     45  C   UNL A   1      46.032  24.639  29.118  1.00  0.00     0.031 C 
ATOM     46  C   UNL A   1      39.461  26.568  28.350  1.00  0.00     0.029 A 
ATOM     47  C   UNL A   1      40.360  27.591  28.867  1.00  0.00     0.049 A 
ATOM     48  H   UNL A   1      42.412  27.439  29.194  1.00  0.00     0.167 HD
ATOM     49  C   UNL A   1      46.713  26.905  29.871  1.00  0.00     0.031 A 
ATOM     50  C   UNL A   1      39.994  28.835  29.223  1.00  0.00     0.031 A 
ATOM     51  C   UNL A   1      46.440  28.287  30.177  1.00  0.00     0.049 A 
ATOM     52  C   UNL A   1      41.052  29.793  29.689  1.00  0.00     0.074 A 
ATOM     53  C   UNL A   1      47.323  29.274  30.576  1.00  0.00     0.029 A 
ATOM     54  N   UNL A   1      45.183  28.872  30.125  1.00  0.00    -0.354 N 
ATOM     55  N   UNL A   1      42.338  29.587  29.845  1.00  0.00    -0.248 NA
ATOM     56  C   UNL A   1      40.613  31.158  30.002  1.00  0.00     0.031 C 
ATOM     57  C   UNL A   1      46.591  30.443  30.817  1.00  0.00     0.029 A 
ATOM     58  C   UNL A   1      45.262  30.200  30.509  1.00  0.00     0.049 A 
ATOM     59  H   UNL A   1      44.356  28.410  29.856  1.00  0.00     0.167 HD
ATOM     60  C   UNL A   1      42.867  30.803  30.251  1.00  0.00     0.074 A 
ATOM     61  C   UNL A   1      41.765  31.744  30.296  1.00  0.00     0.031 C 
ATOM     62  C   UNL A   1      44.150  31.114  30.559  1.00  0.00     0.031 A 
BRANCH  49  63
ATOM     63  C   UNL A   1      48.113  26.389  30.067  1.00  0.00    -0.014 A 
ATOM     64  C   UNL A   1      49.061  26.453  29.032  1.00  0.00     0.009 A 
ATOM     65  C   UNL A   1      48.508  25.876  31.313  1.00  0.00     0.009 A 
ATOM     66  C   UNL A   1      50.361  25.980  29.228  1.00  0.00     0.001 A 
ATOM     67  C   UNL A   1      49.817  25.431  31.515  1.00  0.00     0.001 A 
ATOM     68  C   UNL A   1      50.740  25.474  30.470  1.00  0.00     0.000 A 
ENDBRANCH  49  63
BRANCH  50  69
ATOM     69  C   UNL A   1      38.576  29.255  29.088  1.00  0.00    -0.014 A 
ATOM     70  C   UNL A   1      37.712  29.202  30.193  1.00  0.00     0.009 A 
ATOM     71  C   UNL A   1      38.086  29.742  27.866  1.00  0.00     0.009 A 
ATOM     72  C   UNL A   1      36.381  29.605  30.070  1.00  0.00     0.001 A 
ATOM     73  C   UNL A   1      36.761  30.172  27.755  1.00  0.00     0.001 A 
ATOM     74  C   UNL A   1      35.908  30.095  28.854  1.00  0.00     0.000 A 
ENDBRANCH  50  69
BRANCH  62  75
ATOM     75  C   UNL A   1      44.425  32.538  30.952  1.00  0.00    -0.014 A 
ATOM     76  C   UNL A   1      44.371  32.948  32.294  1.00  0.00     0.009 A 
ATOM     77  C   UNL A   1      44.760  33.478  29.965  1.00  0.00     0.009 A 
ATOM     78  C   UNL A   1      44.610  34.280  32.634  1.00  0.00     0.001 A 
ATOM     79  C   UNL A   1      45.028  34.803  30.312  1.00  0.00     0.001 A 
ATOM     80  C   UNL A   1      44.941  35.205  31.644  1.00  0.00     0.000 A 
ENDBRANCH  62  75
ENDBRANCH  36  37
ENDBRANCH  28  31
ENDBRANCH  26  27
ENDBRANCH  25  26
ENDBRANCH   1  25
TORSDOF 13
ENDMDL
MODEL 2
REMARK VINA RESULT:     -11.4      2.062      7.739
REMARK SMILES C[N@H+]1C[C@@H](Oc2cccc3cccnc23)C[C@H]1C(=O)NCCCCNC(=O)c1ccc(-c2c3nc(c(-c4ccccc4)c4ccc([nH]4)c(-c4ccccc4)c4nc(c(-c5ccccc5)c5ccc2[nH]5)C=C4)C=C3)cc1
REMARK SMILES IDX 22 1 21 2 20 3 18 4 19 5 17 7 1 8 2 9 3 10 4 12 16 13 5 14
REMARK SMILES IDX 6 15 7 16 15 17 8 18 10 19 14 20 9 21 11 22 13 23 12 24
REMARK SMILES IDX 23 25 24 26 25 27 26 28 27 30 28 31 29 32 75 33 30 34 74 35
REMARK SMILES IDX 31 36 32 37 33 38 68 39 34 40 73 41 67 42 69 43 35 44 72 45
REMARK SMILES IDX 66 46 65 47 36 49 58 50 43 51 57 52 44 53 47 54 56 55 70 56
REMARK SMILES IDX 45 57 46 58 55 60 71 61 48 62 37 63 38 64 42 65 39 66 41 67
REMARK SMILES IDX 40 68 59 69 60 70 64 71 61 72 63 73 62 74 49 75 50 76 54 77
REMARK SMILES IDX 51 78 53 79 52 80
REMARK H PARENT 20 6 2 11 25 29 69 48 47 59
REMARK Flexibility Score: inf
ROOT
ATOM      1  C   UNL A   1      31.823  28.817  27.201  1.00  0.00     0.023 C 
ENDROOT
BRANCH   1   2
ATOM      2  C   UNL A   1      31.262  27.424  26.930  1.00  0.00     0.116 C 
BRANCH   2   3
ATOM      3  N   UNL A   1      32.197  26.432  26.447  1.00  0.00    -0.351 N 
ATOM      4  C   UNL A   1      32.750  26.304  25.205  1.00  0.00     0.278 C 
ATOM      5  O   UNL A   1      33.939  25.945  25.192  1.00  0.00    -0.268 OA
ATOM      6  H   UNL A   1      32.476  25.756  27.107  1.00  0.00     0.163 HD
BRANCH   4   7
ATOM      7  C   UNL A   1      32.033  26.506  23.846  1.00  0.00     0.278 C 
ATOM      8  C   UNL A   1      33.090  28.638  23.119  1.00  0.00     0.333 C 
ATOM      9  N   UNL A   1      32.684  27.297  22.817  1.00  0.00    -0.324 N 
ATOM     10  C   UNL A   1      33.381  26.455  21.859  1.00  0.00     0.308 C 
ATOM     11  H   UNL A   1      31.971  27.725  22.226  1.00  0.00     0.348 HD
ATOM     12  C   UNL A   1      32.733  25.051  22.025  1.00  0.00     0.234 C 
ATOM     13  C   UNL A   1      31.636  25.260  23.068  1.00  0.00     0.126 C 
BRANCH  12  14
ATOM     14  O   UNL A   1      33.661  23.962  22.097  1.00  0.00    -0.482 OA
BRANCH  14  15
ATOM     15  C   UNL A   1      33.645  22.884  22.942  1.00  0.00     0.146 A 
ATOM     16  C   UNL A   1      32.621  21.935  22.983  1.00  0.00     0.049 A 
ATOM     17  C   UNL A   1      34.802  22.695  23.734  1.00  0.00     0.112 A 
ATOM     18  C   UNL A   1      32.659  20.864  23.873  1.00  0.00     0.005 A 
ATOM     19  C   UNL A   1      34.854  21.559  24.582  1.00  0.00     0.004 A 
ATOM     20  N   UNL A   1      35.832  23.574  23.714  1.00  0.00    -0.252 NA
ATOM     21  C   UNL A   1      33.773  20.674  24.673  1.00  0.00     0.010 A 
ATOM     22  C   UNL A   1      36.007  21.322  25.337  1.00  0.00     0.012 A 
ATOM     23  C   UNL A   1      36.927  23.322  24.467  1.00  0.00     0.112 A 
ATOM     24  C   UNL A   1      37.068  22.213  25.275  1.00  0.00     0.021 A 
ENDBRANCH  14  15
ENDBRANCH  12  14
ENDBRANCH   4   7
ENDBRANCH   2   3
ENDBRANCH   1   2
BRANCH   1  25
ATOM     25  C   UNL A   1      33.313  28.863  27.543  1.00  0.00     0.023 C 
BRANCH  25  26
ATOM     26  C   UNL A   1      34.014  30.191  27.266  1.00  0.00     0.116 C 
BRANCH  26  27
ATOM     27  N   UNL A   1      34.168  31.052  28.426  1.00  0.00    -0.352 N 
ATOM     28  C   UNL A   1      35.228  31.136  29.304  1.00  0.00     0.251 C 
ATOM     29  H   UNL A   1      33.413  31.657  28.610  1.00  0.00     0.163 HD
ATOM     30  O   UNL A   1      35.174  31.894  30.267  1.00  0.00    -0.269 OA
BRANCH  28  31
ATOM     31  C   UNL A   1      36.434  30.292  29.111  1.00  0.00     0.039 A 
ATOM     32  C   UNL A   1      37.042  30.265  27.852  1.00  0.00     0.014 A 
ATOM     33  C   UNL A   1      36.976  29.536  30.154  1.00  0.00     0.014 A 
ATOM     34  C   UNL A   1      38.242  29.572  27.674  1.00  0.00     0.010 A 
ATOM     35  C   UNL A   1      38.197  28.890  29.996  1.00  0.00     0.010 A 
ATOM     36  C   UNL A   1      38.855  28.930  28.763  1.00  0.00    -0.014 A 
BRANCH  36  37
ATOM     37  C   UNL A   1      40.249  28.439  28.672  1.00  0.00     0.031 A 
ATOM     38  C   UNL A   1      40.560  27.014  28.327  1.00  0.00     0.074 A 
ATOM     39  C   UNL A   1      41.235  29.289  29.018  1.00  0.00     0.049 A 
ATOM     40  N   UNL A   1      41.728  26.443  28.176  1.00  0.00    -0.248 NA
ATOM     41  C   UNL A   1      39.418  26.103  28.159  1.00  0.00     0.031 C 
ATOM     42  C   UNL A   1      41.036  30.667  29.478  1.00  0.00     0.029 A 
ATOM     43  N   UNL A   1      42.596  29.125  29.043  1.00  0.00    -0.354 N 
ATOM     44  C   UNL A   1      41.465  25.110  27.893  1.00  0.00     0.074 A 
ATOM     45  C   UNL A   1      40.028  24.943  27.947  1.00  0.00     0.031 C 
ATOM     46  C   UNL A   1      42.232  31.234  29.698  1.00  0.00     0.029 A 
ATOM     47  C   UNL A   1      43.276  30.257  29.422  1.00  0.00     0.049 A 
ATOM     48  H   UNL A   1      43.042  28.277  28.814  1.00  0.00     0.167 HD
ATOM     49  C   UNL A   1      42.345  24.121  27.597  1.00  0.00     0.031 A 
ATOM     50  C   UNL A   1      44.597  30.488  29.516  1.00  0.00     0.031 A 
ATOM     51  C   UNL A   1      43.774  24.301  27.566  1.00  0.00     0.049 A 
ATOM     52  C   UNL A   1      45.550  29.390  29.144  1.00  0.00     0.074 A 
ATOM     53  C   UNL A   1      44.752  23.390  27.208  1.00  0.00     0.029 A 
ATOM     54  N   UNL A   1      44.429  25.473  27.917  1.00  0.00    -0.354 N 
ATOM     55  N   UNL A   1      45.284  28.166  28.755  1.00  0.00    -0.248 NA
ATOM     56  C   UNL A   1      46.981  29.712  29.200  1.00  0.00     0.031 C 
ATOM     57  C   UNL A   1      46.001  23.994  27.394  1.00  0.00     0.029 A 
ATOM     58  C   UNL A   1      45.799  25.301  27.809  1.00  0.00     0.049 A 
ATOM     59  H   UNL A   1      43.985  26.304  28.202  1.00  0.00     0.167 HD
ATOM     60  C   UNL A   1      46.513  27.578  28.495  1.00  0.00     0.074 A 
ATOM     61  C   UNL A   1      47.521  28.588  28.751  1.00  0.00     0.031 C 
ATOM     62  C   UNL A   1      46.784  26.316  28.082  1.00  0.00     0.031 A 
BRANCH  49  63
ATOM     63  C   UNL A   1      41.785  22.761  27.282  1.00  0.00    -0.014 A 
ATOM     64  C   UNL A   1      41.395  22.421  25.976  1.00  0.00     0.009 A 
ATOM     65  C   UNL A   1      41.688  21.787  28.289  1.00  0.00     0.009 A 
ATOM     66  C   UNL A   1      40.885  21.151  25.693  1.00  0.00     0.001 A 
ATOM     67  C   UNL A   1      41.206  20.508  27.998  1.00  0.00     0.001 A 
ATOM     68  C   UNL A   1      40.795  20.194  26.703  1.00  0.00     0.000 A 
ENDBRANCH  49  63
BRANCH  50  69
ATOM     69  C   UNL A   1      45.085  31.832  29.918  1.00  0.00    -0.014 A 
ATOM     70  C   UNL A   1      45.403  32.098  31.259  1.00  0.00     0.009 A 
ATOM     71  C   UNL A   1      45.267  32.844  28.963  1.00  0.00     0.009 A 
ATOM     72  C   UNL A   1      45.871  33.358  31.638  1.00  0.00     0.001 A 
ATOM     73  C   UNL A   1      45.762  34.095  29.342  1.00  0.00     0.001 A 
ATOM     74  C   UNL A   1      46.056  34.353  30.680  1.00  0.00     0.000 A 
ENDBRANCH  50  69
BRANCH  62  75
ATOM     75  C   UNL A   1      48.231  25.972  27.863  1.00  0.00    -0.014 A 
ATOM     76  C   UNL A   1      48.863  26.227  26.636  1.00  0.00     0.009 A 
ATOM     77  C   UNL A   1      48.974  25.402  28.908  1.00  0.00     0.009 A 
ATOM     78  C   UNL A   1      50.201  25.880  26.448  1.00  0.00     0.001 A 
ATOM     79  C   UNL A   1      50.321  25.085  28.727  1.00  0.00     0.001 A 
ATOM     80  C   UNL A   1      50.930  25.313  27.494  1.00  0.00     0.000 A 
ENDBRANCH  62  75
ENDBRANCH  36  37
ENDBRANCH  28  31
ENDBRANCH  26  27
ENDBRANCH  25  26
ENDBRANCH   1  25
TORSDOF 13
ENDMDL
MODEL 3
REMARK VINA RESULT:     -11.4      2.886      8.479
REMARK SMILES C[N@H+]1C[C@@H](Oc2cccc3cccnc23)C[C@H]1C(=O)NCCCCNC(=O)c1ccc(-c2c3nc(c(-c4ccccc4)c4ccc([nH]4)c(-c4ccccc4)c4nc(c(-c5ccccc5)c5ccc2[nH]5)C=C4)C=C3)cc1
REMARK SMILES IDX 22 1 21 2 20 3 18 4 19 5 17 7 1 8 2 9 3 10 4 12 16 13 5 14
REMARK SMILES IDX 6 15 7 16 15 17 8 18 10 19 14 20 9 21 11 22 13 23 12 24
REMARK SMILES IDX 23 25 24 26 25 27 26 28 27 30 28 31 29 32 75 33 30 34 74 35
REMARK SMILES IDX 31 36 32 37 33 38 68 39 34 40 73 41 67 42 69 43 35 44 72 45
REMARK SMILES IDX 66 46 65 47 36 49 58 50 43 51 57 52 44 53 47 54 56 55 70 56
REMARK SMILES IDX 45 57 46 58 55 60 71 61 48 62 37 63 38 64 42 65 39 66 41 67
REMARK SMILES IDX 40 68 59 69 60 70 64 71 61 72 63 73 62 74 49 75 50 76 54 77
REMARK SMILES IDX 51 78 53 79 52 80
REMARK H PARENT 20 6 2 11 25 29 69 48 47 59
REMARK Flexibility Score: inf
ROOT
ATOM      1  C   UNL A   1      32.422  28.962  27.273  1.00  0.00     0.023 C 
ENDROOT
BRANCH   1   2
ATOM      2  C   UNL A   1      31.441  27.856  26.892  1.00  0.00     0.116 C 
BRANCH   2   3
ATOM      3  N   UNL A   1      32.014  26.574  26.543  1.00  0.00    -0.351 N 
ATOM      4  C   UNL A   1      32.513  26.153  25.343  1.00  0.00     0.278 C 
ATOM      5  O   UNL A   1      33.524  25.435  25.417  1.00  0.00    -0.268 OA
ATOM      6  H   UNL A   1      32.051  25.915  27.273  1.00  0.00     0.163 HD
BRANCH   4   7
ATOM      7  C   UNL A   1      31.918  26.436  23.942  1.00  0.00     0.278 C 
ATOM      8  C   UNL A   1      33.016  28.613  23.443  1.00  0.00     0.333 C 
ATOM      9  N   UNL A   1      32.651  27.292  23.024  1.00  0.00    -0.324 N 
ATOM     10  C   UNL A   1      33.438  26.513  22.083  1.00  0.00     0.308 C 
ATOM     11  H   UNL A   1      31.989  27.753  22.400  1.00  0.00     0.348 HD
ATOM     12  C   UNL A   1      32.791  25.099  22.104  1.00  0.00     0.234 C 
ATOM     13  C   UNL A   1      31.603  25.239  23.056  1.00  0.00     0.126 C 
BRANCH  12  14
ATOM     14  O   UNL A   1      33.718  24.011  22.192  1.00  0.00    -0.482 OA
BRANCH  14  15
ATOM     15  C   UNL A   1      33.646  22.891  22.978  1.00  0.00     0.146 A 
ATOM     16  C   UNL A   1      32.598  21.968  22.933  1.00  0.00     0.049 A 
ATOM     17  C   UNL A   1      34.769  22.631  23.798  1.00  0.00     0.112 A 
ATOM     18  C   UNL A   1      32.579  20.852  23.767  1.00  0.00     0.005 A 
ATOM     19  C   UNL A   1      34.763  21.451  24.587  1.00  0.00     0.004 A 
ATOM     20  N   UNL A   1      35.820  23.483  23.860  1.00  0.00    -0.252 NA
ATOM     21  C   UNL A   1      33.658  20.592  24.594  1.00  0.00     0.010 A 
ATOM     22  C   UNL A   1      35.882  21.146  25.367  1.00  0.00     0.012 A 
ATOM     23  C   UNL A   1      36.881  23.163  24.636  1.00  0.00     0.112 A 
ATOM     24  C   UNL A   1      36.966  22.010  25.389  1.00  0.00     0.021 A 
ENDBRANCH  14  15
ENDBRANCH  12  14
ENDBRANCH   4   7
ENDBRANCH   2   3
ENDBRANCH   1   2
BRANCH   1  25
ATOM     25  C   UNL A   1      31.969  30.381  26.926  1.00  0.00     0.023 C 
BRANCH  25  26
ATOM     26  C   UNL A   1      33.039  31.464  27.046  1.00  0.00     0.116 C 
BRANCH  26  27
ATOM     27  N   UNL A   1      32.541  32.773  27.430  1.00  0.00    -0.352 N 
ATOM     28  C   UNL A   1      33.131  33.716  28.246  1.00  0.00     0.251 C 
ATOM     29  H   UNL A   1      31.663  33.020  27.059  1.00  0.00     0.163 HD
ATOM     30  O   UNL A   1      32.545  34.762  28.505  1.00  0.00    -0.269 OA
BRANCH  28  31
ATOM     31  C   UNL A   1      34.468  33.466  28.841  1.00  0.00     0.039 A 
ATOM     32  C   UNL A   1      34.543  32.837  30.088  1.00  0.00     0.014 A 
ATOM     33  C   UNL A   1      35.645  33.837  28.185  1.00  0.00     0.014 A 
ATOM     34  C   UNL A   1      35.788  32.488  30.616  1.00  0.00     0.010 A 
ATOM     35  C   UNL A   1      36.883  33.445  28.681  1.00  0.00     0.010 A 
ATOM     36  C   UNL A   1      36.962  32.739  29.885  1.00  0.00    -0.014 A 
BRANCH  36  37
ATOM     37  C   UNL A   1      38.252  32.131  30.282  1.00  0.00     0.031 A 
ATOM     38  C   UNL A   1      39.199  32.832  31.209  1.00  0.00     0.074 A 
ATOM     39  C   UNL A   1      38.603  30.969  29.697  1.00  0.00     0.049 A 
ATOM     40  N   UNL A   1      40.349  32.415  31.675  1.00  0.00    -0.248 NA
ATOM     41  C   UNL A   1      38.827  34.186  31.646  1.00  0.00     0.031 C 
ATOM     42  C   UNL A   1      37.804  30.257  28.695  1.00  0.00     0.029 A 
ATOM     43  N   UNL A   1      39.716  30.186  29.851  1.00  0.00    -0.354 N 
ATOM     44  C   UNL A   1      40.837  33.450  32.462  1.00  0.00     0.074 A 
ATOM     45  C   UNL A   1      39.885  34.536  32.366  1.00  0.00     0.031 C 
ATOM     46  C   UNL A   1      38.434  29.122  28.357  1.00  0.00     0.029 A 
ATOM     47  C   UNL A   1      39.687  29.039  29.095  1.00  0.00     0.049 A 
ATOM     48  H   UNL A   1      40.465  30.423  30.445  1.00  0.00     0.167 HD
ATOM     49  C   UNL A   1      41.968  33.479  33.209  1.00  0.00     0.031 A 
ATOM     50  C   UNL A   1      40.563  28.022  29.021  1.00  0.00     0.031 A 
ATOM     51  C   UNL A   1      42.914  32.394  33.278  1.00  0.00     0.049 A 
ATOM     52  C   UNL A   1      41.788  28.061  29.888  1.00  0.00     0.074 A 
ATOM     53  C   UNL A   1      44.052  32.288  34.057  1.00  0.00     0.029 A 
ATOM     54  N   UNL A   1      42.833  31.229  32.529  1.00  0.00    -0.354 N 
ATOM     55  N   UNL A   1      42.175  28.993  30.725  1.00  0.00    -0.248 NA
ATOM     56  C   UNL A   1      42.680  26.897  29.820  1.00  0.00     0.031 C 
ATOM     57  C   UNL A   1      44.688  31.082  33.741  1.00  0.00     0.029 A 
ATOM     58  C   UNL A   1      43.914  30.410  32.808  1.00  0.00     0.049 A 
ATOM     59  H   UNL A   1      42.114  31.017  31.891  1.00  0.00     0.167 HD
ATOM     60  C   UNL A   1      43.343  28.519  31.303  1.00  0.00     0.074 A 
ATOM     61  C   UNL A   1      43.588  27.207  30.735  1.00  0.00     0.031 C 
ATOM     62  C   UNL A   1      44.143  29.114  32.221  1.00  0.00     0.031 A 
BRANCH  49  63
ATOM     63  C   UNL A   1      42.241  34.723  34.012  1.00  0.00    -0.014 A 
ATOM     64  C   UNL A   1      41.829  34.828  35.351  1.00  0.00     0.009 A 
ATOM     65  C   UNL A   1      42.960  35.786  33.442  1.00  0.00     0.009 A 
ATOM     66  C   UNL A   1      42.096  35.983  36.089  1.00  0.00     0.001 A 
ATOM     67  C   UNL A   1      43.252  36.928  34.192  1.00  0.00     0.001 A 
ATOM     68  C   UNL A   1      42.812  37.030  35.512  1.00  0.00     0.000 A 
ENDBRANCH  49  63
BRANCH  50  69
ATOM     69  C   UNL A   1      40.276  26.862  28.140  1.00  0.00    -0.014 A 
ATOM     70  C   UNL A   1      40.826  26.796  26.851  1.00  0.00     0.009 A 
ATOM     71  C   UNL A   1      39.478  25.799  28.593  1.00  0.00     0.009 A 
ATOM     72  C   UNL A   1      40.565  25.702  26.024  1.00  0.00     0.001 A 
ATOM     73  C   UNL A   1      39.242  24.692  27.774  1.00  0.00     0.001 A 
ATOM     74  C   UNL A   1      39.779  24.648  26.488  1.00  0.00     0.000 A 
ENDBRANCH  50  69
BRANCH  62  75
ATOM     75  C   UNL A   1      45.345  28.336  32.678  1.00  0.00    -0.014 A 
ATOM     76  C   UNL A   1      46.597  28.504  32.066  1.00  0.00     0.009 A 
ATOM     77  C   UNL A   1      45.223  27.437  33.748  1.00  0.00     0.009 A 
ATOM     78  C   UNL A   1      47.695  27.756  32.492  1.00  0.00     0.001 A 
ATOM     79  C   UNL A   1      46.331  26.713  34.192  1.00  0.00     0.001 A 
ATOM     80  C   UNL A   1      47.562  26.864  33.556  1.00  0.00     0.000 A 
ENDBRANCH  62  75
ENDBRANCH  36  37
ENDBRANCH  28  31
ENDBRANCH  26  27
ENDBRANCH  25  26
ENDBRANCH   1  25
TORSDOF 13
ENDMDL
