MODEL 1
REMARK VINA RESULT:     -12.1      0.000      0.000
REMARK SMILES NS(=O)(=O)c1ccc(/N=C/c2ccc(O)c(C(=O)NCCCCNC(=O)c3ccc(-c4c5nc(c(-c6ccccc6)c6ccc([nH]6)c(-c6ccccc6)c6nc(c(-c7ccccc7)c7ccc4[nH]7)C=C6)C=C5)cc3)c2)cc1
REMARK SMILES IDX 20 1 19 2 17 3 18 4 16 6 11 7 12 8 75 9 13 10 14 11 10 12
REMARK SMILES IDX 9 13 8 14 5 15 6 16 77 17 7 18 76 19 2 20 3 21 4 22 1 23
REMARK SMILES IDX 15 26 21 28 22 29 23 30 24 31 25 32 26 34 27 35 28 36 74 37
REMARK SMILES IDX 29 38 73 39 30 40 31 41 32 42 67 43 33 44 72 45 66 46 68 47
REMARK SMILES IDX 34 48 71 49 65 50 64 51 35 53 57 54 42 55 56 56 43 57 46 58
REMARK SMILES IDX 55 59 69 60 44 61 45 62 54 64 70 65 47 66 36 67 37 68 41 69
REMARK SMILES IDX 38 70 40 71 39 72 58 73 59 74 63 75 60 76 62 77 61 78 48 79
REMARK SMILES IDX 49 80 53 81 50 82 52 83 51 84
REMARK H PARENT 19 5 1 24 1 25 15 27 24 33 68 52 46 63
REMARK Flexibility Score: inf
ROOT
ATOM      1  C   UNL A   1      36.839  22.280  25.420  1.00  0.00     0.116 C 
ENDROOT
BRANCH   1   2
ATOM      2  N   UNL A   1      35.918  21.951  26.501  1.00  0.00    -0.352 N 
ATOM      3  C   UNL A   1      34.582  21.610  26.473  1.00  0.00     0.255 C 
ATOM      4  O   UNL A   1      33.984  21.431  27.536  1.00  0.00    -0.269 OA
ATOM      5  H   UNL A   1      36.317  21.977  27.401  1.00  0.00     0.163 HD
BRANCH   3   6
ATOM      6  C   UNL A   1      33.802  21.531  25.212  1.00  0.00     0.082 A 
ATOM      7  C   UNL A   1      32.371  22.580  23.569  1.00  0.00    -0.006 A 
ATOM      8  C   UNL A   1      31.992  21.337  23.065  1.00  0.00     0.013 A 
ATOM      9  C   UNL A   1      33.347  22.675  24.564  1.00  0.00     0.027 A 
ATOM     10  C   UNL A   1      32.568  20.183  23.604  1.00  0.00     0.047 A 
ATOM     11  C   UNL A   1      33.452  20.280  24.682  1.00  0.00     0.128 A 
BRANCH   7  12
ATOM     12  C   UNL A   1      31.612  23.799  23.215  1.00  0.00     0.119 C 
ATOM     13  N   UNL A   1      31.917  24.916  23.795  1.00  0.00    -0.256 NA
BRANCH  13  14
ATOM     14  C   UNL A   1      31.142  26.062  23.599  1.00  0.00     0.063 A 
ATOM     15  C   UNL A   1      29.430  28.203  23.028  1.00  0.00     0.082 A 
ATOM     16  C   UNL A   1      28.917  27.048  23.616  1.00  0.00     0.024 A 
ATOM     17  C   UNL A   1      30.788  28.300  22.717  1.00  0.00     0.024 A 
ATOM     18  C   UNL A   1      29.776  25.981  23.891  1.00  0.00     0.030 A 
ATOM     19  C   UNL A   1      31.637  27.225  22.997  1.00  0.00     0.030 A 
BRANCH  15  20
ATOM     20  S   UNL A   1      28.347  29.553  22.673  1.00  0.00     0.238 S 
ATOM     21  O   UNL A   1      28.260  29.724  21.238  1.00  0.00    -0.207 OA
ATOM     22  O   UNL A   1      28.645  30.635  23.576  1.00  0.00    -0.207 OA
BRANCH  20  23
ATOM     23  N   UNL A   1      26.838  28.964  23.127  1.00  0.00    -0.225 NA
ATOM     24  H   UNL A   1      26.837  28.768  24.128  1.00  0.00     0.137 HD
ATOM     25  H   UNL A   1      26.639  28.107  22.612  1.00  0.00     0.137 HD
ENDBRANCH  20  23
ENDBRANCH  15  20
ENDBRANCH  13  14
ENDBRANCH   7  12
BRANCH  11  26
ATOM     26  O   UNL A   1      33.924  19.100  25.190  1.00  0.00    -0.507 OA
ATOM     27  H   UNL A   1      33.536  18.288  24.927  1.00  0.00     0.293 HD
ENDBRANCH  11  26
ENDBRANCH   3   6
ENDBRANCH   1   2
BRANCH   1  28
ATOM     28  C   UNL A   1      37.070  21.161  24.412  1.00  0.00     0.023 C 
BRANCH  28  29
ATOM     29  C   UNL A   1      37.801  19.925  24.916  1.00  0.00     0.023 C 
BRANCH  29  30
ATOM     30  C   UNL A   1      38.967  20.170  25.865  1.00  0.00     0.116 C 
BRANCH  30  31
ATOM     31  N   UNL A   1      39.993  19.139  25.829  1.00  0.00    -0.352 N 
ATOM     32  C   UNL A   1      41.348  19.234  26.048  1.00  0.00     0.251 C 
ATOM     33  H   UNL A   1      39.668  18.235  25.615  1.00  0.00     0.163 HD
ATOM     34  O   UNL A   1      42.063  18.244  25.921  1.00  0.00    -0.269 OA
BRANCH  32  35
ATOM     35  C   UNL A   1      41.958  20.537  26.390  1.00  0.00     0.039 A 
ATOM     36  C   UNL A   1      42.313  21.404  25.353  1.00  0.00     0.014 A 
ATOM     37  C   UNL A   1      42.157  20.919  27.719  1.00  0.00     0.014 A 
ATOM     38  C   UNL A   1      42.776  22.688  25.648  1.00  0.00     0.010 A 
ATOM     39  C   UNL A   1      42.541  22.225  28.012  1.00  0.00     0.010 A 
ATOM     40  C   UNL A   1      42.847  23.126  26.981  1.00  0.00    -0.014 A 
BRANCH  40  41
ATOM     41  C   UNL A   1      43.220  24.524  27.316  1.00  0.00     0.031 A 
ATOM     42  C   UNL A   1      44.658  24.958  27.267  1.00  0.00     0.074 A 
ATOM     43  C   UNL A   1      42.274  25.383  27.745  1.00  0.00     0.049 A 
ATOM     44  N   UNL A   1      45.185  26.110  27.597  1.00  0.00    -0.248 NA
ATOM     45  C   UNL A   1      45.638  23.956  26.817  1.00  0.00     0.031 C 
ATOM     46  C   UNL A   1      40.849  25.077  27.890  1.00  0.00     0.029 A 
ATOM     47  N   UNL A   1      42.374  26.692  28.149  1.00  0.00    -0.354 N 
ATOM     48  C   UNL A   1      46.555  25.963  27.420  1.00  0.00     0.074 A 
ATOM     49  C   UNL A   1      46.782  24.597  26.997  1.00  0.00     0.031 C 
ATOM     50  C   UNL A   1      40.206  26.173  28.325  1.00  0.00     0.029 A 
ATOM     51  C   UNL A   1      41.174  27.246  28.525  1.00  0.00     0.049 A 
ATOM     52  H   UNL A   1      43.225  27.186  28.168  1.00  0.00     0.167 HD
ATOM     53  C   UNL A   1      47.536  26.883  27.577  1.00  0.00     0.031 A 
ATOM     54  C   UNL A   1      40.885  28.479  28.981  1.00  0.00     0.031 A 
ATOM     55  C   UNL A   1      47.312  28.247  27.974  1.00  0.00     0.049 A 
ATOM     56  C   UNL A   1      41.987  29.488  29.132  1.00  0.00     0.074 A 
ATOM     57  C   UNL A   1      48.234  29.273  28.092  1.00  0.00     0.029 A 
ATOM     58  N   UNL A   1      46.077  28.775  28.318  1.00  0.00    -0.354 N 
ATOM     59  N   UNL A   1      43.268  29.352  28.890  1.00  0.00    -0.248 NA
ATOM     60  C   UNL A   1      41.601  30.824  29.608  1.00  0.00     0.031 C 
ATOM     61  C   UNL A   1      47.562  30.412  28.548  1.00  0.00     0.029 A 
ATOM     62  C   UNL A   1      46.217  30.107  28.668  1.00  0.00     0.049 A 
ATOM     63  H   UNL A   1      45.229  28.276  28.315  1.00  0.00     0.167 HD
ATOM     64  C   UNL A   1      43.836  30.590  29.160  1.00  0.00     0.074 A 
ATOM     65  C   UNL A   1      42.758  31.468  29.569  1.00  0.00     0.031 C 
ATOM     66  C   UNL A   1      45.135  30.966  29.074  1.00  0.00     0.031 A 
BRANCH  53  67
ATOM     67  C   UNL A   1      48.947  26.435  27.320  1.00  0.00    -0.014 A 
ATOM     68  C   UNL A   1      49.496  26.466  26.028  1.00  0.00     0.009 A 
ATOM     69  C   UNL A   1      49.746  25.997  28.387  1.00  0.00     0.009 A 
ATOM     70  C   UNL A   1      50.803  26.030  25.804  1.00  0.00     0.001 A 
ATOM     71  C   UNL A   1      51.062  25.587  28.165  1.00  0.00     0.001 A 
ATOM     72  C   UNL A   1      51.586  25.594  26.872  1.00  0.00     0.000 A 
ENDBRANCH  53  67
BRANCH  54  73
ATOM     73  C   UNL A   1      39.481  28.837  29.310  1.00  0.00    -0.014 A 
ATOM     74  C   UNL A   1      38.976  28.613  30.600  1.00  0.00     0.009 A 
ATOM     75  C   UNL A   1      38.640  29.402  28.339  1.00  0.00     0.009 A 
ATOM     76  C   UNL A   1      37.650  28.927  30.906  1.00  0.00     0.001 A 
ATOM     77  C   UNL A   1      37.322  29.739  28.656  1.00  0.00     0.001 A 
ATOM     78  C   UNL A   1      36.825  29.494  29.935  1.00  0.00     0.000 A 
ENDBRANCH  54  73
BRANCH  66  79
ATOM     79  C   UNL A   1      45.457  32.396  29.400  1.00  0.00    -0.014 A 
ATOM     80  C   UNL A   1      45.393  33.398  28.420  1.00  0.00     0.009 A 
ATOM     81  C   UNL A   1      45.790  32.751  30.717  1.00  0.00     0.009 A 
ATOM     82  C   UNL A   1      45.686  34.723  28.747  1.00  0.00     0.001 A 
ATOM     83  C   UNL A   1      46.057  34.080  31.046  1.00  0.00     0.001 A 
ATOM     84  C   UNL A   1      46.013  35.064  30.058  1.00  0.00     0.000 A 
ENDBRANCH  66  79
ENDBRANCH  40  41
ENDBRANCH  32  35
ENDBRANCH  30  31
ENDBRANCH  29  30
ENDBRANCH  28  29
ENDBRANCH   1  28
TORSDOF 16
ENDMDL
MODEL 2
REMARK VINA RESULT:     -11.9      5.101      9.984
REMARK SMILES NS(=O)(=O)c1ccc(/N=C/c2ccc(O)c(C(=O)NCCCCNC(=O)c3ccc(-c4c5nc(c(-c6ccccc6)c6ccc([nH]6)c(-c6ccccc6)c6nc(c(-c7ccccc7)c7ccc4[nH]7)C=C6)C=C5)cc3)c2)cc1
REMARK SMILES IDX 20 1 19 2 17 3 18 4 16 6 11 7 12 8 75 9 13 10 14 11 10 12
REMARK SMILES IDX 9 13 8 14 5 15 6 16 77 17 7 18 76 19 2 20 3 21 4 22 1 23
REMARK SMILES IDX 15 26 21 28 22 29 23 30 24 31 25 32 26 34 27 35 28 36 74 37
REMARK SMILES IDX 29 38 73 39 30 40 31 41 32 42 67 43 33 44 72 45 66 46 68 47
REMARK SMILES IDX 34 48 71 49 65 50 64 51 35 53 57 54 42 55 56 56 43 57 46 58
REMARK SMILES IDX 55 59 69 60 44 61 45 62 54 64 70 65 47 66 36 67 37 68 41 69
REMARK SMILES IDX 38 70 40 71 39 72 58 73 59 74 63 75 60 76 62 77 61 78 48 79
REMARK SMILES IDX 49 80 53 81 50 82 52 83 51 84
REMARK H PARENT 19 5 1 24 1 25 15 27 24 33 68 52 46 63
REMARK Flexibility Score: inf
ROOT
ATOM      1  C   UNL A   1      33.099  29.438  26.623  1.00  0.00     0.116 C 
ENDROOT
BRANCH   1   2
ATOM      2  N   UNL A   1      33.523  29.534  25.231  1.00  0.00    -0.352 N 
ATOM      3  C   UNL A   1      32.937  29.058  24.077  1.00  0.00     0.255 C 
ATOM      4  O   UNL A   1      33.519  29.208  23.001  1.00  0.00    -0.269 OA
ATOM      5  H   UNL A   1      34.369  30.019  25.093  1.00  0.00     0.163 HD
BRANCH   3   6
ATOM      6  C   UNL A   1      31.666  28.291  24.081  1.00  0.00     0.082 A 
ATOM      7  C   UNL A   1      30.497  26.180  24.250  1.00  0.00    -0.006 A 
ATOM      8  C   UNL A   1      29.347  26.742  23.698  1.00  0.00     0.013 A 
ATOM      9  C   UNL A   1      31.610  26.977  24.535  1.00  0.00     0.027 A 
ATOM     10  C   UNL A   1      29.340  28.104  23.388  1.00  0.00     0.047 A 
ATOM     11  C   UNL A   1      30.498  28.868  23.561  1.00  0.00     0.128 A 
BRANCH   7  12
ATOM     12  C   UNL A   1      30.642  24.712  24.356  1.00  0.00     0.119 C 
ATOM     13  N   UNL A   1      31.744  24.163  23.956  1.00  0.00    -0.256 NA
BRANCH  13  14
ATOM     14  C   UNL A   1      31.876  22.772  23.906  1.00  0.00     0.063 A 
ATOM     15  C   UNL A   1      32.398  20.021  23.924  1.00  0.00     0.082 A 
ATOM     16  C   UNL A   1      32.363  20.724  25.128  1.00  0.00     0.024 A 
ATOM     17  C   UNL A   1      32.180  20.677  22.710  1.00  0.00     0.024 A 
ATOM     18  C   UNL A   1      32.110  22.097  25.110  1.00  0.00     0.030 A 
ATOM     19  C   UNL A   1      31.928  22.053  22.707  1.00  0.00     0.030 A 
BRANCH  15  20
ATOM     20  S   UNL A   1      32.723  18.284  23.939  1.00  0.00     0.238 S 
ATOM     21  O   UNL A   1      31.833  17.646  24.886  1.00  0.00    -0.207 OA
ATOM     22  O   UNL A   1      34.149  18.081  23.943  1.00  0.00    -0.207 OA
BRANCH  20  23
ATOM     23  N   UNL A   1      32.179  17.779  22.430  1.00  0.00    -0.225 NA
ATOM     24  H   UNL A   1      32.953  17.362  21.913  1.00  0.00     0.137 HD
ATOM     25  H   UNL A   1      31.817  18.581  21.913  1.00  0.00     0.137 HD
ENDBRANCH  20  23
ENDBRANCH  15  20
ENDBRANCH  13  14
ENDBRANCH   7  12
BRANCH  11  26
ATOM     26  O   UNL A   1      30.426  30.179  23.176  1.00  0.00    -0.507 OA
ATOM     27  H   UNL A   1      29.736  30.463  22.607  1.00  0.00     0.293 HD
ENDBRANCH  11  26
ENDBRANCH   3   6
ENDBRANCH   1   2
BRANCH   1  28
ATOM     28  C   UNL A   1      31.794  30.156  26.945  1.00  0.00     0.023 C 
BRANCH  28  29
ATOM     29  C   UNL A   1      31.731  31.643  26.624  1.00  0.00     0.023 C 
BRANCH  29  30
ATOM     30  C   UNL A   1      32.846  32.506  27.201  1.00  0.00     0.116 C 
BRANCH  30  31
ATOM     31  N   UNL A   1      32.428  33.847  27.578  1.00  0.00    -0.352 N 
ATOM     32  C   UNL A   1      32.980  34.721  28.486  1.00  0.00     0.251 C 
ATOM     33  H   UNL A   1      31.628  34.181  27.113  1.00  0.00     0.163 HD
ATOM     34  O   UNL A   1      32.443  35.804  28.702  1.00  0.00    -0.269 OA
BRANCH  32  35
ATOM     35  C   UNL A   1      34.193  34.343  29.243  1.00  0.00     0.039 A 
ATOM     36  C   UNL A   1      34.041  33.759  30.504  1.00  0.00     0.014 A 
ATOM     37  C   UNL A   1      35.470  34.533  28.710  1.00  0.00     0.014 A 
ATOM     38  C   UNL A   1      35.162  33.280  31.188  1.00  0.00     0.010 A 
ATOM     39  C   UNL A   1      36.576  33.983  29.353  1.00  0.00     0.010 A 
ATOM     40  C   UNL A   1      36.433  33.344  30.594  1.00  0.00    -0.014 A 
BRANCH  40  41
ATOM     41  C   UNL A   1      37.621  32.735  31.245  1.00  0.00     0.031 A 
ATOM     42  C   UNL A   1      38.296  31.542  30.630  1.00  0.00     0.074 A 
ATOM     43  C   UNL A   1      38.044  33.206  32.436  1.00  0.00     0.049 A 
ATOM     44  N   UNL A   1      39.294  30.829  31.088  1.00  0.00    -0.248 NA
ATOM     45  C   UNL A   1      37.759  31.067  29.344  1.00  0.00     0.031 C 
ATOM     46  C   UNL A   1      37.447  34.324  33.170  1.00  0.00     0.029 A 
ATOM     47  N   UNL A   1      39.073  32.790  33.245  1.00  0.00    -0.354 N 
ATOM     48  C   UNL A   1      39.486  29.811  30.164  1.00  0.00     0.074 A 
ATOM     49  C   UNL A   1      38.474  29.971  29.141  1.00  0.00     0.031 C 
ATOM     50  C   UNL A   1      38.136  34.522  34.306  1.00  0.00     0.029 A 
ATOM     51  C   UNL A   1      39.197  33.525  34.400  1.00  0.00     0.049 A 
ATOM     52  H   UNL A   1      39.666  32.038  33.019  1.00  0.00     0.167 HD
ATOM     53  C   UNL A   1      40.429  28.840  30.153  1.00  0.00     0.031 A 
ATOM     54  C   UNL A   1      40.065  33.408  35.422  1.00  0.00     0.031 A 
ATOM     55  C   UNL A   1      41.451  28.691  31.154  1.00  0.00     0.049 A 
ATOM     56  C   UNL A   1      41.113  32.332  35.381  1.00  0.00     0.074 A 
ATOM     57  C   UNL A   1      42.495  27.782  31.193  1.00  0.00     0.029 A 
ATOM     58  N   UNL A   1      41.558  29.473  32.294  1.00  0.00    -0.354 N 
ATOM     59  N   UNL A   1      41.325  31.422  34.462  1.00  0.00    -0.248 NA
ATOM     60  C   UNL A   1      42.048  32.276  36.513  1.00  0.00     0.031 C 
ATOM     61  C   UNL A   1      43.208  27.988  32.378  1.00  0.00     0.029 A 
ATOM     62  C   UNL A   1      42.638  29.055  33.052  1.00  0.00     0.049 A 
ATOM     63  H   UNL A   1      40.955  30.215  32.528  1.00  0.00     0.167 HD
ATOM     64  C   UNL A   1      42.432  30.702  34.892  1.00  0.00     0.074 A 
ATOM     65  C   UNL A   1      42.855  31.291  36.147  1.00  0.00     0.031 C 
ATOM     66  C   UNL A   1      43.044  29.649  34.299  1.00  0.00     0.031 A 
BRANCH  53  67
ATOM     67  C   UNL A   1      40.393  27.856  29.017  1.00  0.00    -0.014 A 
ATOM     68  C   UNL A   1      41.099  28.093  27.828  1.00  0.00     0.009 A 
ATOM     69  C   UNL A   1      39.659  26.668  29.147  1.00  0.00     0.009 A 
ATOM     70  C   UNL A   1      41.040  27.177  26.776  1.00  0.00     0.001 A 
ATOM     71  C   UNL A   1      39.623  25.741  28.104  1.00  0.00     0.001 A 
ATOM     72  C   UNL A   1      40.305  26.000  26.915  1.00  0.00     0.000 A 
ENDBRANCH  53  67
BRANCH  54  73
ATOM     73  C   UNL A   1      39.994  34.352  36.566  1.00  0.00    -0.014 A 
ATOM     74  C   UNL A   1      40.625  35.604  36.491  1.00  0.00     0.009 A 
ATOM     75  C   UNL A   1      39.300  34.009  37.737  1.00  0.00     0.009 A 
ATOM     76  C   UNL A   1      40.580  36.484  37.574  1.00  0.00     0.001 A 
ATOM     77  C   UNL A   1      39.236  34.903  38.808  1.00  0.00     0.001 A 
ATOM     78  C   UNL A   1      39.882  36.135  38.730  1.00  0.00     0.000 A 
ENDBRANCH  54  73
BRANCH  66  79
ATOM     79  C   UNL A   1      44.255  29.085  34.985  1.00  0.00    -0.014 A 
ATOM     80  C   UNL A   1      44.147  28.023  35.895  1.00  0.00     0.009 A 
ATOM     81  C   UNL A   1      45.527  29.599  34.684  1.00  0.00     0.009 A 
ATOM     82  C   UNL A   1      45.286  27.506  36.513  1.00  0.00     0.001 A 
ATOM     83  C   UNL A   1      46.666  29.063  35.285  1.00  0.00     0.001 A 
ATOM     84  C   UNL A   1      46.544  28.023  36.206  1.00  0.00     0.000 A 
ENDBRANCH  66  79
ENDBRANCH  40  41
ENDBRANCH  32  35
ENDBRANCH  30  31
ENDBRANCH  29  30
ENDBRANCH  28  29
ENDBRANCH   1  28
TORSDOF 16
ENDMDL
MODEL 3
REMARK VINA RESULT:     -11.9      5.101     10.621
REMARK SMILES NS(=O)(=O)c1ccc(/N=C/c2ccc(O)c(C(=O)NCCCCNC(=O)c3ccc(-c4c5nc(c(-c6ccccc6)c6ccc([nH]6)c(-c6ccccc6)c6nc(c(-c7ccccc7)c7ccc4[nH]7)C=C6)C=C5)cc3)c2)cc1
REMARK SMILES IDX 20 1 19 2 17 3 18 4 16 6 11 7 12 8 75 9 13 10 14 11 10 12
REMARK SMILES IDX 9 13 8 14 5 15 6 16 77 17 7 18 76 19 2 20 3 21 4 22 1 23
REMARK SMILES IDX 15 26 21 28 22 29 23 30 24 31 25 32 26 34 27 35 28 36 74 37
REMARK SMILES IDX 29 38 73 39 30 40 31 41 32 42 67 43 33 44 72 45 66 46 68 47
REMARK SMILES IDX 34 48 71 49 65 50 64 51 35 53 57 54 42 55 56 56 43 57 46 58
REMARK SMILES IDX 55 59 69 60 44 61 45 62 54 64 70 65 47 66 36 67 37 68 41 69
REMARK SMILES IDX 38 70 40 71 39 72 58 73 59 74 63 75 60 76 62 77 61 78 48 79
REMARK SMILES IDX 49 80 53 81 50 82 52 83 51 84
REMARK H PARENT 19 5 1 24 1 25 15 27 24 33 68 52 46 63
REMARK Flexibility Score: inf
ROOT
ATOM      1  C   UNL A   1      32.755  29.902  26.422  1.00  0.00     0.116 C 
ENDROOT
BRANCH   1   2
ATOM      2  N   UNL A   1      33.290  29.780  25.072  1.00  0.00    -0.352 N 
ATOM      3  C   UNL A   1      32.824  29.081  23.978  1.00  0.00     0.255 C 
ATOM      4  O   UNL A   1      33.487  29.076  22.940  1.00  0.00    -0.269 OA
ATOM      5  H   UNL A   1      34.124  30.280  24.914  1.00  0.00     0.163 HD
BRANCH   3   6
ATOM      6  C   UNL A   1      31.590  28.256  24.021  1.00  0.00     0.082 A 
ATOM      7  C   UNL A   1      30.527  26.088  24.157  1.00  0.00    -0.006 A 
ATOM      8  C   UNL A   1      29.321  26.620  23.703  1.00  0.00     0.013 A 
ATOM      9  C   UNL A   1      31.619  26.921  24.413  1.00  0.00     0.027 A 
ATOM     10  C   UNL A   1      29.235  27.994  23.461  1.00  0.00     0.047 A 
ATOM     11  C   UNL A   1      30.368  28.801  23.601  1.00  0.00     0.128 A 
BRANCH   7  12
ATOM     12  C   UNL A   1      30.742  24.625  24.183  1.00  0.00     0.119 C 
ATOM     13  N   UNL A   1      31.908  24.171  24.516  1.00  0.00    -0.256 NA
BRANCH  13  14
ATOM     14  C   UNL A   1      32.201  22.807  24.421  1.00  0.00     0.063 A 
ATOM     15  C   UNL A   1      32.528  20.043  24.119  1.00  0.00     0.082 A 
ATOM     16  C   UNL A   1      32.306  20.837  22.995  1.00  0.00     0.024 A 
ATOM     17  C   UNL A   1      32.583  20.612  25.394  1.00  0.00     0.024 A 
ATOM     18  C   UNL A   1      32.137  22.215  23.155  1.00  0.00     0.030 A 
ATOM     19  C   UNL A   1      32.411  21.992  25.539  1.00  0.00     0.030 A 
BRANCH  15  20
ATOM     20  S   UNL A   1      32.738  18.299  23.924  1.00  0.00     0.238 S 
ATOM     21  O   UNL A   1      31.815  17.611  24.802  1.00  0.00    -0.207 OA
ATOM     22  O   UNL A   1      34.147  18.005  23.880  1.00  0.00    -0.207 OA
BRANCH  20  23
ATOM     23  N   UNL A   1      32.148  18.013  22.374  1.00  0.00    -0.225 NA
ATOM     24  H   UNL A   1      31.635  18.832  22.050  1.00  0.00     0.137 HD
ATOM     25  H   UNL A   1      31.526  17.205  22.391  1.00  0.00     0.137 HD
ENDBRANCH  20  23
ENDBRANCH  15  20
ENDBRANCH  13  14
ENDBRANCH   7  12
BRANCH  11  26
ATOM     26  O   UNL A   1      30.214  30.125  23.285  1.00  0.00    -0.507 OA
ATOM     27  H   UNL A   1      29.647  30.666  23.800  1.00  0.00     0.293 HD
ENDBRANCH  11  26
ENDBRANCH   3   6
ENDBRANCH   1   2
BRANCH   1  28
ATOM     28  C   UNL A   1      31.403  30.598  26.515  1.00  0.00     0.023 C 
BRANCH  28  29
ATOM     29  C   UNL A   1      31.414  32.121  26.501  1.00  0.00     0.023 C 
BRANCH  29  30
ATOM     30  C   UNL A   1      32.556  32.795  27.251  1.00  0.00     0.116 C 
BRANCH  30  31
ATOM     31  N   UNL A   1      32.288  34.173  27.631  1.00  0.00    -0.352 N 
ATOM     32  C   UNL A   1      32.943  34.984  28.530  1.00  0.00     0.251 C 
ATOM     33  H   UNL A   1      31.520  34.590  27.178  1.00  0.00     0.163 HD
ATOM     34  O   UNL A   1      32.528  36.118  28.751  1.00  0.00    -0.269 OA
BRANCH  32  35
ATOM     35  C   UNL A   1      34.121  34.479  29.269  1.00  0.00     0.039 A 
ATOM     36  C   UNL A   1      33.921  33.870  30.511  1.00  0.00     0.014 A 
ATOM     37  C   UNL A   1      35.408  34.578  28.737  1.00  0.00     0.014 A 
ATOM     38  C   UNL A   1      34.998  33.275  31.174  1.00  0.00     0.010 A 
ATOM     39  C   UNL A   1      36.465  33.915  29.357  1.00  0.00     0.010 A 
ATOM     40  C   UNL A   1      36.269  33.250  30.577  1.00  0.00    -0.014 A 
BRANCH  40  41
ATOM     41  C   UNL A   1      37.402  32.522  31.204  1.00  0.00     0.031 A 
ATOM     42  C   UNL A   1      37.957  32.972  32.526  1.00  0.00     0.074 A 
ATOM     43  C   UNL A   1      37.986  31.502  30.543  1.00  0.00     0.049 A 
ATOM     44  N   UNL A   1      38.986  32.511  33.190  1.00  0.00    -0.248 NA
ATOM     45  C   UNL A   1      37.284  34.111  33.173  1.00  0.00     0.031 C 
ATOM     46  C   UNL A   1      37.582  30.996  29.229  1.00  0.00     0.029 A 
ATOM     47  N   UNL A   1      39.057  30.714  30.886  1.00  0.00    -0.354 N 
ATOM     48  C   UNL A   1      39.101  33.317  34.315  1.00  0.00     0.074 A 
ATOM     49  C   UNL A   1      38.064  34.324  34.222  1.00  0.00     0.031 C 
ATOM     50  C   UNL A   1      38.377  29.968  28.891  1.00  0.00     0.029 A 
ATOM     51  C   UNL A   1      39.368  29.764  29.942  1.00  0.00     0.049 A 
ATOM     52  H   UNL A   1      39.555  30.818  31.728  1.00  0.00     0.167 HD
ATOM     53  C   UNL A   1      39.976  33.222  35.343  1.00  0.00     0.031 A 
ATOM     54  C   UNL A   1      40.342  28.836  29.922  1.00  0.00     0.031 A 
ATOM     55  C   UNL A   1      40.992  32.210  35.452  1.00  0.00     0.049 A 
ATOM     56  C   UNL A   1      41.292  28.739  31.082  1.00  0.00     0.074 A 
ATOM     57  C   UNL A   1      41.880  31.987  36.490  1.00  0.00     0.029 A 
ATOM     58  N   UNL A   1      41.255  31.251  34.486  1.00  0.00    -0.354 N 
ATOM     59  N   UNL A   1      41.339  29.464  32.172  1.00  0.00    -0.248 NA
ATOM     60  C   UNL A   1      42.315  27.686  31.012  1.00  0.00     0.031 C 
ATOM     61  C   UNL A   1      42.709  30.918  36.134  1.00  0.00     0.029 A 
ATOM     62  C   UNL A   1      42.305  30.446  34.896  1.00  0.00     0.049 A 
ATOM     63  H   UNL A   1      40.768  31.156  33.637  1.00  0.00     0.167 HD
ATOM     64  C   UNL A   1      42.379  28.940  32.930  1.00  0.00     0.074 A 
ATOM     65  C   UNL A   1      42.925  27.827  32.180  1.00  0.00     0.031 C 
ATOM     66  C   UNL A   1      42.838  29.344  34.138  1.00  0.00     0.031 A 
BRANCH  53  67
ATOM     67  C   UNL A   1      39.870  34.249  36.435  1.00  0.00    -0.014 A 
ATOM     68  C   UNL A   1      40.563  35.468  36.356  1.00  0.00     0.009 A 
ATOM     69  C   UNL A   1      39.051  34.004  37.548  1.00  0.00     0.009 A 
ATOM     70  C   UNL A   1      40.468  36.403  37.387  1.00  0.00     0.001 A 
ATOM     71  C   UNL A   1      38.937  34.953  38.565  1.00  0.00     0.001 A 
ATOM     72  C   UNL A   1      39.653  36.147  38.489  1.00  0.00     0.000 A 
ENDBRANCH  53  67
BRANCH  54  73
ATOM     73  C   UNL A   1      40.457  27.906  28.770  1.00  0.00    -0.014 A 
ATOM     74  C   UNL A   1      41.212  28.265  27.642  1.00  0.00     0.009 A 
ATOM     75  C   UNL A   1      39.815  26.659  28.789  1.00  0.00     0.009 A 
ATOM     76  C   UNL A   1      41.303  27.402  26.548  1.00  0.00     0.001 A 
ATOM     77  C   UNL A   1      39.929  25.787  27.703  1.00  0.00     0.001 A 
ATOM     78  C   UNL A   1      40.665  26.162  26.581  1.00  0.00     0.000 A 
ENDBRANCH  54  73
BRANCH  66  79
ATOM     79  C   UNL A   1      43.968  28.559  34.740  1.00  0.00    -0.014 A 
ATOM     80  C   UNL A   1      43.727  27.429  35.535  1.00  0.00     0.009 A 
ATOM     81  C   UNL A   1      45.295  28.935  34.471  1.00  0.00     0.009 A 
ATOM     82  C   UNL A   1      44.792  26.707  36.075  1.00  0.00     0.001 A 
ATOM     83  C   UNL A   1      46.357  28.195  34.992  1.00  0.00     0.001 A 
ATOM     84  C   UNL A   1      46.105  27.087  35.800  1.00  0.00     0.000 A 
ENDBRANCH  66  79
ENDBRANCH  40  41
ENDBRANCH  32  35
ENDBRANCH  30  31
ENDBRANCH  29  30
ENDBRANCH  28  29
ENDBRANCH   1  28
TORSDOF 16
ENDMDL
