MODEL 1
REMARK VINA RESULT:     -12.7      0.000      0.000
REMARK SMILES Cc1ccc(C(=O)c2cccc(C)c2C(=O)NCCCCNC(=O)c2ccc(-c3c4nc(c(-c5ccccc5)c5ccc([nH]5)c(-c5ccccc5)c5nc(c(-c6ccccc6)c6ccc3[nH]6)C=C5)C=C4)cc2)c(C)c1
REMARK SMILES IDX 19 1 18 2 17 3 15 4 16 5 14 7 8 8 9 9 10 10 12 11 11 12
REMARK SMILES IDX 13 13 6 14 7 15 5 16 1 17 2 18 3 19 75 20 4 21 73 22 74 23
REMARK SMILES IDX 20 24 21 25 22 26 23 27 24 29 25 30 26 31 72 32 27 33 71 34
REMARK SMILES IDX 28 35 29 36 30 37 65 38 31 39 70 40 64 41 66 42 32 43 69 44
REMARK SMILES IDX 63 45 62 46 33 48 55 49 40 50 54 51 41 52 44 53 53 54 67 55
REMARK SMILES IDX 42 56 43 57 52 59 68 60 45 61 34 62 35 63 39 64 36 65 38 66
REMARK SMILES IDX 37 67 56 68 57 69 61 70 58 71 60 72 59 73 46 74 47 75 51 76
REMARK SMILES IDX 48 77 50 78 49 79
REMARK H PARENT 17 6 22 28 66 47 44 58
REMARK Flexibility Score: inf
ROOT
ATOM      1  C   UNL A   1      32.465  30.357  27.207  1.00  0.00     0.023 C 
ENDROOT
BRANCH   1   2
ATOM      2  C   UNL A   1      31.900  30.349  25.786  1.00  0.00     0.116 C 
BRANCH   2   3
ATOM      3  N   UNL A   1      32.623  29.570  24.801  1.00  0.00    -0.352 N 
ATOM      4  C   UNL A   1      32.208  28.611  23.893  1.00  0.00     0.252 C 
ATOM      5  O   UNL A   1      33.039  28.271  23.050  1.00  0.00    -0.269 OA
ATOM      6  H   UNL A   1      33.589  29.757  24.773  1.00  0.00     0.163 HD
BRANCH   4   7
ATOM      7  C   UNL A   1      30.878  27.905  23.959  1.00  0.00     0.053 A 
ATOM      8  C   UNL A   1      30.630  26.794  24.788  1.00  0.00     0.036 A 
ATOM      9  C   UNL A   1      29.391  26.127  24.771  1.00  0.00     0.013 A 
ATOM     10  C   UNL A   1      28.369  26.570  23.944  1.00  0.00     0.001 A 
ATOM     11  C   UNL A   1      29.781  28.423  23.218  1.00  0.00    -0.038 A 
ATOM     12  C   UNL A   1      28.552  27.730  23.203  1.00  0.00     0.004 A 
ATOM     13  C   UNL A   1      29.824  29.758  22.517  1.00  0.00     0.045 C 
BRANCH   8  14
ATOM     14  C   UNL A   1      31.519  26.497  25.921  1.00  0.00     0.194 C 
ATOM     15  O   UNL A   1      31.237  27.088  26.959  1.00  0.00    -0.289 OA
BRANCH  14  16
ATOM     16  C   UNL A   1      32.641  25.495  25.849  1.00  0.00     0.025 A 
ATOM     17  C   UNL A   1      35.757  22.539  25.310  1.00  0.00     0.044 C 
ATOM     18  C   UNL A   1      34.707  23.587  25.532  1.00  0.00    -0.051 A 
ATOM     19  C   UNL A   1      34.976  24.942  25.366  1.00  0.00     0.004 A 
ATOM     20  C   UNL A   1      33.423  23.203  25.926  1.00  0.00     0.007 A 
ATOM     21  C   UNL A   1      33.952  25.886  25.514  1.00  0.00     0.013 A 
ATOM     22  C   UNL A   1      32.405  24.145  26.156  1.00  0.00    -0.040 A 
ATOM     23  C   UNL A   1      31.112  23.640  26.729  1.00  0.00     0.045 C 
ENDBRANCH  14  16
ENDBRANCH   8  14
ENDBRANCH   4   7
ENDBRANCH   2   3
ENDBRANCH   1   2
BRANCH   1  24
ATOM     24  C   UNL A   1      33.980  30.280  27.347  1.00  0.00     0.023 C 
BRANCH  24  25
ATOM     25  C   UNL A   1      34.694  31.592  27.665  1.00  0.00     0.116 C 
BRANCH  25  26
ATOM     26  N   UNL A   1      33.808  32.640  28.176  1.00  0.00    -0.352 N 
ATOM     27  C   UNL A   1      34.026  33.598  29.153  1.00  0.00     0.251 C 
ATOM     28  H   UNL A   1      32.916  32.668  27.760  1.00  0.00     0.163 HD
ATOM     29  O   UNL A   1      33.184  34.471  29.357  1.00  0.00    -0.269 OA
BRANCH  27  30
ATOM     30  C   UNL A   1      35.327  33.660  29.860  1.00  0.00     0.039 A 
ATOM     31  C   UNL A   1      36.426  34.199  29.181  1.00  0.00     0.014 A 
ATOM     32  C   UNL A   1      35.511  33.002  31.069  1.00  0.00     0.014 A 
ATOM     33  C   UNL A   1      37.708  33.813  29.556  1.00  0.00     0.010 A 
ATOM     34  C   UNL A   1      36.766  32.508  31.363  1.00  0.00     0.010 A 
ATOM     35  C   UNL A   1      37.851  32.847  30.548  1.00  0.00    -0.014 A 
BRANCH  35  36
ATOM     36  C   UNL A   1      39.032  32.000  30.656  1.00  0.00     0.031 A 
ATOM     37  C   UNL A   1      39.109  30.703  29.958  1.00  0.00     0.074 A 
ATOM     38  C   UNL A   1      40.107  32.488  31.315  1.00  0.00     0.049 A 
ATOM     39  N   UNL A   1      39.937  29.759  30.256  1.00  0.00    -0.248 NA
ATOM     40  C   UNL A   1      38.182  30.344  28.891  1.00  0.00     0.031 C 
ATOM     41  C   UNL A   1      41.489  32.026  31.248  1.00  0.00     0.029 A 
ATOM     42  N   UNL A   1      40.101  33.428  32.356  1.00  0.00    -0.354 N 
ATOM     43  C   UNL A   1      39.848  28.806  29.266  1.00  0.00     0.074 A 
ATOM     44  C   UNL A   1      38.684  29.173  28.493  1.00  0.00     0.031 C 
ATOM     45  C   UNL A   1      42.148  32.482  32.326  1.00  0.00     0.029 A 
ATOM     46  C   UNL A   1      41.157  33.074  33.215  1.00  0.00     0.049 A 
ATOM     47  H   UNL A   1      39.480  34.186  32.465  1.00  0.00     0.167 HD
ATOM     48  C   UNL A   1      40.848  27.893  29.115  1.00  0.00     0.031 A 
ATOM     49  C   UNL A   1      40.941  32.663  34.500  1.00  0.00     0.031 A 
ATOM     50  C   UNL A   1      41.858  28.015  30.163  1.00  0.00     0.049 A 
ATOM     51  C   UNL A   1      41.488  31.291  34.787  1.00  0.00     0.074 A 
ATOM     52  C   UNL A   1      43.095  28.639  30.199  1.00  0.00     0.029 A 
ATOM     53  N   UNL A   1      41.525  27.720  31.481  1.00  0.00    -0.354 N 
ATOM     54  N   UNL A   1      41.663  30.373  33.880  1.00  0.00    -0.248 NA
ATOM     55  C   UNL A   1      41.833  30.839  36.132  1.00  0.00     0.031 C 
ATOM     56  C   UNL A   1      43.468  28.791  31.560  1.00  0.00     0.029 A 
ATOM     57  C   UNL A   1      42.476  28.227  32.345  1.00  0.00     0.049 A 
ATOM     58  H   UNL A   1      40.724  27.220  31.759  1.00  0.00     0.167 HD
ATOM     59  C   UNL A   1      42.110  29.230  34.484  1.00  0.00     0.074 A 
ATOM     60  C   UNL A   1      42.210  29.572  35.891  1.00  0.00     0.031 C 
ATOM     61  C   UNL A   1      42.331  28.083  33.786  1.00  0.00     0.031 A 
BRANCH  48  62
ATOM     62  C   UNL A   1      41.064  27.111  27.838  1.00  0.00    -0.014 A 
ATOM     63  C   UNL A   1      40.912  25.711  27.847  1.00  0.00     0.009 A 
ATOM     64  C   UNL A   1      41.483  27.669  26.618  1.00  0.00     0.009 A 
ATOM     65  C   UNL A   1      41.263  24.914  26.748  1.00  0.00     0.001 A 
ATOM     66  C   UNL A   1      41.877  26.878  25.528  1.00  0.00     0.001 A 
ATOM     67  C   UNL A   1      41.778  25.497  25.598  1.00  0.00     0.000 A 
ENDBRANCH  48  62
BRANCH  49  68
ATOM     68  C   UNL A   1      39.701  33.179  35.144  1.00  0.00    -0.014 A 
ATOM     69  C   UNL A   1      38.489  32.501  34.953  1.00  0.00     0.009 A 
ATOM     70  C   UNL A   1      39.782  34.116  36.184  1.00  0.00     0.009 A 
ATOM     71  C   UNL A   1      37.450  32.618  35.885  1.00  0.00     0.001 A 
ATOM     72  C   UNL A   1      38.723  34.262  37.090  1.00  0.00     0.001 A 
ATOM     73  C   UNL A   1      37.582  33.473  36.971  1.00  0.00     0.000 A 
ENDBRANCH  49  68
BRANCH  61  74
ATOM     74  C   UNL A   1      42.496  26.727  34.413  1.00  0.00    -0.014 A 
ATOM     75  C   UNL A   1      41.514  26.122  35.212  1.00  0.00     0.009 A 
ATOM     76  C   UNL A   1      43.615  25.941  34.071  1.00  0.00     0.009 A 
ATOM     77  C   UNL A   1      41.668  24.817  35.694  1.00  0.00     0.001 A 
ATOM     78  C   UNL A   1      43.750  24.622  34.511  1.00  0.00     0.001 A 
ATOM     79  C   UNL A   1      42.781  24.064  35.335  1.00  0.00     0.000 A 
ENDBRANCH  61  74
ENDBRANCH  35  36
ENDBRANCH  27  30
ENDBRANCH  25  26
ENDBRANCH  24  25
ENDBRANCH   1  24
TORSDOF 13
ENDMDL
MODEL 2
REMARK VINA RESULT:     -12.4      4.139      9.368
REMARK SMILES Cc1ccc(C(=O)c2cccc(C)c2C(=O)NCCCCNC(=O)c2ccc(-c3c4nc(c(-c5ccccc5)c5ccc([nH]5)c(-c5ccccc5)c5nc(c(-c6ccccc6)c6ccc3[nH]6)C=C5)C=C4)cc2)c(C)c1
REMARK SMILES IDX 19 1 18 2 17 3 15 4 16 5 14 7 8 8 9 9 10 10 12 11 11 12
REMARK SMILES IDX 13 13 6 14 7 15 5 16 1 17 2 18 3 19 75 20 4 21 73 22 74 23
REMARK SMILES IDX 20 24 21 25 22 26 23 27 24 29 25 30 26 31 72 32 27 33 71 34
REMARK SMILES IDX 28 35 29 36 30 37 65 38 31 39 70 40 64 41 66 42 32 43 69 44
REMARK SMILES IDX 63 45 62 46 33 48 55 49 40 50 54 51 41 52 44 53 53 54 67 55
REMARK SMILES IDX 42 56 43 57 52 59 68 60 45 61 34 62 35 63 39 64 36 65 38 66
REMARK SMILES IDX 37 67 56 68 57 69 61 70 58 71 60 72 59 73 46 74 47 75 51 76
REMARK SMILES IDX 48 77 50 78 49 79
REMARK H PARENT 17 6 22 28 66 47 44 58
REMARK Flexibility Score: inf
ROOT
ATOM      1  C   UNL A   1      37.554  21.629  24.832  1.00  0.00     0.023 C 
ENDROOT
BRANCH   1   2
ATOM      2  C   UNL A   1      36.373  20.825  25.378  1.00  0.00     0.116 C 
BRANCH   2   3
ATOM      3  N   UNL A   1      35.368  21.561  26.117  1.00  0.00    -0.352 N 
ATOM      4  C   UNL A   1      34.027  21.801  25.871  1.00  0.00     0.252 C 
ATOM      5  O   UNL A   1      33.389  22.303  26.798  1.00  0.00    -0.269 OA
ATOM      6  H   UNL A   1      35.701  21.968  26.949  1.00  0.00     0.163 HD
BRANCH   4   7
ATOM      7  C   UNL A   1      33.364  21.592  24.534  1.00  0.00     0.053 A 
ATOM      8  C   UNL A   1      33.343  22.567  23.518  1.00  0.00     0.036 A 
ATOM      9  C   UNL A   1      32.658  22.353  22.308  1.00  0.00     0.013 A 
ATOM     10  C   UNL A   1      32.000  21.154  22.080  1.00  0.00     0.001 A 
ATOM     11  C   UNL A   1      32.797  20.324  24.231  1.00  0.00    -0.038 A 
ATOM     12  C   UNL A   1      32.101  20.135  23.018  1.00  0.00     0.004 A 
ATOM     13  C   UNL A   1      32.993  19.110  25.105  1.00  0.00     0.045 C 
BRANCH   8  14
ATOM     14  C   UNL A   1      34.294  23.689  23.544  1.00  0.00     0.194 C 
ATOM     15  O   UNL A   1      35.384  23.446  23.035  1.00  0.00    -0.289 OA
BRANCH  14  16
ATOM     16  C   UNL A   1      33.947  25.053  24.078  1.00  0.00     0.025 A 
ATOM     17  C   UNL A   1      32.619  28.850  25.679  1.00  0.00     0.044 C 
ATOM     18  C   UNL A   1      33.128  27.547  25.138  1.00  0.00    -0.051 A 
ATOM     19  C   UNL A   1      33.852  26.657  25.925  1.00  0.00     0.004 A 
ATOM     20  C   UNL A   1      32.881  27.212  23.804  1.00  0.00     0.007 A 
ATOM     21  C   UNL A   1      34.249  25.419  25.404  1.00  0.00     0.013 A 
ATOM     22  C   UNL A   1      33.343  26.008  23.244  1.00  0.00    -0.040 A 
ATOM     23  C   UNL A   1      33.163  25.819  21.764  1.00  0.00     0.045 C 
ENDBRANCH  14  16
ENDBRANCH   8  14
ENDBRANCH   4   7
ENDBRANCH   2   3
ENDBRANCH   1   2
BRANCH   1  24
ATOM     24  C   UNL A   1      38.082  22.758  25.708  1.00  0.00     0.023 C 
BRANCH  24  25
ATOM     25  C   UNL A   1      39.300  22.427  26.569  1.00  0.00     0.116 C 
BRANCH  25  26
ATOM     26  N   UNL A   1      40.008  21.214  26.153  1.00  0.00    -0.352 N 
ATOM     27  C   UNL A   1      41.353  20.890  26.237  1.00  0.00     0.251 C 
ATOM     28  H   UNL A   1      39.438  20.520  25.750  1.00  0.00     0.163 HD
ATOM     29  O   UNL A   1      41.732  19.761  25.932  1.00  0.00    -0.269 OA
BRANCH  27  30
ATOM     30  C   UNL A   1      42.317  21.853  26.819  1.00  0.00     0.039 A 
ATOM     31  C   UNL A   1      42.478  21.873  28.209  1.00  0.00     0.014 A 
ATOM     32  C   UNL A   1      42.877  22.858  26.040  1.00  0.00     0.014 A 
ATOM     33  C   UNL A   1      42.924  23.038  28.822  1.00  0.00     0.010 A 
ATOM     34  C   UNL A   1      43.190  24.058  26.644  1.00  0.00     0.010 A 
ATOM     35  C   UNL A   1      43.126  24.169  28.037  1.00  0.00    -0.014 A 
BRANCH  35  36
ATOM     36  C   UNL A   1      43.069  25.522  28.577  1.00  0.00     0.031 A 
ATOM     37  C   UNL A   1      41.826  26.313  28.525  1.00  0.00     0.074 A 
ATOM     38  C   UNL A   1      44.152  25.989  29.238  1.00  0.00     0.049 A 
ATOM     39  N   UNL A   1      41.768  27.595  28.659  1.00  0.00    -0.248 NA
ATOM     40  C   UNL A   1      40.533  25.702  28.238  1.00  0.00     0.031 C 
ATOM     41  C   UNL A   1      44.223  27.113  30.166  1.00  0.00     0.029 A 
ATOM     42  N   UNL A   1      45.488  25.617  29.034  1.00  0.00    -0.354 N 
ATOM     43  C   UNL A   1      40.438  27.939  28.758  1.00  0.00     0.074 A 
ATOM     44  C   UNL A   1      39.712  26.742  28.403  1.00  0.00     0.031 C 
ATOM     45  C   UNL A   1      45.504  27.500  30.276  1.00  0.00     0.029 A 
ATOM     46  C   UNL A   1      46.260  26.770  29.267  1.00  0.00     0.049 A 
ATOM     47  H   UNL A   1      45.821  24.726  28.779  1.00  0.00     0.167 HD
ATOM     48  C   UNL A   1      40.089  29.153  29.271  1.00  0.00     0.031 A 
ATOM     49  C   UNL A   1      46.988  27.368  28.277  1.00  0.00     0.031 A 
ATOM     50  C   UNL A   1      41.260  29.983  29.544  1.00  0.00     0.049 A 
ATOM     51  C   UNL A   1      46.609  28.805  28.044  1.00  0.00     0.074 A 
ATOM     52  C   UNL A   1      41.971  30.241  30.705  1.00  0.00     0.029 A 
ATOM     53  N   UNL A   1      42.046  30.437  28.490  1.00  0.00    -0.354 N 
ATOM     54  N   UNL A   1      45.436  29.302  28.315  1.00  0.00    -0.248 NA
ATOM     55  C   UNL A   1      47.515  29.777  27.439  1.00  0.00     0.031 C 
ATOM     56  C   UNL A   1      43.229  30.782  30.335  1.00  0.00     0.029 A 
ATOM     57  C   UNL A   1      43.267  30.885  28.955  1.00  0.00     0.049 A 
ATOM     58  H   UNL A   1      41.770  30.438  27.545  1.00  0.00     0.167 HD
ATOM     59  C   UNL A   1      45.406  30.612  27.922  1.00  0.00     0.074 A 
ATOM     60  C   UNL A   1      46.731  30.868  27.389  1.00  0.00     0.031 C 
ATOM     61  C   UNL A   1      44.284  31.375  28.037  1.00  0.00     0.031 A 
BRANCH  48  62
ATOM     62  C   UNL A   1      38.710  29.451  29.817  1.00  0.00    -0.014 A 
ATOM     63  C   UNL A   1      37.907  30.419  29.183  1.00  0.00     0.009 A 
ATOM     64  C   UNL A   1      38.169  28.879  30.981  1.00  0.00     0.009 A 
ATOM     65  C   UNL A   1      36.698  30.864  29.736  1.00  0.00     0.001 A 
ATOM     66  C   UNL A   1      36.982  29.347  31.564  1.00  0.00     0.001 A 
ATOM     67  C   UNL A   1      36.252  30.351  30.946  1.00  0.00     0.000 A 
ENDBRANCH  48  62
BRANCH  49  68
ATOM     68  C   UNL A   1      47.441  26.472  27.176  1.00  0.00    -0.014 A 
ATOM     69  C   UNL A   1      46.606  26.261  26.070  1.00  0.00     0.009 A 
ATOM     70  C   UNL A   1      48.791  26.111  27.070  1.00  0.00     0.009 A 
ATOM     71  C   UNL A   1      47.141  25.873  24.835  1.00  0.00     0.001 A 
ATOM     72  C   UNL A   1      49.315  25.681  25.843  1.00  0.00     0.001 A 
ATOM     73  C   UNL A   1      48.501  25.616  24.715  1.00  0.00     0.000 A 
ENDBRANCH  49  68
BRANCH  61  74
ATOM     74  C   UNL A   1      44.077  32.688  27.337  1.00  0.00    -0.014 A 
ATOM     75  C   UNL A   1      44.089  32.830  25.941  1.00  0.00     0.009 A 
ATOM     76  C   UNL A   1      43.698  33.818  28.090  1.00  0.00     0.009 A 
ATOM     77  C   UNL A   1      43.793  34.053  25.329  1.00  0.00     0.001 A 
ATOM     78  C   UNL A   1      43.357  35.028  27.481  1.00  0.00     0.001 A 
ATOM     79  C   UNL A   1      43.418  35.149  26.099  1.00  0.00     0.000 A 
ENDBRANCH  61  74
ENDBRANCH  35  36
ENDBRANCH  27  30
ENDBRANCH  25  26
ENDBRANCH  24  25
ENDBRANCH   1  24
TORSDOF 13
ENDMDL
MODEL 3
REMARK VINA RESULT:     -12.2      3.536      8.701
REMARK SMILES Cc1ccc(C(=O)c2cccc(C)c2C(=O)NCCCCNC(=O)c2ccc(-c3c4nc(c(-c5ccccc5)c5ccc([nH]5)c(-c5ccccc5)c5nc(c(-c6ccccc6)c6ccc3[nH]6)C=C5)C=C4)cc2)c(C)c1
REMARK SMILES IDX 19 1 18 2 17 3 15 4 16 5 14 7 8 8 9 9 10 10 12 11 11 12
REMARK SMILES IDX 13 13 6 14 7 15 5 16 1 17 2 18 3 19 75 20 4 21 73 22 74 23
REMARK SMILES IDX 20 24 21 25 22 26 23 27 24 29 25 30 26 31 72 32 27 33 71 34
REMARK SMILES IDX 28 35 29 36 30 37 65 38 31 39 70 40 64 41 66 42 32 43 69 44
REMARK SMILES IDX 63 45 62 46 33 48 55 49 40 50 54 51 41 52 44 53 53 54 67 55
REMARK SMILES IDX 42 56 43 57 52 59 68 60 45 61 34 62 35 63 39 64 36 65 38 66
REMARK SMILES IDX 37 67 56 68 57 69 61 70 58 71 60 72 59 73 46 74 47 75 51 76
REMARK SMILES IDX 48 77 50 78 49 79
REMARK H PARENT 17 6 22 28 66 47 44 58
REMARK Flexibility Score: inf
ROOT
ATOM      1  C   UNL A   1      37.751  20.194  24.951  1.00  0.00     0.023 C 
ENDROOT
BRANCH   1   2
ATOM      2  C   UNL A   1      36.884  21.402  24.596  1.00  0.00     0.116 C 
BRANCH   2   3
ATOM      3  N   UNL A   1      35.937  21.843  25.600  1.00  0.00    -0.352 N 
ATOM      4  C   UNL A   1      34.554  21.823  25.641  1.00  0.00     0.252 C 
ATOM      5  O   UNL A   1      34.042  22.094  26.729  1.00  0.00    -0.269 OA
ATOM      6  H   UNL A   1      36.356  22.231  26.402  1.00  0.00     0.163 HD
BRANCH   4   7
ATOM      7  C   UNL A   1      33.677  21.607  24.435  1.00  0.00     0.053 A 
ATOM      8  C   UNL A   1      33.399  22.613  23.489  1.00  0.00     0.036 A 
ATOM      9  C   UNL A   1      32.524  22.386  22.411  1.00  0.00     0.013 A 
ATOM     10  C   UNL A   1      31.927  21.145  22.244  1.00  0.00     0.001 A 
ATOM     11  C   UNL A   1      33.162  20.308  24.175  1.00  0.00    -0.038 A 
ATOM     12  C   UNL A   1      32.274  20.106  23.097  1.00  0.00     0.004 A 
ATOM     13  C   UNL A   1      33.604  19.084  24.938  1.00  0.00     0.045 C 
BRANCH   8  14
ATOM     14  C   UNL A   1      34.252  23.808  23.401  1.00  0.00     0.194 C 
ATOM     15  O   UNL A   1      35.288  23.649  22.764  1.00  0.00    -0.289 OA
BRANCH  14  16
ATOM     16  C   UNL A   1      33.861  25.145  23.974  1.00  0.00     0.025 A 
ATOM     17  C   UNL A   1      32.415  28.847  25.690  1.00  0.00     0.044 C 
ATOM     18  C   UNL A   1      32.964  27.578  25.108  1.00  0.00    -0.051 A 
ATOM     19  C   UNL A   1      33.739  26.700  25.859  1.00  0.00     0.004 A 
ATOM     20  C   UNL A   1      32.704  27.264  23.772  1.00  0.00     0.007 A 
ATOM     21  C   UNL A   1      34.175  25.492  25.302  1.00  0.00     0.013 A 
ATOM     22  C   UNL A   1      33.203  26.093  23.174  1.00  0.00    -0.040 A 
ATOM     23  C   UNL A   1      33.000  25.931  21.695  1.00  0.00     0.045 C 
ENDBRANCH  14  16
ENDBRANCH   8  14
ENDBRANCH   4   7
ENDBRANCH   2   3
ENDBRANCH   1   2
BRANCH   1  24
ATOM     24  C   UNL A   1      39.022  20.467  25.747  1.00  0.00     0.023 C 
BRANCH  24  25
ATOM     25  C   UNL A   1      39.303  21.930  26.083  1.00  0.00     0.116 C 
BRANCH  25  26
ATOM     26  N   UNL A   1      40.729  22.256  26.158  1.00  0.00    -0.352 N 
ATOM     27  C   UNL A   1      41.358  23.441  26.505  1.00  0.00     0.251 C 
ATOM     28  H   UNL A   1      41.336  21.517  25.924  1.00  0.00     0.163 HD
ATOM     29  O   UNL A   1      42.583  23.476  26.618  1.00  0.00    -0.269 OA
BRANCH  27  30
ATOM     30  C   UNL A   1      40.556  24.632  26.873  1.00  0.00     0.039 A 
ATOM     31  C   UNL A   1      40.713  25.798  26.115  1.00  0.00     0.014 A 
ATOM     32  C   UNL A   1      39.841  24.667  28.063  1.00  0.00     0.014 A 
ATOM     33  C   UNL A   1      40.424  27.026  26.698  1.00  0.00     0.010 A 
ATOM     34  C   UNL A   1      39.679  25.883  28.695  1.00  0.00     0.010 A 
ATOM     35  C   UNL A   1      40.056  27.059  28.039  1.00  0.00    -0.014 A 
BRANCH  35  36
ATOM     36  C   UNL A   1      40.243  28.237  28.878  1.00  0.00     0.031 A 
ATOM     37  C   UNL A   1      39.171  29.236  29.042  1.00  0.00     0.074 A 
ATOM     38  C   UNL A   1      41.382  28.329  29.601  1.00  0.00     0.049 A 
ATOM     39  N   UNL A   1      39.352  30.440  29.469  1.00  0.00    -0.248 NA
ATOM     40  C   UNL A   1      37.792  28.959  28.655  1.00  0.00     0.031 C 
ATOM     41  C   UNL A   1      41.645  29.174  30.760  1.00  0.00     0.029 A 
ATOM     42  N   UNL A   1      42.629  27.771  29.283  1.00  0.00    -0.354 N 
ATOM     43  C   UNL A   1      38.108  30.993  29.678  1.00  0.00     0.074 A 
ATOM     44  C   UNL A   1      37.177  30.067  29.076  1.00  0.00     0.031 C 
ATOM     45  C   UNL A   1      42.974  29.280  30.924  1.00  0.00     0.029 A 
ATOM     46  C   UNL A   1      43.598  28.675  29.755  1.00  0.00     0.049 A 
ATOM     47  H   UNL A   1      42.794  26.917  28.820  1.00  0.00     0.167 HD
ATOM     48  C   UNL A   1      37.983  32.099  30.466  1.00  0.00     0.031 A 
ATOM     49  C   UNL A   1      44.443  29.339  28.911  1.00  0.00     0.031 A 
ATOM     50  C   UNL A   1      39.283  32.611  30.893  1.00  0.00     0.049 A 
ATOM     51  C   UNL A   1      44.344  30.836  29.025  1.00  0.00     0.074 A 
ATOM     52  C   UNL A   1      40.008  32.456  32.064  1.00  0.00     0.029 A 
ATOM     53  N   UNL A   1      40.159  33.141  29.952  1.00  0.00    -0.354 N 
ATOM     54  N   UNL A   1      43.280  31.466  29.434  1.00  0.00    -0.248 NA
ATOM     55  C   UNL A   1      45.427  31.735  28.637  1.00  0.00     0.031 C 
ATOM     56  C   UNL A   1      41.352  32.823  31.796  1.00  0.00     0.029 A 
ATOM     57  C   UNL A   1      41.434  33.234  30.476  1.00  0.00     0.049 A 
ATOM     58  H   UNL A   1      39.906  33.412  29.040  1.00  0.00     0.167 HD
ATOM     59  C   UNL A   1      43.502  32.813  29.354  1.00  0.00     0.074 A 
ATOM     60  C   UNL A   1      44.862  32.934  28.860  1.00  0.00     0.031 C 
ATOM     61  C   UNL A   1      42.541  33.724  29.670  1.00  0.00     0.031 A 
BRANCH  48  62
ATOM     62  C   UNL A   1      36.675  32.514  31.102  1.00  0.00    -0.014 A 
ATOM     63  C   UNL A   1      35.778  33.324  30.379  1.00  0.00     0.009 A 
ATOM     64  C   UNL A   1      36.293  32.211  32.420  1.00  0.00     0.009 A 
ATOM     65  C   UNL A   1      34.636  33.884  30.968  1.00  0.00     0.001 A 
ATOM     66  C   UNL A   1      35.176  32.799  33.031  1.00  0.00     0.001 A 
ATOM     67  C   UNL A   1      34.352  33.647  32.306  1.00  0.00     0.000 A 
ENDBRANCH  48  62
BRANCH  49  68
ATOM     68  C   UNL A   1      44.741  28.654  27.622  1.00  0.00    -0.014 A 
ATOM     69  C   UNL A   1      45.723  27.655  27.581  1.00  0.00     0.009 A 
ATOM     70  C   UNL A   1      43.847  28.752  26.547  1.00  0.00     0.009 A 
ATOM     71  C   UNL A   1      45.699  26.668  26.588  1.00  0.00     0.001 A 
ATOM     72  C   UNL A   1      43.853  27.788  25.530  1.00  0.00     0.001 A 
ATOM     73  C   UNL A   1      44.742  26.717  25.582  1.00  0.00     0.000 A 
ENDBRANCH  49  68
BRANCH  61  74
ATOM     74  C   UNL A   1      42.597  35.179  29.297  1.00  0.00    -0.014 A 
ATOM     75  C   UNL A   1      43.383  36.121  29.979  1.00  0.00     0.009 A 
ATOM     76  C   UNL A   1      41.961  35.613  28.117  1.00  0.00     0.009 A 
ATOM     77  C   UNL A   1      43.482  37.445  29.537  1.00  0.00     0.001 A 
ATOM     78  C   UNL A   1      42.095  36.922  27.646  1.00  0.00     0.001 A 
ATOM     79  C   UNL A   1      42.846  37.843  28.366  1.00  0.00     0.000 A 
ENDBRANCH  61  74
ENDBRANCH  35  36
ENDBRANCH  27  30
ENDBRANCH  25  26
ENDBRANCH  24  25
ENDBRANCH   1  24
TORSDOF 13
ENDMDL
