MODEL 1
REMARK VINA RESULT:     -12.3      0.000      0.000
REMARK SMILES COc1cc2c(cc1OC)[C@H](C(=O)NCCCCNC(=O)c1ccc(-c3c4nc(c(-c5ccccc5)c5ccc([nH]5)c(-c5ccccc5)c5nc(c(-c6ccccc6)c6ccc3[nH]6)C=C5)C=C4)cc1)[C@H](c1cccc(Cl)c1)N(C)C2=O
REMARK SMILES IDX 17 1 16 2 15 3 14 4 12 5 13 6 11 8 3 9 4 10 8 11 5 12 7 13
REMARK SMILES IDX 6 14 80 15 78 16 81 17 70 18 79 19 2 20 1 21 9 22 10 23
REMARK SMILES IDX 71 24 72 25 77 26 73 27 75 28 74 29 76 30 18 31 19 32 20 33
REMARK SMILES IDX 21 35 22 36 23 37 69 38 24 39 68 40 25 41 26 42 27 43 62 44
REMARK SMILES IDX 28 45 67 46 61 47 63 48 29 49 66 50 60 51 59 52 30 54 52 55
REMARK SMILES IDX 37 56 51 57 38 58 41 59 50 60 64 61 39 62 40 63 49 65 65 66
REMARK SMILES IDX 42 67 31 68 32 69 36 70 33 71 35 72 34 73 53 74 54 75 58 76
REMARK SMILES IDX 55 77 57 78 56 79 43 80 44 81 48 82 45 83 47 84 46 85
REMARK H PARENT 14 7 19 34 63 53 41 64
REMARK Flexibility Score: inf
ROOT
ATOM      1  C   UNL A   1      39.075  21.224  25.603  1.00  0.00     0.023 C 
ENDROOT
BRANCH   1   2
ATOM      2  C   UNL A   1      39.088  22.582  26.311  1.00  0.00     0.023 C 
BRANCH   2   3
ATOM      3  C   UNL A   1      37.865  23.455  26.027  1.00  0.00     0.116 C 
BRANCH   3   4
ATOM      4  N   UNL A   1      37.543  23.422  24.613  1.00  0.00    -0.355 N 
ATOM      5  C   UNL A   1      36.328  23.330  24.003  1.00  0.00     0.230 C 
ATOM      6  O   UNL A   1      36.349  22.923  22.843  1.00  0.00    -0.274 OA
ATOM      7  H   UNL A   1      38.316  23.475  24.005  1.00  0.00     0.163 HD
BRANCH   5   8
ATOM      8  C   UNL A   1      35.057  23.619  24.786  1.00  0.00     0.136 C 
ATOM      9  C   UNL A   1      31.792  25.869  22.996  1.00  0.00     0.161 A 
ATOM     10  C   UNL A   1      31.707  25.344  24.293  1.00  0.00     0.064 A 
ATOM     11  C   UNL A   1      32.960  25.663  22.245  1.00  0.00     0.161 A 
ATOM     12  C   UNL A   1      32.781  24.632  24.844  1.00  0.00     0.048 A 
ATOM     13  C   UNL A   1      34.017  24.921  22.799  1.00  0.00     0.056 A 
ATOM     14  C   UNL A   1      33.954  24.415  24.101  1.00  0.00    -0.016 A 
ATOM     15  C   UNL A   1      32.642  24.032  26.209  1.00  0.00     0.254 C 
ATOM     16  N   UNL A   1      33.486  22.955  26.506  1.00  0.00    -0.333 N 
ATOM     17  O   UNL A   1      31.801  24.471  26.986  1.00  0.00    -0.269 OA
ATOM     18  C   UNL A   1      34.385  22.385  25.465  1.00  0.00     0.132 C 
ATOM     19  C   UNL A   1      33.362  22.288  27.788  1.00  0.00     0.147 C 
BRANCH   9  20
ATOM     20  O   UNL A   1      30.715  26.475  22.406  1.00  0.00    -0.493 OA
ATOM     21  C   UNL A   1      30.704  27.898  22.478  1.00  0.00     0.278 C 
ENDBRANCH   9  20
BRANCH  11  22
ATOM     22  O   UNL A   1      33.244  26.098  20.976  1.00  0.00    -0.493 OA
ATOM     23  C   UNL A   1      32.634  25.432  19.880  1.00  0.00     0.278 C 
ENDBRANCH  11  22
BRANCH  18  24
ATOM     24  C   UNL A   1      33.644  21.401  24.534  1.00  0.00    -0.023 A 
ATOM     25  C   UNL A   1      32.939  21.867  23.411  1.00  0.00     0.006 A 
ATOM     26  C   UNL A   1      33.625  20.010  24.755  1.00  0.00     0.026 A 
ATOM     27  C   UNL A   1      32.162  21.017  22.618  1.00  0.00     0.002 A 
ATOM     28  C   UNL A   1      32.867  19.155  23.950  1.00  0.00     0.041 A 
ATOM     29  C   UNL A   1      32.114  19.657  22.897  1.00  0.00     0.020 A 
ATOM     30  Cl  UNL A   1      32.861  17.465  24.272  1.00  0.00    -0.084 Cl
ENDBRANCH  18  24
ENDBRANCH   5   8
ENDBRANCH   3   4
ENDBRANCH   2   3
ENDBRANCH   1   2
BRANCH   1  31
ATOM     31  C   UNL A   1      39.527  20.049  26.462  1.00  0.00     0.116 C 
BRANCH  31  32
ATOM     32  N   UNL A   1      40.706  19.392  25.923  1.00  0.00    -0.352 N 
ATOM     33  C   UNL A   1      41.979  19.881  25.781  1.00  0.00     0.251 C 
ATOM     34  H   UNL A   1      40.571  18.467  25.614  1.00  0.00     0.163 HD
ATOM     35  O   UNL A   1      42.814  19.254  25.133  1.00  0.00    -0.269 OA
BRANCH  33  36
ATOM     36  C   UNL A   1      42.339  21.179  26.388  1.00  0.00     0.039 A 
ATOM     37  C   UNL A   1      42.691  22.240  25.553  1.00  0.00     0.014 A 
ATOM     38  C   UNL A   1      42.319  21.350  27.777  1.00  0.00     0.014 A 
ATOM     39  C   UNL A   1      42.972  23.489  26.107  1.00  0.00     0.010 A 
ATOM     40  C   UNL A   1      42.517  22.616  28.319  1.00  0.00     0.010 A 
ATOM     41  C   UNL A   1      42.856  23.697  27.491  1.00  0.00    -0.014 A 
BRANCH  41  42
ATOM     42  C   UNL A   1      43.082  25.041  28.080  1.00  0.00     0.031 A 
ATOM     43  C   UNL A   1      44.456  25.454  28.532  1.00  0.00     0.074 A 
ATOM     44  C   UNL A   1      42.040  25.877  28.252  1.00  0.00     0.049 A 
ATOM     45  N   UNL A   1      44.844  26.585  29.068  1.00  0.00    -0.248 NA
ATOM     46  C   UNL A   1      45.531  24.460  28.391  1.00  0.00     0.031 C 
ATOM     47  C   UNL A   1      40.647  25.577  27.909  1.00  0.00     0.029 A 
ATOM     48  N   UNL A   1      41.988  27.151  28.761  1.00  0.00    -0.354 N 
ATOM     49  C   UNL A   1      46.197  26.430  29.342  1.00  0.00     0.074 A 
ATOM     50  C   UNL A   1      46.551  25.078  28.967  1.00  0.00     0.031 C 
ATOM     51  C   UNL A   1      39.886  26.647  28.185  1.00  0.00     0.029 A 
ATOM     52  C   UNL A   1      40.726  27.693  28.760  1.00  0.00     0.049 A 
ATOM     53  H   UNL A   1      42.780  27.630  29.096  1.00  0.00     0.167 HD
ATOM     54  C   UNL A   1      47.071  27.334  29.842  1.00  0.00     0.031 A 
ATOM     55  C   UNL A   1      40.290  28.897  29.177  1.00  0.00     0.031 A 
ATOM     56  C   UNL A   1      46.718  28.680  30.210  1.00  0.00     0.049 A 
ATOM     57  C   UNL A   1      41.278  29.886  29.727  1.00  0.00     0.074 A 
ATOM     58  C   UNL A   1      47.546  29.695  30.657  1.00  0.00     0.029 A 
ATOM     59  N   UNL A   1      45.432  29.194  30.183  1.00  0.00    -0.354 N 
ATOM     60  N   UNL A   1      42.573  29.757  29.890  1.00  0.00    -0.248 NA
ATOM     61  C   UNL A   1      40.748  31.194  30.135  1.00  0.00     0.031 C 
ATOM     62  C   UNL A   1      46.750  30.804  30.964  1.00  0.00     0.029 A 
ATOM     63  C   UNL A   1      45.436  30.502  30.639  1.00  0.00     0.049 A 
ATOM     64  H   UNL A   1      44.632  28.703  29.885  1.00  0.00     0.167 HD
ATOM     65  C   UNL A   1      43.016  30.973  30.393  1.00  0.00     0.074 A 
ATOM     66  C   UNL A   1      41.853  31.833  30.491  1.00  0.00     0.031 C 
ATOM     67  C   UNL A   1      44.272  31.345  30.740  1.00  0.00     0.031 A 
BRANCH  54  68
ATOM     68  C   UNL A   1      48.495  26.888  30.038  1.00  0.00    -0.014 A 
ATOM     69  C   UNL A   1      49.468  27.083  29.044  1.00  0.00     0.009 A 
ATOM     70  C   UNL A   1      48.876  26.288  31.248  1.00  0.00     0.009 A 
ATOM     71  C   UNL A   1      50.780  26.644  29.241  1.00  0.00     0.001 A 
ATOM     72  C   UNL A   1      50.196  25.881  31.456  1.00  0.00     0.001 A 
ATOM     73  C   UNL A   1      51.143  26.049  30.447  1.00  0.00     0.000 A 
ENDBRANCH  54  68
BRANCH  55  74
ATOM     74  C   UNL A   1      38.845  29.237  29.074  1.00  0.00    -0.014 A 
ATOM     75  C   UNL A   1      38.305  29.714  27.870  1.00  0.00     0.009 A 
ATOM     76  C   UNL A   1      37.997  29.078  30.181  1.00  0.00     0.009 A 
ATOM     77  C   UNL A   1      36.952  30.047  27.784  1.00  0.00     0.001 A 
ATOM     78  C   UNL A   1      36.637  29.382  30.083  1.00  0.00     0.001 A 
ATOM     79  C   UNL A   1      36.118  29.876  28.887  1.00  0.00     0.000 A 
ENDBRANCH  55  74
BRANCH  67  80
ATOM     80  C   UNL A   1      44.465  32.755  31.226  1.00  0.00    -0.014 A 
ATOM     81  C   UNL A   1      44.762  33.802  30.339  1.00  0.00     0.009 A 
ATOM     82  C   UNL A   1      44.302  33.046  32.589  1.00  0.00     0.009 A 
ATOM     83  C   UNL A   1      44.927  35.105  30.814  1.00  0.00     0.001 A 
ATOM     84  C   UNL A   1      44.434  34.355  33.056  1.00  0.00     0.001 A 
ATOM     85  C   UNL A   1      44.757  35.381  32.171  1.00  0.00     0.000 A 
ENDBRANCH  67  80
ENDBRANCH  41  42
ENDBRANCH  33  36
ENDBRANCH  31  32
ENDBRANCH   1  31
TORSDOF 14
ENDMDL
MODEL 2
REMARK VINA RESULT:     -12.2      3.606      8.746
REMARK SMILES COc1cc2c(cc1OC)[C@H](C(=O)NCCCCNC(=O)c1ccc(-c3c4nc(c(-c5ccccc5)c5ccc([nH]5)c(-c5ccccc5)c5nc(c(-c6ccccc6)c6ccc3[nH]6)C=C5)C=C4)cc1)[C@H](c1cccc(Cl)c1)N(C)C2=O
REMARK SMILES IDX 17 1 16 2 15 3 14 4 12 5 13 6 11 8 3 9 4 10 8 11 5 12 7 13
REMARK SMILES IDX 6 14 80 15 78 16 81 17 70 18 79 19 2 20 1 21 9 22 10 23
REMARK SMILES IDX 71 24 72 25 77 26 73 27 75 28 74 29 76 30 18 31 19 32 20 33
REMARK SMILES IDX 21 35 22 36 23 37 69 38 24 39 68 40 25 41 26 42 27 43 62 44
REMARK SMILES IDX 28 45 67 46 61 47 63 48 29 49 66 50 60 51 59 52 30 54 52 55
REMARK SMILES IDX 37 56 51 57 38 58 41 59 50 60 64 61 39 62 40 63 49 65 65 66
REMARK SMILES IDX 42 67 31 68 32 69 36 70 33 71 35 72 34 73 53 74 54 75 58 76
REMARK SMILES IDX 55 77 57 78 56 79 43 80 44 81 48 82 45 83 47 84 46 85
REMARK H PARENT 14 7 19 34 63 53 41 64
REMARK Flexibility Score: inf
ROOT
ATOM      1  C   UNL A   1      33.070  31.650  27.652  1.00  0.00     0.023 C 
ENDROOT
BRANCH   1   2
ATOM      2  C   UNL A   1      34.411  30.912  27.726  1.00  0.00     0.023 C 
BRANCH   2   3
ATOM      3  C   UNL A   1      34.368  29.471  27.221  1.00  0.00     0.116 C 
BRANCH   3   4
ATOM      4  N   UNL A   1      33.192  28.794  27.734  1.00  0.00    -0.355 N 
ATOM      5  C   UNL A   1      32.348  27.927  27.105  1.00  0.00     0.230 C 
ATOM      6  O   UNL A   1      31.234  27.815  27.612  1.00  0.00    -0.274 OA
ATOM      7  H   UNL A   1      32.971  28.989  28.673  1.00  0.00     0.163 HD
BRANCH   5   8
ATOM      8  C   UNL A   1      32.771  27.255  25.808  1.00  0.00     0.136 C 
ATOM      9  C   UNL A   1      31.907  23.053  25.084  1.00  0.00     0.161 A 
ATOM     10  C   UNL A   1      32.544  23.856  24.126  1.00  0.00     0.064 A 
ATOM     11  C   UNL A   1      31.531  23.616  26.312  1.00  0.00     0.161 A 
ATOM     12  C   UNL A   1      32.816  25.203  24.395  1.00  0.00     0.048 A 
ATOM     13  C   UNL A   1      31.783  24.977  26.557  1.00  0.00     0.056 A 
ATOM     14  C   UNL A   1      32.441  25.780  25.620  1.00  0.00    -0.016 A 
ATOM     15  C   UNL A   1      33.444  26.052  23.333  1.00  0.00     0.254 C 
ATOM     16  N   UNL A   1      33.245  27.434  23.440  1.00  0.00    -0.333 N 
ATOM     17  O   UNL A   1      34.068  25.523  22.419  1.00  0.00    -0.269 OA
ATOM     18  C   UNL A   1      32.359  27.994  24.497  1.00  0.00     0.132 C 
ATOM     19  C   UNL A   1      33.774  28.310  22.412  1.00  0.00     0.147 C 
BRANCH   9  20
ATOM     20  O   UNL A   1      31.540  21.765  24.796  1.00  0.00    -0.493 OA
ATOM     21  C   UNL A   1      32.496  20.770  25.148  1.00  0.00     0.278 C 
ENDBRANCH   9  20
BRANCH  11  22
ATOM     22  O   UNL A   1      30.915  23.007  27.375  1.00  0.00    -0.493 OA
ATOM     23  C   UNL A   1      29.506  22.826  27.327  1.00  0.00     0.278 C 
ENDBRANCH  11  22
BRANCH  18  24
ATOM     24  C   UNL A   1      30.868  27.923  24.103  1.00  0.00    -0.023 A 
ATOM     25  C   UNL A   1      30.105  26.775  24.378  1.00  0.00     0.006 A 
ATOM     26  C   UNL A   1      30.201  28.980  23.452  1.00  0.00     0.026 A 
ATOM     27  C   UNL A   1      28.789  26.635  23.929  1.00  0.00     0.002 A 
ATOM     28  C   UNL A   1      28.878  28.850  23.021  1.00  0.00     0.041 A 
ATOM     29  C   UNL A   1      28.177  27.670  23.235  1.00  0.00     0.020 A 
ATOM     30  Cl  UNL A   1      28.112  30.162  22.213  1.00  0.00    -0.084 Cl
ENDBRANCH  18  24
ENDBRANCH   5   8
ENDBRANCH   3   4
ENDBRANCH   2   3
ENDBRANCH   1   2
BRANCH   1  31
ATOM     31  C   UNL A   1      33.146  33.063  27.086  1.00  0.00     0.116 C 
BRANCH  31  32
ATOM     32  N   UNL A   1      32.693  34.064  28.038  1.00  0.00    -0.352 N 
ATOM     33  C   UNL A   1      33.243  34.425  29.240  1.00  0.00     0.251 C 
ATOM     34  H   UNL A   1      31.874  34.549  27.783  1.00  0.00     0.163 HD
ATOM     35  O   UNL A   1      32.626  35.160  30.007  1.00  0.00    -0.269 OA
BRANCH  33  36
ATOM     36  C   UNL A   1      34.572  33.905  29.625  1.00  0.00     0.039 A 
ATOM     37  C   UNL A   1      34.670  33.055  30.728  1.00  0.00     0.014 A 
ATOM     38  C   UNL A   1      35.714  34.248  28.895  1.00  0.00     0.014 A 
ATOM     39  C   UNL A   1      35.907  32.505  31.066  1.00  0.00     0.010 A 
ATOM     40  C   UNL A   1      36.929  33.633  29.183  1.00  0.00     0.010 A 
ATOM     41  C   UNL A   1      37.041  32.763  30.278  1.00  0.00    -0.014 A 
BRANCH  41  42
ATOM     42  C   UNL A   1      38.344  32.124  30.589  1.00  0.00     0.031 A 
ATOM     43  C   UNL A   1      39.315  32.789  31.526  1.00  0.00     0.074 A 
ATOM     44  C   UNL A   1      38.677  30.965  29.990  1.00  0.00     0.049 A 
ATOM     45  N   UNL A   1      40.497  32.381  31.916  1.00  0.00    -0.248 NA
ATOM     46  C   UNL A   1      38.920  34.095  32.079  1.00  0.00     0.031 C 
ATOM     47  C   UNL A   1      37.851  30.246  29.016  1.00  0.00     0.029 A 
ATOM     48  N   UNL A   1      39.801  30.186  30.109  1.00  0.00    -0.354 N 
ATOM     49  C   UNL A   1      40.991  33.384  32.740  1.00  0.00     0.074 A 
ATOM     50  C   UNL A   1      40.007  34.445  32.751  1.00  0.00     0.031 C 
ATOM     51  C   UNL A   1      38.480  29.117  28.655  1.00  0.00     0.029 A 
ATOM     52  C   UNL A   1      39.769  29.050  29.337  1.00  0.00     0.049 A 
ATOM     53  H   UNL A   1      40.560  30.420  30.692  1.00  0.00     0.167 HD
ATOM     54  C   UNL A   1      42.149  33.415  33.441  1.00  0.00     0.031 A 
ATOM     55  C   UNL A   1      40.674  28.064  29.190  1.00  0.00     0.031 A 
ATOM     56  C   UNL A   1      43.124  32.357  33.434  1.00  0.00     0.049 A 
ATOM     57  C   UNL A   1      41.951  28.118  29.980  1.00  0.00     0.074 A 
ATOM     58  C   UNL A   1      44.294  32.260  34.167  1.00  0.00     0.029 A 
ATOM     59  N   UNL A   1      43.048  31.219  32.648  1.00  0.00    -0.354 N 
ATOM     60  N   UNL A   1      42.360  29.028  30.830  1.00  0.00    -0.248 NA
ATOM     61  C   UNL A   1      42.886  26.997  29.803  1.00  0.00     0.031 C 
ATOM     62  C   UNL A   1      44.959  31.094  33.775  1.00  0.00     0.029 A 
ATOM     63  C   UNL A   1      44.168  30.429  32.851  1.00  0.00     0.049 A 
ATOM     64  H   UNL A   1      42.309  31.002  32.035  1.00  0.00     0.167 HD
ATOM     65  C   UNL A   1      43.584  28.579  31.309  1.00  0.00     0.074 A 
ATOM     66  C   UNL A   1      43.842  27.306  30.668  1.00  0.00     0.031 C 
ATOM     67  C   UNL A   1      44.418  29.168  32.201  1.00  0.00     0.031 A 
BRANCH  54  68
ATOM     68  C   UNL A   1      42.431  34.645  34.262  1.00  0.00    -0.014 A 
ATOM     69  C   UNL A   1      42.067  34.722  35.617  1.00  0.00     0.009 A 
ATOM     70  C   UNL A   1      43.096  35.733  33.678  1.00  0.00     0.009 A 
ATOM     71  C   UNL A   1      42.323  35.880  36.354  1.00  0.00     0.001 A 
ATOM     72  C   UNL A   1      43.382  36.877  34.427  1.00  0.00     0.001 A 
ATOM     73  C   UNL A   1      42.984  36.954  35.760  1.00  0.00     0.000 A 
ENDBRANCH  54  68
BRANCH  55  74
ATOM     74  C   UNL A   1      40.393  26.933  28.267  1.00  0.00    -0.014 A 
ATOM     75  C   UNL A   1      40.906  26.929  26.960  1.00  0.00     0.009 A 
ATOM     76  C   UNL A   1      39.615  25.845  28.692  1.00  0.00     0.009 A 
ATOM     77  C   UNL A   1      40.626  25.871  26.093  1.00  0.00     0.001 A 
ATOM     78  C   UNL A   1      39.362  24.774  27.832  1.00  0.00     0.001 A 
ATOM     79  C   UNL A   1      39.860  24.792  26.530  1.00  0.00     0.000 A 
ENDBRANCH  55  74
BRANCH  67  80
ATOM     80  C   UNL A   1      45.673  28.425  32.567  1.00  0.00    -0.014 A 
ATOM     81  C   UNL A   1      46.878  28.636  31.877  1.00  0.00     0.009 A 
ATOM     82  C   UNL A   1      45.659  27.533  33.650  1.00  0.00     0.009 A 
ATOM     83  C   UNL A   1      48.033  27.941  32.242  1.00  0.00     0.001 A 
ATOM     84  C   UNL A   1      46.823  26.865  34.035  1.00  0.00     0.001 A 
ATOM     85  C   UNL A   1      48.006  27.062  33.325  1.00  0.00     0.000 A 
ENDBRANCH  67  80
ENDBRANCH  41  42
ENDBRANCH  33  36
ENDBRANCH  31  32
ENDBRANCH   1  31
TORSDOF 14
ENDMDL
MODEL 3
REMARK VINA RESULT:     -12.1      3.873      8.913
REMARK SMILES COc1cc2c(cc1OC)[C@H](C(=O)NCCCCNC(=O)c1ccc(-c3c4nc(c(-c5ccccc5)c5ccc([nH]5)c(-c5ccccc5)c5nc(c(-c6ccccc6)c6ccc3[nH]6)C=C5)C=C4)cc1)[C@H](c1cccc(Cl)c1)N(C)C2=O
REMARK SMILES IDX 17 1 16 2 15 3 14 4 12 5 13 6 11 8 3 9 4 10 8 11 5 12 7 13
REMARK SMILES IDX 6 14 80 15 78 16 81 17 70 18 79 19 2 20 1 21 9 22 10 23
REMARK SMILES IDX 71 24 72 25 77 26 73 27 75 28 74 29 76 30 18 31 19 32 20 33
REMARK SMILES IDX 21 35 22 36 23 37 69 38 24 39 68 40 25 41 26 42 27 43 62 44
REMARK SMILES IDX 28 45 67 46 61 47 63 48 29 49 66 50 60 51 59 52 30 54 52 55
REMARK SMILES IDX 37 56 51 57 38 58 41 59 50 60 64 61 39 62 40 63 49 65 65 66
REMARK SMILES IDX 42 67 31 68 32 69 36 70 33 71 35 72 34 73 53 74 54 75 58 76
REMARK SMILES IDX 55 77 57 78 56 79 43 80 44 81 48 82 45 83 47 84 46 85
REMARK H PARENT 14 7 19 34 63 53 41 64
REMARK Flexibility Score: inf
ROOT
ATOM      1  C   UNL A   1      33.274  31.632  27.664  1.00  0.00     0.023 C 
ENDROOT
BRANCH   1   2
ATOM      2  C   UNL A   1      34.558  30.803  27.766  1.00  0.00     0.023 C 
BRANCH   2   3
ATOM      3  C   UNL A   1      34.443  29.387  27.201  1.00  0.00     0.116 C 
BRANCH   3   4
ATOM      4  N   UNL A   1      33.256  28.735  27.721  1.00  0.00    -0.355 N 
ATOM      5  C   UNL A   1      32.394  27.882  27.098  1.00  0.00     0.230 C 
ATOM      6  O   UNL A   1      31.279  27.793  27.609  1.00  0.00    -0.274 OA
ATOM      7  H   UNL A   1      33.041  28.938  28.660  1.00  0.00     0.163 HD
BRANCH   5   8
ATOM      8  C   UNL A   1      32.800  27.196  25.802  1.00  0.00     0.136 C 
ATOM      9  C   UNL A   1      31.876  23.002  25.109  1.00  0.00     0.161 A 
ATOM     10  C   UNL A   1      32.517  23.790  24.142  1.00  0.00     0.064 A 
ATOM     11  C   UNL A   1      31.515  23.577  26.337  1.00  0.00     0.161 A 
ATOM     12  C   UNL A   1      32.809  25.135  24.402  1.00  0.00     0.048 A 
ATOM     13  C   UNL A   1      31.786  24.936  26.571  1.00  0.00     0.056 A 
ATOM     14  C   UNL A   1      32.449  25.725  25.625  1.00  0.00    -0.016 A 
ATOM     15  C   UNL A   1      33.442  25.970  23.331  1.00  0.00     0.254 C 
ATOM     16  N   UNL A   1      33.261  27.355  23.431  1.00  0.00    -0.333 N 
ATOM     17  O   UNL A   1      34.053  25.428  22.416  1.00  0.00    -0.269 OA
ATOM     18  C   UNL A   1      32.389  27.933  24.490  1.00  0.00     0.132 C 
ATOM     19  C   UNL A   1      33.795  28.218  22.394  1.00  0.00     0.147 C 
BRANCH   9  20
ATOM     20  O   UNL A   1      31.491  21.717  24.832  1.00  0.00    -0.493 OA
ATOM     21  C   UNL A   1      32.462  20.717  25.122  1.00  0.00     0.278 C 
ENDBRANCH   9  20
BRANCH  11  22
ATOM     22  O   UNL A   1      30.898  22.983  27.407  1.00  0.00    -0.493 OA
ATOM     23  C   UNL A   1      29.489  22.800  27.360  1.00  0.00     0.278 C 
ENDBRANCH  11  22
BRANCH  18  24
ATOM     24  C   UNL A   1      30.895  27.879  24.105  1.00  0.00    -0.023 A 
ATOM     25  C   UNL A   1      30.126  26.732  24.367  1.00  0.00     0.006 A 
ATOM     26  C   UNL A   1      30.231  28.951  23.476  1.00  0.00     0.026 A 
ATOM     27  C   UNL A   1      28.805  26.609  23.925  1.00  0.00     0.002 A 
ATOM     28  C   UNL A   1      28.904  28.837  23.054  1.00  0.00     0.041 A 
ATOM     29  C   UNL A   1      28.196  27.660  23.253  1.00  0.00     0.020 A 
ATOM     30  Cl  UNL A   1      28.142  30.168  22.273  1.00  0.00    -0.084 Cl
ENDBRANCH  18  24
ENDBRANCH   5   8
ENDBRANCH   3   4
ENDBRANCH   2   3
ENDBRANCH   1   2
BRANCH   1  31
ATOM     31  C   UNL A   1      33.461  33.038  27.107  1.00  0.00     0.116 C 
BRANCH  31  32
ATOM     32  N   UNL A   1      32.942  34.060  28.001  1.00  0.00    -0.352 N 
ATOM     33  C   UNL A   1      33.380  34.419  29.250  1.00  0.00     0.251 C 
ATOM     34  H   UNL A   1      32.166  34.563  27.663  1.00  0.00     0.163 HD
ATOM     35  O   UNL A   1      32.708  35.177  29.946  1.00  0.00    -0.269 OA
BRANCH  33  36
ATOM     36  C   UNL A   1      34.648  33.869  29.769  1.00  0.00     0.039 A 
ATOM     37  C   UNL A   1      34.608  32.977  30.843  1.00  0.00     0.014 A 
ATOM     38  C   UNL A   1      35.872  34.226  29.194  1.00  0.00     0.014 A 
ATOM     39  C   UNL A   1      35.792  32.400  31.304  1.00  0.00     0.010 A 
ATOM     40  C   UNL A   1      37.040  33.586  29.600  1.00  0.00     0.010 A 
ATOM     41  C   UNL A   1      37.014  32.674  30.666  1.00  0.00    -0.014 A 
BRANCH  41  42
ATOM     42  C   UNL A   1      38.266  32.009  31.105  1.00  0.00     0.031 A 
ATOM     43  C   UNL A   1      38.767  30.781  30.394  1.00  0.00     0.074 A 
ATOM     44  C   UNL A   1      38.931  32.482  32.177  1.00  0.00     0.049 A 
ATOM     45  N   UNL A   1      39.839  30.068  30.636  1.00  0.00    -0.248 NA
ATOM     46  C   UNL A   1      37.947  30.271  29.285  1.00  0.00     0.031 C 
ATOM     47  C   UNL A   1      38.520  33.629  32.990  1.00  0.00     0.029 A 
ATOM     48  N   UNL A   1      40.093  32.055  32.770  1.00  0.00    -0.354 N 
ATOM     49  C   UNL A   1      39.810  29.020  29.724  1.00  0.00     0.074 A 
ATOM     50  C   UNL A   1      38.587  29.158  28.962  1.00  0.00     0.031 C 
ATOM     51  C   UNL A   1      39.433  33.836  33.952  1.00  0.00     0.029 A 
ATOM     52  C   UNL A   1      40.471  32.814  33.851  1.00  0.00     0.049 A 
ATOM     53  H   UNL A   1      40.607  31.278  32.451  1.00  0.00     0.167 HD
ATOM     54  C   UNL A   1      40.724  28.042  29.524  1.00  0.00     0.031 A 
ATOM     55  C   UNL A   1      41.531  32.701  34.673  1.00  0.00     0.031 A 
ATOM     56  C   UNL A   1      41.942  27.910  30.278  1.00  0.00     0.049 A 
ATOM     57  C   UNL A   1      42.535  31.610  34.430  1.00  0.00     0.074 A 
ATOM     58  C   UNL A   1      42.968  26.997  30.104  1.00  0.00     0.029 A 
ATOM     59  N   UNL A   1      42.293  28.705  31.357  1.00  0.00    -0.354 N 
ATOM     60  N   UNL A   1      42.541  30.684  33.502  1.00  0.00    -0.248 NA
ATOM     61  C   UNL A   1      43.689  31.558  35.339  1.00  0.00     0.031 C 
ATOM     62  C   UNL A   1      43.909  27.199  31.119  1.00  0.00     0.029 A 
ATOM     63  C   UNL A   1      43.503  28.283  31.881  1.00  0.00     0.049 A 
ATOM     64  H   UNL A   1      41.761  29.459  31.701  1.00  0.00     0.167 HD
ATOM     65  C   UNL A   1      43.708  29.957  33.697  1.00  0.00     0.074 A 
ATOM     66  C   UNL A   1      44.394  30.562  34.822  1.00  0.00     0.031 C 
ATOM     67  C   UNL A   1      44.172  28.888  33.006  1.00  0.00     0.031 A 
BRANCH  54  68
ATOM     68  C   UNL A   1      40.430  27.025  28.453  1.00  0.00    -0.014 A 
ATOM     69  C   UNL A   1      40.940  27.162  27.152  1.00  0.00     0.009 A 
ATOM     70  C   UNL A   1      39.652  25.898  28.760  1.00  0.00     0.009 A 
ATOM     71  C   UNL A   1      40.639  26.215  26.170  1.00  0.00     0.001 A 
ATOM     72  C   UNL A   1      39.381  24.935  27.786  1.00  0.00     0.001 A 
ATOM     73  C   UNL A   1      39.865  25.101  26.489  1.00  0.00     0.000 A 
ENDBRANCH  54  68
BRANCH  55  74
ATOM     74  C   UNL A   1      41.704  33.663  35.794  1.00  0.00    -0.014 A 
ATOM     75  C   UNL A   1      41.164  33.393  37.061  1.00  0.00     0.009 A 
ATOM     76  C   UNL A   1      42.421  34.856  35.603  1.00  0.00     0.009 A 
ATOM     77  C   UNL A   1      41.316  34.308  38.105  1.00  0.00     0.001 A 
ATOM     78  C   UNL A   1      42.598  35.754  36.658  1.00  0.00     0.001 A 
ATOM     79  C   UNL A   1      42.037  35.484  37.905  1.00  0.00     0.000 A 
ENDBRANCH  55  74
BRANCH  67  80
ATOM     80  C   UNL A   1      45.501  28.320  33.421  1.00  0.00    -0.014 A 
ATOM     81  C   UNL A   1      46.707  28.824  32.907  1.00  0.00     0.009 A 
ATOM     82  C   UNL A   1      45.548  27.295  34.379  1.00  0.00     0.009 A 
ATOM     83  C   UNL A   1      47.929  28.286  33.317  1.00  0.00     0.001 A 
ATOM     84  C   UNL A   1      46.771  26.782  34.811  1.00  0.00     0.001 A 
ATOM     85  C   UNL A   1      47.960  27.271  34.273  1.00  0.00     0.000 A 
ENDBRANCH  67  80
ENDBRANCH  41  42
ENDBRANCH  33  36
ENDBRANCH  31  32
ENDBRANCH   1  31
TORSDOF 14
ENDMDL
