MODEL 1
REMARK VINA RESULT:     -11.0      0.000      0.000
REMARK SMILES CC1=C(C(=O)NCCCCNC(=O)c2ccc(-c3c4nc(c(-c5ccccc5)c5ccc([nH]5)c(-c5ccccc5)c5nc(c(-c6ccccc6)c6ccc3[nH]6)C=C5)C=C4)cc2)N2C(=O)[C@@H](NC(=O)c3ccn(C)n3)[C@H]2SC1
REMARK SMILES IDX 8 1 7 2 6 3 4 4 5 5 3 7 1 8 2 9 77 10 62 11 76 12 63 13
REMARK SMILES IDX 75 14 64 15 65 16 66 17 67 18 68 20 69 21 70 22 74 23 71 24
REMARK SMILES IDX 72 25 73 26 9 27 10 28 11 29 12 30 13 32 14 33 15 34 61 35
REMARK SMILES IDX 16 36 60 37 17 38 18 39 19 40 54 41 20 42 59 43 53 44 55 45
REMARK SMILES IDX 21 46 58 47 52 48 51 49 22 51 44 52 29 53 43 54 30 55 33 56
REMARK SMILES IDX 42 57 56 58 31 59 32 60 41 62 57 63 34 64 23 65 24 66 28 67
REMARK SMILES IDX 25 68 27 69 26 70 45 71 46 72 50 73 47 74 49 75 48 76 35 77
REMARK SMILES IDX 36 78 40 79 37 80 39 81 38 82
REMARK H PARENT 6 6 66 19 11 31 55 50 33 61
REMARK Flexibility Score: inf
ROOT
ATOM      1  C   UNL A   1      38.689  22.748  26.501  1.00  0.00     0.023 C 
ENDROOT
BRANCH   1   2
ATOM      2  C   UNL A   1      37.603  23.566  25.815  1.00  0.00     0.116 C 
BRANCH   2   3
ATOM      3  N   UNL A   1      37.444  23.369  24.391  1.00  0.00    -0.351 N 
ATOM      4  C   UNL A   1      36.347  22.918  23.703  1.00  0.00     0.268 C 
ATOM      5  O   UNL A   1      36.328  23.031  22.477  1.00  0.00    -0.268 OA
ATOM      6  H   UNL A   1      38.230  23.590  23.841  1.00  0.00     0.163 HD
BRANCH   4   7
ATOM      7  C   UNL A   1      35.196  22.244  24.418  1.00  0.00     0.110 C 
ATOM      8  C   UNL A   1      36.323  20.026  24.888  1.00  0.00     0.043 C 
ATOM      9  C   UNL A   1      35.135  20.948  24.816  1.00  0.00    -0.034 C 
ATOM     10  C   UNL A   1      33.852  20.268  25.303  1.00  0.00     0.104 C 
ATOM     11  N   UNL A   1      34.202  23.069  24.848  1.00  0.00    -0.290 N 
ATOM     12  S   UNL A   1      32.390  21.350  25.467  1.00  0.00    -0.129 SA
ATOM     13  C   UNL A   1      33.705  24.303  24.640  1.00  0.00     0.253 C 
ATOM     14  C   UNL A   1      33.405  22.740  26.008  1.00  0.00     0.181 C 
ATOM     15  O   UNL A   1      33.876  25.142  23.785  1.00  0.00    -0.272 OA
ATOM     16  C   UNL A   1      32.868  24.182  25.949  1.00  0.00     0.206 C 
BRANCH  16  17
ATOM     17  N   UNL A   1      31.404  24.379  25.903  1.00  0.00    -0.336 N 
ATOM     18  C   UNL A   1      30.726  25.572  26.092  1.00  0.00     0.272 C 
ATOM     19  H   UNL A   1      30.855  23.582  25.720  1.00  0.00     0.164 HD
ATOM     20  O   UNL A   1      29.503  25.548  26.221  1.00  0.00    -0.267 OA
BRANCH  18  21
ATOM     21  C   UNL A   1      31.517  26.813  26.144  1.00  0.00     0.150 A 
ATOM     22  C   UNL A   1      31.873  27.568  27.298  1.00  0.00     0.056 A 
ATOM     23  N   UNL A   1      31.976  27.415  25.029  1.00  0.00    -0.168 NA
ATOM     24  C   UNL A   1      32.530  28.678  26.824  1.00  0.00     0.109 A 
ATOM     25  N   UNL A   1      32.609  28.514  25.474  1.00  0.00    -0.275 N 
ATOM     26  C   UNL A   1      33.263  29.406  24.546  1.00  0.00     0.173 C 
ENDBRANCH  18  21
ENDBRANCH  16  17
ENDBRANCH   4   7
ENDBRANCH   2   3
ENDBRANCH   1   2
BRANCH   1  27
ATOM     27  C   UNL A   1      39.294  21.602  25.696  1.00  0.00     0.023 C 
BRANCH  27  28
ATOM     28  C   UNL A   1      39.699  20.357  26.478  1.00  0.00     0.116 C 
BRANCH  28  29
ATOM     29  N   UNL A   1      40.873  19.676  25.947  1.00  0.00    -0.352 N 
ATOM     30  C   UNL A   1      42.181  20.096  25.852  1.00  0.00     0.251 C 
ATOM     31  H   UNL A   1      40.703  18.771  25.599  1.00  0.00     0.163 HD
ATOM     32  O   UNL A   1      43.010  19.397  25.278  1.00  0.00    -0.269 OA
BRANCH  30  33
ATOM     33  C   UNL A   1      42.583  21.408  26.403  1.00  0.00     0.039 A 
ATOM     34  C   UNL A   1      42.905  22.444  25.522  1.00  0.00     0.014 A 
ATOM     35  C   UNL A   1      42.613  21.630  27.780  1.00  0.00     0.014 A 
ATOM     36  C   UNL A   1      43.153  23.726  26.021  1.00  0.00     0.010 A 
ATOM     37  C   UNL A   1      42.758  22.926  28.267  1.00  0.00     0.010 A 
ATOM     38  C   UNL A   1      43.025  23.991  27.393  1.00  0.00    -0.014 A 
BRANCH  38  39
ATOM     39  C   UNL A   1      43.158  25.371  27.934  1.00  0.00     0.031 A 
ATOM     40  C   UNL A   1      44.503  25.890  28.368  1.00  0.00     0.074 A 
ATOM     41  C   UNL A   1      42.059  26.136  28.097  1.00  0.00     0.049 A 
ATOM     42  N   UNL A   1      44.807  27.040  28.914  1.00  0.00    -0.248 NA
ATOM     43  C   UNL A   1      45.653  24.989  28.189  1.00  0.00     0.031 C 
ATOM     44  C   UNL A   1      40.689  25.742  27.759  1.00  0.00     0.029 A 
ATOM     45  N   UNL A   1      41.921  27.409  28.596  1.00  0.00    -0.354 N 
ATOM     46  C   UNL A   1      46.174  26.992  29.157  1.00  0.00     0.074 A 
ATOM     47  C   UNL A   1      46.630  25.680  28.756  1.00  0.00     0.031 C 
ATOM     48  C   UNL A   1      39.858  26.762  28.024  1.00  0.00     0.029 A 
ATOM     49  C   UNL A   1      40.623  27.864  28.599  1.00  0.00     0.049 A 
ATOM     50  H   UNL A   1      42.680  27.945  28.921  1.00  0.00     0.167 HD
ATOM     51  C   UNL A   1      46.985  27.961  29.645  1.00  0.00     0.031 A 
ATOM     52  C   UNL A   1      40.105  29.032  29.025  1.00  0.00     0.031 A 
ATOM     53  C   UNL A   1      46.535  29.269  30.040  1.00  0.00     0.049 A 
ATOM     54  C   UNL A   1      41.023  30.078  29.598  1.00  0.00     0.074 A 
ATOM     55  C   UNL A   1      47.288  30.336  30.499  1.00  0.00     0.029 A 
ATOM     56  N   UNL A   1      45.213  29.685  30.033  1.00  0.00    -0.354 N 
ATOM     57  N   UNL A   1      42.324  30.043  29.747  1.00  0.00    -0.248 NA
ATOM     58  C   UNL A   1      40.398  31.328  30.053  1.00  0.00     0.031 C 
ATOM     59  C   UNL A   1      46.415  31.374  30.831  1.00  0.00     0.029 A 
ATOM     60  C   UNL A   1      45.126  30.982  30.509  1.00  0.00     0.049 A 
ATOM     61  H   UNL A   1      44.450  29.140  29.732  1.00  0.00     0.167 HD
ATOM     62  C   UNL A   1      42.677  31.277  30.280  1.00  0.00     0.074 A 
ATOM     63  C   UNL A   1      41.455  32.042  30.410  1.00  0.00     0.031 C 
ATOM     64  C   UNL A   1      43.904  31.735  30.630  1.00  0.00     0.031 A 
BRANCH  51  65
ATOM     65  C   UNL A   1      48.447  27.636  29.787  1.00  0.00    -0.014 A 
ATOM     66  C   UNL A   1      49.358  27.904  28.752  1.00  0.00     0.009 A 
ATOM     67  C   UNL A   1      48.930  27.092  30.988  1.00  0.00     0.009 A 
ATOM     68  C   UNL A   1      50.713  27.598  28.902  1.00  0.00     0.001 A 
ATOM     69  C   UNL A   1      50.288  26.819  31.149  1.00  0.00     0.001 A 
ATOM     70  C   UNL A   1      51.178  27.062  30.103  1.00  0.00     0.000 A 
ENDBRANCH  51  65
BRANCH  52  71
ATOM     71  C   UNL A   1      38.641  29.285  28.925  1.00  0.00    -0.014 A 
ATOM     72  C   UNL A   1      38.074  29.744  27.725  1.00  0.00     0.009 A 
ATOM     73  C   UNL A   1      37.804  29.097  30.037  1.00  0.00     0.009 A 
ATOM     74  C   UNL A   1      36.711  30.042  27.651  1.00  0.00     0.001 A 
ATOM     75  C   UNL A   1      36.436  29.362  29.951  1.00  0.00     0.001 A 
ATOM     76  C   UNL A   1      35.893  29.847  28.762  1.00  0.00     0.000 A 
ENDBRANCH  52  71
BRANCH  64  77
ATOM     77  C   UNL A   1      43.996  33.145  31.146  1.00  0.00    -0.014 A 
ATOM     78  C   UNL A   1      44.177  34.234  30.279  1.00  0.00     0.009 A 
ATOM     79  C   UNL A   1      43.850  33.390  32.520  1.00  0.00     0.009 A 
ATOM     80  C   UNL A   1      44.244  35.535  30.782  1.00  0.00     0.001 A 
ATOM     81  C   UNL A   1      43.881  34.693  33.018  1.00  0.00     0.001 A 
ATOM     82  C   UNL A   1      44.089  35.764  32.149  1.00  0.00     0.000 A 
ENDBRANCH  64  77
ENDBRANCH  38  39
ENDBRANCH  30  33
ENDBRANCH  28  29
ENDBRANCH  27  28
ENDBRANCH   1  27
TORSDOF 13
ENDMDL
MODEL 2
REMARK VINA RESULT:     -10.9      2.538      3.285
REMARK SMILES CC1=C(C(=O)NCCCCNC(=O)c2ccc(-c3c4nc(c(-c5ccccc5)c5ccc([nH]5)c(-c5ccccc5)c5nc(c(-c6ccccc6)c6ccc3[nH]6)C=C5)C=C4)cc2)N2C(=O)[C@@H](NC(=O)c3ccn(C)n3)[C@H]2SC1
REMARK SMILES IDX 8 1 7 2 6 3 4 4 5 5 3 7 1 8 2 9 77 10 62 11 76 12 63 13
REMARK SMILES IDX 75 14 64 15 65 16 66 17 67 18 68 20 69 21 70 22 74 23 71 24
REMARK SMILES IDX 72 25 73 26 9 27 10 28 11 29 12 30 13 32 14 33 15 34 61 35
REMARK SMILES IDX 16 36 60 37 17 38 18 39 19 40 54 41 20 42 59 43 53 44 55 45
REMARK SMILES IDX 21 46 58 47 52 48 51 49 22 51 44 52 29 53 43 54 30 55 33 56
REMARK SMILES IDX 42 57 56 58 31 59 32 60 41 62 57 63 34 64 23 65 24 66 28 67
REMARK SMILES IDX 25 68 27 69 26 70 45 71 46 72 50 73 47 74 49 75 48 76 35 77
REMARK SMILES IDX 36 78 40 79 37 80 39 81 38 82
REMARK H PARENT 6 6 66 19 11 31 55 50 33 61
REMARK Flexibility Score: inf
ROOT
ATOM      1  C   UNL A   1      38.744  23.247  26.478  1.00  0.00     0.023 C 
ENDROOT
BRANCH   1   2
ATOM      2  C   UNL A   1      37.486  23.721  25.765  1.00  0.00     0.116 C 
BRANCH   2   3
ATOM      3  N   UNL A   1      37.399  23.445  24.347  1.00  0.00    -0.351 N 
ATOM      4  C   UNL A   1      36.342  22.946  23.632  1.00  0.00     0.268 C 
ATOM      5  O   UNL A   1      36.384  22.992  22.402  1.00  0.00    -0.268 OA
ATOM      6  H   UNL A   1      38.211  23.643  23.826  1.00  0.00     0.163 HD
BRANCH   4   7
ATOM      7  C   UNL A   1      35.161  22.302  24.324  1.00  0.00     0.110 C 
ATOM      8  C   UNL A   1      36.287  20.138  25.002  1.00  0.00     0.043 C 
ATOM      9  C   UNL A   1      35.094  21.034  24.803  1.00  0.00    -0.034 C 
ATOM     10  C   UNL A   1      33.795  20.366  25.262  1.00  0.00     0.104 C 
ATOM     11  N   UNL A   1      34.134  23.137  24.643  1.00  0.00    -0.290 N 
ATOM     12  S   UNL A   1      32.311  21.432  25.274  1.00  0.00    -0.129 SA
ATOM     13  C   UNL A   1      33.634  24.347  24.328  1.00  0.00     0.253 C 
ATOM     14  C   UNL A   1      33.277  22.871  25.777  1.00  0.00     0.181 C 
ATOM     15  O   UNL A   1      33.842  25.131  23.430  1.00  0.00    -0.272 OA
ATOM     16  C   UNL A   1      32.726  24.297  25.593  1.00  0.00     0.206 C 
BRANCH  16  17
ATOM     17  N   UNL A   1      31.264  24.467  25.453  1.00  0.00    -0.336 N 
ATOM     18  C   UNL A   1      30.537  25.611  25.734  1.00  0.00     0.272 C 
ATOM     19  H   UNL A   1      30.757  23.689  25.127  1.00  0.00     0.164 HD
ATOM     20  O   UNL A   1      29.309  25.544  25.759  1.00  0.00    -0.267 OA
BRANCH  18  21
ATOM     21  C   UNL A   1      31.282  26.852  26.006  1.00  0.00     0.150 A 
ATOM     22  C   UNL A   1      31.418  27.529  27.252  1.00  0.00     0.056 A 
ATOM     23  N   UNL A   1      31.913  27.534  25.031  1.00  0.00    -0.168 NA
ATOM     24  C   UNL A   1      32.124  28.674  26.976  1.00  0.00     0.109 A 
ATOM     25  N   UNL A   1      32.437  28.605  25.652  1.00  0.00    -0.275 N 
ATOM     26  C   UNL A   1      33.223  29.564  24.913  1.00  0.00     0.173 C 
ENDBRANCH  18  21
ENDBRANCH  16  17
ENDBRANCH   4   7
ENDBRANCH   2   3
ENDBRANCH   1   2
BRANCH   1  27
ATOM     27  C   UNL A   1      39.261  21.861  26.105  1.00  0.00     0.023 C 
BRANCH  27  28
ATOM     28  C   UNL A   1      40.676  21.515  26.558  1.00  0.00     0.116 C 
BRANCH  28  29
ATOM     29  N   UNL A   1      41.706  21.798  25.566  1.00  0.00    -0.352 N 
ATOM     30  C   UNL A   1      42.554  22.876  25.444  1.00  0.00     0.251 C 
ATOM     31  H   UNL A   1      41.811  21.108  24.871  1.00  0.00     0.163 HD
ATOM     32  O   UNL A   1      43.293  22.967  24.469  1.00  0.00    -0.269 OA
BRANCH  30  33
ATOM     33  C   UNL A   1      42.547  23.948  26.462  1.00  0.00     0.039 A 
ATOM     34  C   UNL A   1      42.884  25.249  26.079  1.00  0.00     0.014 A 
ATOM     35  C   UNL A   1      42.180  23.683  27.782  1.00  0.00     0.014 A 
ATOM     36  C   UNL A   1      42.750  26.297  26.995  1.00  0.00     0.010 A 
ATOM     37  C   UNL A   1      41.948  24.737  28.659  1.00  0.00     0.010 A 
ATOM     38  C   UNL A   1      42.226  26.059  28.275  1.00  0.00    -0.014 A 
BRANCH  38  39
ATOM     39  C   UNL A   1      41.954  27.172  29.223  1.00  0.00     0.031 A 
ATOM     40  C   UNL A   1      42.874  27.419  30.389  1.00  0.00     0.074 A 
ATOM     41  C   UNL A   1      40.843  27.923  29.075  1.00  0.00     0.049 A 
ATOM     42  N   UNL A   1      42.771  28.302  31.351  1.00  0.00    -0.248 NA
ATOM     43  C   UNL A   1      44.050  26.542  30.506  1.00  0.00     0.031 C 
ATOM     44  C   UNL A   1      39.844  27.765  28.016  1.00  0.00     0.029 A 
ATOM     45  N   UNL A   1      40.364  28.970  29.825  1.00  0.00    -0.354 N 
ATOM     46  C   UNL A   1      43.855  28.076  32.189  1.00  0.00     0.074 A 
ATOM     47  C   UNL A   1      44.569  26.935  31.659  1.00  0.00     0.031 C 
ATOM     48  C   UNL A   1      38.894  28.702  28.161  1.00  0.00     0.029 A 
ATOM     49  C   UNL A   1      39.185  29.495  29.352  1.00  0.00     0.049 A 
ATOM     50  H   UNL A   1      40.822  29.312  30.627  1.00  0.00     0.167 HD
ATOM     51  C   UNL A   1      44.240  28.768  33.287  1.00  0.00     0.031 A 
ATOM     52  C   UNL A   1      38.417  30.496  29.826  1.00  0.00     0.031 A 
ATOM     53  C   UNL A   1      43.534  29.906  33.814  1.00  0.00     0.049 A 
ATOM     54  C   UNL A   1      38.848  31.226  31.069  1.00  0.00     0.074 A 
ATOM     55  C   UNL A   1      43.873  30.705  34.892  1.00  0.00     0.029 A 
ATOM     56  N   UNL A   1      42.343  30.399  33.307  1.00  0.00    -0.354 N 
ATOM     57  N   UNL A   1      39.919  31.047  31.804  1.00  0.00    -0.248 NA
ATOM     58  C   UNL A   1      37.967  32.303  31.542  1.00  0.00     0.031 C 
ATOM     59  C   UNL A   1      42.853  31.641  35.077  1.00  0.00     0.029 A 
ATOM     60  C   UNL A   1      41.917  31.474  34.071  1.00  0.00     0.049 A 
ATOM     61  H   UNL A   1      41.870  30.041  32.521  1.00  0.00     0.167 HD
ATOM     62  C   UNL A   1      39.856  32.010  32.804  1.00  0.00     0.074 A 
ATOM     63  C   UNL A   1      38.653  32.780  32.570  1.00  0.00     0.031 C 
ATOM     64  C   UNL A   1      40.719  32.236  33.825  1.00  0.00     0.031 A 
BRANCH  51  65
ATOM     65  C   UNL A   1      45.482  28.306  34.000  1.00  0.00    -0.014 A 
ATOM     66  C   UNL A   1      46.748  28.810  33.661  1.00  0.00     0.009 A 
ATOM     67  C   UNL A   1      45.382  27.384  35.053  1.00  0.00     0.009 A 
ATOM     68  C   UNL A   1      47.890  28.371  34.335  1.00  0.00     0.001 A 
ATOM     69  C   UNL A   1      46.519  26.973  35.749  1.00  0.00     0.001 A 
ATOM     70  C   UNL A   1      47.774  27.458  35.383  1.00  0.00     0.000 A 
ENDBRANCH  51  65
BRANCH  52  71
ATOM     71  C   UNL A   1      37.161  30.878  29.123  1.00  0.00    -0.014 A 
ATOM     72  C   UNL A   1      36.113  29.955  28.979  1.00  0.00     0.009 A 
ATOM     73  C   UNL A   1      37.013  32.159  28.569  1.00  0.00     0.009 A 
ATOM     74  C   UNL A   1      34.961  30.293  28.264  1.00  0.00     0.001 A 
ATOM     75  C   UNL A   1      35.845  32.507  27.886  1.00  0.00     0.001 A 
ATOM     76  C   UNL A   1      34.826  31.571  27.723  1.00  0.00     0.000 A 
ENDBRANCH  52  71
BRANCH  64  77
ATOM     77  C   UNL A   1      40.421  33.389  34.743  1.00  0.00    -0.014 A 
ATOM     78  C   UNL A   1      40.864  34.689  34.456  1.00  0.00     0.009 A 
ATOM     79  C   UNL A   1      39.638  33.177  35.889  1.00  0.00     0.009 A 
ATOM     80  C   UNL A   1      40.560  35.746  35.318  1.00  0.00     0.001 A 
ATOM     81  C   UNL A   1      39.305  34.240  36.730  1.00  0.00     0.001 A 
ATOM     82  C   UNL A   1      39.775  35.521  36.449  1.00  0.00     0.000 A 
ENDBRANCH  64  77
ENDBRANCH  38  39
ENDBRANCH  30  33
ENDBRANCH  28  29
ENDBRANCH  27  28
ENDBRANCH   1  27
TORSDOF 13
ENDMDL
MODEL 3
REMARK VINA RESULT:     -10.9      1.515      1.905
REMARK SMILES CC1=C(C(=O)NCCCCNC(=O)c2ccc(-c3c4nc(c(-c5ccccc5)c5ccc([nH]5)c(-c5ccccc5)c5nc(c(-c6ccccc6)c6ccc3[nH]6)C=C5)C=C4)cc2)N2C(=O)[C@@H](NC(=O)c3ccn(C)n3)[C@H]2SC1
REMARK SMILES IDX 8 1 7 2 6 3 4 4 5 5 3 7 1 8 2 9 77 10 62 11 76 12 63 13
REMARK SMILES IDX 75 14 64 15 65 16 66 17 67 18 68 20 69 21 70 22 74 23 71 24
REMARK SMILES IDX 72 25 73 26 9 27 10 28 11 29 12 30 13 32 14 33 15 34 61 35
REMARK SMILES IDX 16 36 60 37 17 38 18 39 19 40 54 41 20 42 59 43 53 44 55 45
REMARK SMILES IDX 21 46 58 47 52 48 51 49 22 51 44 52 29 53 43 54 30 55 33 56
REMARK SMILES IDX 42 57 56 58 31 59 32 60 41 62 57 63 34 64 23 65 24 66 28 67
REMARK SMILES IDX 25 68 27 69 26 70 45 71 46 72 50 73 47 74 49 75 48 76 35 77
REMARK SMILES IDX 36 78 40 79 37 80 39 81 38 82
REMARK H PARENT 6 6 66 19 11 31 55 50 33 61
REMARK Flexibility Score: inf
ROOT
ATOM      1  C   UNL A   1      38.124  21.334  25.340  1.00  0.00     0.023 C 
ENDROOT
BRANCH   1   2
ATOM      2  C   UNL A   1      36.627  21.460  25.093  1.00  0.00     0.116 C 
BRANCH   2   3
ATOM      3  N   UNL A   1      35.797  21.710  26.252  1.00  0.00    -0.351 N 
ATOM      4  C   UNL A   1      34.451  21.502  26.406  1.00  0.00     0.268 C 
ATOM      5  O   UNL A   1      33.966  21.565  27.536  1.00  0.00    -0.268 OA
ATOM      6  H   UNL A   1      36.263  22.080  27.036  1.00  0.00     0.163 HD
BRANCH   4   7
ATOM      7  C   UNL A   1      33.555  21.249  25.212  1.00  0.00     0.110 C 
ATOM      8  C   UNL A   1      32.904  18.864  25.760  1.00  0.00     0.043 C 
ATOM      9  C   UNL A   1      32.989  20.067  24.859  1.00  0.00    -0.034 C 
ATOM     10  C   UNL A   1      32.306  19.821  23.511  1.00  0.00     0.104 C 
ATOM     11  N   UNL A   1      33.149  22.356  24.532  1.00  0.00    -0.290 N 
ATOM     12  S   UNL A   1      32.153  21.277  22.418  1.00  0.00    -0.129 SA
ATOM     13  C   UNL A   1      33.469  23.652  24.359  1.00  0.00     0.253 C 
ATOM     14  C   UNL A   1      31.889  22.379  23.823  1.00  0.00     0.181 C 
ATOM     15  O   UNL A   1      34.437  24.321  24.641  1.00  0.00    -0.272 OA
ATOM     16  C   UNL A   1      32.086  23.899  23.684  1.00  0.00     0.206 C 
BRANCH  16  17
ATOM     17  N   UNL A   1      32.027  24.489  22.330  1.00  0.00    -0.336 N 
ATOM     18  C   UNL A   1      31.752  25.810  22.017  1.00  0.00     0.272 C 
ATOM     19  H   UNL A   1      32.199  23.882  21.575  1.00  0.00     0.164 HD
ATOM     20  O   UNL A   1      31.542  26.112  20.843  1.00  0.00    -0.267 OA
BRANCH  18  21
ATOM     21  C   UNL A   1      31.713  26.785  23.120  1.00  0.00     0.150 A 
ATOM     22  C   UNL A   1      30.597  27.126  23.938  1.00  0.00     0.056 A 
ATOM     23  N   UNL A   1      32.786  27.526  23.457  1.00  0.00    -0.168 NA
ATOM     24  C   UNL A   1      31.035  28.140  24.755  1.00  0.00     0.109 A 
ATOM     25  N   UNL A   1      32.356  28.305  24.464  1.00  0.00    -0.275 N 
ATOM     26  C   UNL A   1      33.258  29.228  25.110  1.00  0.00     0.173 C 
ENDBRANCH  18  21
ENDBRANCH  16  17
ENDBRANCH   4   7
ENDBRANCH   2   3
ENDBRANCH   1   2
BRANCH   1  27
ATOM     27  C   UNL A   1      38.759  19.985  25.018  1.00  0.00     0.023 C 
BRANCH  27  28
ATOM     28  C   UNL A   1      39.494  19.285  26.157  1.00  0.00     0.116 C 
BRANCH  28  29
ATOM     29  N   UNL A   1      40.858  18.887  25.831  1.00  0.00    -0.352 N 
ATOM     30  C   UNL A   1      42.034  19.600  25.897  1.00  0.00     0.251 C 
ATOM     31  H   UNL A   1      40.952  17.961  25.512  1.00  0.00     0.163 HD
ATOM     32  O   UNL A   1      43.076  19.102  25.481  1.00  0.00    -0.269 OA
BRANCH  30  33
ATOM     33  C   UNL A   1      42.040  20.980  26.427  1.00  0.00     0.039 A 
ATOM     34  C   UNL A   1      41.877  21.179  27.801  1.00  0.00     0.014 A 
ATOM     35  C   UNL A   1      42.237  22.073  25.583  1.00  0.00     0.014 A 
ATOM     36  C   UNL A   1      42.017  22.463  28.336  1.00  0.00     0.010 A 
ATOM     37  C   UNL A   1      42.478  23.331  26.127  1.00  0.00     0.010 A 
ATOM     38  C   UNL A   1      42.376  23.541  27.511  1.00  0.00    -0.014 A 
BRANCH  38  39
ATOM     39  C   UNL A   1      42.655  24.889  28.074  1.00  0.00     0.031 A 
ATOM     40  C   UNL A   1      44.043  25.249  28.530  1.00  0.00     0.074 A 
ATOM     41  C   UNL A   1      41.646  25.771  28.236  1.00  0.00     0.049 A 
ATOM     42  N   UNL A   1      44.468  26.350  29.097  1.00  0.00    -0.248 NA
ATOM     43  C   UNL A   1      45.088  24.228  28.352  1.00  0.00     0.031 C 
ATOM     44  C   UNL A   1      40.246  25.537  27.876  1.00  0.00     0.029 A 
ATOM     45  N   UNL A   1      41.645  27.044  28.751  1.00  0.00    -0.354 N 
ATOM     46  C   UNL A   1      45.817  26.148  29.355  1.00  0.00     0.074 A 
ATOM     47  C   UNL A   1      46.129  24.798  28.940  1.00  0.00     0.031 C 
ATOM     48  C   UNL A   1      39.531  26.640  28.146  1.00  0.00     0.029 A 
ATOM     49  C   UNL A   1      40.406  27.641  28.746  1.00  0.00     0.049 A 
ATOM     50  H   UNL A   1      42.455  27.488  29.093  1.00  0.00     0.167 HD
ATOM     51  C   UNL A   1      46.725  27.013  29.867  1.00  0.00     0.031 A 
ATOM     52  C   UNL A   1      40.016  28.854  29.184  1.00  0.00     0.031 A 
ATOM     53  C   UNL A   1      46.419  28.357  30.276  1.00  0.00     0.049 A 
ATOM     54  C   UNL A   1      41.037  29.783  29.782  1.00  0.00     0.074 A 
ATOM     55  C   UNL A   1      47.280  29.327  30.758  1.00  0.00     0.029 A 
ATOM     56  N   UNL A   1      45.152  28.918  30.259  1.00  0.00    -0.354 N 
ATOM     57  N   UNL A   1      42.325  29.602  29.946  1.00  0.00    -0.248 NA
ATOM     58  C   UNL A   1      40.550  31.090  30.247  1.00  0.00     0.031 C 
ATOM     59  C   UNL A   1      46.524  30.452  31.095  1.00  0.00     0.029 A 
ATOM     60  C   UNL A   1      45.204  30.211  30.753  1.00  0.00     0.049 A 
ATOM     61  H   UNL A   1      44.337  28.466  29.942  1.00  0.00     0.167 HD
ATOM     62  C   UNL A   1      42.806  30.781  30.501  1.00  0.00     0.074 A 
ATOM     63  C   UNL A   1      41.675  31.677  30.627  1.00  0.00     0.031 C 
ATOM     64  C   UNL A   1      44.072  31.095  30.871  1.00  0.00     0.031 A 
BRANCH  51  65
ATOM     65  C   UNL A   1      48.140  26.525  30.020  1.00  0.00    -0.014 A 
ATOM     66  C   UNL A   1      49.095  26.724  29.009  1.00  0.00     0.009 A 
ATOM     67  C   UNL A   1      48.536  25.892  31.209  1.00  0.00     0.009 A 
ATOM     68  C   UNL A   1      50.404  26.266  29.171  1.00  0.00     0.001 A 
ATOM     69  C   UNL A   1      49.853  25.466  31.382  1.00  0.00     0.001 A 
ATOM     70  C   UNL A   1      50.784  25.643  30.359  1.00  0.00     0.000 A 
ENDBRANCH  51  65
BRANCH  52  71
ATOM     71  C   UNL A   1      38.591  29.271  29.070  1.00  0.00    -0.014 A 
ATOM     72  C   UNL A   1      38.104  29.843  27.884  1.00  0.00     0.009 A 
ATOM     73  C   UNL A   1      37.715  29.126  30.158  1.00  0.00     0.009 A 
ATOM     74  C   UNL A   1      36.784  30.292  27.801  1.00  0.00     0.001 A 
ATOM     75  C   UNL A   1      36.385  29.543  30.060  1.00  0.00     0.001 A 
ATOM     76  C   UNL A   1      35.925  30.138  28.887  1.00  0.00     0.000 A 
ENDBRANCH  52  71
BRANCH  64  77
ATOM     77  C   UNL A   1      44.315  32.478  31.408  1.00  0.00    -0.014 A 
ATOM     78  C   UNL A   1      44.655  33.545  30.562  1.00  0.00     0.009 A 
ATOM     79  C   UNL A   1      44.149  32.727  32.780  1.00  0.00     0.009 A 
ATOM     80  C   UNL A   1      44.860  34.824  31.085  1.00  0.00     0.001 A 
ATOM     81  C   UNL A   1      44.319  34.012  33.295  1.00  0.00     0.001 A 
ATOM     82  C   UNL A   1      44.685  35.057  32.449  1.00  0.00     0.000 A 
ENDBRANCH  64  77
ENDBRANCH  38  39
ENDBRANCH  30  33
ENDBRANCH  28  29
ENDBRANCH  27  28
ENDBRANCH   1  27
TORSDOF 13
ENDMDL
