MODEL 1
REMARK VINA RESULT:     -11.6      0.000      0.000
REMARK SMILES COC(=O)c1ccc(-c2ccc(C(=O)NCCCCNC(=O)c3ccc(-c4c5nc(c(-c6ccccc6)c6ccc([nH]6)c(-c6ccccc6)c6nc(c(-c7ccccc7)c7ccc4[nH]7)C=C6)C=C5)cc3)cc2O)cc1F
REMARK SMILES IDX 17 1 16 2 15 3 13 4 14 5 12 7 9 8 10 9 72 10 11 11 71 12
REMARK SMILES IDX 8 13 5 14 6 15 75 16 7 17 74 18 76 19 3 20 4 21 2 22 1 23
REMARK SMILES IDX 73 24 18 26 19 27 20 28 21 29 22 31 23 32 24 33 70 34 25 35
REMARK SMILES IDX 69 36 26 37 27 38 28 39 63 40 29 41 68 42 62 43 64 44 30 45
REMARK SMILES IDX 67 46 61 47 60 48 31 50 53 51 38 52 52 53 39 54 42 55 51 56
REMARK SMILES IDX 65 57 40 58 41 59 50 61 66 62 43 63 32 64 33 65 37 66 34 67
REMARK SMILES IDX 36 68 35 69 54 70 55 71 59 72 56 73 58 74 57 75 44 76 45 77
REMARK SMILES IDX 49 78 46 79 48 80 47 81
REMARK H PARENT 15 6 73 25 20 30 64 49 42 60
REMARK Flexibility Score: inf
ROOT
ATOM      1  C   UNL A   1      32.952  29.605  24.967  1.00  0.00     0.023 C 
ENDROOT
BRANCH   1   2
ATOM      2  C   UNL A   1      31.430  29.714  25.090  1.00  0.00     0.116 C 
BRANCH   2   3
ATOM      3  N   UNL A   1      30.810  29.582  23.787  1.00  0.00    -0.352 N 
ATOM      4  C   UNL A   1      30.650  28.518  22.938  1.00  0.00     0.251 C 
ATOM      5  O   UNL A   1      30.071  28.734  21.872  1.00  0.00    -0.269 OA
ATOM      6  H   UNL A   1      30.427  30.422  23.447  1.00  0.00     0.163 HD
BRANCH   4   7
ATOM      7  C   UNL A   1      31.087  27.126  23.255  1.00  0.00     0.043 A 
ATOM      8  C   UNL A   1      32.007  24.472  23.645  1.00  0.00     0.024 A 
ATOM      9  C   UNL A   1      32.703  25.351  22.807  1.00  0.00     0.013 A 
ATOM     10  C   UNL A   1      30.871  24.958  24.308  1.00  0.00     0.124 A 
ATOM     11  C   UNL A   1      32.240  26.656  22.605  1.00  0.00     0.015 A 
ATOM     12  C   UNL A   1      30.444  26.276  24.155  1.00  0.00     0.060 A 
BRANCH   8  13
ATOM     13  C   UNL A   1      32.453  23.089  23.837  1.00  0.00    -0.012 A 
ATOM     14  C   UNL A   1      33.093  20.396  24.328  1.00  0.00     0.095 A 
ATOM     15  C   UNL A   1      33.510  21.391  25.220  1.00  0.00     0.019 A 
ATOM     16  C   UNL A   1      32.370  20.751  23.191  1.00  0.00     0.138 A 
ATOM     17  C   UNL A   1      33.199  22.730  24.969  1.00  0.00     0.010 A 
ATOM     18  C   UNL A   1      32.057  22.084  22.940  1.00  0.00     0.049 A 
ATOM     19  F   UNL A   1      31.909  19.825  22.338  1.00  0.00    -0.206 F 
BRANCH  14  20
ATOM     20  C   UNL A   1      33.382  18.991  24.665  1.00  0.00     0.340 C 
ATOM     21  O   UNL A   1      34.480  18.482  24.507  1.00  0.00    -0.246 OA
BRANCH  20  22
ATOM     22  O   UNL A   1      32.260  18.362  25.085  1.00  0.00    -0.465 OA
ATOM     23  C   UNL A   1      32.416  16.954  25.260  1.00  0.00     0.282 C 
ENDBRANCH  20  22
ENDBRANCH  14  20
ENDBRANCH   8  13
BRANCH  10  24
ATOM     24  O   UNL A   1      30.167  24.115  25.128  1.00  0.00    -0.507 OA
ATOM     25  H   UNL A   1      30.520  23.869  25.961  1.00  0.00     0.293 HD
ENDBRANCH  10  24
ENDBRANCH   4   7
ENDBRANCH   2   3
ENDBRANCH   1   2
BRANCH   1  26
ATOM     26  C   UNL A   1      33.562  28.501  25.833  1.00  0.00     0.023 C 
BRANCH  26  27
ATOM     27  C   UNL A   1      33.532  28.784  27.329  1.00  0.00     0.116 C 
BRANCH  27  28
ATOM     28  N   UNL A   1      33.595  30.203  27.650  1.00  0.00    -0.352 N 
ATOM     29  C   UNL A   1      34.663  30.899  28.166  1.00  0.00     0.251 C 
ATOM     30  H   UNL A   1      32.778  30.725  27.477  1.00  0.00     0.163 HD
ATOM     31  O   UNL A   1      34.559  32.076  28.490  1.00  0.00    -0.269 OA
BRANCH  29  32
ATOM     32  C   UNL A   1      35.932  30.174  28.358  1.00  0.00     0.039 A 
ATOM     33  C   UNL A   1      36.870  30.159  27.324  1.00  0.00     0.014 A 
ATOM     34  C   UNL A   1      36.226  29.616  29.604  1.00  0.00     0.014 A 
ATOM     35  C   UNL A   1      38.144  29.645  27.566  1.00  0.00     0.010 A 
ATOM     36  C   UNL A   1      37.518  29.179  29.864  1.00  0.00     0.010 A 
ATOM     37  C   UNL A   1      38.489  29.193  28.849  1.00  0.00    -0.014 A 
BRANCH  37  38
ATOM     38  C   UNL A   1      39.857  28.720  29.173  1.00  0.00     0.031 A 
ATOM     39  C   UNL A   1      40.828  29.662  29.825  1.00  0.00     0.074 A 
ATOM     40  C   UNL A   1      40.254  27.490  28.792  1.00  0.00     0.049 A 
ATOM     41  N   UNL A   1      42.106  29.503  30.056  1.00  0.00    -0.248 NA
ATOM     42  C   UNL A   1      40.298  30.971  30.243  1.00  0.00     0.031 C 
ATOM     43  C   UNL A   1      39.413  26.491  28.130  1.00  0.00     0.029 A 
ATOM     44  N   UNL A   1      41.479  26.879  28.891  1.00  0.00    -0.354 N 
ATOM     45  C   UNL A   1      42.536  30.698  30.617  1.00  0.00     0.074 A 
ATOM     46  C   UNL A   1      41.397  31.588  30.648  1.00  0.00     0.031 C 
ATOM     47  C   UNL A   1      40.142  25.388  27.897  1.00  0.00     0.029 A 
ATOM     48  C   UNL A   1      41.513  25.619  28.342  1.00  0.00     0.049 A 
ATOM     49  H   UNL A   1      42.260  27.303  29.313  1.00  0.00     0.167 HD
ATOM     50  C   UNL A   1      43.766  31.019  31.080  1.00  0.00     0.031 A 
ATOM     51  C   UNL A   1      42.537  24.757  28.196  1.00  0.00     0.031 A 
ATOM     52  C   UNL A   1      44.892  30.127  31.057  1.00  0.00     0.049 A 
ATOM     53  C   UNL A   1      43.904  25.149  28.687  1.00  0.00     0.074 A 
ATOM     54  C   UNL A   1      46.167  30.339  31.552  1.00  0.00     0.029 A 
ATOM     55  N   UNL A   1      44.879  28.855  30.506  1.00  0.00    -0.354 N 
ATOM     56  N   UNL A   1      44.283  26.261  29.271  1.00  0.00    -0.248 NA
ATOM     57  C   UNL A   1      44.982  24.168  28.507  1.00  0.00     0.031 C 
ATOM     58  C   UNL A   1      46.942  29.217  31.245  1.00  0.00     0.029 A 
ATOM     59  C   UNL A   1      46.131  28.280  30.623  1.00  0.00     0.049 A 
ATOM     60  H   UNL A   1      44.096  28.426  30.091  1.00  0.00     0.167 HD
ATOM     61  C   UNL A   1      45.631  26.096  29.560  1.00  0.00     0.074 A 
ATOM     62  C   UNL A   1      46.004  24.779  29.092  1.00  0.00     0.031 C 
ATOM     63  C   UNL A   1      46.482  26.960  30.167  1.00  0.00     0.031 A 
BRANCH  50  64
ATOM     64  C   UNL A   1      43.957  32.403  31.638  1.00  0.00    -0.014 A 
ATOM     65  C   UNL A   1      43.720  32.685  32.992  1.00  0.00     0.009 A 
ATOM     66  C   UNL A   1      44.409  33.433  30.799  1.00  0.00     0.009 A 
ATOM     67  C   UNL A   1      43.891  33.981  33.486  1.00  0.00     0.001 A 
ATOM     68  C   UNL A   1      44.612  34.719  31.302  1.00  0.00     0.001 A 
ATOM     69  C   UNL A   1      44.342  34.995  32.642  1.00  0.00     0.000 A 
ENDBRANCH  50  64
BRANCH  51  70
ATOM     70  C   UNL A   1      42.311  23.434  27.555  1.00  0.00    -0.014 A 
ATOM     71  C   UNL A   1      41.846  22.347  28.311  1.00  0.00     0.009 A 
ATOM     72  C   UNL A   1      42.564  23.247  26.186  1.00  0.00     0.009 A 
ATOM     73  C   UNL A   1      41.664  21.095  27.716  1.00  0.00     0.001 A 
ATOM     74  C   UNL A   1      42.350  22.003  25.588  1.00  0.00     0.001 A 
ATOM     75  C   UNL A   1      41.911  20.926  26.356  1.00  0.00     0.000 A 
ENDBRANCH  51  70
BRANCH  63  76
ATOM     76  C   UNL A   1      47.889  26.496  30.419  1.00  0.00    -0.014 A 
ATOM     77  C   UNL A   1      48.242  25.836  31.605  1.00  0.00     0.009 A 
ATOM     78  C   UNL A   1      48.851  26.642  29.407  1.00  0.00     0.009 A 
ATOM     79  C   UNL A   1      49.537  25.344  31.778  1.00  0.00     0.001 A 
ATOM     80  C   UNL A   1      50.136  26.123  29.570  1.00  0.00     0.001 A 
ATOM     81  C   UNL A   1      50.479  25.480  30.757  1.00  0.00     0.000 A 
ENDBRANCH  63  76
ENDBRANCH  37  38
ENDBRANCH  29  32
ENDBRANCH  27  28
ENDBRANCH  26  27
ENDBRANCH   1  26
TORSDOF 15
ENDMDL
MODEL 2
REMARK VINA RESULT:     -11.5      2.290      8.055
REMARK SMILES COC(=O)c1ccc(-c2ccc(C(=O)NCCCCNC(=O)c3ccc(-c4c5nc(c(-c6ccccc6)c6ccc([nH]6)c(-c6ccccc6)c6nc(c(-c7ccccc7)c7ccc4[nH]7)C=C6)C=C5)cc3)cc2O)cc1F
REMARK SMILES IDX 17 1 16 2 15 3 13 4 14 5 12 7 9 8 10 9 72 10 11 11 71 12
REMARK SMILES IDX 8 13 5 14 6 15 75 16 7 17 74 18 76 19 3 20 4 21 2 22 1 23
REMARK SMILES IDX 73 24 18 26 19 27 20 28 21 29 22 31 23 32 24 33 70 34 25 35
REMARK SMILES IDX 69 36 26 37 27 38 28 39 63 40 29 41 68 42 62 43 64 44 30 45
REMARK SMILES IDX 67 46 61 47 60 48 31 50 53 51 38 52 52 53 39 54 42 55 51 56
REMARK SMILES IDX 65 57 40 58 41 59 50 61 66 62 43 63 32 64 33 65 37 66 34 67
REMARK SMILES IDX 36 68 35 69 54 70 55 71 59 72 56 73 58 74 57 75 44 76 45 77
REMARK SMILES IDX 49 78 46 79 48 80 47 81
REMARK H PARENT 15 6 73 25 20 30 64 49 42 60
REMARK Flexibility Score: inf
ROOT
ATOM      1  C   UNL A   1      36.588  21.515  24.924  1.00  0.00     0.023 C 
ENDROOT
BRANCH   1   2
ATOM      2  C   UNL A   1      35.567  21.502  26.065  1.00  0.00     0.116 C 
BRANCH   2   3
ATOM      3  N   UNL A   1      34.494  20.574  25.770  1.00  0.00    -0.352 N 
ATOM      4  C   UNL A   1      33.181  20.753  25.417  1.00  0.00     0.251 C 
ATOM      5  O   UNL A   1      32.507  19.738  25.237  1.00  0.00    -0.269 OA
ATOM      6  H   UNL A   1      34.762  19.629  25.833  1.00  0.00     0.163 HD
BRANCH   4   7
ATOM      7  C   UNL A   1      32.554  22.089  25.194  1.00  0.00     0.043 A 
ATOM      8  C   UNL A   1      31.483  24.640  24.573  1.00  0.00     0.024 A 
ATOM      9  C   UNL A   1      31.840  23.751  23.553  1.00  0.00     0.013 A 
ATOM     10  C   UNL A   1      31.636  24.214  25.900  1.00  0.00     0.124 A 
ATOM     11  C   UNL A   1      32.381  22.497  23.862  1.00  0.00     0.015 A 
ATOM     12  C   UNL A   1      32.118  22.942  26.208  1.00  0.00     0.060 A 
BRANCH   8  13
ATOM     13  C   UNL A   1      30.953  25.972  24.269  1.00  0.00    -0.012 A 
ATOM     14  C   UNL A   1      29.966  28.472  23.440  1.00  0.00     0.095 A 
ATOM     15  C   UNL A   1      31.326  28.315  23.735  1.00  0.00     0.019 A 
ATOM     16  C   UNL A   1      29.105  27.384  23.570  1.00  0.00     0.138 A 
ATOM     17  C   UNL A   1      31.812  27.075  24.157  1.00  0.00     0.010 A 
ATOM     18  C   UNL A   1      29.588  26.147  23.987  1.00  0.00     0.049 A 
ATOM     19  F   UNL A   1      27.806  27.477  23.250  1.00  0.00    -0.206 F 
BRANCH  14  20
ATOM     20  C   UNL A   1      29.507  29.777  22.934  1.00  0.00     0.340 C 
ATOM     21  O   UNL A   1      29.335  30.746  23.655  1.00  0.00    -0.246 OA
BRANCH  20  22
ATOM     22  O   UNL A   1      29.243  29.707  21.609  1.00  0.00    -0.465 OA
ATOM     23  C   UNL A   1      28.141  30.515  21.196  1.00  0.00     0.282 C 
ENDBRANCH  20  22
ENDBRANCH  14  20
ENDBRANCH   8  13
BRANCH  10  24
ATOM     24  O   UNL A   1      31.301  25.069  26.917  1.00  0.00    -0.507 OA
ATOM     25  H   UNL A   1      31.163  25.979  26.737  1.00  0.00     0.293 HD
ENDBRANCH  10  24
ENDBRANCH   4   7
ENDBRANCH   2   3
ENDBRANCH   1   2
BRANCH   1  26
ATOM     26  C   UNL A   1      37.586  20.357  24.979  1.00  0.00     0.023 C 
BRANCH  26  27
ATOM     27  C   UNL A   1      38.876  20.672  25.725  1.00  0.00     0.116 C 
BRANCH  27  28
ATOM     28  N   UNL A   1      39.813  19.557  25.755  1.00  0.00    -0.352 N 
ATOM     29  C   UNL A   1      41.142  19.588  26.108  1.00  0.00     0.251 C 
ATOM     30  H   UNL A   1      39.453  18.679  25.492  1.00  0.00     0.163 HD
ATOM     31  O   UNL A   1      41.854  18.598  25.993  1.00  0.00    -0.269 OA
BRANCH  29  32
ATOM     32  C   UNL A   1      41.699  20.864  26.591  1.00  0.00     0.039 A 
ATOM     33  C   UNL A   1      42.229  21.767  25.668  1.00  0.00     0.014 A 
ATOM     34  C   UNL A   1      41.584  21.199  27.941  1.00  0.00     0.014 A 
ATOM     35  C   UNL A   1      42.578  23.049  26.093  1.00  0.00     0.010 A 
ATOM     36  C   UNL A   1      41.858  22.500  28.344  1.00  0.00     0.010 A 
ATOM     37  C   UNL A   1      42.353  23.438  27.423  1.00  0.00    -0.014 A 
BRANCH  37  38
ATOM     38  C   UNL A   1      42.627  24.816  27.896  1.00  0.00     0.031 A 
ATOM     39  C   UNL A   1      44.012  25.179  28.349  1.00  0.00     0.074 A 
ATOM     40  C   UNL A   1      41.619  25.702  28.013  1.00  0.00     0.049 A 
ATOM     41  N   UNL A   1      44.431  26.271  28.934  1.00  0.00    -0.248 NA
ATOM     42  C   UNL A   1      45.059  24.163  28.148  1.00  0.00     0.031 C 
ATOM     43  C   UNL A   1      40.226  25.464  27.629  1.00  0.00     0.029 A 
ATOM     44  N   UNL A   1      41.611  26.982  28.511  1.00  0.00    -0.354 N 
ATOM     45  C   UNL A   1      45.779  26.062  29.195  1.00  0.00     0.074 A 
ATOM     46  C   UNL A   1      46.096  24.724  28.750  1.00  0.00     0.031 C 
ATOM     47  C   UNL A   1      39.503  26.565  27.892  1.00  0.00     0.029 A 
ATOM     48  C   UNL A   1      40.367  27.566  28.510  1.00  0.00     0.049 A 
ATOM     49  H   UNL A   1      42.420  27.437  28.839  1.00  0.00     0.167 HD
ATOM     50  C   UNL A   1      46.676  26.915  29.742  1.00  0.00     0.031 A 
ATOM     51  C   UNL A   1      39.964  28.765  28.974  1.00  0.00     0.031 A 
ATOM     52  C   UNL A   1      46.357  28.249  30.173  1.00  0.00     0.049 A 
ATOM     53  C   UNL A   1      40.972  29.683  29.610  1.00  0.00     0.074 A 
ATOM     54  C   UNL A   1      47.207  29.210  30.689  1.00  0.00     0.029 A 
ATOM     55  N   UNL A   1      45.088  28.806  30.140  1.00  0.00    -0.354 N 
ATOM     56  N   UNL A   1      42.257  29.495  29.796  1.00  0.00    -0.248 NA
ATOM     57  C   UNL A   1      40.479  30.980  30.093  1.00  0.00     0.031 C 
ATOM     58  C   UNL A   1      46.440  30.329  31.027  1.00  0.00     0.029 A 
ATOM     59  C   UNL A   1      45.127  30.089  30.654  1.00  0.00     0.049 A 
ATOM     60  H   UNL A   1      44.281  28.355  29.804  1.00  0.00     0.167 HD
ATOM     61  C   UNL A   1      42.730  30.663  30.382  1.00  0.00     0.074 A 
ATOM     62  C   UNL A   1      41.597  31.553  30.517  1.00  0.00     0.031 C 
ATOM     63  C   UNL A   1      43.993  30.970  30.767  1.00  0.00     0.031 A 
BRANCH  50  64
ATOM     64  C   UNL A   1      48.084  26.420  29.918  1.00  0.00    -0.014 A 
ATOM     65  C   UNL A   1      49.048  26.583  28.911  1.00  0.00     0.009 A 
ATOM     66  C   UNL A   1      48.460  25.807  31.123  1.00  0.00     0.009 A 
ATOM     67  C   UNL A   1      50.348  26.104  29.090  1.00  0.00     0.001 A 
ATOM     68  C   UNL A   1      49.768  25.359  31.313  1.00  0.00     0.001 A 
ATOM     69  C   UNL A   1      50.708  25.497  30.293  1.00  0.00     0.000 A 
ENDBRANCH  50  64
BRANCH  51  70
ATOM     70  C   UNL A   1      38.538  29.169  28.855  1.00  0.00    -0.014 A 
ATOM     71  C   UNL A   1      37.667  29.033  29.948  1.00  0.00     0.009 A 
ATOM     72  C   UNL A   1      38.036  29.688  27.651  1.00  0.00     0.009 A 
ATOM     73  C   UNL A   1      36.319  29.384  29.828  1.00  0.00     0.001 A 
ATOM     74  C   UNL A   1      36.696  30.068  27.545  1.00  0.00     0.001 A 
ATOM     75  C   UNL A   1      35.837  29.905  28.630  1.00  0.00     0.000 A 
ENDBRANCH  51  70
BRANCH  63  76
ATOM     76  C   UNL A   1      44.242  32.345  31.317  1.00  0.00    -0.014 A 
ATOM     77  C   UNL A   1      44.198  32.602  32.695  1.00  0.00     0.009 A 
ATOM     78  C   UNL A   1      44.619  33.377  30.442  1.00  0.00     0.009 A 
ATOM     79  C   UNL A   1      44.514  33.872  33.185  1.00  0.00     0.001 A 
ATOM     80  C   UNL A   1      44.963  34.636  30.937  1.00  0.00     0.001 A 
ATOM     81  C   UNL A   1      44.905  34.883  32.306  1.00  0.00     0.000 A 
ENDBRANCH  63  76
ENDBRANCH  37  38
ENDBRANCH  29  32
ENDBRANCH  27  28
ENDBRANCH  26  27
ENDBRANCH   1  26
TORSDOF 15
ENDMDL
MODEL 3
REMARK VINA RESULT:     -11.4      2.458      7.875
REMARK SMILES COC(=O)c1ccc(-c2ccc(C(=O)NCCCCNC(=O)c3ccc(-c4c5nc(c(-c6ccccc6)c6ccc([nH]6)c(-c6ccccc6)c6nc(c(-c7ccccc7)c7ccc4[nH]7)C=C6)C=C5)cc3)cc2O)cc1F
REMARK SMILES IDX 17 1 16 2 15 3 13 4 14 5 12 7 9 8 10 9 72 10 11 11 71 12
REMARK SMILES IDX 8 13 5 14 6 15 75 16 7 17 74 18 76 19 3 20 4 21 2 22 1 23
REMARK SMILES IDX 73 24 18 26 19 27 20 28 21 29 22 31 23 32 24 33 70 34 25 35
REMARK SMILES IDX 69 36 26 37 27 38 28 39 63 40 29 41 68 42 62 43 64 44 30 45
REMARK SMILES IDX 67 46 61 47 60 48 31 50 53 51 38 52 52 53 39 54 42 55 51 56
REMARK SMILES IDX 65 57 40 58 41 59 50 61 66 62 43 63 32 64 33 65 37 66 34 67
REMARK SMILES IDX 36 68 35 69 54 70 55 71 59 72 56 73 58 74 57 75 44 76 45 77
REMARK SMILES IDX 49 78 46 79 48 80 47 81
REMARK H PARENT 15 6 73 25 20 30 64 49 42 60
REMARK Flexibility Score: inf
ROOT
ATOM      1  C   UNL A   1      36.333  22.612  24.593  1.00  0.00     0.023 C 
ENDROOT
BRANCH   1   2
ATOM      2  C   UNL A   1      35.059  22.494  23.752  1.00  0.00     0.116 C 
BRANCH   2   3
ATOM      3  N   UNL A   1      34.120  21.591  24.386  1.00  0.00    -0.352 N 
ATOM      4  C   UNL A   1      32.831  21.750  24.827  1.00  0.00     0.251 C 
ATOM      5  O   UNL A   1      32.291  20.770  25.342  1.00  0.00    -0.269 OA
ATOM      6  H   UNL A   1      34.478  20.685  24.528  1.00  0.00     0.163 HD
BRANCH   4   7
ATOM      7  C   UNL A   1      32.047  23.010  24.668  1.00  0.00     0.043 A 
ATOM      8  C   UNL A   1      30.617  25.402  24.143  1.00  0.00     0.024 A 
ATOM      9  C   UNL A   1      30.765  24.429  23.148  1.00  0.00     0.013 A 
ATOM     10  C   UNL A   1      31.163  25.138  25.407  1.00  0.00     0.124 A 
ATOM     11  C   UNL A   1      31.483  23.255  23.405  1.00  0.00     0.015 A 
ATOM     12  C   UNL A   1      31.825  23.942  25.682  1.00  0.00     0.060 A 
BRANCH   8  13
ATOM     13  C   UNL A   1      29.904  26.655  23.880  1.00  0.00    -0.012 A 
ATOM     14  C   UNL A   1      28.512  28.982  23.135  1.00  0.00     0.095 A 
ATOM     15  C   UNL A   1      29.911  28.955  23.091  1.00  0.00     0.019 A 
ATOM     16  C   UNL A   1      27.816  27.852  23.561  1.00  0.00     0.138 A 
ATOM     17  C   UNL A   1      30.601  27.801  23.470  1.00  0.00     0.010 A 
ATOM     18  C   UNL A   1      28.502  26.701  23.938  1.00  0.00     0.049 A 
ATOM     19  F   UNL A   1      26.476  27.819  23.572  1.00  0.00    -0.206 F 
BRANCH  14  20
ATOM     20  C   UNL A   1      27.821  30.195  22.662  1.00  0.00     0.340 C 
ATOM     21  O   UNL A   1      27.186  30.929  23.401  1.00  0.00    -0.246 OA
BRANCH  20  22
ATOM     22  O   UNL A   1      27.934  30.312  21.318  1.00  0.00    -0.465 OA
ATOM     23  C   UNL A   1      27.959  31.661  20.855  1.00  0.00     0.282 C 
ENDBRANCH  20  22
ENDBRANCH  14  20
ENDBRANCH   8  13
BRANCH  10  24
ATOM     24  O   UNL A   1      31.039  26.079  26.396  1.00  0.00    -0.507 OA
ATOM     25  H   UNL A   1      30.361  25.996  27.038  1.00  0.00     0.293 HD
ENDBRANCH  10  24
ENDBRANCH   4   7
ENDBRANCH   2   3
ENDBRANCH   1   2
BRANCH   1  26
ATOM     26  C   UNL A   1      36.988  21.267  24.910  1.00  0.00     0.023 C 
BRANCH  26  27
ATOM     27  C   UNL A   1      38.328  21.372  25.627  1.00  0.00     0.116 C 
BRANCH  27  28
ATOM     28  N   UNL A   1      39.110  20.145  25.573  1.00  0.00    -0.352 N 
ATOM     29  C   UNL A   1      40.422  19.969  25.949  1.00  0.00     0.251 C 
ATOM     30  H   UNL A   1      38.647  19.349  25.226  1.00  0.00     0.163 HD
ATOM     31  O   UNL A   1      41.001  18.907  25.758  1.00  0.00    -0.269 OA
BRANCH  29  32
ATOM     32  C   UNL A   1      41.126  21.113  26.554  1.00  0.00     0.039 A 
ATOM     33  C   UNL A   1      41.764  22.036  25.723  1.00  0.00     0.014 A 
ATOM     34  C   UNL A   1      41.048  21.322  27.932  1.00  0.00     0.014 A 
ATOM     35  C   UNL A   1      42.263  23.217  26.271  1.00  0.00     0.010 A 
ATOM     36  C   UNL A   1      41.474  22.532  28.461  1.00  0.00     0.010 A 
ATOM     37  C   UNL A   1      42.081  23.493  27.636  1.00  0.00    -0.014 A 
BRANCH  37  38
ATOM     38  C   UNL A   1      42.518  24.773  28.243  1.00  0.00     0.031 A 
ATOM     39  C   UNL A   1      41.513  25.867  28.460  1.00  0.00     0.074 A 
ATOM     40  C   UNL A   1      43.823  24.987  28.501  1.00  0.00     0.049 A 
ATOM     41  N   UNL A   1      41.707  27.106  28.834  1.00  0.00    -0.248 NA
ATOM     42  C   UNL A   1      40.105  25.532  28.188  1.00  0.00     0.031 C 
ATOM     43  C   UNL A   1      44.900  24.014  28.312  1.00  0.00     0.029 A 
ATOM     44  N   UNL A   1      44.468  26.108  28.962  1.00  0.00    -0.354 N 
ATOM     45  C   UNL A   1      40.453  27.703  28.814  1.00  0.00     0.074 A 
ATOM     46  C   UNL A   1      39.515  26.707  28.346  1.00  0.00     0.031 C 
ATOM     47  C   UNL A   1      46.067  24.574  28.668  1.00  0.00     0.029 A 
ATOM     48  C   UNL A   1      45.831  25.960  29.058  1.00  0.00     0.049 A 
ATOM     49  H   UNL A   1      43.998  26.940  29.200  1.00  0.00     0.167 HD
ATOM     50  C   UNL A   1      40.111  28.963  29.168  1.00  0.00     0.031 A 
ATOM     51  C   UNL A   1      46.784  26.847  29.403  1.00  0.00     0.031 A 
ATOM     52  C   UNL A   1      41.046  29.945  29.644  1.00  0.00     0.049 A 
ATOM     53  C   UNL A   1      46.384  28.253  29.761  1.00  0.00     0.074 A 
ATOM     54  C   UNL A   1      40.792  31.233  30.080  1.00  0.00     0.029 A 
ATOM     55  N   UNL A   1      42.415  29.749  29.739  1.00  0.00    -0.354 N 
ATOM     56  N   UNL A   1      45.186  28.787  29.794  1.00  0.00    -0.248 NA
ATOM     57  C   UNL A   1      47.464  29.177  30.134  1.00  0.00     0.031 C 
ATOM     58  C   UNL A   1      42.016  31.838  30.383  1.00  0.00     0.029 A 
ATOM     59  C   UNL A   1      43.023  30.902  30.202  1.00  0.00     0.049 A 
ATOM     60  H   UNL A   1      42.885  28.915  29.511  1.00  0.00     0.167 HD
ATOM     61  C   UNL A   1      45.367  30.095  30.228  1.00  0.00     0.074 A 
ATOM     62  C   UNL A   1      46.786  30.272  30.448  1.00  0.00     0.031 C 
ATOM     63  C   UNL A   1      44.436  31.059  30.432  1.00  0.00     0.031 A 
BRANCH  50  64
ATOM     64  C   UNL A   1      38.664  29.351  29.040  1.00  0.00    -0.014 A 
ATOM     65  C   UNL A   1      38.136  29.816  27.825  1.00  0.00     0.009 A 
ATOM     66  C   UNL A   1      37.810  29.222  30.146  1.00  0.00     0.009 A 
ATOM     67  C   UNL A   1      36.792  30.183  27.732  1.00  0.00     0.001 A 
ATOM     68  C   UNL A   1      36.459  29.558  30.041  1.00  0.00     0.001 A 
ATOM     69  C   UNL A   1      35.954  30.049  28.838  1.00  0.00     0.000 A 
ENDBRANCH  50  64
BRANCH  51  70
ATOM     70  C   UNL A   1      48.212  26.435  29.428  1.00  0.00    -0.014 A 
ATOM     71  C   UNL A   1      48.781  25.908  30.598  1.00  0.00     0.009 A 
ATOM     72  C   UNL A   1      49.017  26.567  28.285  1.00  0.00     0.009 A 
ATOM     73  C   UNL A   1      50.132  25.550  30.631  1.00  0.00     0.001 A 
ATOM     74  C   UNL A   1      50.359  26.177  28.312  1.00  0.00     0.001 A 
ATOM     75  C   UNL A   1      50.917  25.679  29.488  1.00  0.00     0.000 A 
ENDBRANCH  51  70
BRANCH  63  76
ATOM     76  C   UNL A   1      44.903  32.379  30.975  1.00  0.00    -0.014 A 
ATOM     77  C   UNL A   1      45.237  33.444  30.126  1.00  0.00     0.009 A 
ATOM     78  C   UNL A   1      44.916  32.584  32.364  1.00  0.00     0.009 A 
ATOM     79  C   UNL A   1      45.590  34.686  30.660  1.00  0.00     0.001 A 
ATOM     80  C   UNL A   1      45.239  33.834  32.894  1.00  0.00     0.001 A 
ATOM     81  C   UNL A   1      45.581  34.881  32.042  1.00  0.00     0.000 A 
ENDBRANCH  63  76
ENDBRANCH  37  38
ENDBRANCH  29  32
ENDBRANCH  27  28
ENDBRANCH  26  27
ENDBRANCH   1  26
TORSDOF 15
ENDMDL
