MODEL 1
REMARK VINA RESULT:     -11.3      0.000      0.000
REMARK SMILES CCCCc1ncc(C[N@H+]2C[C@@H]3c4ccccc4OC[C@]3(C(=O)NCCCCNC(=O)c3ccc(-c4c5nc(c(-c6ccccc6)c6ccc([nH]6)c(-c6ccccc6)c6nc(c(-c7ccccc7)c7ccc4[nH]7)C=C6)C=C5)cc3)C2)[nH]1
REMARK SMILES IDX 25 1 24 2 22 3 23 4 21 6 10 7 11 8 80 9 12 11 13 12 20 13
REMARK SMILES IDX 14 14 18 15 19 16 15 17 17 18 16 19 9 20 8 21 5 22 6 23
REMARK SMILES IDX 81 24 7 25 4 27 3 28 2 29 1 30 26 31 27 32 28 33 29 34 30 35
REMARK SMILES IDX 31 37 32 38 33 39 79 40 34 41 78 42 35 43 36 44 37 45 72 46
REMARK SMILES IDX 38 47 77 48 71 49 73 50 39 51 76 52 70 53 69 54 40 56 62 57
REMARK SMILES IDX 47 58 61 59 48 60 51 61 60 62 74 63 49 64 50 65 59 67 75 68
REMARK SMILES IDX 52 69 41 70 42 71 46 72 43 73 45 74 44 75 63 76 64 77 68 78
REMARK SMILES IDX 65 79 67 80 66 81 53 82 54 83 58 84 55 85 57 86 56 87
REMARK H PARENT 24 5 10 10 81 26 29 36 73 55 51 66
REMARK Flexibility Score: inf
ROOT
ATOM      1  C   UNL A   1      33.412  29.270  26.158  1.00  0.00     0.116 C 
ENDROOT
BRANCH   1   2
ATOM      2  N   UNL A   1      34.197  28.860  25.005  1.00  0.00    -0.355 N 
ATOM      3  C   UNL A   1      33.768  27.970  24.040  1.00  0.00     0.236 C 
ATOM      4  O   UNL A   1      34.153  28.146  22.880  1.00  0.00    -0.274 OA
ATOM      5  H   UNL A   1      35.098  29.244  24.905  1.00  0.00     0.163 HD
BRANCH   3   6
ATOM      6  C   UNL A   1      32.846  26.800  24.522  1.00  0.00     0.144 C 
ATOM      7  N   UNL A   1      30.562  27.074  23.722  1.00  0.00    -0.328 N 
ATOM      8  C   UNL A   1      30.631  25.697  24.172  1.00  0.00     0.272 C 
ATOM      9  C   UNL A   1      31.933  27.389  23.325  1.00  0.00     0.284 C 
ATOM     10  H   UNL A   1      30.234  27.690  24.467  1.00  0.00     0.348 HD
ATOM     11  C   UNL A   1      32.143  25.396  24.171  1.00  0.00     0.103 C 
ATOM     12  C   UNL A   1      32.424  24.180  25.027  1.00  0.00     0.004 A 
ATOM     13  C   UNL A   1      34.247  26.105  24.874  1.00  0.00     0.253 C 
ATOM     14  C   UNL A   1      31.752  22.962  24.839  1.00  0.00     0.008 A 
ATOM     15  C   UNL A   1      33.453  24.231  25.954  1.00  0.00     0.123 A 
ATOM     16  O   UNL A   1      34.166  25.377  26.119  1.00  0.00    -0.492 OA
ATOM     17  C   UNL A   1      32.100  21.837  25.589  1.00  0.00     0.001 A 
ATOM     18  C   UNL A   1      33.799  23.121  26.720  1.00  0.00     0.047 A 
ATOM     19  C   UNL A   1      33.126  21.917  26.530  1.00  0.00     0.004 A 
BRANCH   7  20
ATOM     20  C   UNL A   1      29.527  27.375  22.728  1.00  0.00     0.319 C 
BRANCH  20  21
ATOM     21  C   UNL A   1      28.661  28.527  23.083  1.00  0.00     0.090 A 
ATOM     22  C   UNL A   1      28.083  30.649  23.385  1.00  0.00     0.106 A 
ATOM     23  N   UNL A   1      26.950  29.976  23.340  1.00  0.00    -0.241 NA
ATOM     24  N   UNL A   1      29.145  29.777  23.395  1.00  0.00    -0.341 N 
ATOM     25  C   UNL A   1      27.295  28.662  23.168  1.00  0.00     0.140 A 
ATOM     26  H   UNL A   1      30.082  30.006  23.589  1.00  0.00     0.168 HD
BRANCH  22  27
ATOM     27  C   UNL A   1      28.199  32.137  23.432  1.00  0.00     0.075 C 
BRANCH  27  28
ATOM     28  C   UNL A   1      28.733  32.838  22.179  1.00  0.00     0.008 C 
BRANCH  28  29
ATOM     29  C   UNL A   1      27.798  32.932  20.969  1.00  0.00    -0.003 C 
ATOM     30  C   UNL A   1      27.880  31.773  19.992  1.00  0.00     0.004 C 
ENDBRANCH  28  29
ENDBRANCH  27  28
ENDBRANCH  22  27
ENDBRANCH  20  21
ENDBRANCH   7  20
ENDBRANCH   3   6
ENDBRANCH   1   2
BRANCH   1  31
ATOM     31  C   UNL A   1      32.207  30.140  25.842  1.00  0.00     0.023 C 
BRANCH  31  32
ATOM     32  C   UNL A   1      31.863  31.214  26.868  1.00  0.00     0.023 C 
BRANCH  32  33
ATOM     33  C   UNL A   1      32.986  32.161  27.272  1.00  0.00     0.116 C 
BRANCH  33  34
ATOM     34  N   UNL A   1      32.549  33.503  27.617  1.00  0.00    -0.352 N 
ATOM     35  C   UNL A   1      33.151  34.432  28.438  1.00  0.00     0.251 C 
ATOM     36  H   UNL A   1      31.703  33.791  27.206  1.00  0.00     0.163 HD
ATOM     37  O   UNL A   1      32.619  35.518  28.646  1.00  0.00    -0.269 OA
BRANCH  35  38
ATOM     38  C   UNL A   1      34.416  34.085  29.117  1.00  0.00     0.039 A 
ATOM     39  C   UNL A   1      35.645  34.353  28.513  1.00  0.00     0.014 A 
ATOM     40  C   UNL A   1      34.362  33.396  30.332  1.00  0.00     0.014 A 
ATOM     41  C   UNL A   1      36.792  33.744  29.006  1.00  0.00     0.010 A 
ATOM     42  C   UNL A   1      35.535  32.873  30.881  1.00  0.00     0.010 A 
ATOM     43  C   UNL A   1      36.749  32.986  30.188  1.00  0.00    -0.014 A 
BRANCH  43  44
ATOM     44  C   UNL A   1      37.985  32.316  30.671  1.00  0.00     0.031 A 
ATOM     45  C   UNL A   1      38.486  31.050  30.023  1.00  0.00     0.074 A 
ATOM     46  C   UNL A   1      38.697  32.889  31.660  1.00  0.00     0.049 A 
ATOM     47  N   UNL A   1      39.554  30.348  30.310  1.00  0.00    -0.248 NA
ATOM     48  C   UNL A   1      37.692  30.498  28.911  1.00  0.00     0.031 C 
ATOM     49  C   UNL A   1      38.330  34.128  32.349  1.00  0.00     0.029 A 
ATOM     50  N   UNL A   1      39.889  32.530  32.233  1.00  0.00    -0.354 N 
ATOM     51  C   UNL A   1      39.546  29.266  29.438  1.00  0.00     0.074 A 
ATOM     52  C   UNL A   1      38.360  29.389  28.621  1.00  0.00     0.031 C 
ATOM     53  C   UNL A   1      39.309  34.463  33.200  1.00  0.00     0.029 A 
ATOM     54  C   UNL A   1      40.334  33.425  33.176  1.00  0.00     0.049 A 
ATOM     55  H   UNL A   1      40.380  31.711  31.993  1.00  0.00     0.167 HD
ATOM     56  C   UNL A   1      40.452  28.264  29.325  1.00  0.00     0.031 A 
ATOM     57  C   UNL A   1      41.433  33.410  33.952  1.00  0.00     0.031 A 
ATOM     58  C   UNL A   1      41.643  28.155  30.125  1.00  0.00     0.049 A 
ATOM     59  C   UNL A   1      42.394  32.265  33.841  1.00  0.00     0.074 A 
ATOM     60  C   UNL A   1      42.629  27.185  30.064  1.00  0.00     0.029 A 
ATOM     61  N   UNL A   1      42.013  29.041  31.122  1.00  0.00    -0.354 N 
ATOM     62  N   UNL A   1      42.364  31.246  33.017  1.00  0.00    -0.248 NA
ATOM     63  C   UNL A   1      43.531  32.258  34.772  1.00  0.00     0.031 C 
ATOM     64  C   UNL A   1      43.569  27.455  31.062  1.00  0.00     0.029 A 
ATOM     65  C   UNL A   1      43.198  28.625  31.704  1.00  0.00     0.049 A 
ATOM     66  H   UNL A   1      41.509  29.846  31.379  1.00  0.00     0.167 HD
ATOM     67  C   UNL A   1      43.475  30.476  33.329  1.00  0.00     0.074 A 
ATOM     68  C   UNL A   1      44.174  31.159  34.399  1.00  0.00     0.031 C 
ATOM     69  C   UNL A   1      43.876  29.305  32.778  1.00  0.00     0.031 A 
BRANCH  56  70
ATOM     70  C   UNL A   1      40.196  27.185  28.309  1.00  0.00    -0.014 A 
ATOM     71  C   UNL A   1      39.450  26.053  28.673  1.00  0.00     0.009 A 
ATOM     72  C   UNL A   1      40.779  27.234  27.034  1.00  0.00     0.009 A 
ATOM     73  C   UNL A   1      39.303  24.985  27.786  1.00  0.00     0.001 A 
ATOM     74  C   UNL A   1      40.609  26.173  26.139  1.00  0.00     0.001 A 
ATOM     75  C   UNL A   1      39.880  25.047  26.520  1.00  0.00     0.000 A 
ENDBRANCH  56  70
BRANCH  57  76
ATOM     76  C   UNL A   1      41.660  34.525  34.908  1.00  0.00    -0.014 A 
ATOM     77  C   UNL A   1      42.429  35.638  34.531  1.00  0.00     0.009 A 
ATOM     78  C   UNL A   1      41.171  34.449  36.220  1.00  0.00     0.009 A 
ATOM     79  C   UNL A   1      42.733  36.637  35.458  1.00  0.00     0.001 A 
ATOM     80  C   UNL A   1      41.451  35.466  37.136  1.00  0.00     0.001 A 
ATOM     81  C   UNL A   1      42.241  36.552  36.759  1.00  0.00     0.000 A 
ENDBRANCH  57  76
BRANCH  69  82
ATOM     82  C   UNL A   1      45.125  28.673  33.319  1.00  0.00    -0.014 A 
ATOM     83  C   UNL A   1      46.358  28.912  32.692  1.00  0.00     0.009 A 
ATOM     84  C   UNL A   1      45.066  27.766  34.388  1.00  0.00     0.009 A 
ATOM     85  C   UNL A   1      47.508  28.246  33.118  1.00  0.00     0.001 A 
ATOM     86  C   UNL A   1      46.223  27.120  34.827  1.00  0.00     0.001 A 
ATOM     87  C   UNL A   1      47.439  27.354  34.187  1.00  0.00     0.000 A 
ENDBRANCH  69  82
ENDBRANCH  43  44
ENDBRANCH  35  38
ENDBRANCH  33  34
ENDBRANCH  32  33
ENDBRANCH  31  32
ENDBRANCH   1  31
TORSDOF 16
ENDMDL
MODEL 2
REMARK VINA RESULT:     -11.1      2.854      4.384
REMARK SMILES CCCCc1ncc(C[N@H+]2C[C@@H]3c4ccccc4OC[C@]3(C(=O)NCCCCNC(=O)c3ccc(-c4c5nc(c(-c6ccccc6)c6ccc([nH]6)c(-c6ccccc6)c6nc(c(-c7ccccc7)c7ccc4[nH]7)C=C6)C=C5)cc3)C2)[nH]1
REMARK SMILES IDX 25 1 24 2 22 3 23 4 21 6 10 7 11 8 80 9 12 11 13 12 20 13
REMARK SMILES IDX 14 14 18 15 19 16 15 17 17 18 16 19 9 20 8 21 5 22 6 23
REMARK SMILES IDX 81 24 7 25 4 27 3 28 2 29 1 30 26 31 27 32 28 33 29 34 30 35
REMARK SMILES IDX 31 37 32 38 33 39 79 40 34 41 78 42 35 43 36 44 37 45 72 46
REMARK SMILES IDX 38 47 77 48 71 49 73 50 39 51 76 52 70 53 69 54 40 56 62 57
REMARK SMILES IDX 47 58 61 59 48 60 51 61 60 62 74 63 49 64 50 65 59 67 75 68
REMARK SMILES IDX 52 69 41 70 42 71 46 72 43 73 45 74 44 75 63 76 64 77 68 78
REMARK SMILES IDX 65 79 67 80 66 81 53 82 54 83 58 84 55 85 57 86 56 87
REMARK H PARENT 24 5 10 10 81 26 29 36 73 55 51 66
REMARK Flexibility Score: inf
ROOT
ATOM      1  C   UNL A   1      32.079  26.165  26.234  1.00  0.00     0.116 C 
ENDROOT
BRANCH   1   2
ATOM      2  N   UNL A   1      30.915  25.322  26.014  1.00  0.00    -0.355 N 
ATOM      3  C   UNL A   1      30.969  23.990  25.651  1.00  0.00     0.236 C 
ATOM      4  O   UNL A   1      30.084  23.240  26.074  1.00  0.00    -0.274 OA
ATOM      5  H   UNL A   1      30.026  25.729  26.131  1.00  0.00     0.163 HD
BRANCH   3   6
ATOM      6  C   UNL A   1      32.144  23.564  24.707  1.00  0.00     0.144 C 
ATOM      7  N   UNL A   1      31.972  24.636  22.527  1.00  0.00    -0.328 N 
ATOM      8  C   UNL A   1      33.325  24.118  22.576  1.00  0.00     0.272 C 
ATOM      9  C   UNL A   1      31.633  24.885  23.927  1.00  0.00     0.284 C 
ATOM     10  H   UNL A   1      31.334  23.963  22.099  1.00  0.00     0.348 HD
ATOM     11  C   UNL A   1      33.581  23.930  24.084  1.00  0.00     0.103 C 
ATOM     12  C   UNL A   1      34.751  22.992  24.292  1.00  0.00     0.004 A 
ATOM     13  C   UNL A   1      32.782  23.021  26.074  1.00  0.00     0.253 C 
ATOM     14  C   UNL A   1      35.995  23.200  23.677  1.00  0.00     0.008 A 
ATOM     15  C   UNL A   1      34.630  21.955  25.204  1.00  0.00     0.123 A 
ATOM     16  O   UNL A   1      33.457  21.762  25.865  1.00  0.00    -0.492 OA
ATOM     17  C   UNL A   1      37.076  22.364  23.962  1.00  0.00     0.001 A 
ATOM     18  C   UNL A   1      35.695  21.104  25.484  1.00  0.00     0.047 A 
ATOM     19  C   UNL A   1      36.926  21.315  24.868  1.00  0.00     0.004 A 
BRANCH   7  20
ATOM     20  C   UNL A   1      31.744  25.757  21.609  1.00  0.00     0.319 C 
BRANCH  20  21
ATOM     21  C   UNL A   1      31.795  27.091  22.256  1.00  0.00     0.090 A 
ATOM     22  C   UNL A   1      31.067  28.861  23.380  1.00  0.00     0.106 A 
ATOM     23  N   UNL A   1      32.383  28.931  23.423  1.00  0.00    -0.241 NA
ATOM     24  N   UNL A   1      30.680  27.845  22.541  1.00  0.00    -0.341 N 
ATOM     25  C   UNL A   1      32.844  27.851  22.720  1.00  0.00     0.140 A 
ATOM     26  H   UNL A   1      29.768  27.684  22.206  1.00  0.00     0.168 HD
BRANCH  22  27
ATOM     27  C   UNL A   1      30.132  29.760  24.121  1.00  0.00     0.075 C 
BRANCH  27  28
ATOM     28  C   UNL A   1      29.278  30.722  23.289  1.00  0.00     0.008 C 
BRANCH  28  29
ATOM     29  C   UNL A   1      27.766  30.476  23.253  1.00  0.00    -0.003 C 
ATOM     30  C   UNL A   1      27.347  29.045  22.973  1.00  0.00     0.004 C 
ENDBRANCH  28  29
ENDBRANCH  27  28
ENDBRANCH  22  27
ENDBRANCH  20  21
ENDBRANCH   7  20
ENDBRANCH   3   6
ENDBRANCH   1   2
BRANCH   1  31
ATOM     31  C   UNL A   1      31.784  27.527  26.839  1.00  0.00     0.023 C 
BRANCH  31  32
ATOM     32  C   UNL A   1      32.941  28.212  27.557  1.00  0.00     0.023 C 
BRANCH  32  33
ATOM     33  C   UNL A   1      33.545  29.432  26.873  1.00  0.00     0.116 C 
BRANCH  33  34
ATOM     34  N   UNL A   1      33.610  30.622  27.705  1.00  0.00    -0.352 N 
ATOM     35  C   UNL A   1      34.642  31.077  28.497  1.00  0.00     0.251 C 
ATOM     36  H   UNL A   1      32.802  31.182  27.704  1.00  0.00     0.163 HD
ATOM     37  O   UNL A   1      34.511  32.096  29.167  1.00  0.00    -0.269 OA
BRANCH  35  38
ATOM     38  C   UNL A   1      35.891  30.293  28.580  1.00  0.00     0.039 A 
ATOM     39  C   UNL A   1      36.248  29.647  29.764  1.00  0.00     0.014 A 
ATOM     40  C   UNL A   1      36.757  30.287  27.483  1.00  0.00     0.014 A 
ATOM     41  C   UNL A   1      37.551  29.191  29.923  1.00  0.00     0.010 A 
ATOM     42  C   UNL A   1      38.033  29.734  27.615  1.00  0.00     0.010 A 
ATOM     43  C   UNL A   1      38.463  29.241  28.856  1.00  0.00    -0.014 A 
BRANCH  43  44
ATOM     44  C   UNL A   1      39.861  28.781  29.068  1.00  0.00     0.031 A 
ATOM     45  C   UNL A   1      40.300  27.405  28.637  1.00  0.00     0.074 A 
ATOM     46  C   UNL A   1      40.758  29.637  29.595  1.00  0.00     0.049 A 
ATOM     47  N   UNL A   1      41.484  26.854  28.733  1.00  0.00    -0.248 NA
ATOM     48  C   UNL A   1      39.286  26.532  28.021  1.00  0.00     0.031 C 
ATOM     49  C   UNL A   1      40.461  31.005  30.025  1.00  0.00     0.029 A 
ATOM     50  N   UNL A   1      42.103  29.500  29.823  1.00  0.00    -0.354 N 
ATOM     51  C   UNL A   1      41.352  25.571  28.216  1.00  0.00     0.074 A 
ATOM     52  C   UNL A   1      39.970  25.413  27.822  1.00  0.00     0.031 C 
ATOM     53  C   UNL A   1      41.600  31.603  30.400  1.00  0.00     0.029 A 
ATOM     54  C   UNL A   1      42.693  30.640  30.312  1.00  0.00     0.049 A 
ATOM     55  H   UNL A   1      42.598  28.666  29.655  1.00  0.00     0.167 HD
ATOM     56  C   UNL A   1      42.301  24.614  28.075  1.00  0.00     0.031 A 
ATOM     57  C   UNL A   1      43.966  30.887  30.669  1.00  0.00     0.031 A 
ATOM     58  C   UNL A   1      43.681  24.779  28.448  1.00  0.00     0.049 A 
ATOM     59  C   UNL A   1      44.987  29.794  30.549  1.00  0.00     0.074 A 
ATOM     60  C   UNL A   1      44.717  23.870  28.322  1.00  0.00     0.029 A 
ATOM     61  N   UNL A   1      44.218  25.924  29.013  1.00  0.00    -0.354 N 
ATOM     62  N   UNL A   1      44.839  28.585  30.067  1.00  0.00    -0.248 NA
ATOM     63  C   UNL A   1      46.341  30.094  31.032  1.00  0.00     0.031 C 
ATOM     64  C   UNL A   1      45.871  24.446  28.860  1.00  0.00     0.029 A 
ATOM     65  C   UNL A   1      45.565  25.734  29.267  1.00  0.00     0.049 A 
ATOM     66  H   UNL A   1      43.716  26.749  29.205  1.00  0.00     0.167 HD
ATOM     67  C   UNL A   1      46.081  27.977  30.188  1.00  0.00     0.074 A 
ATOM     68  C   UNL A   1      46.977  28.960  30.765  1.00  0.00     0.031 C 
ATOM     69  C   UNL A   1      46.442  26.715  29.855  1.00  0.00     0.031 A 
BRANCH  56  70
ATOM     70  C   UNL A   1      41.891  23.283  27.506  1.00  0.00    -0.014 A 
ATOM     71  C   UNL A   1      41.395  22.286  28.362  1.00  0.00     0.009 A 
ATOM     72  C   UNL A   1      42.093  22.978  26.152  1.00  0.00     0.009 A 
ATOM     73  C   UNL A   1      41.123  21.006  27.877  1.00  0.00     0.001 A 
ATOM     74  C   UNL A   1      41.796  21.702  25.664  1.00  0.00     0.001 A 
ATOM     75  C   UNL A   1      41.321  20.716  26.529  1.00  0.00     0.000 A 
ENDBRANCH  56  70
BRANCH  57  76
ATOM     76  C   UNL A   1      44.327  32.234  31.183  1.00  0.00    -0.014 A 
ATOM     77  C   UNL A   1      44.812  33.221  30.310  1.00  0.00     0.009 A 
ATOM     78  C   UNL A   1      44.256  32.514  32.555  1.00  0.00     0.009 A 
ATOM     79  C   UNL A   1      45.251  34.451  30.804  1.00  0.00     0.001 A 
ATOM     80  C   UNL A   1      44.667  33.757  33.042  1.00  0.00     0.001 A 
ATOM     81  C   UNL A   1      45.175  34.720  32.169  1.00  0.00     0.000 A 
ENDBRANCH  57  76
BRANCH  69  82
ATOM     82  C   UNL A   1      47.865  26.309  30.106  1.00  0.00    -0.014 A 
ATOM     83  C   UNL A   1      48.797  26.341  29.056  1.00  0.00     0.009 A 
ATOM     84  C   UNL A   1      48.258  25.805  31.355  1.00  0.00     0.009 A 
ATOM     85  C   UNL A   1      50.094  25.864  29.249  1.00  0.00     0.001 A 
ATOM     86  C   UNL A   1      49.564  25.352  31.551  1.00  0.00     0.001 A 
ATOM     87  C   UNL A   1      50.477  25.373  30.497  1.00  0.00     0.000 A 
ENDBRANCH  69  82
ENDBRANCH  43  44
ENDBRANCH  35  38
ENDBRANCH  33  34
ENDBRANCH  32  33
ENDBRANCH  31  32
ENDBRANCH   1  31
TORSDOF 16
ENDMDL
MODEL 3
REMARK VINA RESULT:     -11.1      2.779      7.056
REMARK SMILES CCCCc1ncc(C[N@H+]2C[C@@H]3c4ccccc4OC[C@]3(C(=O)NCCCCNC(=O)c3ccc(-c4c5nc(c(-c6ccccc6)c6ccc([nH]6)c(-c6ccccc6)c6nc(c(-c7ccccc7)c7ccc4[nH]7)C=C6)C=C5)cc3)C2)[nH]1
REMARK SMILES IDX 25 1 24 2 22 3 23 4 21 6 10 7 11 8 80 9 12 11 13 12 20 13
REMARK SMILES IDX 14 14 18 15 19 16 15 17 17 18 16 19 9 20 8 21 5 22 6 23
REMARK SMILES IDX 81 24 7 25 4 27 3 28 2 29 1 30 26 31 27 32 28 33 29 34 30 35
REMARK SMILES IDX 31 37 32 38 33 39 79 40 34 41 78 42 35 43 36 44 37 45 72 46
REMARK SMILES IDX 38 47 77 48 71 49 73 50 39 51 76 52 70 53 69 54 40 56 62 57
REMARK SMILES IDX 47 58 61 59 48 60 51 61 60 62 74 63 49 64 50 65 59 67 75 68
REMARK SMILES IDX 52 69 41 70 42 71 46 72 43 73 45 74 44 75 63 76 64 77 68 78
REMARK SMILES IDX 65 79 67 80 66 81 53 82 54 83 58 84 55 85 57 86 56 87
REMARK H PARENT 24 5 10 10 81 26 29 36 73 55 51 66
REMARK Flexibility Score: inf
ROOT
ATOM      1  C   UNL A   1      32.232  26.180  26.124  1.00  0.00     0.116 C 
ENDROOT
BRANCH   1   2
ATOM      2  N   UNL A   1      31.053  25.346  25.954  1.00  0.00    -0.355 N 
ATOM      3  C   UNL A   1      31.082  24.004  25.625  1.00  0.00     0.236 C 
ATOM      4  O   UNL A   1      30.200  23.277  26.089  1.00  0.00    -0.274 OA
ATOM      5  H   UNL A   1      30.172  25.767  26.081  1.00  0.00     0.163 HD
BRANCH   3   6
ATOM      6  C   UNL A   1      32.230  23.540  24.665  1.00  0.00     0.144 C 
ATOM      7  N   UNL A   1      32.021  24.561  22.464  1.00  0.00    -0.328 N 
ATOM      8  C   UNL A   1      33.368  24.025  22.495  1.00  0.00     0.272 C 
ATOM      9  C   UNL A   1      31.718  24.848  23.865  1.00  0.00     0.284 C 
ATOM     10  H   UNL A   1      31.365  23.886  22.068  1.00  0.00     0.348 HD
ATOM     11  C   UNL A   1      33.656  23.869  24.001  1.00  0.00     0.103 C 
ATOM     12  C   UNL A   1      34.818  22.921  24.205  1.00  0.00     0.004 A 
ATOM     13  C   UNL A   1      32.891  23.020  26.031  1.00  0.00     0.253 C 
ATOM     14  C   UNL A   1      36.050  23.097  23.557  1.00  0.00     0.008 A 
ATOM     15  C   UNL A   1      34.705  21.908  25.145  1.00  0.00     0.123 A 
ATOM     16  O   UNL A   1      33.545  21.747  25.837  1.00  0.00    -0.492 OA
ATOM     17  C   UNL A   1      37.126  22.253  23.837  1.00  0.00     0.001 A 
ATOM     18  C   UNL A   1      35.764  21.049  25.422  1.00  0.00     0.047 A 
ATOM     19  C   UNL A   1      36.983  21.228  24.772  1.00  0.00     0.004 A 
BRANCH   7  20
ATOM     20  C   UNL A   1      31.787  25.661  21.524  1.00  0.00     0.319 C 
BRANCH  20  21
ATOM     21  C   UNL A   1      31.833  27.009  22.145  1.00  0.00     0.090 A 
ATOM     22  C   UNL A   1      31.088  28.810  23.207  1.00  0.00     0.106 A 
ATOM     23  N   UNL A   1      32.403  28.867  23.292  1.00  0.00    -0.241 NA
ATOM     24  N   UNL A   1      30.717  27.781  22.377  1.00  0.00    -0.341 N 
ATOM     25  C   UNL A   1      32.875  27.766  22.628  1.00  0.00     0.140 A 
ATOM     26  H   UNL A   1      29.816  27.622  22.015  1.00  0.00     0.168 HD
BRANCH  22  27
ATOM     27  C   UNL A   1      30.140  29.735  23.897  1.00  0.00     0.075 C 
BRANCH  27  28
ATOM     28  C   UNL A   1      29.239  30.603  23.012  1.00  0.00     0.008 C 
BRANCH  28  29
ATOM     29  C   UNL A   1      27.726  30.383  23.111  1.00  0.00    -0.003 C 
ATOM     30  C   UNL A   1      27.274  28.936  23.036  1.00  0.00     0.004 C 
ENDBRANCH  28  29
ENDBRANCH  27  28
ENDBRANCH  22  27
ENDBRANCH  20  21
ENDBRANCH   7  20
ENDBRANCH   3   6
ENDBRANCH   1   2
BRANCH   1  31
ATOM     31  C   UNL A   1      31.962  27.577  26.656  1.00  0.00     0.023 C 
BRANCH  31  32
ATOM     32  C   UNL A   1      33.114  28.256  27.387  1.00  0.00     0.023 C 
BRANCH  32  33
ATOM     33  C   UNL A   1      33.650  29.544  26.777  1.00  0.00     0.116 C 
BRANCH  33  34
ATOM     34  N   UNL A   1      33.685  30.676  27.688  1.00  0.00    -0.352 N 
ATOM     35  C   UNL A   1      34.698  31.093  28.522  1.00  0.00     0.251 C 
ATOM     36  H   UNL A   1      32.868  31.224  27.712  1.00  0.00     0.163 HD
ATOM     37  O   UNL A   1      34.542  32.063  29.257  1.00  0.00    -0.269 OA
BRANCH  35  38
ATOM     38  C   UNL A   1      35.958  30.323  28.571  1.00  0.00     0.039 A 
ATOM     39  C   UNL A   1      36.319  29.621  29.721  1.00  0.00     0.014 A 
ATOM     40  C   UNL A   1      36.830  30.389  27.480  1.00  0.00     0.014 A 
ATOM     41  C   UNL A   1      37.628  29.176  29.863  1.00  0.00     0.010 A 
ATOM     42  C   UNL A   1      38.113  29.848  27.590  1.00  0.00     0.010 A 
ATOM     43  C   UNL A   1      38.544  29.296  28.805  1.00  0.00    -0.014 A 
BRANCH  43  44
ATOM     44  C   UNL A   1      39.948  28.846  29.000  1.00  0.00     0.031 A 
ATOM     45  C   UNL A   1      40.952  29.718  29.709  1.00  0.00     0.074 A 
ATOM     46  C   UNL A   1      40.301  27.612  28.591  1.00  0.00     0.049 A 
ATOM     47  N   UNL A   1      42.210  29.471  29.977  1.00  0.00    -0.248 NA
ATOM     48  C   UNL A   1      40.492  31.037  30.179  1.00  0.00     0.031 C 
ATOM     49  C   UNL A   1      39.413  26.664  27.917  1.00  0.00     0.029 A 
ATOM     50  N   UNL A   1      41.485  26.931  28.712  1.00  0.00    -0.354 N 
ATOM     51  C   UNL A   1      42.694  30.604  30.620  1.00  0.00     0.074 A 
ATOM     52  C   UNL A   1      41.604  31.551  30.688  1.00  0.00     0.031 C 
ATOM     53  C   UNL A   1      40.059  25.502  27.747  1.00  0.00     0.029 A 
ATOM     54  C   UNL A   1      41.429  25.647  28.227  1.00  0.00     0.049 A 
ATOM     55  H   UNL A   1      42.297  27.324  29.108  1.00  0.00     0.167 HD
ATOM     56  C   UNL A   1      43.935  30.830  31.114  1.00  0.00     0.031 A 
ATOM     57  C   UNL A   1      42.375  24.693  28.155  1.00  0.00     0.031 A 
ATOM     58  C   UNL A   1      45.014  29.878  31.064  1.00  0.00     0.049 A 
ATOM     59  C   UNL A   1      43.754  24.986  28.666  1.00  0.00     0.074 A 
ATOM     60  C   UNL A   1      46.300  30.014  31.560  1.00  0.00     0.029 A 
ATOM     61  N   UNL A   1      44.935  28.620  30.492  1.00  0.00    -0.354 N 
ATOM     62  N   UNL A   1      44.194  26.068  29.261  1.00  0.00    -0.248 NA
ATOM     63  C   UNL A   1      44.767  23.938  28.486  1.00  0.00     0.031 C 
ATOM     64  C   UNL A   1      47.015  28.857  31.240  1.00  0.00     0.029 A 
ATOM     65  C   UNL A   1      46.158  27.979  30.597  1.00  0.00     0.049 A 
ATOM     66  H   UNL A   1      44.130  28.238  30.073  1.00  0.00     0.167 HD
ATOM     67  C   UNL A   1      45.536  25.832  29.526  1.00  0.00     0.074 A 
ATOM     68  C   UNL A   1      45.830  24.495  29.052  1.00  0.00     0.031 C 
ATOM     69  C   UNL A   1      46.442  26.654  30.107  1.00  0.00     0.031 A 
BRANCH  56  70
ATOM     70  C   UNL A   1      44.217  32.165  31.746  1.00  0.00    -0.014 A 
ATOM     71  C   UNL A   1      44.747  33.205  30.965  1.00  0.00     0.009 A 
ATOM     72  C   UNL A   1      44.063  32.364  33.127  1.00  0.00     0.009 A 
ATOM     73  C   UNL A   1      45.129  34.411  31.553  1.00  0.00     0.001 A 
ATOM     74  C   UNL A   1      44.424  33.582  33.709  1.00  0.00     0.001 A 
ATOM     75  C   UNL A   1      44.965  34.600  32.924  1.00  0.00     0.000 A 
ENDBRANCH  56  70
BRANCH  57  76
ATOM     76  C   UNL A   1      42.031  23.375  27.562  1.00  0.00    -0.014 A 
ATOM     77  C   UNL A   1      41.385  22.394  28.333  1.00  0.00     0.009 A 
ATOM     78  C   UNL A   1      42.407  23.066  26.248  1.00  0.00     0.009 A 
ATOM     79  C   UNL A   1      41.155  21.120  27.813  1.00  0.00     0.001 A 
ATOM     80  C   UNL A   1      42.147  21.799  25.719  1.00  0.00     0.001 A 
ATOM     81  C   UNL A   1      41.533  20.824  26.505  1.00  0.00     0.000 A 
ENDBRANCH  57  76
BRANCH  69  82
ATOM     82  C   UNL A   1      47.845  26.145  30.264  1.00  0.00    -0.014 A 
ATOM     83  C   UNL A   1      48.279  25.661  31.508  1.00  0.00     0.009 A 
ATOM     84  C   UNL A   1      48.762  26.233  29.206  1.00  0.00     0.009 A 
ATOM     85  C   UNL A   1      49.610  25.287  31.695  1.00  0.00     0.001 A 
ATOM     86  C   UNL A   1      50.088  25.833  29.390  1.00  0.00     0.001 A 
ATOM     87  C   UNL A   1      50.512  25.370  30.634  1.00  0.00     0.000 A 
ENDBRANCH  69  82
ENDBRANCH  43  44
ENDBRANCH  35  38
ENDBRANCH  33  34
ENDBRANCH  32  33
ENDBRANCH  31  32
ENDBRANCH   1  31
TORSDOF 16
ENDMDL
