MODEL 1
REMARK VINA RESULT:     -10.3      0.000      0.000
REMARK SMILES O=C(NCCCCNC(=O)c1cc(F)cc(-c2cccc(F)c2F)c1)c1ccc(-c2c3nc(c(-c4ccccc4)c4ccc([nH]4)c(-c4ccccc4)c4nc(c(-c5ccccc5)c5ccc2[nH]5)C=C4)C=C3)cc1
REMARK SMILES IDX 5 1 4 2 3 3 1 4 2 5 26 7 27 8 73 9 28 10 72 11 29 12 30 13
REMARK SMILES IDX 31 14 66 15 32 16 71 17 65 18 67 19 33 20 70 21 64 22 63 23
REMARK SMILES IDX 34 25 56 26 41 27 55 28 42 29 45 30 54 31 68 32 43 33 44 34
REMARK SMILES IDX 53 36 69 37 46 38 35 39 36 40 40 41 37 42 39 43 38 44 57 45
REMARK SMILES IDX 58 46 62 47 59 48 61 49 60 50 47 51 48 52 52 53 49 54 51 55
REMARK SMILES IDX 50 56 6 57 7 58 8 59 9 60 10 62 11 63 12 64 25 65 13 66
REMARK SMILES IDX 16 67 14 68 15 69 17 70 18 71 23 72 19 73 21 74 24 75 20 76
REMARK SMILES IDX 22 77
REMARK H PARENT 3 6 67 24 45 35 8 61
REMARK Flexibility Score: inf
ROOT
ATOM      1  C   UNL A   1      44.392  18.567  25.283  1.00  0.00     0.023 C 
ENDROOT
BRANCH   1   2
ATOM      2  C   UNL A   1      43.371  18.481  26.409  1.00  0.00     0.116 C 
BRANCH   2   3
ATOM      3  N   UNL A   1      41.999  18.534  25.928  1.00  0.00    -0.352 N 
ATOM      4  O   UNL A   1      39.896  19.334  25.748  1.00  0.00    -0.269 OA
ATOM      5  C   UNL A   1      41.062  19.526  26.081  1.00  0.00     0.251 C 
ATOM      6  H   UNL A   1      41.699  17.745  25.420  1.00  0.00     0.163 HD
BRANCH   5   7
ATOM      7  C   UNL A   1      41.456  20.820  26.672  1.00  0.00     0.039 A 
ATOM      8  C   UNL A   1      41.364  21.031  28.051  1.00  0.00     0.014 A 
ATOM      9  C   UNL A   1      41.925  21.835  25.834  1.00  0.00     0.014 A 
ATOM     10  C   UNL A   1      41.605  22.295  28.574  1.00  0.00     0.010 A 
ATOM     11  C   UNL A   1      42.252  23.079  26.375  1.00  0.00     0.010 A 
ATOM     12  C   UNL A   1      42.069  23.328  27.744  1.00  0.00    -0.014 A 
BRANCH  12  13
ATOM     13  C   UNL A   1      42.429  24.641  28.330  1.00  0.00     0.031 A 
ATOM     14  C   UNL A   1      41.405  25.724  28.494  1.00  0.00     0.074 A 
ATOM     15  C   UNL A   1      43.709  24.859  28.689  1.00  0.00     0.049 A 
ATOM     16  N   UNL A   1      41.564  26.950  28.928  1.00  0.00    -0.248 NA
ATOM     17  C   UNL A   1      40.023  25.396  28.113  1.00  0.00     0.031 C 
ATOM     18  C   UNL A   1      44.794  23.883  28.572  1.00  0.00     0.029 A 
ATOM     19  N   UNL A   1      44.314  25.972  29.212  1.00  0.00    -0.354 N 
ATOM     20  C   UNL A   1      40.313  27.547  28.847  1.00  0.00     0.074 A 
ATOM     21  C   UNL A   1      39.410  26.557  28.300  1.00  0.00     0.031 C 
ATOM     22  C   UNL A   1      45.929  24.434  29.023  1.00  0.00     0.029 A 
ATOM     23  C   UNL A   1      45.666  25.820  29.393  1.00  0.00     0.049 A 
ATOM     24  H   UNL A   1      43.828  26.798  29.436  1.00  0.00     0.167 HD
ATOM     25  C   UNL A   1      39.954  28.806  29.196  1.00  0.00     0.031 A 
ATOM     26  C   UNL A   1      46.605  26.704  29.775  1.00  0.00     0.031 A 
ATOM     27  C   UNL A   1      40.865  29.789  29.723  1.00  0.00     0.049 A 
ATOM     28  C   UNL A   1      46.195  28.108  30.105  1.00  0.00     0.074 A 
ATOM     29  C   UNL A   1      40.591  31.079  30.146  1.00  0.00     0.029 A 
ATOM     30  N   UNL A   1      42.230  29.599  29.879  1.00  0.00    -0.354 N 
ATOM     31  N   UNL A   1      44.999  28.643  30.075  1.00  0.00    -0.248 NA
ATOM     32  C   UNL A   1      47.260  29.027  30.528  1.00  0.00     0.031 C 
ATOM     33  C   UNL A   1      41.801  31.691  30.491  1.00  0.00     0.029 A 
ATOM     34  C   UNL A   1      42.818  30.760  30.355  1.00  0.00     0.049 A 
ATOM     35  H   UNL A   1      42.711  28.764  29.681  1.00  0.00     0.167 HD
ATOM     36  C   UNL A   1      45.161  29.956  30.496  1.00  0.00     0.074 A 
ATOM     37  C   UNL A   1      46.570  30.132  30.786  1.00  0.00     0.031 C 
ATOM     38  C   UNL A   1      44.223  30.924  30.634  1.00  0.00     0.031 A 
BRANCH  25  39
ATOM     39  C   UNL A   1      38.520  29.206  28.965  1.00  0.00    -0.014 A 
ATOM     40  C   UNL A   1      38.079  29.698  27.727  1.00  0.00     0.009 A 
ATOM     41  C   UNL A   1      37.588  29.070  30.007  1.00  0.00     0.009 A 
ATOM     42  C   UNL A   1      36.751  30.096  27.553  1.00  0.00     0.001 A 
ATOM     43  C   UNL A   1      36.253  29.436  29.821  1.00  0.00     0.001 A 
ATOM     44  C   UNL A   1      35.839  29.962  28.600  1.00  0.00     0.000 A 
ENDBRANCH  25  39
BRANCH  26  45
ATOM     45  C   UNL A   1      48.026  26.275  29.824  1.00  0.00    -0.014 A 
ATOM     46  C   UNL A   1      48.576  25.744  30.999  1.00  0.00     0.009 A 
ATOM     47  C   UNL A   1      48.823  26.340  28.669  1.00  0.00     0.009 A 
ATOM     48  C   UNL A   1      49.899  25.297  31.018  1.00  0.00     0.001 A 
ATOM     49  C   UNL A   1      50.134  25.863  28.683  1.00  0.00     0.001 A 
ATOM     50  C   UNL A   1      50.673  25.348  29.860  1.00  0.00     0.000 A 
ENDBRANCH  26  45
BRANCH  38  51
ATOM     51  C   UNL A   1      44.678  32.258  31.157  1.00  0.00    -0.014 A 
ATOM     52  C   UNL A   1      44.641  32.560  32.527  1.00  0.00     0.009 A 
ATOM     53  C   UNL A   1      45.217  33.201  30.266  1.00  0.00     0.009 A 
ATOM     54  C   UNL A   1      45.119  33.788  32.990  1.00  0.00     0.001 A 
ATOM     55  C   UNL A   1      45.722  34.414  30.736  1.00  0.00     0.001 A 
ATOM     56  C   UNL A   1      45.667  34.709  32.097  1.00  0.00     0.000 A 
ENDBRANCH  38  51
ENDBRANCH  12  13
ENDBRANCH   5   7
ENDBRANCH   2   3
ENDBRANCH   1   2
BRANCH   1  57
ATOM     57  C   UNL A   1      45.713  19.230  25.661  1.00  0.00     0.023 C 
BRANCH  57  58
ATOM     58  C   UNL A   1      45.786  20.729  25.385  1.00  0.00     0.116 C 
BRANCH  58  59
ATOM     59  N   UNL A   1      45.129  21.097  24.142  1.00  0.00    -0.352 N 
ATOM     60  C   UNL A   1      44.836  22.347  23.659  1.00  0.00     0.251 C 
ATOM     61  H   UNL A   1      44.855  20.345  23.567  1.00  0.00     0.163 HD
ATOM     62  O   UNL A   1      44.125  22.480  22.667  1.00  0.00    -0.269 OA
BRANCH  60  63
ATOM     63  C   UNL A   1      45.359  23.539  24.355  1.00  0.00     0.043 A 
ATOM     64  C   UNL A   1      46.709  23.628  24.697  1.00  0.00     0.053 A 
ATOM     65  C   UNL A   1      44.478  24.587  24.651  1.00  0.00     0.023 A 
ATOM     66  C   UNL A   1      47.146  24.728  25.413  1.00  0.00     0.124 A 
ATOM     67  C   UNL A   1      44.928  25.719  25.349  1.00  0.00    -0.012 A 
ATOM     68  F   UNL A   1      48.426  24.792  25.800  1.00  0.00    -0.207 F 
ATOM     69  C   UNL A   1      46.275  25.760  25.746  1.00  0.00     0.048 A 
BRANCH  67  70
ATOM     70  C   UNL A   1      44.027  26.843  25.640  1.00  0.00     0.021 A 
ATOM     71  C   UNL A   1      42.686  26.833  25.215  1.00  0.00     0.012 A 
ATOM     72  C   UNL A   1      44.478  27.962  26.358  1.00  0.00     0.166 A 
ATOM     73  C   UNL A   1      41.830  27.904  25.505  1.00  0.00     0.004 A 
ATOM     74  C   UNL A   1      43.626  29.024  26.641  1.00  0.00     0.159 A 
ATOM     75  F   UNL A   1      45.752  28.022  26.777  1.00  0.00    -0.203 F 
ATOM     76  C   UNL A   1      42.302  29.002  26.221  1.00  0.00     0.042 A 
ATOM     77  F   UNL A   1      44.079  30.082  27.328  1.00  0.00    -0.204 F 
ENDBRANCH  67  70
ENDBRANCH  60  63
ENDBRANCH  58  59
ENDBRANCH  57  58
ENDBRANCH   1  57
TORSDOF 12
ENDMDL
MODEL 2
REMARK VINA RESULT:     -10.1      0.375      5.991
REMARK SMILES O=C(NCCCCNC(=O)c1cc(F)cc(-c2cccc(F)c2F)c1)c1ccc(-c2c3nc(c(-c4ccccc4)c4ccc([nH]4)c(-c4ccccc4)c4nc(c(-c5ccccc5)c5ccc2[nH]5)C=C4)C=C3)cc1
REMARK SMILES IDX 5 1 4 2 3 3 1 4 2 5 26 7 27 8 73 9 28 10 72 11 29 12 30 13
REMARK SMILES IDX 31 14 66 15 32 16 71 17 65 18 67 19 33 20 70 21 64 22 63 23
REMARK SMILES IDX 34 25 56 26 41 27 55 28 42 29 45 30 54 31 68 32 43 33 44 34
REMARK SMILES IDX 53 36 69 37 46 38 35 39 36 40 40 41 37 42 39 43 38 44 57 45
REMARK SMILES IDX 58 46 62 47 59 48 61 49 60 50 47 51 48 52 52 53 49 54 51 55
REMARK SMILES IDX 50 56 6 57 7 58 8 59 9 60 10 62 11 63 12 64 25 65 13 66
REMARK SMILES IDX 16 67 14 68 15 69 17 70 18 71 23 72 19 73 21 74 24 75 20 76
REMARK SMILES IDX 22 77
REMARK H PARENT 3 6 67 24 45 35 8 61
REMARK Flexibility Score: inf
ROOT
ATOM      1  C   UNL A   1      44.382  18.767  25.281  1.00  0.00     0.023 C 
ENDROOT
BRANCH   1   2
ATOM      2  C   UNL A   1      43.400  18.449  26.400  1.00  0.00     0.116 C 
BRANCH   2   3
ATOM      3  N   UNL A   1      42.015  18.465  25.954  1.00  0.00    -0.352 N 
ATOM      4  O   UNL A   1      39.896  19.226  25.801  1.00  0.00    -0.269 OA
ATOM      5  C   UNL A   1      41.067  19.447  26.097  1.00  0.00     0.251 C 
ATOM      6  H   UNL A   1      41.715  17.655  25.481  1.00  0.00     0.163 HD
BRANCH   5   7
ATOM      7  C   UNL A   1      41.454  20.767  26.633  1.00  0.00     0.039 A 
ATOM      8  C   UNL A   1      41.367  21.034  28.002  1.00  0.00     0.014 A 
ATOM      9  C   UNL A   1      41.915  21.749  25.752  1.00  0.00     0.014 A 
ATOM     10  C   UNL A   1      41.602  22.320  28.472  1.00  0.00     0.010 A 
ATOM     11  C   UNL A   1      42.236  23.016  26.240  1.00  0.00     0.010 A 
ATOM     12  C   UNL A   1      42.056  23.320  27.599  1.00  0.00    -0.014 A 
BRANCH  12  13
ATOM     13  C   UNL A   1      42.410  24.658  28.128  1.00  0.00     0.031 A 
ATOM     14  C   UNL A   1      43.801  24.961  28.604  1.00  0.00     0.074 A 
ATOM     15  C   UNL A   1      41.449  25.600  28.204  1.00  0.00     0.049 A 
ATOM     16  N   UNL A   1      44.264  26.056  29.153  1.00  0.00    -0.248 NA
ATOM     17  C   UNL A   1      44.801  23.894  28.454  1.00  0.00     0.031 C 
ATOM     18  C   UNL A   1      40.060  25.420  27.777  1.00  0.00     0.029 A 
ATOM     19  N   UNL A   1      41.491  26.885  28.677  1.00  0.00    -0.354 N 
ATOM     20  C   UNL A   1      45.598  25.804  29.439  1.00  0.00     0.074 A 
ATOM     21  C   UNL A   1      45.866  24.442  29.024  1.00  0.00     0.031 C 
ATOM     22  C   UNL A   1      39.385  26.557  27.993  1.00  0.00     0.029 A 
ATOM     23  C   UNL A   1      40.273  27.518  28.637  1.00  0.00     0.049 A 
ATOM     24  H   UNL A   1      42.312  27.313  29.010  1.00  0.00     0.167 HD
ATOM     25  C   UNL A   1      46.514  26.631  29.998  1.00  0.00     0.031 A 
ATOM     26  C   UNL A   1      39.895  28.721  29.102  1.00  0.00     0.031 A 
ATOM     27  C   UNL A   1      46.233  27.978  30.423  1.00  0.00     0.049 A 
ATOM     28  C   UNL A   1      40.912  29.601  29.766  1.00  0.00     0.074 A 
ATOM     29  C   UNL A   1      47.103  28.911  30.961  1.00  0.00     0.029 A 
ATOM     30  N   UNL A   1      44.983  28.577  30.378  1.00  0.00    -0.354 N 
ATOM     31  N   UNL A   1      42.184  29.369  29.981  1.00  0.00    -0.248 NA
ATOM     32  C   UNL A   1      40.445  30.909  30.244  1.00  0.00     0.031 C 
ATOM     33  C   UNL A   1      46.364  30.048  31.306  1.00  0.00     0.029 A 
ATOM     34  C   UNL A   1      45.049  29.853  30.914  1.00  0.00     0.049 A 
ATOM     35  H   UNL A   1      44.168  28.158  30.017  1.00  0.00     0.167 HD
ATOM     36  C   UNL A   1      42.677  30.509  30.600  1.00  0.00     0.074 A 
ATOM     37  C   UNL A   1      41.569  31.436  30.715  1.00  0.00     0.031 C 
ATOM     38  C   UNL A   1      43.938  30.764  31.028  1.00  0.00     0.031 A 
BRANCH  25  39
ATOM     39  C   UNL A   1      47.896  26.078  30.230  1.00  0.00    -0.014 A 
ATOM     40  C   UNL A   1      48.328  25.675  31.504  1.00  0.00     0.009 A 
ATOM     41  C   UNL A   1      48.778  25.942  29.145  1.00  0.00     0.009 A 
ATOM     42  C   UNL A   1      49.628  25.201  31.696  1.00  0.00     0.001 A 
ATOM     43  C   UNL A   1      50.066  25.435  29.333  1.00  0.00     0.001 A 
ATOM     44  C   UNL A   1      50.495  25.080  30.610  1.00  0.00     0.000 A 
ENDBRANCH  25  39
BRANCH  26  45
ATOM     45  C   UNL A   1      38.473  29.131  28.978  1.00  0.00    -0.014 A 
ATOM     46  C   UNL A   1      37.600  29.039  30.071  1.00  0.00     0.009 A 
ATOM     47  C   UNL A   1      37.998  29.674  27.772  1.00  0.00     0.009 A 
ATOM     48  C   UNL A   1      36.278  29.475  29.955  1.00  0.00     0.001 A 
ATOM     49  C   UNL A   1      36.686  30.138  27.670  1.00  0.00     0.001 A 
ATOM     50  C   UNL A   1      35.825  30.032  28.760  1.00  0.00     0.000 A 
ENDBRANCH  26  45
BRANCH  38  51
ATOM     51  C   UNL A   1      44.204  32.115  31.630  1.00  0.00    -0.014 A 
ATOM     52  C   UNL A   1      44.115  32.333  33.013  1.00  0.00     0.009 A 
ATOM     53  C   UNL A   1      44.621  33.170  30.800  1.00  0.00     0.009 A 
ATOM     54  C   UNL A   1      44.419  33.586  33.550  1.00  0.00     0.001 A 
ATOM     55  C   UNL A   1      44.953  34.411  31.343  1.00  0.00     0.001 A 
ATOM     56  C   UNL A   1      44.846  34.620  32.717  1.00  0.00     0.000 A 
ENDBRANCH  38  51
ENDBRANCH  12  13
ENDBRANCH   5   7
ENDBRANCH   2   3
ENDBRANCH   1   2
BRANCH   1  57
ATOM     57  C   UNL A   1      45.713  19.355  25.740  1.00  0.00     0.023 C 
BRANCH  57  58
ATOM     58  C   UNL A   1      45.936  20.817  25.364  1.00  0.00     0.116 C 
BRANCH  58  59
ATOM     59  N   UNL A   1      45.232  21.192  24.149  1.00  0.00    -0.352 N 
ATOM     60  C   UNL A   1      44.898  22.443  23.698  1.00  0.00     0.251 C 
ATOM     61  H   UNL A   1      44.957  20.444  23.569  1.00  0.00     0.163 HD
ATOM     62  O   UNL A   1      44.153  22.578  22.731  1.00  0.00    -0.269 OA
BRANCH  60  63
ATOM     63  C   UNL A   1      45.417  23.634  24.398  1.00  0.00     0.043 A 
ATOM     64  C   UNL A   1      46.761  23.715  24.763  1.00  0.00     0.053 A 
ATOM     65  C   UNL A   1      44.537  24.689  24.675  1.00  0.00     0.023 A 
ATOM     66  C   UNL A   1      47.193  24.816  25.483  1.00  0.00     0.124 A 
ATOM     67  C   UNL A   1      44.983  25.821  25.376  1.00  0.00    -0.012 A 
ATOM     68  F   UNL A   1      48.466  24.873  25.892  1.00  0.00    -0.207 F 
ATOM     69  C   UNL A   1      46.323  25.855  25.797  1.00  0.00     0.048 A 
BRANCH  67  70
ATOM     70  C   UNL A   1      44.085  26.953  25.647  1.00  0.00     0.021 A 
ATOM     71  C   UNL A   1      42.788  27.001  25.105  1.00  0.00     0.012 A 
ATOM     72  C   UNL A   1      44.494  28.019  26.462  1.00  0.00     0.166 A 
ATOM     73  C   UNL A   1      41.933  28.078  25.377  1.00  0.00     0.004 A 
ATOM     74  C   UNL A   1      43.644  29.088  26.726  1.00  0.00     0.159 A 
ATOM     75  F   UNL A   1      45.727  28.023  26.995  1.00  0.00    -0.203 F 
ATOM     76  C   UNL A   1      42.363  29.124  26.190  1.00  0.00     0.042 A 
ATOM     77  F   UNL A   1      44.057  30.096  27.508  1.00  0.00    -0.204 F 
ENDBRANCH  67  70
ENDBRANCH  60  63
ENDBRANCH  58  59
ENDBRANCH  57  58
ENDBRANCH   1  57
TORSDOF 12
ENDMDL
MODEL 3
REMARK VINA RESULT:      -9.4      4.909      9.687
REMARK SMILES O=C(NCCCCNC(=O)c1cc(F)cc(-c2cccc(F)c2F)c1)c1ccc(-c2c3nc(c(-c4ccccc4)c4ccc([nH]4)c(-c4ccccc4)c4nc(c(-c5ccccc5)c5ccc2[nH]5)C=C4)C=C3)cc1
REMARK SMILES IDX 5 1 4 2 3 3 1 4 2 5 26 7 27 8 73 9 28 10 72 11 29 12 30 13
REMARK SMILES IDX 31 14 66 15 32 16 71 17 65 18 67 19 33 20 70 21 64 22 63 23
REMARK SMILES IDX 34 25 56 26 41 27 55 28 42 29 45 30 54 31 68 32 43 33 44 34
REMARK SMILES IDX 53 36 69 37 46 38 35 39 36 40 40 41 37 42 39 43 38 44 57 45
REMARK SMILES IDX 58 46 62 47 59 48 61 49 60 50 47 51 48 52 52 53 49 54 51 55
REMARK SMILES IDX 50 56 6 57 7 58 8 59 9 60 10 62 11 63 12 64 25 65 13 66
REMARK SMILES IDX 16 67 14 68 15 69 17 70 18 71 23 72 19 73 21 74 24 75 20 76
REMARK SMILES IDX 22 77
REMARK H PARENT 3 6 67 24 45 35 8 61
REMARK Flexibility Score: inf
ROOT
ATOM      1  C   UNL A   1      32.408  27.902  26.924  1.00  0.00     0.023 C 
ENDROOT
BRANCH   1   2
ATOM      2  C   UNL A   1      33.769  28.544  27.156  1.00  0.00     0.116 C 
BRANCH   2   3
ATOM      3  N   UNL A   1      33.671  29.935  27.570  1.00  0.00    -0.352 N 
ATOM      4  O   UNL A   1      34.272  31.823  28.651  1.00  0.00    -0.269 OA
ATOM      5  C   UNL A   1      34.586  30.711  28.237  1.00  0.00     0.251 C 
ATOM      6  H   UNL A   1      32.827  30.386  27.337  1.00  0.00     0.163 HD
BRANCH   5   7
ATOM      7  C   UNL A   1      35.947  30.191  28.480  1.00  0.00     0.039 A 
ATOM      8  C   UNL A   1      36.296  29.660  29.725  1.00  0.00     0.014 A 
ATOM      9  C   UNL A   1      36.885  30.235  27.445  1.00  0.00     0.014 A 
ATOM     10  C   UNL A   1      37.615  29.305  29.980  1.00  0.00     0.010 A 
ATOM     11  C   UNL A   1      38.188  29.794  27.677  1.00  0.00     0.010 A 
ATOM     12  C   UNL A   1      38.571  29.352  28.954  1.00  0.00    -0.014 A 
BRANCH  12  13
ATOM     13  C   UNL A   1      39.948  28.866  29.205  1.00  0.00     0.031 A 
ATOM     14  C   UNL A   1      40.992  29.766  29.799  1.00  0.00     0.074 A 
ATOM     15  C   UNL A   1      40.261  27.602  28.862  1.00  0.00     0.049 A 
ATOM     16  N   UNL A   1      42.258  29.522  30.025  1.00  0.00    -0.248 NA
ATOM     17  C   UNL A   1      40.563  31.120  30.181  1.00  0.00     0.031 C 
ATOM     18  C   UNL A   1      39.332  26.636  28.272  1.00  0.00     0.029 A 
ATOM     19  N   UNL A   1      41.446  26.918  28.947  1.00  0.00    -0.354 N 
ATOM     20  C   UNL A   1      42.784  30.695  30.549  1.00  0.00     0.074 A 
ATOM     21  C   UNL A   1      41.705  31.659  30.585  1.00  0.00     0.031 C 
ATOM     22  C   UNL A   1      39.977  25.480  28.062  1.00  0.00     0.029 A 
ATOM     23  C   UNL A   1      41.377  25.647  28.435  1.00  0.00     0.049 A 
ATOM     24  H   UNL A   1      42.264  27.300  29.338  1.00  0.00     0.167 HD
ATOM     25  C   UNL A   1      44.052  30.944  30.959  1.00  0.00     0.031 A 
ATOM     26  C   UNL A   1      42.337  24.725  28.245  1.00  0.00     0.031 A 
ATOM     27  C   UNL A   1      45.122  29.983  30.903  1.00  0.00     0.049 A 
ATOM     28  C   UNL A   1      43.744  25.040  28.657  1.00  0.00     0.074 A 
ATOM     29  C   UNL A   1      46.431  30.123  31.333  1.00  0.00     0.029 A 
ATOM     30  N   UNL A   1      45.014  28.709  30.364  1.00  0.00    -0.354 N 
ATOM     31  N   UNL A   1      44.216  26.135  29.200  1.00  0.00    -0.248 NA
ATOM     32  C   UNL A   1      44.750  23.991  28.437  1.00  0.00     0.031 C 
ATOM     33  C   UNL A   1      47.131  28.962  30.990  1.00  0.00     0.029 A 
ATOM     34  C   UNL A   1      46.242  28.067  30.416  1.00  0.00     0.049 A 
ATOM     35  H   UNL A   1      44.188  28.318  29.999  1.00  0.00     0.167 HD
ATOM     36  C   UNL A   1      45.568  25.902  29.408  1.00  0.00     0.074 A 
ATOM     37  C   UNL A   1      45.838  24.557  28.943  1.00  0.00     0.031 C 
ATOM     38  C   UNL A   1      46.499  26.730  29.943  1.00  0.00     0.031 A 
BRANCH  25  39
ATOM     39  C   UNL A   1      44.358  32.333  31.456  1.00  0.00    -0.014 A 
ATOM     40  C   UNL A   1      44.826  33.340  30.597  1.00  0.00     0.009 A 
ATOM     41  C   UNL A   1      44.157  32.642  32.811  1.00  0.00     0.009 A 
ATOM     42  C   UNL A   1      45.137  34.608  31.094  1.00  0.00     0.001 A 
ATOM     43  C   UNL A   1      44.437  33.921  33.299  1.00  0.00     0.001 A 
ATOM     44  C   UNL A   1      44.940  34.898  32.443  1.00  0.00     0.000 A 
ENDBRANCH  25  39
BRANCH  26  45
ATOM     45  C   UNL A   1      41.984  23.434  27.600  1.00  0.00    -0.014 A 
ATOM     46  C   UNL A   1      42.300  23.193  26.256  1.00  0.00     0.009 A 
ATOM     47  C   UNL A   1      41.379  22.412  28.351  1.00  0.00     0.009 A 
ATOM     48  C   UNL A   1      42.008  21.956  25.675  1.00  0.00     0.001 A 
ATOM     49  C   UNL A   1      41.119  21.168  27.776  1.00  0.00     0.001 A 
ATOM     50  C   UNL A   1      41.427  20.944  26.437  1.00  0.00     0.000 A 
ENDBRANCH  26  45
BRANCH  38  51
ATOM     51  C   UNL A   1      47.896  26.196  30.092  1.00  0.00    -0.014 A 
ATOM     52  C   UNL A   1      48.816  26.245  29.035  1.00  0.00     0.009 A 
ATOM     53  C   UNL A   1      48.315  25.699  31.338  1.00  0.00     0.009 A 
ATOM     54  C   UNL A   1      50.124  25.789  29.218  1.00  0.00     0.001 A 
ATOM     55  C   UNL A   1      49.630  25.273  31.526  1.00  0.00     0.001 A 
ATOM     56  C   UNL A   1      50.532  25.313  30.463  1.00  0.00     0.000 A 
ENDBRANCH  38  51
ENDBRANCH  12  13
ENDBRANCH   5   7
ENDBRANCH   2   3
ENDBRANCH   1   2
BRANCH   1  57
ATOM     57  C   UNL A   1      32.346  26.933  25.748  1.00  0.00     0.023 C 
BRANCH  57  58
ATOM     58  C   UNL A   1      30.982  26.289  25.513  1.00  0.00     0.116 C 
BRANCH  58  59
ATOM     59  N   UNL A   1      30.638  25.325  26.546  1.00  0.00    -0.352 N 
ATOM     60  C   UNL A   1      30.927  23.986  26.605  1.00  0.00     0.251 C 
ATOM     61  H   UNL A   1      30.126  25.683  27.308  1.00  0.00     0.163 HD
ATOM     62  O   UNL A   1      30.417  23.277  27.467  1.00  0.00    -0.269 OA
BRANCH  60  63
ATOM     63  C   UNL A   1      31.836  23.391  25.607  1.00  0.00     0.043 A 
ATOM     64  C   UNL A   1      31.343  22.901  24.397  1.00  0.00     0.053 A 
ATOM     65  C   UNL A   1      33.207  23.341  25.890  1.00  0.00     0.023 A 
ATOM     66  C   UNL A   1      32.217  22.285  23.519  1.00  0.00     0.124 A 
ATOM     67  C   UNL A   1      34.100  22.745  24.984  1.00  0.00    -0.012 A 
ATOM     68  F   UNL A   1      31.742  21.756  22.384  1.00  0.00    -0.207 F 
ATOM     69  C   UNL A   1      33.575  22.195  23.803  1.00  0.00     0.048 A 
BRANCH  67  70
ATOM     70  C   UNL A   1      35.546  22.712  25.249  1.00  0.00     0.021 A 
ATOM     71  C   UNL A   1      36.245  23.872  25.627  1.00  0.00     0.012 A 
ATOM     72  C   UNL A   1      36.273  21.518  25.134  1.00  0.00     0.166 A 
ATOM     73  C   UNL A   1      37.621  23.832  25.888  1.00  0.00     0.004 A 
ATOM     74  C   UNL A   1      37.639  21.481  25.390  1.00  0.00     0.159 A 
ATOM     75  F   UNL A   1      35.651  20.385  24.766  1.00  0.00    -0.203 F 
ATOM     76  C   UNL A   1      38.319  22.632  25.769  1.00  0.00     0.042 A 
ATOM     77  F   UNL A   1      38.313  20.328  25.275  1.00  0.00    -0.204 F 
ENDBRANCH  67  70
ENDBRANCH  60  63
ENDBRANCH  58  59
ENDBRANCH  57  58
ENDBRANCH   1  57
TORSDOF 12
ENDMDL
