MODEL 1
REMARK VINA RESULT:     -12.5      0.000      0.000
REMARK SMILES CN1C(=O)C[C@@H](C(=O)NCCCCNC(=O)c2ccc(-c3c4nc(c(-c5ccccc5)c5ccc([nH]5)c(-c5ccccc5)c5nc(c(-c6ccccc6)c6ccc3[nH]6)C=C5)C=C4)cc2)C12CCN(c1ccc(Cl)cn1)CC2
REMARK SMILES IDX 12 1 11 2 10 3 9 4 7 5 8 6 6 8 1 9 2 10 3 11 65 12 4 13 5 14
REMARK SMILES IDX 66 15 77 16 67 17 76 18 68 19 69 20 70 21 75 22 71 23 74 24
REMARK SMILES IDX 72 25 73 26 13 27 14 28 15 29 16 31 17 32 18 33 64 34 19 35
REMARK SMILES IDX 63 36 20 37 21 38 22 39 57 40 23 41 62 42 56 43 58 44 24 45
REMARK SMILES IDX 61 46 55 47 54 48 25 50 47 51 32 52 46 53 33 54 36 55 45 56
REMARK SMILES IDX 59 57 34 58 35 59 44 61 60 62 37 63 26 64 27 65 31 66 28 67
REMARK SMILES IDX 30 68 29 69 48 70 49 71 53 72 50 73 52 74 51 75 38 76 39 77
REMARK SMILES IDX 43 78 40 79 42 80 41 81
REMARK H PARENT 9 7 14 30 58 49 36 60
REMARK Flexibility Score: inf
ROOT
ATOM      1  C   UNL A   1      31.515  31.856  26.642  1.00  0.00     0.023 C 
ENDROOT
BRANCH   1   2
ATOM      2  C   UNL A   1      31.696  30.346  26.536  1.00  0.00     0.023 C 
BRANCH   2   3
ATOM      3  C   UNL A   1      31.408  29.768  25.150  1.00  0.00     0.116 C 
BRANCH   3   4
ATOM      4  N   UNL A   1      32.593  29.611  24.326  1.00  0.00    -0.356 N 
ATOM      5  C   UNL A   1      32.920  28.773  23.311  1.00  0.00     0.226 C 
ATOM      6  O   UNL A   1      34.035  28.952  22.805  1.00  0.00    -0.275 OA
ATOM      7  H   UNL A   1      33.312  30.245  24.553  1.00  0.00     0.163 HD
BRANCH   5   8
ATOM      8  C   UNL A   1      32.053  27.627  22.787  1.00  0.00     0.113 C 
ATOM      9  C   UNL A   1      29.904  26.040  25.393  1.00  0.00     0.147 C 
ATOM     10  N   UNL A   1      30.472  26.671  24.216  1.00  0.00    -0.339 N 
ATOM     11  C   UNL A   1      29.741  27.521  23.400  1.00  0.00     0.223 C 
ATOM     12  C   UNL A   1      31.829  26.406  23.710  1.00  0.00     0.058 C 
ATOM     13  O   UNL A   1      28.568  27.830  23.531  1.00  0.00    -0.275 OA
ATOM     14  C   UNL A   1      30.658  28.072  22.342  1.00  0.00     0.116 C 
ATOM     15  C   UNL A   1      32.884  26.259  24.830  1.00  0.00     0.051 C 
ATOM     16  C   UNL A   1      31.774  25.087  22.867  1.00  0.00     0.051 C 
ATOM     17  C   UNL A   1      34.221  25.762  24.313  1.00  0.00     0.120 C 
ATOM     18  C   UNL A   1      33.153  24.536  22.468  1.00  0.00     0.120 C 
ATOM     19  N   UNL A   1      33.968  24.495  23.666  1.00  0.00    -0.356 N 
BRANCH  19  20
ATOM     20  C   UNL A   1      34.718  23.391  23.992  1.00  0.00     0.128 A 
ATOM     21  C   UNL A   1      36.058  23.319  23.598  1.00  0.00     0.048 A 
ATOM     22  N   UNL A   1      34.150  22.399  24.707  1.00  0.00    -0.238 NA
ATOM     23  C   UNL A   1      36.828  22.202  23.914  1.00  0.00     0.026 A 
ATOM     24  C   UNL A   1      34.907  21.305  24.980  1.00  0.00     0.134 A 
ATOM     25  C   UNL A   1      36.234  21.164  24.610  1.00  0.00     0.059 A 
ATOM     26  Cl  UNL A   1      37.125  19.753  25.001  1.00  0.00    -0.083 Cl
ENDBRANCH  19  20
ENDBRANCH   5   8
ENDBRANCH   3   4
ENDBRANCH   2   3
ENDBRANCH   1   2
BRANCH   1  27
ATOM     27  C   UNL A   1      32.720  32.579  27.223  1.00  0.00     0.116 C 
BRANCH  27  28
ATOM     28  N   UNL A   1      32.425  33.959  27.591  1.00  0.00    -0.352 N 
ATOM     29  C   UNL A   1      33.014  34.736  28.555  1.00  0.00     0.251 C 
ATOM     30  H   UNL A   1      31.705  34.392  27.078  1.00  0.00     0.163 HD
ATOM     31  O   UNL A   1      32.551  35.833  28.849  1.00  0.00    -0.269 OA
BRANCH  29  32
ATOM     32  C   UNL A   1      34.200  34.214  29.251  1.00  0.00     0.039 A 
ATOM     33  C   UNL A   1      34.028  33.403  30.373  1.00  0.00     0.014 A 
ATOM     34  C   UNL A   1      35.476  34.482  28.748  1.00  0.00     0.014 A 
ATOM     35  C   UNL A   1      35.142  32.800  30.954  1.00  0.00     0.010 A 
ATOM     36  C   UNL A   1      36.569  33.807  29.267  1.00  0.00     0.010 A 
ATOM     37  C   UNL A   1      36.413  32.969  30.380  1.00  0.00    -0.014 A 
BRANCH  37  38
ATOM     38  C   UNL A   1      37.602  32.291  30.939  1.00  0.00     0.031 A 
ATOM     39  C   UNL A   1      38.226  32.802  32.206  1.00  0.00     0.074 A 
ATOM     40  C   UNL A   1      38.160  31.265  30.270  1.00  0.00     0.049 A 
ATOM     41  N   UNL A   1      39.294  32.377  32.831  1.00  0.00    -0.248 NA
ATOM     42  C   UNL A   1      37.583  33.967  32.837  1.00  0.00     0.031 C 
ATOM     43  C   UNL A   1      37.676  30.714  29.001  1.00  0.00     0.029 A 
ATOM     44  N   UNL A   1      39.258  30.502  30.567  1.00  0.00    -0.354 N 
ATOM     45  C   UNL A   1      39.462  33.236  33.909  1.00  0.00     0.074 A 
ATOM     46  C   UNL A   1      38.426  34.240  33.820  1.00  0.00     0.031 C 
ATOM     47  C   UNL A   1      38.446  29.672  28.653  1.00  0.00     0.029 A 
ATOM     48  C   UNL A   1      39.498  29.506  29.652  1.00  0.00     0.049 A 
ATOM     49  H   UNL A   1      39.821  30.653  31.359  1.00  0.00     0.167 HD
ATOM     50  C   UNL A   1      40.381  33.179  34.901  1.00  0.00     0.031 A 
ATOM     51  C   UNL A   1      40.454  28.560  29.628  1.00  0.00     0.031 A 
ATOM     52  C   UNL A   1      41.398  32.169  34.995  1.00  0.00     0.049 A 
ATOM     53  C   UNL A   1      41.460  28.512  30.742  1.00  0.00     0.074 A 
ATOM     54  C   UNL A   1      42.338  31.980  35.993  1.00  0.00     0.029 A 
ATOM     55  N   UNL A   1      41.607  31.174  34.051  1.00  0.00    -0.354 N 
ATOM     56  N   UNL A   1      41.566  29.287  31.794  1.00  0.00    -0.248 NA
ATOM     57  C   UNL A   1      42.473  27.451  30.668  1.00  0.00     0.031 C 
ATOM     58  C   UNL A   1      43.144  30.895  35.629  1.00  0.00     0.029 A 
ATOM     59  C   UNL A   1      42.674  30.380  34.430  1.00  0.00     0.049 A 
ATOM     60  H   UNL A   1      41.073  31.053  33.233  1.00  0.00     0.167 HD
ATOM     61  C   UNL A   1      42.640  28.794  32.521  1.00  0.00     0.074 A 
ATOM     62  C   UNL A   1      43.144  27.644  31.794  1.00  0.00     0.031 C 
ATOM     63  C   UNL A   1      43.163  29.248  33.686  1.00  0.00     0.031 A 
BRANCH  50  64
ATOM     64  C   UNL A   1      40.316  34.253  35.952  1.00  0.00    -0.014 A 
ATOM     65  C   UNL A   1      39.509  34.108  37.093  1.00  0.00     0.009 A 
ATOM     66  C   UNL A   1      41.058  35.432  35.793  1.00  0.00     0.009 A 
ATOM     67  C   UNL A   1      39.405  35.142  38.024  1.00  0.00     0.001 A 
ATOM     68  C   UNL A   1      40.978  36.452  36.743  1.00  0.00     0.001 A 
ATOM     69  C   UNL A   1      40.142  36.312  37.850  1.00  0.00     0.000 A 
ENDBRANCH  50  64
BRANCH  51  70
ATOM     70  C   UNL A   1      40.468  27.552  28.539  1.00  0.00    -0.014 A 
ATOM     71  C   UNL A   1      39.759  26.349  28.684  1.00  0.00     0.009 A 
ATOM     72  C   UNL A   1      41.168  27.790  27.346  1.00  0.00     0.009 A 
ATOM     73  C   UNL A   1      39.765  25.398  27.663  1.00  0.00     0.001 A 
ATOM     74  C   UNL A   1      41.151  26.845  26.317  1.00  0.00     0.001 A 
ATOM     75  C   UNL A   1      40.456  25.648  26.478  1.00  0.00     0.000 A 
ENDBRANCH  51  70
BRANCH  63  76
ATOM     76  C   UNL A   1      44.323  28.484  34.256  1.00  0.00    -0.014 A 
ATOM     77  C   UNL A   1      45.646  28.837  33.950  1.00  0.00     0.009 A 
ATOM     78  C   UNL A   1      44.087  27.416  35.135  1.00  0.00     0.009 A 
ATOM     79  C   UNL A   1      46.711  28.112  34.492  1.00  0.00     0.001 A 
ATOM     80  C   UNL A   1      45.153  26.711  35.695  1.00  0.00     0.001 A 
ATOM     81  C   UNL A   1      46.463  27.055  35.365  1.00  0.00     0.000 A 
ENDBRANCH  63  76
ENDBRANCH  37  38
ENDBRANCH  29  32
ENDBRANCH  27  28
ENDBRANCH   1  27
TORSDOF 12
ENDMDL
MODEL 2
REMARK VINA RESULT:     -12.5      4.505      9.563
REMARK SMILES CN1C(=O)C[C@@H](C(=O)NCCCCNC(=O)c2ccc(-c3c4nc(c(-c5ccccc5)c5ccc([nH]5)c(-c5ccccc5)c5nc(c(-c6ccccc6)c6ccc3[nH]6)C=C5)C=C4)cc2)C12CCN(c1ccc(Cl)cn1)CC2
REMARK SMILES IDX 12 1 11 2 10 3 9 4 7 5 8 6 6 8 1 9 2 10 3 11 65 12 4 13 5 14
REMARK SMILES IDX 66 15 77 16 67 17 76 18 68 19 69 20 70 21 75 22 71 23 74 24
REMARK SMILES IDX 72 25 73 26 13 27 14 28 15 29 16 31 17 32 18 33 64 34 19 35
REMARK SMILES IDX 63 36 20 37 21 38 22 39 57 40 23 41 62 42 56 43 58 44 24 45
REMARK SMILES IDX 61 46 55 47 54 48 25 50 47 51 32 52 46 53 33 54 36 55 45 56
REMARK SMILES IDX 59 57 34 58 35 59 44 61 60 62 37 63 26 64 27 65 31 66 28 67
REMARK SMILES IDX 30 68 29 69 48 70 49 71 53 72 50 73 52 74 51 75 38 76 39 77
REMARK SMILES IDX 43 78 40 79 42 80 41 81
REMARK H PARENT 9 7 14 30 58 49 36 60
REMARK Flexibility Score: inf
ROOT
ATOM      1  C   UNL A   1      37.888  19.963  24.994  1.00  0.00     0.023 C 
ENDROOT
BRANCH   1   2
ATOM      2  C   UNL A   1      36.921  21.091  24.651  1.00  0.00     0.023 C 
BRANCH   2   3
ATOM      3  C   UNL A   1      35.456  20.790  24.968  1.00  0.00     0.116 C 
BRANCH   3   4
ATOM      4  N   UNL A   1      35.022  21.297  26.257  1.00  0.00    -0.356 N 
ATOM      5  C   UNL A   1      33.845  21.790  26.718  1.00  0.00     0.226 C 
ATOM      6  O   UNL A   1      33.828  22.104  27.915  1.00  0.00    -0.275 OA
ATOM      7  H   UNL A   1      35.731  21.283  26.940  1.00  0.00     0.163 HD
BRANCH   5   8
ATOM      8  C   UNL A   1      32.585  22.017  25.882  1.00  0.00     0.113 C 
ATOM      9  C   UNL A   1      33.271  22.968  22.338  1.00  0.00     0.147 C 
ATOM     10  N   UNL A   1      32.812  22.386  23.586  1.00  0.00    -0.339 N 
ATOM     11  C   UNL A   1      32.432  21.057  23.694  1.00  0.00     0.223 C 
ATOM     12  C   UNL A   1      32.608  23.150  24.828  1.00  0.00     0.058 C 
ATOM     13  O   UNL A   1      32.407  20.230  22.797  1.00  0.00    -0.275 OA
ATOM     14  C   UNL A   1      32.115  20.766  25.136  1.00  0.00     0.116 C 
ATOM     15  C   UNL A   1      33.694  24.221  25.076  1.00  0.00     0.051 C 
ATOM     16  C   UNL A   1      31.205  23.840  24.739  1.00  0.00     0.051 C 
ATOM     17  C   UNL A   1      33.350  25.148  26.228  1.00  0.00     0.120 C 
ATOM     18  C   UNL A   1      30.936  24.871  25.846  1.00  0.00     0.120 C 
ATOM     19  N   UNL A   1      32.082  25.758  25.901  1.00  0.00    -0.356 N 
BRANCH  19  20
ATOM     20  C   UNL A   1      31.937  27.122  25.960  1.00  0.00     0.128 A 
ATOM     21  C   UNL A   1      32.182  27.797  27.161  1.00  0.00     0.048 A 
ATOM     22  N   UNL A   1      31.576  27.794  24.848  1.00  0.00    -0.238 NA
ATOM     23  C   UNL A   1      32.030  29.180  27.238  1.00  0.00     0.026 A 
ATOM     24  C   UNL A   1      31.404  29.138  24.949  1.00  0.00     0.134 A 
ATOM     25  C   UNL A   1      31.618  29.864  26.108  1.00  0.00     0.059 A 
ATOM     26  Cl  UNL A   1      31.387  31.562  26.152  1.00  0.00    -0.083 Cl
ENDBRANCH  19  20
ENDBRANCH   5   8
ENDBRANCH   3   4
ENDBRANCH   2   3
ENDBRANCH   1   2
BRANCH   1  27
ATOM     27  C   UNL A   1      39.107  20.418  25.780  1.00  0.00     0.116 C 
BRANCH  27  28
ATOM     28  N   UNL A   1      40.142  19.393  25.857  1.00  0.00    -0.352 N 
ATOM     29  C   UNL A   1      41.467  19.533  26.179  1.00  0.00     0.251 C 
ATOM     30  H   UNL A   1      39.849  18.477  25.649  1.00  0.00     0.163 HD
ATOM     31  O   UNL A   1      42.248  18.596  26.052  1.00  0.00    -0.269 OA
BRANCH  29  32
ATOM     32  C   UNL A   1      41.942  20.842  26.656  1.00  0.00     0.039 A 
ATOM     33  C   UNL A   1      42.345  21.798  25.725  1.00  0.00     0.014 A 
ATOM     34  C   UNL A   1      41.921  21.134  28.023  1.00  0.00     0.014 A 
ATOM     35  C   UNL A   1      42.668  23.081  26.164  1.00  0.00     0.010 A 
ATOM     36  C   UNL A   1      42.148  22.433  28.445  1.00  0.00     0.010 A 
ATOM     37  C   UNL A   1      42.535  23.415  27.522  1.00  0.00    -0.014 A 
BRANCH  37  38
ATOM     38  C   UNL A   1      42.810  24.785  28.005  1.00  0.00     0.031 A 
ATOM     39  C   UNL A   1      44.220  25.197  28.316  1.00  0.00     0.074 A 
ATOM     40  C   UNL A   1      41.786  25.629  28.231  1.00  0.00     0.049 A 
ATOM     41  N   UNL A   1      44.662  26.333  28.792  1.00  0.00    -0.248 NA
ATOM     42  C   UNL A   1      45.268  24.187  28.095  1.00  0.00     0.031 C 
ATOM     43  C   UNL A   1      40.369  25.324  28.018  1.00  0.00     0.029 A 
ATOM     44  N   UNL A   1      41.783  26.920  28.691  1.00  0.00    -0.354 N 
ATOM     45  C   UNL A   1      46.032  26.163  28.948  1.00  0.00     0.074 A 
ATOM     46  C   UNL A   1      46.338  24.800  28.577  1.00  0.00     0.031 C 
ATOM     47  C   UNL A   1      39.638  26.414  28.302  1.00  0.00     0.029 A 
ATOM     48  C   UNL A   1      40.530  27.478  28.752  1.00  0.00     0.049 A 
ATOM     49  H   UNL A   1      42.601  27.401  28.952  1.00  0.00     0.167 HD
ATOM     50  C   UNL A   1      46.957  27.069  29.340  1.00  0.00     0.031 A 
ATOM     51  C   UNL A   1      40.146  28.713  29.122  1.00  0.00     0.031 A 
ATOM     52  C   UNL A   1      46.651  28.428  29.692  1.00  0.00     0.049 A 
ATOM     53  C   UNL A   1      41.190  29.704  29.549  1.00  0.00     0.074 A 
ATOM     54  C   UNL A   1      47.519  29.448  30.039  1.00  0.00     0.029 A 
ATOM     55  N   UNL A   1      45.370  28.957  29.738  1.00  0.00    -0.354 N 
ATOM     56  N   UNL A   1      42.490  29.553  29.625  1.00  0.00    -0.248 NA
ATOM     57  C   UNL A   1      40.712  31.039  29.931  1.00  0.00     0.031 C 
ATOM     58  C   UNL A   1      46.758  30.583  30.339  1.00  0.00     0.029 A 
ATOM     59  C   UNL A   1      45.420  30.283  30.130  1.00  0.00     0.049 A 
ATOM     60  H   UNL A   1      44.547  28.462  29.524  1.00  0.00     0.167 HD
ATOM     61  C   UNL A   1      42.989  30.780  30.040  1.00  0.00     0.074 A 
ATOM     62  C   UNL A   1      41.851  31.667  30.186  1.00  0.00     0.031 C 
ATOM     63  C   UNL A   1      44.274  31.143  30.277  1.00  0.00     0.031 A 
BRANCH  50  64
ATOM     64  C   UNL A   1      48.383  26.599  29.411  1.00  0.00    -0.014 A 
ATOM     65  C   UNL A   1      49.263  26.773  28.330  1.00  0.00     0.009 A 
ATOM     66  C   UNL A   1      48.851  25.958  30.568  1.00  0.00     0.009 A 
ATOM     67  C   UNL A   1      50.563  26.269  28.385  1.00  0.00     0.001 A 
ATOM     68  C   UNL A   1      50.163  25.483  30.633  1.00  0.00     0.001 A 
ATOM     69  C   UNL A   1      51.013  25.627  29.537  1.00  0.00     0.000 A 
ENDBRANCH  50  64
BRANCH  51  70
ATOM     70  C   UNL A   1      38.713  29.092  29.052  1.00  0.00    -0.014 A 
ATOM     71  C   UNL A   1      38.155  29.515  27.835  1.00  0.00     0.009 A 
ATOM     72  C   UNL A   1      37.890  29.016  30.187  1.00  0.00     0.009 A 
ATOM     73  C   UNL A   1      36.807  29.870  27.760  1.00  0.00     0.001 A 
ATOM     74  C   UNL A   1      36.537  29.350  30.102  1.00  0.00     0.001 A 
ATOM     75  C   UNL A   1      35.998  29.782  28.892  1.00  0.00     0.000 A 
ENDBRANCH  51  70
BRANCH  63  76
ATOM     76  C   UNL A   1      44.514  32.565  30.694  1.00  0.00    -0.014 A 
ATOM     77  C   UNL A   1      44.513  32.936  32.047  1.00  0.00     0.009 A 
ATOM     78  C   UNL A   1      44.775  33.539  29.719  1.00  0.00     0.009 A 
ATOM     79  C   UNL A   1      44.739  34.265  32.413  1.00  0.00     0.001 A 
ATOM     80  C   UNL A   1      45.027  34.861  30.089  1.00  0.00     0.001 A 
ATOM     81  C   UNL A   1      45.000  35.223  31.435  1.00  0.00     0.000 A 
ENDBRANCH  63  76
ENDBRANCH  37  38
ENDBRANCH  29  32
ENDBRANCH  27  28
ENDBRANCH   1  27
TORSDOF 12
ENDMDL
MODEL 3
REMARK VINA RESULT:     -12.4      0.454      5.871
REMARK SMILES CN1C(=O)C[C@@H](C(=O)NCCCCNC(=O)c2ccc(-c3c4nc(c(-c5ccccc5)c5ccc([nH]5)c(-c5ccccc5)c5nc(c(-c6ccccc6)c6ccc3[nH]6)C=C5)C=C4)cc2)C12CCN(c1ccc(Cl)cn1)CC2
REMARK SMILES IDX 12 1 11 2 10 3 9 4 7 5 8 6 6 8 1 9 2 10 3 11 65 12 4 13 5 14
REMARK SMILES IDX 66 15 77 16 67 17 76 18 68 19 69 20 70 21 75 22 71 23 74 24
REMARK SMILES IDX 72 25 73 26 13 27 14 28 15 29 16 31 17 32 18 33 64 34 19 35
REMARK SMILES IDX 63 36 20 37 21 38 22 39 57 40 23 41 62 42 56 43 58 44 24 45
REMARK SMILES IDX 61 46 55 47 54 48 25 50 47 51 32 52 46 53 33 54 36 55 45 56
REMARK SMILES IDX 59 57 34 58 35 59 44 61 60 62 37 63 26 64 27 65 31 66 28 67
REMARK SMILES IDX 30 68 29 69 48 70 49 71 53 72 50 73 52 74 51 75 38 76 39 77
REMARK SMILES IDX 43 78 40 79 42 80 41 81
REMARK H PARENT 9 7 14 30 58 49 36 60
REMARK Flexibility Score: inf
ROOT
ATOM      1  C   UNL A   1      31.608  31.861  26.626  1.00  0.00     0.023 C 
ENDROOT
BRANCH   1   2
ATOM      2  C   UNL A   1      31.806  30.350  26.605  1.00  0.00     0.023 C 
BRANCH   2   3
ATOM      3  C   UNL A   1      31.531  29.692  25.253  1.00  0.00     0.116 C 
BRANCH   3   4
ATOM      4  N   UNL A   1      32.711  29.559  24.418  1.00  0.00    -0.356 N 
ATOM      5  C   UNL A   1      33.031  28.753  23.374  1.00  0.00     0.226 C 
ATOM      6  O   UNL A   1      34.144  28.947  22.869  1.00  0.00    -0.275 OA
ATOM      7  H   UNL A   1      33.433  30.184  24.661  1.00  0.00     0.163 HD
BRANCH   5   8
ATOM      8  C   UNL A   1      32.158  27.627  22.818  1.00  0.00     0.113 C 
ATOM      9  C   UNL A   1      29.943  26.030  25.363  1.00  0.00     0.147 C 
ATOM     10  N   UNL A   1      30.540  26.670  24.205  1.00  0.00    -0.339 N 
ATOM     11  C   UNL A   1      29.834  27.543  23.390  1.00  0.00     0.223 C 
ATOM     12  C   UNL A   1      31.902  26.395  23.719  1.00  0.00     0.058 C 
ATOM     13  O   UNL A   1      28.664  27.865  23.505  1.00  0.00    -0.275 OA
ATOM     14  C   UNL A   1      30.777  28.098  22.356  1.00  0.00     0.116 C 
ATOM     15  C   UNL A   1      32.935  26.217  24.854  1.00  0.00     0.051 C 
ATOM     16  C   UNL A   1      31.845  25.090  22.855  1.00  0.00     0.051 C 
ATOM     17  C   UNL A   1      34.275  25.710  24.352  1.00  0.00     0.120 C 
ATOM     18  C   UNL A   1      33.223  24.526  22.471  1.00  0.00     0.120 C 
ATOM     19  N   UNL A   1      34.016  24.457  23.682  1.00  0.00    -0.356 N 
BRANCH  19  20
ATOM     20  C   UNL A   1      34.746  23.339  24.005  1.00  0.00     0.128 A 
ATOM     21  C   UNL A   1      36.132  23.335  23.820  1.00  0.00     0.048 A 
ATOM     22  N   UNL A   1      34.111  22.264  24.513  1.00  0.00    -0.238 NA
ATOM     23  C   UNL A   1      36.884  22.205  24.134  1.00  0.00     0.026 A 
ATOM     24  C   UNL A   1      34.855  21.161  24.786  1.00  0.00     0.134 A 
ATOM     25  C   UNL A   1      36.227  21.087  24.615  1.00  0.00     0.059 A 
ATOM     26  Cl  UNL A   1      37.097  19.659  24.991  1.00  0.00    -0.083 Cl
ENDBRANCH  19  20
ENDBRANCH   5   8
ENDBRANCH   3   4
ENDBRANCH   2   3
ENDBRANCH   1   2
BRANCH   1  27
ATOM     27  C   UNL A   1      32.745  32.621  27.290  1.00  0.00     0.116 C 
BRANCH  27  28
ATOM     28  N   UNL A   1      32.410  34.014  27.560  1.00  0.00    -0.352 N 
ATOM     29  C   UNL A   1      32.955  34.865  28.486  1.00  0.00     0.251 C 
ATOM     30  H   UNL A   1      31.695  34.395  27.001  1.00  0.00     0.163 HD
ATOM     31  O   UNL A   1      32.460  35.967  28.697  1.00  0.00    -0.269 OA
BRANCH  29  32
ATOM     32  C   UNL A   1      34.132  34.417  29.247  1.00  0.00     0.039 A 
ATOM     33  C   UNL A   1      33.946  33.768  30.467  1.00  0.00     0.014 A 
ATOM     34  C   UNL A   1      35.412  34.588  28.711  1.00  0.00     0.014 A 
ATOM     35  C   UNL A   1      35.050  33.226  31.124  1.00  0.00     0.010 A 
ATOM     36  C   UNL A   1      36.492  33.966  29.316  1.00  0.00     0.010 A 
ATOM     37  C   UNL A   1      36.323  33.290  30.532  1.00  0.00    -0.014 A 
BRANCH  37  38
ATOM     38  C   UNL A   1      37.499  32.668  31.177  1.00  0.00     0.031 A 
ATOM     39  C   UNL A   1      38.164  31.485  30.534  1.00  0.00     0.074 A 
ATOM     40  C   UNL A   1      37.921  33.123  32.372  1.00  0.00     0.049 A 
ATOM     41  N   UNL A   1      39.174  30.772  30.961  1.00  0.00    -0.248 NA
ATOM     42  C   UNL A   1      37.595  31.020  29.258  1.00  0.00     0.031 C 
ATOM     43  C   UNL A   1      37.322  34.231  33.120  1.00  0.00     0.029 A 
ATOM     44  N   UNL A   1      38.957  32.706  33.166  1.00  0.00    -0.354 N 
ATOM     45  C   UNL A   1      39.345  29.765  30.021  1.00  0.00     0.074 A 
ATOM     46  C   UNL A   1      38.298  29.921  29.036  1.00  0.00     0.031 C 
ATOM     47  C   UNL A   1      38.030  34.436  34.242  1.00  0.00     0.029 A 
ATOM     48  C   UNL A   1      39.106  33.451  34.310  1.00  0.00     0.049 A 
ATOM     49  H   UNL A   1      39.538  31.945  32.939  1.00  0.00     0.167 HD
ATOM     50  C   UNL A   1      40.302  28.811  29.966  1.00  0.00     0.031 A 
ATOM     51  C   UNL A   1      40.015  33.355  35.297  1.00  0.00     0.031 A 
ATOM     52  C   UNL A   1      41.351  28.671  30.939  1.00  0.00     0.049 A 
ATOM     53  C   UNL A   1      41.072  32.292  35.214  1.00  0.00     0.074 A 
ATOM     54  C   UNL A   1      42.410  27.781  30.945  1.00  0.00     0.029 A 
ATOM     55  N   UNL A   1      41.471  29.447  32.081  1.00  0.00    -0.354 N 
ATOM     56  N   UNL A   1      41.265  31.389  34.283  1.00  0.00    -0.248 NA
ATOM     57  C   UNL A   1      42.043  32.243  36.315  1.00  0.00     0.031 C 
ATOM     58  C   UNL A   1      43.147  27.991  32.116  1.00  0.00     0.029 A 
ATOM     59  C   UNL A   1      42.573  29.044  32.813  1.00  0.00     0.049 A 
ATOM     60  H   UNL A   1      40.860  30.177  32.334  1.00  0.00     0.167 HD
ATOM     61  C   UNL A   1      42.392  30.680  34.672  1.00  0.00     0.074 A 
ATOM     62  C   UNL A   1      42.847  31.267  35.917  1.00  0.00     0.031 C 
ATOM     63  C   UNL A   1      43.000  29.638  34.054  1.00  0.00     0.031 A 
BRANCH  50  64
ATOM     64  C   UNL A   1      40.239  27.848  28.814  1.00  0.00    -0.014 A 
ATOM     65  C   UNL A   1      39.563  26.621  28.925  1.00  0.00     0.009 A 
ATOM     66  C   UNL A   1      40.878  28.162  27.605  1.00  0.00     0.009 A 
ATOM     67  C   UNL A   1      39.573  25.708  27.869  1.00  0.00     0.001 A 
ATOM     68  C   UNL A   1      40.858  27.260  26.539  1.00  0.00     0.001 A 
ATOM     69  C   UNL A   1      40.218  26.029  26.677  1.00  0.00     0.000 A 
ENDBRANCH  50  64
BRANCH  51  70
ATOM     70  C   UNL A   1      39.992  34.327  36.418  1.00  0.00    -0.014 A 
ATOM     71  C   UNL A   1      40.660  35.556  36.298  1.00  0.00     0.009 A 
ATOM     72  C   UNL A   1      39.291  34.047  37.601  1.00  0.00     0.009 A 
ATOM     73  C   UNL A   1      40.641  36.477  37.346  1.00  0.00     0.001 A 
ATOM     74  C   UNL A   1      39.254  34.982  38.639  1.00  0.00     0.001 A 
ATOM     75  C   UNL A   1      39.934  36.192  38.513  1.00  0.00     0.000 A 
ENDBRANCH  51  70
BRANCH  63  76
ATOM     76  C   UNL A   1      44.235  29.085  34.706  1.00  0.00    -0.014 A 
ATOM     77  C   UNL A   1      44.162  28.022  35.618  1.00  0.00     0.009 A 
ATOM     78  C   UNL A   1      45.491  29.618  34.377  1.00  0.00     0.009 A 
ATOM     79  C   UNL A   1      45.324  27.524  36.212  1.00  0.00     0.001 A 
ATOM     80  C   UNL A   1      46.652  29.100  34.952  1.00  0.00     0.001 A 
ATOM     81  C   UNL A   1      46.565  28.060  35.876  1.00  0.00     0.000 A 
ENDBRANCH  63  76
ENDBRANCH  37  38
ENDBRANCH  29  32
ENDBRANCH  27  28
ENDBRANCH   1  27
TORSDOF 12
ENDMDL
