MODEL 1
REMARK VINA RESULT:     -12.0      0.000      0.000
REMARK SMILES CC(C)CCc1cc2c(cc1Cl)C=C(C(=O)NCCCCNC(=O)c1ccc(-c3c4nc(c(-c5ccccc5)c5ccc([nH]5)c(-c5ccccc5)c5nc(c(-c6ccccc6)c6ccc3[nH]6)C=C5)C=C4)cc1)[C@H](C(F)(F)F)O2
REMARK SMILES IDX 19 1 18 2 17 3 15 4 16 5 14 7 6 8 7 9 11 10 8 11 10 12 12 13
REMARK SMILES IDX 9 14 78 15 13 16 73 17 5 18 4 19 2 20 1 21 3 22 74 23 75 24
REMARK SMILES IDX 76 25 77 26 20 27 21 28 22 29 23 30 24 32 25 33 26 34 72 35
REMARK SMILES IDX 27 36 71 37 28 38 29 39 30 40 65 41 31 42 70 43 64 44 66 45
REMARK SMILES IDX 32 46 69 47 63 48 62 49 33 51 55 52 40 53 54 54 41 55 44 56
REMARK SMILES IDX 53 57 67 58 42 59 43 60 52 62 68 63 45 64 34 65 35 66 39 67
REMARK SMILES IDX 36 68 38 69 37 70 56 71 57 72 61 73 58 74 60 75 59 76 46 77
REMARK SMILES IDX 47 78 51 79 48 80 50 81 49 82
REMARK H PARENT 17 6 22 31 66 50 44 61
REMARK Flexibility Score: inf
ROOT
ATOM      1  C   UNL A   1      37.179  22.767  24.695  1.00  0.00     0.023 C 
ENDROOT
BRANCH   1   2
ATOM      2  C   UNL A   1      36.602  23.686  25.769  1.00  0.00     0.116 C 
BRANCH   2   3
ATOM      3  N   UNL A   1      35.695  22.963  26.636  1.00  0.00    -0.352 N 
ATOM      4  C   UNL A   1      34.352  22.865  26.757  1.00  0.00     0.251 C 
ATOM      5  O   UNL A   1      33.948  22.087  27.626  1.00  0.00    -0.270 OA
ATOM      6  H   UNL A   1      36.171  22.409  27.296  1.00  0.00     0.163 HD
BRANCH   4   7
ATOM      7  C   UNL A   1      33.369  23.605  25.912  1.00  0.00     0.067 C 
ATOM      8  C   UNL A   1      30.755  27.404  23.780  1.00  0.00    -0.026 A 
ATOM      9  C   UNL A   1      30.821  26.002  23.606  1.00  0.00     0.052 A 
ATOM     10  C   UNL A   1      31.516  27.950  24.827  1.00  0.00     0.045 A 
ATOM     11  C   UNL A   1      31.640  25.194  24.395  1.00  0.00     0.128 A 
ATOM     12  C   UNL A   1      32.376  27.139  25.585  1.00  0.00     0.032 A 
ATOM     13  Cl  UNL A   1      31.433  29.595  25.341  1.00  0.00    -0.084 Cl
ATOM     14  C   UNL A   1      32.442  25.762  25.372  1.00  0.00     0.019 A 
ATOM     15  O   UNL A   1      31.559  23.851  24.181  1.00  0.00    -0.475 OA
ATOM     16  C   UNL A   1      33.305  24.920  26.180  1.00  0.00     0.025 C 
ATOM     17  C   UNL A   1      32.574  22.998  24.783  1.00  0.00     0.314 C 
BRANCH   8  18
ATOM     18  C   UNL A   1      29.789  28.116  22.850  1.00  0.00     0.037 C 
BRANCH  18  19
ATOM     19  C   UNL A   1      29.397  29.587  23.030  1.00  0.00     0.008 C 
BRANCH  19  20
ATOM     20  C   UNL A   1      27.907  29.917  22.817  1.00  0.00    -0.017 C 
ATOM     21  C   UNL A   1      26.993  28.777  23.268  1.00  0.00     0.007 C 
ATOM     22  C   UNL A   1      27.556  31.197  23.582  1.00  0.00     0.007 C 
ENDBRANCH  19  20
ENDBRANCH  18  19
ENDBRANCH   8  18
BRANCH  17  23
ATOM     23  C   UNL A   1      33.424  22.394  23.651  1.00  0.00     0.429 C 
ATOM     24  F   UNL A   1      32.633  22.113  22.583  1.00  0.00    -0.167 F 
ATOM     25  F   UNL A   1      34.389  23.235  23.215  1.00  0.00    -0.167 F 
ATOM     26  F   UNL A   1      34.034  21.241  24.001  1.00  0.00    -0.167 F 
ENDBRANCH  17  23
ENDBRANCH   4   7
ENDBRANCH   2   3
ENDBRANCH   1   2
BRANCH   1  27
ATOM     27  C   UNL A   1      37.614  21.394  25.203  1.00  0.00     0.023 C 
BRANCH  27  28
ATOM     28  C   UNL A   1      38.968  21.368  25.893  1.00  0.00     0.116 C 
BRANCH  28  29
ATOM     29  N   UNL A   1      39.695  20.113  25.737  1.00  0.00    -0.352 N 
ATOM     30  C   UNL A   1      41.010  19.865  26.063  1.00  0.00     0.251 C 
ATOM     31  H   UNL A   1      39.189  19.359  25.357  1.00  0.00     0.163 HD
ATOM     32  O   UNL A   1      41.532  18.779  25.844  1.00  0.00    -0.269 OA
BRANCH  30  33
ATOM     33  C   UNL A   1      41.791  20.981  26.627  1.00  0.00     0.039 A 
ATOM     34  C   UNL A   1      41.819  21.165  28.010  1.00  0.00     0.014 A 
ATOM     35  C   UNL A   1      42.311  21.942  25.758  1.00  0.00     0.014 A 
ATOM     36  C   UNL A   1      42.185  22.404  28.514  1.00  0.00     0.010 A 
ATOM     37  C   UNL A   1      42.762  23.154  26.279  1.00  0.00     0.010 A 
ATOM     38  C   UNL A   1      42.636  23.419  27.652  1.00  0.00    -0.014 A 
BRANCH  38  39
ATOM     39  C   UNL A   1      42.919  24.767  28.202  1.00  0.00     0.031 A 
ATOM     40  C   UNL A   1      44.334  25.206  28.470  1.00  0.00     0.074 A 
ATOM     41  C   UNL A   1      41.899  25.626  28.388  1.00  0.00     0.049 A 
ATOM     42  N   UNL A   1      44.763  26.345  28.954  1.00  0.00    -0.248 NA
ATOM     43  C   UNL A   1      45.409  24.251  28.152  1.00  0.00     0.031 C 
ATOM     44  C   UNL A   1      40.491  25.330  28.119  1.00  0.00     0.029 A 
ATOM     45  N   UNL A   1      41.893  26.930  28.809  1.00  0.00    -0.354 N 
ATOM     46  C   UNL A   1      46.146  26.230  29.031  1.00  0.00     0.074 A 
ATOM     47  C   UNL A   1      46.488  24.908  28.554  1.00  0.00     0.031 C 
ATOM     48  C   UNL A   1      39.767  26.440  28.315  1.00  0.00     0.029 A 
ATOM     49  C   UNL A   1      40.645  27.501  28.796  1.00  0.00     0.049 A 
ATOM     50  H   UNL A   1      42.705  27.410  29.093  1.00  0.00     0.167 HD
ATOM     51  C   UNL A   1      47.047  27.146  29.458  1.00  0.00     0.031 A 
ATOM     52  C   UNL A   1      40.244  28.736  29.148  1.00  0.00     0.031 A 
ATOM     53  C   UNL A   1      46.706  28.468  29.909  1.00  0.00     0.049 A 
ATOM     54  C   UNL A   1      41.256  29.717  29.659  1.00  0.00     0.074 A 
ATOM     55  C   UNL A   1      47.551  29.468  30.360  1.00  0.00     0.029 A 
ATOM     56  N   UNL A   1      45.419  28.980  29.954  1.00  0.00    -0.354 N 
ATOM     57  N   UNL A   1      42.554  29.575  29.766  1.00  0.00    -0.248 NA
ATOM     58  C   UNL A   1      40.747  31.018  30.111  1.00  0.00     0.031 C 
ATOM     59  C   UNL A   1      46.771  30.569  30.719  1.00  0.00     0.029 A 
ATOM     60  C   UNL A   1      45.446  30.275  30.443  1.00  0.00     0.049 A 
ATOM     61  H   UNL A   1      44.607  28.495  29.681  1.00  0.00     0.167 HD
ATOM     62  C   UNL A   1      43.020  30.769  30.298  1.00  0.00     0.074 A 
ATOM     63  C   UNL A   1      41.868  31.631  30.471  1.00  0.00     0.031 C 
ATOM     64  C   UNL A   1      44.290  31.115  30.618  1.00  0.00     0.031 A 
BRANCH  51  65
ATOM     65  C   UNL A   1      48.497  26.750  29.484  1.00  0.00    -0.014 A 
ATOM     66  C   UNL A   1      49.040  26.182  30.647  1.00  0.00     0.009 A 
ATOM     67  C   UNL A   1      49.343  27.011  28.396  1.00  0.00     0.009 A 
ATOM     68  C   UNL A   1      50.402  25.890  30.725  1.00  0.00     0.001 A 
ATOM     69  C   UNL A   1      50.702  26.696  28.468  1.00  0.00     0.001 A 
ATOM     70  C   UNL A   1      51.232  26.144  29.635  1.00  0.00     0.000 A 
ENDBRANCH  51  65
BRANCH  52  71
ATOM     71  C   UNL A   1      38.808  29.090  29.026  1.00  0.00    -0.014 A 
ATOM     72  C   UNL A   1      38.313  29.662  27.843  1.00  0.00     0.009 A 
ATOM     73  C   UNL A   1      37.943  28.928  30.117  1.00  0.00     0.009 A 
ATOM     74  C   UNL A   1      36.990  30.095  27.766  1.00  0.00     0.001 A 
ATOM     75  C   UNL A   1      36.611  29.337  30.027  1.00  0.00     0.001 A 
ATOM     76  C   UNL A   1      36.139  29.931  28.857  1.00  0.00     0.000 A 
ENDBRANCH  52  71
BRANCH  64  77
ATOM     77  C   UNL A   1      44.513  32.485  31.185  1.00  0.00    -0.014 A 
ATOM     78  C   UNL A   1      44.361  32.702  32.563  1.00  0.00     0.009 A 
ATOM     79  C   UNL A   1      44.782  33.576  30.345  1.00  0.00     0.009 A 
ATOM     80  C   UNL A   1      44.466  33.990  33.090  1.00  0.00     0.001 A 
ATOM     81  C   UNL A   1      44.907  34.860  30.879  1.00  0.00     0.001 A 
ATOM     82  C   UNL A   1      44.742  35.067  32.248  1.00  0.00     0.000 A 
ENDBRANCH  64  77
ENDBRANCH  38  39
ENDBRANCH  30  33
ENDBRANCH  28  29
ENDBRANCH  27  28
ENDBRANCH   1  27
TORSDOF 15
ENDMDL
MODEL 2
REMARK VINA RESULT:     -11.8      3.901      8.908
REMARK SMILES CC(C)CCc1cc2c(cc1Cl)C=C(C(=O)NCCCCNC(=O)c1ccc(-c3c4nc(c(-c5ccccc5)c5ccc([nH]5)c(-c5ccccc5)c5nc(c(-c6ccccc6)c6ccc3[nH]6)C=C5)C=C4)cc1)[C@H](C(F)(F)F)O2
REMARK SMILES IDX 19 1 18 2 17 3 15 4 16 5 14 7 6 8 7 9 11 10 8 11 10 12 12 13
REMARK SMILES IDX 9 14 78 15 13 16 73 17 5 18 4 19 2 20 1 21 3 22 74 23 75 24
REMARK SMILES IDX 76 25 77 26 20 27 21 28 22 29 23 30 24 32 25 33 26 34 72 35
REMARK SMILES IDX 27 36 71 37 28 38 29 39 30 40 65 41 31 42 70 43 64 44 66 45
REMARK SMILES IDX 32 46 69 47 63 48 62 49 33 51 55 52 40 53 54 54 41 55 44 56
REMARK SMILES IDX 53 57 67 58 42 59 43 60 52 62 68 63 45 64 34 65 35 66 39 67
REMARK SMILES IDX 36 68 38 69 37 70 56 71 57 72 61 73 58 74 60 75 59 76 46 77
REMARK SMILES IDX 47 78 51 79 48 80 50 81 49 82
REMARK H PARENT 17 6 22 31 66 50 44 61
REMARK Flexibility Score: inf
ROOT
ATOM      1  C   UNL A   1      32.858  29.152  27.256  1.00  0.00     0.023 C 
ENDROOT
BRANCH   1   2
ATOM      2  C   UNL A   1      34.045  28.470  26.578  1.00  0.00     0.116 C 
BRANCH   2   3
ATOM      3  N   UNL A   1      34.033  28.711  25.151  1.00  0.00    -0.352 N 
ATOM      4  C   UNL A   1      33.688  27.995  24.056  1.00  0.00     0.251 C 
ATOM      5  O   UNL A   1      33.789  28.584  22.976  1.00  0.00    -0.270 OA
ATOM      6  H   UNL A   1      34.354  29.613  24.921  1.00  0.00     0.163 HD
BRANCH   4   7
ATOM      7  C   UNL A   1      33.189  26.588  24.087  1.00  0.00     0.067 C 
ATOM      8  C   UNL A   1      33.040  21.549  24.715  1.00  0.00    -0.026 A 
ATOM      9  C   UNL A   1      32.098  22.555  24.395  1.00  0.00     0.052 A 
ATOM     10  C   UNL A   1      34.380  21.950  24.833  1.00  0.00     0.045 A 
ATOM     11  C   UNL A   1      32.461  23.894  24.255  1.00  0.00     0.128 A 
ATOM     12  C   UNL A   1      34.733  23.307  24.740  1.00  0.00     0.032 A 
ATOM     13  Cl  UNL A   1      35.712  20.867  25.019  1.00  0.00    -0.084 Cl
ATOM     14  C   UNL A   1      33.777  24.280  24.453  1.00  0.00     0.019 A 
ATOM     15  O   UNL A   1      31.478  24.755  23.873  1.00  0.00    -0.475 OA
ATOM     16  C   UNL A   1      34.149  25.677  24.323  1.00  0.00     0.025 C 
ATOM     17  C   UNL A   1      31.741  26.184  23.972  1.00  0.00     0.314 C 
BRANCH   8  18
ATOM     18  C   UNL A   1      32.467  20.145  24.799  1.00  0.00     0.037 C 
BRANCH  18  19
ATOM     19  C   UNL A   1      32.798  19.053  23.776  1.00  0.00     0.008 C 
BRANCH  19  20
ATOM     20  C   UNL A   1      33.540  17.819  24.324  1.00  0.00    -0.017 C 
ATOM     21  C   UNL A   1      32.669  16.997  25.276  1.00  0.00     0.007 C 
ATOM     22  C   UNL A   1      34.002  16.942  23.156  1.00  0.00     0.007 C 
ENDBRANCH  19  20
ENDBRANCH  18  19
ENDBRANCH   8  18
BRANCH  17  23
ATOM     23  C   UNL A   1      30.824  26.765  25.062  1.00  0.00     0.429 C 
ATOM     24  F   UNL A   1      29.575  26.244  24.938  1.00  0.00    -0.167 F 
ATOM     25  F   UNL A   1      31.248  26.473  26.313  1.00  0.00    -0.167 F 
ATOM     26  F   UNL A   1      30.697  28.108  24.993  1.00  0.00    -0.167 F 
ENDBRANCH  17  23
ENDBRANCH   4   7
ENDBRANCH   2   3
ENDBRANCH   1   2
BRANCH   1  27
ATOM     27  C   UNL A   1      32.589  30.577  26.778  1.00  0.00     0.023 C 
BRANCH  27  28
ATOM     28  C   UNL A   1      33.469  31.641  27.415  1.00  0.00     0.116 C 
BRANCH  28  29
ATOM     29  N   UNL A   1      32.813  32.930  27.596  1.00  0.00    -0.352 N 
ATOM     30  C   UNL A   1      33.251  33.990  28.359  1.00  0.00     0.251 C 
ATOM     31  H   UNL A   1      31.961  33.058  27.119  1.00  0.00     0.163 HD
ATOM     32  O   UNL A   1      32.591  35.014  28.475  1.00  0.00    -0.269 OA
BRANCH  30  33
ATOM     33  C   UNL A   1      34.520  33.819  29.090  1.00  0.00     0.039 A 
ATOM     34  C   UNL A   1      35.711  34.242  28.500  1.00  0.00     0.014 A 
ATOM     35  C   UNL A   1      34.523  33.055  30.259  1.00  0.00     0.014 A 
ATOM     36  C   UNL A   1      36.911  33.729  28.969  1.00  0.00     0.010 A 
ATOM     37  C   UNL A   1      35.740  32.615  30.779  1.00  0.00     0.010 A 
ATOM     38  C   UNL A   1      36.936  32.891  30.096  1.00  0.00    -0.014 A 
BRANCH  38  39
ATOM     39  C   UNL A   1      38.217  32.270  30.513  1.00  0.00     0.031 A 
ATOM     40  C   UNL A   1      39.026  32.858  31.638  1.00  0.00     0.074 A 
ATOM     41  C   UNL A   1      38.612  31.126  29.924  1.00  0.00     0.049 A 
ATOM     42  N   UNL A   1      40.170  32.449  32.128  1.00  0.00    -0.248 NA
ATOM     43  C   UNL A   1      38.486  34.056  32.304  1.00  0.00     0.031 C 
ATOM     44  C   UNL A   1      37.886  30.436  28.855  1.00  0.00     0.029 A 
ATOM     45  N   UNL A   1      39.696  30.324  30.165  1.00  0.00    -0.354 N 
ATOM     46  C   UNL A   1      40.500  33.354  33.130  1.00  0.00     0.074 A 
ATOM     47  C   UNL A   1      39.444  34.341  33.174  1.00  0.00     0.031 C 
ATOM     48  C   UNL A   1      38.509  29.281  28.581  1.00  0.00     0.029 A 
ATOM     49  C   UNL A   1      39.714  29.186  29.397  1.00  0.00     0.049 A 
ATOM     50  H   UNL A   1      40.394  30.542  30.824  1.00  0.00     0.167 HD
ATOM     51  C   UNL A   1      41.585  33.358  33.940  1.00  0.00     0.031 A 
ATOM     52  C   UNL A   1      40.608  28.182  29.340  1.00  0.00     0.031 A 
ATOM     53  C   UNL A   1      42.622  32.362  33.910  1.00  0.00     0.049 A 
ATOM     54  C   UNL A   1      41.823  28.233  30.217  1.00  0.00     0.074 A 
ATOM     55  C   UNL A   1      43.761  32.281  34.694  1.00  0.00     0.029 A 
ATOM     56  N   UNL A   1      42.640  31.267  33.061  1.00  0.00    -0.354 N 
ATOM     57  N   UNL A   1      42.141  29.120  31.127  1.00  0.00    -0.248 NA
ATOM     58  C   UNL A   1      42.808  27.156  30.047  1.00  0.00     0.031 C 
ATOM     59  C   UNL A   1      44.489  31.160  34.289  1.00  0.00     0.029 A 
ATOM     60  C   UNL A   1      43.780  30.515  33.290  1.00  0.00     0.049 A 
ATOM     61  H   UNL A   1      41.948  31.055  32.395  1.00  0.00     0.167 HD
ATOM     62  C   UNL A   1      43.363  28.710  31.641  1.00  0.00     0.074 A 
ATOM     63  C   UNL A   1      43.717  27.483  30.957  1.00  0.00     0.031 C 
ATOM     64  C   UNL A   1      44.122  29.302  32.593  1.00  0.00     0.031 A 
BRANCH  51  65
ATOM     65  C   UNL A   1      41.729  34.488  34.921  1.00  0.00    -0.014 A 
ATOM     66  C   UNL A   1      42.431  35.645  34.547  1.00  0.00     0.009 A 
ATOM     67  C   UNL A   1      41.246  34.379  36.234  1.00  0.00     0.009 A 
ATOM     68  C   UNL A   1      42.654  36.668  35.470  1.00  0.00     0.001 A 
ATOM     69  C   UNL A   1      41.451  35.416  37.148  1.00  0.00     0.001 A 
ATOM     70  C   UNL A   1      42.161  36.554  36.768  1.00  0.00     0.000 A 
ENDBRANCH  51  65
BRANCH  52  71
ATOM     71  C   UNL A   1      40.369  27.055  28.405  1.00  0.00    -0.014 A 
ATOM     72  C   UNL A   1      40.870  27.100  27.093  1.00  0.00     0.009 A 
ATOM     73  C   UNL A   1      39.578  25.966  28.794  1.00  0.00     0.009 A 
ATOM     74  C   UNL A   1      40.556  26.093  26.181  1.00  0.00     0.001 A 
ATOM     75  C   UNL A   1      39.287  24.946  27.886  1.00  0.00     0.001 A 
ATOM     76  C   UNL A   1      39.766  25.016  26.578  1.00  0.00     0.000 A 
ENDBRANCH  52  71
BRANCH  64  77
ATOM     77  C   UNL A   1      45.415  28.637  32.961  1.00  0.00    -0.014 A 
ATOM     78  C   UNL A   1      45.447  27.708  34.012  1.00  0.00     0.009 A 
ATOM     79  C   UNL A   1      46.615  28.998  32.329  1.00  0.00     0.009 A 
ATOM     80  C   UNL A   1      46.659  27.158  34.431  1.00  0.00     0.001 A 
ATOM     81  C   UNL A   1      47.823  28.428  32.736  1.00  0.00     0.001 A 
ATOM     82  C   UNL A   1      47.845  27.517  33.791  1.00  0.00     0.000 A 
ENDBRANCH  64  77
ENDBRANCH  38  39
ENDBRANCH  30  33
ENDBRANCH  28  29
ENDBRANCH  27  28
ENDBRANCH   1  27
TORSDOF 15
ENDMDL
MODEL 3
REMARK VINA RESULT:     -11.7      3.849      8.853
REMARK SMILES CC(C)CCc1cc2c(cc1Cl)C=C(C(=O)NCCCCNC(=O)c1ccc(-c3c4nc(c(-c5ccccc5)c5ccc([nH]5)c(-c5ccccc5)c5nc(c(-c6ccccc6)c6ccc3[nH]6)C=C5)C=C4)cc1)[C@H](C(F)(F)F)O2
REMARK SMILES IDX 19 1 18 2 17 3 15 4 16 5 14 7 6 8 7 9 11 10 8 11 10 12 12 13
REMARK SMILES IDX 9 14 78 15 13 16 73 17 5 18 4 19 2 20 1 21 3 22 74 23 75 24
REMARK SMILES IDX 76 25 77 26 20 27 21 28 22 29 23 30 24 32 25 33 26 34 72 35
REMARK SMILES IDX 27 36 71 37 28 38 29 39 30 40 65 41 31 42 70 43 64 44 66 45
REMARK SMILES IDX 32 46 69 47 63 48 62 49 33 51 55 52 40 53 54 54 41 55 44 56
REMARK SMILES IDX 53 57 67 58 42 59 43 60 52 62 68 63 45 64 34 65 35 66 39 67
REMARK SMILES IDX 36 68 38 69 37 70 56 71 57 72 61 73 58 74 60 75 59 76 46 77
REMARK SMILES IDX 47 78 51 79 48 80 50 81 49 82
REMARK H PARENT 17 6 22 31 66 50 44 61
REMARK Flexibility Score: inf
ROOT
ATOM      1  C   UNL A   1      32.968  29.007  27.371  1.00  0.00     0.023 C 
ENDROOT
BRANCH   1   2
ATOM      2  C   UNL A   1      34.079  28.422  26.503  1.00  0.00     0.116 C 
BRANCH   2   3
ATOM      3  N   UNL A   1      33.965  28.886  25.136  1.00  0.00    -0.352 N 
ATOM      4  C   UNL A   1      33.576  28.338  23.962  1.00  0.00     0.251 C 
ATOM      5  O   UNL A   1      33.584  29.096  22.988  1.00  0.00    -0.270 OA
ATOM      6  H   UNL A   1      34.236  29.827  25.037  1.00  0.00     0.163 HD
BRANCH   4   7
ATOM      7  C   UNL A   1      33.133  26.923  23.793  1.00  0.00     0.067 C 
ATOM      8  C   UNL A   1      33.086  21.845  23.951  1.00  0.00    -0.026 A 
ATOM      9  C   UNL A   1      32.165  22.852  23.579  1.00  0.00     0.052 A 
ATOM     10  C   UNL A   1      34.377  22.267  24.308  1.00  0.00     0.045 A 
ATOM     11  C   UNL A   1      32.493  24.207  23.613  1.00  0.00     0.128 A 
ATOM     12  C   UNL A   1      34.687  23.635  24.389  1.00  0.00     0.032 A 
ATOM     13  Cl  UNL A   1      35.706  21.206  24.603  1.00  0.00    -0.084 Cl
ATOM     14  C   UNL A   1      33.748  24.606  24.044  1.00  0.00     0.019 A 
ATOM     15  O   UNL A   1      31.546  25.075  23.160  1.00  0.00    -0.475 OA
ATOM     16  C   UNL A   1      34.081  26.018  24.094  1.00  0.00     0.025 C 
ATOM     17  C   UNL A   1      31.735  26.495  23.422  1.00  0.00     0.314 C 
BRANCH   8  18
ATOM     18  C   UNL A   1      32.562  20.426  23.824  1.00  0.00     0.037 C 
BRANCH  18  19
ATOM     19  C   UNL A   1      32.645  19.407  24.966  1.00  0.00     0.008 C 
BRANCH  19  20
ATOM     20  C   UNL A   1      32.992  17.962  24.557  1.00  0.00    -0.017 C 
ATOM     21  C   UNL A   1      34.468  17.806  24.188  1.00  0.00     0.007 C 
ATOM     22  C   UNL A   1      32.640  17.010  25.704  1.00  0.00     0.007 C 
ENDBRANCH  19  20
ENDBRANCH  18  19
ENDBRANCH   8  18
BRANCH  17  23
ATOM     23  C   UNL A   1      30.642  26.950  24.405  1.00  0.00     0.429 C 
ATOM     24  F   UNL A   1      30.312  28.245  24.157  1.00  0.00    -0.167 F 
ATOM     25  F   UNL A   1      29.505  26.227  24.294  1.00  0.00    -0.167 F 
ATOM     26  F   UNL A   1      31.027  26.884  25.697  1.00  0.00    -0.167 F 
ENDBRANCH  17  23
ENDBRANCH   4   7
ENDBRANCH   2   3
ENDBRANCH   1   2
BRANCH   1  27
ATOM     27  C   UNL A   1      32.561  30.433  27.005  1.00  0.00     0.023 C 
BRANCH  27  28
ATOM     28  C   UNL A   1      33.487  31.517  27.533  1.00  0.00     0.116 C 
BRANCH  28  29
ATOM     29  N   UNL A   1      32.859  32.826  27.668  1.00  0.00    -0.352 N 
ATOM     30  C   UNL A   1      33.315  33.898  28.403  1.00  0.00     0.251 C 
ATOM     31  H   UNL A   1      32.015  32.959  27.178  1.00  0.00     0.163 HD
ATOM     32  O   UNL A   1      32.677  34.941  28.481  1.00  0.00    -0.269 OA
BRANCH  30  33
ATOM     33  C   UNL A   1      34.572  33.721  29.151  1.00  0.00     0.039 A 
ATOM     34  C   UNL A   1      35.769  34.174  28.594  1.00  0.00     0.014 A 
ATOM     35  C   UNL A   1      34.563  32.926  30.299  1.00  0.00     0.014 A 
ATOM     36  C   UNL A   1      36.966  33.662  29.070  1.00  0.00     0.010 A 
ATOM     37  C   UNL A   1      35.776  32.485  30.828  1.00  0.00     0.010 A 
ATOM     38  C   UNL A   1      36.980  32.793  30.175  1.00  0.00    -0.014 A 
BRANCH  38  39
ATOM     39  C   UNL A   1      38.261  32.175  30.597  1.00  0.00     0.031 A 
ATOM     40  C   UNL A   1      38.735  30.888  29.975  1.00  0.00     0.074 A 
ATOM     41  C   UNL A   1      39.036  32.818  31.489  1.00  0.00     0.049 A 
ATOM     42  N   UNL A   1      39.824  30.206  30.228  1.00  0.00    -0.248 NA
ATOM     43  C   UNL A   1      37.883  30.287  28.934  1.00  0.00     0.031 C 
ATOM     44  C   UNL A   1      38.705  34.096  32.124  1.00  0.00     0.029 A 
ATOM     45  N   UNL A   1      40.274  32.508  31.986  1.00  0.00    -0.354 N 
ATOM     46  C   UNL A   1      39.771  29.085  29.407  1.00  0.00     0.074 A 
ATOM     47  C   UNL A   1      38.540  29.170  28.654  1.00  0.00     0.031 C 
ATOM     48  C   UNL A   1      39.743  34.493  32.873  1.00  0.00     0.029 A 
ATOM     49  C   UNL A   1      40.778  33.466  32.832  1.00  0.00     0.049 A 
ATOM     50  H   UNL A   1      40.756  31.680  31.760  1.00  0.00     0.167 HD
ATOM     51  C   UNL A   1      40.671  28.080  29.293  1.00  0.00     0.031 A 
ATOM     52  C   UNL A   1      41.936  33.509  33.514  1.00  0.00     0.031 A 
ATOM     53  C   UNL A   1      41.907  28.011  30.025  1.00  0.00     0.049 A 
ATOM     54  C   UNL A   1      42.895  32.363  33.403  1.00  0.00     0.074 A 
ATOM     55  C   UNL A   1      42.883  27.030  29.974  1.00  0.00     0.029 A 
ATOM     56  N   UNL A   1      42.342  28.964  30.931  1.00  0.00    -0.354 N 
ATOM     57  N   UNL A   1      42.809  31.290  32.655  1.00  0.00    -0.248 NA
ATOM     58  C   UNL A   1      44.102  32.424  34.239  1.00  0.00     0.031 C 
ATOM     59  C   UNL A   1      43.889  27.370  30.881  1.00  0.00     0.029 A 
ATOM     60  C   UNL A   1      43.564  28.587  31.459  1.00  0.00     0.049 A 
ATOM     61  H   UNL A   1      41.854  29.787  31.165  1.00  0.00     0.167 HD
ATOM     62  C   UNL A   1      43.948  30.546  32.929  1.00  0.00     0.074 A 
ATOM     63  C   UNL A   1      44.721  31.302  33.894  1.00  0.00     0.031 C 
ATOM     64  C   UNL A   1      44.315  29.344  32.426  1.00  0.00     0.031 A 
BRANCH  51  65
ATOM     65  C   UNL A   1      40.350  26.950  28.354  1.00  0.00    -0.014 A 
ATOM     66  C   UNL A   1      40.815  26.997  27.029  1.00  0.00     0.009 A 
ATOM     67  C   UNL A   1      39.525  25.887  28.747  1.00  0.00     0.009 A 
ATOM     68  C   UNL A   1      40.455  26.006  26.115  1.00  0.00     0.001 A 
ATOM     69  C   UNL A   1      39.186  24.883  27.836  1.00  0.00     0.001 A 
ATOM     70  C   UNL A   1      39.644  24.948  26.520  1.00  0.00     0.000 A 
ENDBRANCH  51  65
BRANCH  52  71
ATOM     71  C   UNL A   1      42.229  34.689  34.365  1.00  0.00    -0.014 A 
ATOM     72  C   UNL A   1      41.823  34.717  35.709  1.00  0.00     0.009 A 
ATOM     73  C   UNL A   1      42.848  35.822  33.817  1.00  0.00     0.009 A 
ATOM     74  C   UNL A   1      42.001  35.866  36.479  1.00  0.00     0.001 A 
ATOM     75  C   UNL A   1      43.050  36.961  34.599  1.00  0.00     0.001 A 
ATOM     76  C   UNL A   1      42.616  36.987  35.924  1.00  0.00     0.000 A 
ENDBRANCH  52  71
BRANCH  64  77
ATOM     77  C   UNL A   1      45.612  28.761  32.902  1.00  0.00    -0.014 A 
ATOM     78  C   UNL A   1      45.636  27.957  34.052  1.00  0.00     0.009 A 
ATOM     79  C   UNL A   1      46.821  29.083  32.266  1.00  0.00     0.009 A 
ATOM     80  C   UNL A   1      46.847  27.492  34.563  1.00  0.00     0.001 A 
ATOM     81  C   UNL A   1      48.030  28.597  32.768  1.00  0.00     0.001 A 
ATOM     82  C   UNL A   1      48.043  27.811  33.919  1.00  0.00     0.000 A 
ENDBRANCH  64  77
ENDBRANCH  38  39
ENDBRANCH  30  33
ENDBRANCH  28  29
ENDBRANCH  27  28
ENDBRANCH   1  27
TORSDOF 15
ENDMDL
