MODEL 1
REMARK VINA RESULT:     -12.5      0.000      0.000
REMARK SMILES O=C(NCCCCNC(=O)[C@@H](Cc1ccccc1)/N=C1\C(=O)c2ccccc2C(=O)[C@H]1Cl)c1ccc(-c2c3nc(c(-c4ccccc4)c4ccc([nH]4)c(-c4ccccc4)c4nc(c(-c5ccccc5)c5ccc2[nH]5)C=C4)C=C3)cc1
REMARK SMILES IDX 5 1 4 2 3 3 1 4 2 5 33 7 34 8 80 9 35 10 79 11 36 12 37 13
REMARK SMILES IDX 38 14 73 15 39 16 78 17 72 18 74 19 40 20 77 21 71 22 70 23
REMARK SMILES IDX 41 25 63 26 48 27 62 28 49 29 52 30 61 31 75 32 50 33 51 34
REMARK SMILES IDX 60 36 76 37 53 38 42 39 43 40 47 41 44 42 46 43 45 44 64 45
REMARK SMILES IDX 65 46 69 47 66 48 68 49 67 50 54 51 55 52 59 53 56 54 58 55
REMARK SMILES IDX 57 56 6 57 7 58 8 59 9 60 10 62 11 63 12 64 13 65 14 66
REMARK SMILES IDX 18 67 15 68 17 69 16 70 19 71 20 72 21 73 31 74 22 75 23 76
REMARK SMILES IDX 29 77 32 78 24 79 28 80 30 81 25 82 27 83 26 84
REMARK H PARENT 3 6 74 24 52 35 8 61
REMARK Flexibility Score: inf
ROOT
ATOM      1  C   UNL A   1      32.934  30.339  26.450  1.00  0.00     0.023 C 
ENDROOT
BRANCH   1   2
ATOM      2  C   UNL A   1      33.682  31.387  27.264  1.00  0.00     0.116 C 
BRANCH   2   3
ATOM      3  N   UNL A   1      32.949  32.624  27.498  1.00  0.00    -0.352 N 
ATOM      4  O   UNL A   1      32.595  34.666  28.441  1.00  0.00    -0.269 OA
ATOM      5  C   UNL A   1      33.318  33.687  28.302  1.00  0.00     0.251 C 
ATOM      6  H   UNL A   1      32.090  32.715  27.026  1.00  0.00     0.163 HD
BRANCH   5   7
ATOM      7  C   UNL A   1      34.595  33.608  29.051  1.00  0.00     0.039 A 
ATOM      8  C   UNL A   1      35.770  34.149  28.523  1.00  0.00     0.014 A 
ATOM      9  C   UNL A   1      34.629  32.872  30.237  1.00  0.00     0.014 A 
ATOM     10  C   UNL A   1      37.000  33.758  29.045  1.00  0.00     0.010 A 
ATOM     11  C   UNL A   1      35.860  32.546  30.807  1.00  0.00     0.010 A 
ATOM     12  C   UNL A   1      37.055  32.916  30.164  1.00  0.00    -0.014 A 
BRANCH  12  13
ATOM     13  C   UNL A   1      38.347  32.337  30.610  1.00  0.00     0.031 A 
ATOM     14  C   UNL A   1      38.864  31.077  29.966  1.00  0.00     0.074 A 
ATOM     15  C   UNL A   1      39.061  32.938  31.579  1.00  0.00     0.049 A 
ATOM     16  N   UNL A   1      39.887  30.333  30.303  1.00  0.00    -0.248 NA
ATOM     17  C   UNL A   1      38.125  30.583  28.793  1.00  0.00     0.031 C 
ATOM     18  C   UNL A   1      38.697  34.188  32.245  1.00  0.00     0.029 A 
ATOM     19  N   UNL A   1      40.238  32.566  32.176  1.00  0.00    -0.354 N 
ATOM     20  C   UNL A   1      39.884  29.260  29.419  1.00  0.00     0.074 A 
ATOM     21  C   UNL A   1      38.755  29.446  28.532  1.00  0.00     0.031 C 
ATOM     22  C   UNL A   1      39.633  34.483  33.160  1.00  0.00     0.029 A 
ATOM     23  C   UNL A   1      40.621  33.409  33.189  1.00  0.00     0.049 A 
ATOM     24  H   UNL A   1      40.756  31.775  31.905  1.00  0.00     0.167 HD
ATOM     25  C   UNL A   1      40.738  28.211  29.356  1.00  0.00     0.031 A 
ATOM     26  C   UNL A   1      41.627  33.307  34.077  1.00  0.00     0.031 A 
ATOM     27  C   UNL A   1      41.870  28.042  30.227  1.00  0.00     0.049 A 
ATOM     28  C   UNL A   1      42.541  32.119  34.019  1.00  0.00     0.074 A 
ATOM     29  C   UNL A   1      42.814  27.028  30.232  1.00  0.00     0.029 A 
ATOM     30  N   UNL A   1      42.215  28.915  31.248  1.00  0.00    -0.354 N 
ATOM     31  N   UNL A   1      42.515  31.102  33.192  1.00  0.00    -0.248 NA
ATOM     32  C   UNL A   1      43.618  32.062  35.015  1.00  0.00     0.031 C 
ATOM     33  C   UNL A   1      43.704  27.268  31.285  1.00  0.00     0.029 A 
ATOM     34  C   UNL A   1      43.344  28.455  31.903  1.00  0.00     0.049 A 
ATOM     35  H   UNL A   1      41.727  29.740  31.473  1.00  0.00     0.167 HD
ATOM     36  C   UNL A   1      43.581  30.291  33.556  1.00  0.00     0.074 A 
ATOM     37  C   UNL A   1      44.239  30.941  34.672  1.00  0.00     0.031 C 
ATOM     38  C   UNL A   1      43.983  29.117  33.010  1.00  0.00     0.031 A 
BRANCH  25  39
ATOM     39  C   UNL A   1      40.449  27.139  28.340  1.00  0.00    -0.014 A 
ATOM     40  C   UNL A   1      41.018  27.163  27.057  1.00  0.00     0.009 A 
ATOM     41  C   UNL A   1      39.601  26.074  28.686  1.00  0.00     0.009 A 
ATOM     42  C   UNL A   1      40.711  26.163  26.130  1.00  0.00     0.001 A 
ATOM     43  C   UNL A   1      39.317  25.063  27.766  1.00  0.00     0.001 A 
ATOM     44  C   UNL A   1      39.864  25.114  26.485  1.00  0.00     0.000 A 
ENDBRANCH  25  39
BRANCH  26  45
ATOM     45  C   UNL A   1      41.779  34.356  35.116  1.00  0.00    -0.014 A 
ATOM     46  C   UNL A   1      42.551  35.499  34.871  1.00  0.00     0.009 A 
ATOM     47  C   UNL A   1      41.092  34.245  36.335  1.00  0.00     0.009 A 
ATOM     48  C   UNL A   1      42.630  36.513  35.828  1.00  0.00     0.001 A 
ATOM     49  C   UNL A   1      41.153  35.271  37.280  1.00  0.00     0.001 A 
ATOM     50  C   UNL A   1      41.924  36.403  37.026  1.00  0.00     0.000 A 
ENDBRANCH  26  45
BRANCH  38  51
ATOM     51  C   UNL A   1      45.211  28.479  33.587  1.00  0.00    -0.014 A 
ATOM     52  C   UNL A   1      46.491  28.809  33.117  1.00  0.00     0.009 A 
ATOM     53  C   UNL A   1      45.085  27.576  34.654  1.00  0.00     0.009 A 
ATOM     54  C   UNL A   1      47.622  28.229  33.693  1.00  0.00     0.001 A 
ATOM     55  C   UNL A   1      46.218  27.015  35.242  1.00  0.00     0.001 A 
ATOM     56  C   UNL A   1      47.485  27.336  34.758  1.00  0.00     0.000 A 
ENDBRANCH  38  51
ENDBRANCH  12  13
ENDBRANCH   5   7
ENDBRANCH   2   3
ENDBRANCH   1   2
BRANCH   1  57
ATOM     57  C   UNL A   1      31.763  29.648  27.154  1.00  0.00     0.023 C 
BRANCH  57  58
ATOM     58  C   UNL A   1      32.030  28.208  27.579  1.00  0.00     0.116 C 
BRANCH  58  59
ATOM     59  N   UNL A   1      30.958  27.265  27.281  1.00  0.00    -0.354 N 
ATOM     60  C   UNL A   1      30.525  26.473  26.280  1.00  0.00     0.245 C 
ATOM     61  H   UNL A   1      30.360  27.181  28.057  1.00  0.00     0.163 HD
ATOM     62  O   UNL A   1      29.723  25.616  26.707  1.00  0.00    -0.273 OA
BRANCH  60  63
ATOM     63  C   UNL A   1      30.773  26.520  24.750  1.00  0.00     0.199 C 
BRANCH  63  64
ATOM     64  C   UNL A   1      30.998  27.851  24.005  1.00  0.00     0.073 C 
BRANCH  64  65
ATOM     65  C   UNL A   1      29.831  28.733  23.657  1.00  0.00    -0.045 A 
ATOM     66  C   UNL A   1      28.647  28.163  23.176  1.00  0.00     0.004 A 
ATOM     67  C   UNL A   1      29.911  30.129  23.763  1.00  0.00     0.004 A 
ATOM     68  C   UNL A   1      27.523  28.953  22.938  1.00  0.00     0.000 A 
ATOM     69  C   UNL A   1      28.788  30.922  23.521  1.00  0.00     0.000 A 
ATOM     70  C   UNL A   1      27.587  30.330  23.132  1.00  0.00     0.000 A 
ENDBRANCH  64  65
ENDBRANCH  63  64
BRANCH  63  71
ATOM     71  N   UNL A   1      31.109  25.277  24.021  1.00  0.00    -0.270 NA
ATOM     72  C   UNL A   1      32.204  24.615  23.968  1.00  0.00     0.109 C 
ATOM     73  C   UNL A   1      33.440  24.874  24.770  1.00  0.00     0.209 C 
ATOM     74  C   UNL A   1      32.326  23.479  22.983  1.00  0.00     0.205 C 
ATOM     75  O   UNL A   1      33.504  25.833  25.523  1.00  0.00    -0.287 OA
ATOM     76  C   UNL A   1      34.626  24.042  24.593  1.00  0.00     0.035 A 
ATOM     77  C   UNL A   1      33.721  23.327  22.414  1.00  0.00     0.187 C 
ATOM     78  Cl  UNL A   1      31.892  21.964  23.819  1.00  0.00    -0.107 Cl
ATOM     79  C   UNL A   1      35.600  24.012  25.591  1.00  0.00     0.013 A 
ATOM     80  C   UNL A   1      34.837  23.406  23.377  1.00  0.00     0.031 A 
ATOM     81  O   UNL A   1      33.948  23.096  21.230  1.00  0.00    -0.292 OA
ATOM     82  C   UNL A   1      36.830  23.415  25.334  1.00  0.00     0.001 A 
ATOM     83  C   UNL A   1      36.083  22.839  23.103  1.00  0.00     0.012 A 
ATOM     84  C   UNL A   1      37.082  22.858  24.081  1.00  0.00     0.001 A 
ENDBRANCH  63  71
ENDBRANCH  60  63
ENDBRANCH  58  59
ENDBRANCH  57  58
ENDBRANCH   1  57
TORSDOF 14
ENDMDL
MODEL 2
REMARK VINA RESULT:     -12.5      3.620      7.252
REMARK SMILES O=C(NCCCCNC(=O)[C@@H](Cc1ccccc1)/N=C1\C(=O)c2ccccc2C(=O)[C@H]1Cl)c1ccc(-c2c3nc(c(-c4ccccc4)c4ccc([nH]4)c(-c4ccccc4)c4nc(c(-c5ccccc5)c5ccc2[nH]5)C=C4)C=C3)cc1
REMARK SMILES IDX 5 1 4 2 3 3 1 4 2 5 33 7 34 8 80 9 35 10 79 11 36 12 37 13
REMARK SMILES IDX 38 14 73 15 39 16 78 17 72 18 74 19 40 20 77 21 71 22 70 23
REMARK SMILES IDX 41 25 63 26 48 27 62 28 49 29 52 30 61 31 75 32 50 33 51 34
REMARK SMILES IDX 60 36 76 37 53 38 42 39 43 40 47 41 44 42 46 43 45 44 64 45
REMARK SMILES IDX 65 46 69 47 66 48 68 49 67 50 54 51 55 52 59 53 56 54 58 55
REMARK SMILES IDX 57 56 6 57 7 58 8 59 9 60 10 62 11 63 12 64 13 65 14 66
REMARK SMILES IDX 18 67 15 68 17 69 16 70 19 71 20 72 21 73 31 74 22 75 23 76
REMARK SMILES IDX 29 77 32 78 24 79 28 80 30 81 25 82 27 83 26 84
REMARK H PARENT 3 6 74 24 52 35 8 61
REMARK Flexibility Score: inf
ROOT
ATOM      1  C   UNL A   1      32.403  30.315  26.676  1.00  0.00     0.023 C 
ENDROOT
BRANCH   1   2
ATOM      2  C   UNL A   1      33.746  30.183  27.385  1.00  0.00     0.116 C 
BRANCH   2   3
ATOM      3  N   UNL A   1      34.018  31.207  28.384  1.00  0.00    -0.352 N 
ATOM      4  O   UNL A   1      35.252  32.245  29.992  1.00  0.00    -0.269 OA
ATOM      5  C   UNL A   1      35.155  31.352  29.158  1.00  0.00     0.251 C 
ATOM      6  H   UNL A   1      33.310  31.876  28.523  1.00  0.00     0.163 HD
BRANCH   5   7
ATOM      7  C   UNL A   1      36.254  30.369  29.007  1.00  0.00     0.039 A 
ATOM      8  C   UNL A   1      36.709  29.629  30.101  1.00  0.00     0.014 A 
ATOM      9  C   UNL A   1      36.911  30.286  27.778  1.00  0.00     0.014 A 
ATOM     10  C   UNL A   1      37.948  28.998  30.035  1.00  0.00     0.010 A 
ATOM     11  C   UNL A   1      38.115  29.585  27.690  1.00  0.00     0.010 A 
ATOM     12  C   UNL A   1      38.683  29.010  28.841  1.00  0.00    -0.014 A 
BRANCH  12  13
ATOM     13  C   UNL A   1      40.081  28.514  28.810  1.00  0.00     0.031 A 
ATOM     14  C   UNL A   1      41.218  29.467  29.066  1.00  0.00     0.074 A 
ATOM     15  C   UNL A   1      40.335  27.216  28.563  1.00  0.00     0.049 A 
ATOM     16  N   UNL A   1      42.507  29.273  28.944  1.00  0.00    -0.248 NA
ATOM     17  C   UNL A   1      40.857  30.824  29.510  1.00  0.00     0.031 C 
ATOM     18  C   UNL A   1      39.322  26.183  28.350  1.00  0.00     0.029 A 
ATOM     19  N   UNL A   1      41.527  26.552  28.440  1.00  0.00    -0.354 N 
ATOM     20  C   UNL A   1      43.105  30.492  29.245  1.00  0.00     0.074 A 
ATOM     21  C   UNL A   1      42.040  31.421  29.552  1.00  0.00     0.031 C 
ATOM     22  C   UNL A   1      39.936  25.011  28.125  1.00  0.00     0.029 A 
ATOM     23  C   UNL A   1      41.379  25.229  28.109  1.00  0.00     0.049 A 
ATOM     24  H   UNL A   1      42.403  26.981  28.576  1.00  0.00     0.167 HD
ATOM     25  C   UNL A   1      44.422  30.810  29.256  1.00  0.00     0.031 A 
ATOM     26  C   UNL A   1      42.298  24.302  27.781  1.00  0.00     0.031 A 
ATOM     27  C   UNL A   1      45.478  29.876  28.969  1.00  0.00     0.049 A 
ATOM     28  C   UNL A   1      43.749  24.680  27.759  1.00  0.00     0.074 A 
ATOM     29  C   UNL A   1      46.846  30.088  28.977  1.00  0.00     0.029 A 
ATOM     30  N   UNL A   1      45.281  28.547  28.627  1.00  0.00    -0.354 N 
ATOM     31  N   UNL A   1      44.300  25.840  28.025  1.00  0.00    -0.248 NA
ATOM     32  C   UNL A   1      44.703  23.627  27.391  1.00  0.00     0.031 C 
ATOM     33  C   UNL A   1      47.474  28.897  28.597  1.00  0.00     0.029 A 
ATOM     34  C   UNL A   1      46.499  27.931  28.402  1.00  0.00     0.049 A 
ATOM     35  H   UNL A   1      44.403  28.107  28.554  1.00  0.00     0.167 HD
ATOM     36  C   UNL A   1      45.667  25.654  27.873  1.00  0.00     0.074 A 
ATOM     37  C   UNL A   1      45.860  24.266  27.501  1.00  0.00     0.031 C 
ATOM     38  C   UNL A   1      46.671  26.550  28.033  1.00  0.00     0.031 A 
BRANCH  25  39
ATOM     39  C   UNL A   1      44.788  32.241  29.540  1.00  0.00    -0.014 A 
ATOM     40  C   UNL A   1      44.960  32.714  30.851  1.00  0.00     0.009 A 
ATOM     41  C   UNL A   1      44.983  33.129  28.469  1.00  0.00     0.009 A 
ATOM     42  C   UNL A   1      45.279  34.055  31.082  1.00  0.00     0.001 A 
ATOM     43  C   UNL A   1      45.327  34.462  28.702  1.00  0.00     0.001 A 
ATOM     44  C   UNL A   1      45.464  34.926  30.008  1.00  0.00     0.000 A 
ENDBRANCH  25  39
BRANCH  26  45
ATOM     45  C   UNL A   1      41.843  22.939  27.408  1.00  0.00    -0.014 A 
ATOM     46  C   UNL A   1      41.738  21.931  28.376  1.00  0.00     0.009 A 
ATOM     47  C   UNL A   1      41.447  22.663  26.090  1.00  0.00     0.009 A 
ATOM     48  C   UNL A   1      41.242  20.672  28.029  1.00  0.00     0.001 A 
ATOM     49  C   UNL A   1      40.929  21.411  25.752  1.00  0.00     0.001 A 
ATOM     50  C   UNL A   1      40.829  20.416  26.721  1.00  0.00     0.000 A 
ENDBRANCH  26  45
BRANCH  38  51
ATOM     51  C   UNL A   1      48.072  26.049  27.845  1.00  0.00    -0.014 A 
ATOM     52  C   UNL A   1      48.684  26.056  26.583  1.00  0.00     0.009 A 
ATOM     53  C   UNL A   1      48.807  25.617  28.961  1.00  0.00     0.009 A 
ATOM     54  C   UNL A   1      50.001  25.619  26.438  1.00  0.00     0.001 A 
ATOM     55  C   UNL A   1      50.130  25.201  28.816  1.00  0.00     0.001 A 
ATOM     56  C   UNL A   1      50.724  25.196  27.555  1.00  0.00     0.000 A 
ENDBRANCH  38  51
ENDBRANCH  12  13
ENDBRANCH   5   7
ENDBRANCH   2   3
ENDBRANCH   1   2
BRANCH   1  57
ATOM     57  C   UNL A   1      31.794  29.018  26.138  1.00  0.00     0.023 C 
BRANCH  57  58
ATOM     58  C   UNL A   1      32.105  27.774  26.962  1.00  0.00     0.116 C 
BRANCH  58  59
ATOM     59  N   UNL A   1      31.171  26.667  26.790  1.00  0.00    -0.354 N 
ATOM     60  C   UNL A   1      31.017  25.547  26.056  1.00  0.00     0.245 C 
ATOM     61  H   UNL A   1      30.410  26.772  27.405  1.00  0.00     0.163 HD
ATOM     62  O   UNL A   1      30.170  24.789  26.574  1.00  0.00    -0.273 OA
BRANCH  60  63
ATOM     63  C   UNL A   1      31.617  25.120  24.691  1.00  0.00     0.199 C 
BRANCH  63  64
ATOM     64  C   UNL A   1      30.974  25.542  23.354  1.00  0.00     0.073 C 
BRANCH  64  65
ATOM     65  C   UNL A   1      30.450  26.940  23.172  1.00  0.00    -0.045 A 
ATOM     66  C   UNL A   1      31.309  27.952  22.729  1.00  0.00     0.004 A 
ATOM     67  C   UNL A   1      29.122  27.270  23.475  1.00  0.00     0.004 A 
ATOM     68  C   UNL A   1      30.824  29.231  22.463  1.00  0.00     0.000 A 
ATOM     69  C   UNL A   1      28.635  28.551  23.213  1.00  0.00     0.000 A 
ATOM     70  C   UNL A   1      29.481  29.525  22.683  1.00  0.00     0.000 A 
ENDBRANCH  64  65
ENDBRANCH  63  64
BRANCH  63  71
ATOM     71  N   UNL A   1      32.987  24.567  24.631  1.00  0.00    -0.270 NA
ATOM     72  C   UNL A   1      33.391  23.357  24.505  1.00  0.00     0.109 C 
ATOM     73  C   UNL A   1      32.536  22.158  24.245  1.00  0.00     0.209 C 
ATOM     74  C   UNL A   1      34.859  23.054  24.670  1.00  0.00     0.205 C 
ATOM     75  O   UNL A   1      31.321  22.257  24.201  1.00  0.00    -0.287 OA
ATOM     76  C   UNL A   1      33.135  20.831  24.139  1.00  0.00     0.035 A 
ATOM     77  C   UNL A   1      35.124  21.705  25.305  1.00  0.00     0.187 C 
ATOM     78  Cl  UNL A   1      35.621  23.076  23.057  1.00  0.00    -0.107 Cl
ATOM     79  C   UNL A   1      32.429  19.806  23.509  1.00  0.00     0.013 A 
ATOM     80  C   UNL A   1      34.333  20.569  24.791  1.00  0.00     0.031 A 
ATOM     81  O   UNL A   1      35.980  21.517  26.164  1.00  0.00    -0.292 OA
ATOM     82  C   UNL A   1      32.883  18.495  23.609  1.00  0.00     0.001 A 
ATOM     83  C   UNL A   1      34.771  19.251  24.925  1.00  0.00     0.012 A 
ATOM     84  C   UNL A   1      34.035  18.215  24.342  1.00  0.00     0.001 A 
ENDBRANCH  63  71
ENDBRANCH  60  63
ENDBRANCH  58  59
ENDBRANCH  57  58
ENDBRANCH   1  57
TORSDOF 14
ENDMDL
MODEL 3
REMARK VINA RESULT:     -12.4      3.306      7.005
REMARK SMILES O=C(NCCCCNC(=O)[C@@H](Cc1ccccc1)/N=C1\C(=O)c2ccccc2C(=O)[C@H]1Cl)c1ccc(-c2c3nc(c(-c4ccccc4)c4ccc([nH]4)c(-c4ccccc4)c4nc(c(-c5ccccc5)c5ccc2[nH]5)C=C4)C=C3)cc1
REMARK SMILES IDX 5 1 4 2 3 3 1 4 2 5 33 7 34 8 80 9 35 10 79 11 36 12 37 13
REMARK SMILES IDX 38 14 73 15 39 16 78 17 72 18 74 19 40 20 77 21 71 22 70 23
REMARK SMILES IDX 41 25 63 26 48 27 62 28 49 29 52 30 61 31 75 32 50 33 51 34
REMARK SMILES IDX 60 36 76 37 53 38 42 39 43 40 47 41 44 42 46 43 45 44 64 45
REMARK SMILES IDX 65 46 69 47 66 48 68 49 67 50 54 51 55 52 59 53 56 54 58 55
REMARK SMILES IDX 57 56 6 57 7 58 8 59 9 60 10 62 11 63 12 64 13 65 14 66
REMARK SMILES IDX 18 67 15 68 17 69 16 70 19 71 20 72 21 73 31 74 22 75 23 76
REMARK SMILES IDX 29 77 32 78 24 79 28 80 30 81 25 82 27 83 26 84
REMARK H PARENT 3 6 74 24 52 35 8 61
REMARK Flexibility Score: inf
ROOT
ATOM      1  C   UNL A   1      32.731  30.960  26.880  1.00  0.00     0.023 C 
ENDROOT
BRANCH   1   2
ATOM      2  C   UNL A   1      34.047  30.708  27.606  1.00  0.00     0.116 C 
BRANCH   2   3
ATOM      3  N   UNL A   1      34.255  31.515  28.800  1.00  0.00    -0.352 N 
ATOM      4  O   UNL A   1      35.364  32.177  30.676  1.00  0.00    -0.269 OA
ATOM      5  C   UNL A   1      35.319  31.460  29.683  1.00  0.00     0.251 C 
ATOM      6  H   UNL A   1      33.557  32.179  29.002  1.00  0.00     0.163 HD
BRANCH   5   7
ATOM      7  C   UNL A   1      36.397  30.472  29.443  1.00  0.00     0.039 A 
ATOM      8  C   UNL A   1      36.870  29.662  30.479  1.00  0.00     0.014 A 
ATOM      9  C   UNL A   1      37.019  30.452  28.193  1.00  0.00     0.014 A 
ATOM     10  C   UNL A   1      38.096  29.019  30.341  1.00  0.00     0.010 A 
ATOM     11  C   UNL A   1      38.208  29.740  28.030  1.00  0.00     0.010 A 
ATOM     12  C   UNL A   1      38.798  29.091  29.129  1.00  0.00    -0.014 A 
BRANCH  12  13
ATOM     13  C   UNL A   1      40.187  28.577  29.029  1.00  0.00     0.031 A 
ATOM     14  C   UNL A   1      41.347  29.509  29.262  1.00  0.00     0.074 A 
ATOM     15  C   UNL A   1      40.413  27.283  28.742  1.00  0.00     0.049 A 
ATOM     16  N   UNL A   1      42.627  29.301  29.082  1.00  0.00    -0.248 NA
ATOM     17  C   UNL A   1      41.023  30.859  29.752  1.00  0.00     0.031 C 
ATOM     18  C   UNL A   1      39.377  26.268  28.546  1.00  0.00     0.029 A 
ATOM     19  N   UNL A   1      41.590  26.606  28.555  1.00  0.00    -0.354 N 
ATOM     20  C   UNL A   1      43.254  30.504  29.387  1.00  0.00     0.074 A 
ATOM     21  C   UNL A   1      42.215  31.440  29.759  1.00  0.00     0.031 C 
ATOM     22  C   UNL A   1      39.966  25.094  28.268  1.00  0.00     0.029 A 
ATOM     23  C   UNL A   1      41.410  25.293  28.199  1.00  0.00     0.049 A 
ATOM     24  H   UNL A   1      42.476  27.020  28.665  1.00  0.00     0.167 HD
ATOM     25  C   UNL A   1      44.574  30.805  29.352  1.00  0.00     0.031 A 
ATOM     26  C   UNL A   1      42.301  24.362  27.812  1.00  0.00     0.031 A 
ATOM     27  C   UNL A   1      45.605  29.865  29.000  1.00  0.00     0.049 A 
ATOM     28  C   UNL A   1      43.756  24.722  27.740  1.00  0.00     0.074 A 
ATOM     29  C   UNL A   1      46.975  30.059  28.958  1.00  0.00     0.029 A 
ATOM     30  N   UNL A   1      45.375  28.546  28.635  1.00  0.00    -0.354 N 
ATOM     31  N   UNL A   1      44.333  25.868  28.010  1.00  0.00    -0.248 NA
ATOM     32  C   UNL A   1      44.679  23.666  27.308  1.00  0.00     0.031 C 
ATOM     33  C   UNL A   1      47.570  28.869  28.524  1.00  0.00     0.029 A 
ATOM     34  C   UNL A   1      46.575  27.920  28.346  1.00  0.00     0.049 A 
ATOM     35  H   UNL A   1      44.489  28.120  28.588  1.00  0.00     0.167 HD
ATOM     36  C   UNL A   1      45.690  25.668  27.799  1.00  0.00     0.074 A 
ATOM     37  C   UNL A   1      45.849  24.287  27.387  1.00  0.00     0.031 C 
ATOM     38  C   UNL A   1      46.712  26.546  27.939  1.00  0.00     0.031 A 
BRANCH  25  39
ATOM     39  C   UNL A   1      44.972  32.224  29.655  1.00  0.00    -0.014 A 
ATOM     40  C   UNL A   1      44.962  33.221  28.666  1.00  0.00     0.009 A 
ATOM     41  C   UNL A   1      45.346  32.571  30.963  1.00  0.00     0.009 A 
ATOM     42  C   UNL A   1      45.358  34.526  28.975  1.00  0.00     0.001 A 
ATOM     43  C   UNL A   1      45.717  33.881  31.274  1.00  0.00     0.001 A 
ATOM     44  C   UNL A   1      45.732  34.854  30.277  1.00  0.00     0.000 A 
ENDBRANCH  25  39
BRANCH  26  45
ATOM     45  C   UNL A   1      41.813  23.015  27.426  1.00  0.00    -0.014 A 
ATOM     46  C   UNL A   1      41.412  22.749  26.110  1.00  0.00     0.009 A 
ATOM     47  C   UNL A   1      41.813  21.970  28.364  1.00  0.00     0.009 A 
ATOM     48  C   UNL A   1      41.022  21.460  25.740  1.00  0.00     0.001 A 
ATOM     49  C   UNL A   1      41.445  20.677  27.985  1.00  0.00     0.001 A 
ATOM     50  C   UNL A   1      41.048  20.424  26.674  1.00  0.00     0.000 A 
ENDBRANCH  26  45
BRANCH  38  51
ATOM     51  C   UNL A   1      48.097  26.032  27.682  1.00  0.00    -0.014 A 
ATOM     52  C   UNL A   1      48.702  26.167  26.423  1.00  0.00     0.009 A 
ATOM     53  C   UNL A   1      48.826  25.455  28.734  1.00  0.00     0.009 A 
ATOM     54  C   UNL A   1      50.005  25.713  26.218  1.00  0.00     0.001 A 
ATOM     55  C   UNL A   1      50.136  25.022  28.530  1.00  0.00     0.001 A 
ATOM     56  C   UNL A   1      50.723  25.145  27.272  1.00  0.00     0.000 A 
ENDBRANCH  38  51
ENDBRANCH  12  13
ENDBRANCH   5   7
ENDBRANCH   2   3
ENDBRANCH   1   2
BRANCH   1  57
ATOM     57  C   UNL A   1      31.989  29.719  26.378  1.00  0.00     0.023 C 
BRANCH  57  58
ATOM     58  C   UNL A   1      32.146  28.480  27.253  1.00  0.00     0.116 C 
BRANCH  58  59
ATOM     59  N   UNL A   1      31.106  27.471  27.092  1.00  0.00    -0.354 N 
ATOM     60  C   UNL A   1      30.656  26.584  26.182  1.00  0.00     0.245 C 
ATOM     61  H   UNL A   1      30.557  27.422  27.907  1.00  0.00     0.163 HD
ATOM     62  O   UNL A   1      29.921  25.729  26.719  1.00  0.00    -0.273 OA
BRANCH  60  63
ATOM     63  C   UNL A   1      30.815  26.522  24.640  1.00  0.00     0.199 C 
BRANCH  63  64
ATOM     64  C   UNL A   1      30.918  27.800  23.783  1.00  0.00     0.073 C 
BRANCH  64  65
ATOM     65  C   UNL A   1      29.701  28.648  23.535  1.00  0.00    -0.045 A 
ATOM     66  C   UNL A   1      29.804  30.043  23.576  1.00  0.00     0.004 A 
ATOM     67  C   UNL A   1      28.443  28.073  23.304  1.00  0.00     0.004 A 
ATOM     68  C   UNL A   1      28.712  30.847  23.256  1.00  0.00     0.000 A 
ATOM     69  C   UNL A   1      27.346  28.877  22.988  1.00  0.00     0.000 A 
ATOM     70  C   UNL A   1      27.488  30.263  22.940  1.00  0.00     0.000 A 
ENDBRANCH  64  65
ENDBRANCH  63  64
BRANCH  63  71
ATOM     71  N   UNL A   1      31.185  25.247  23.990  1.00  0.00    -0.270 NA
ATOM     72  C   UNL A   1      32.298  24.612  23.976  1.00  0.00     0.109 C 
ATOM     73  C   UNL A   1      33.526  24.954  24.760  1.00  0.00     0.209 C 
ATOM     74  C   UNL A   1      32.451  23.420  23.065  1.00  0.00     0.205 C 
ATOM     75  O   UNL A   1      33.564  25.959  25.450  1.00  0.00    -0.287 OA
ATOM     76  C   UNL A   1      34.734  24.145  24.633  1.00  0.00     0.035 A 
ATOM     77  C   UNL A   1      33.850  23.271  22.504  1.00  0.00     0.187 C 
ATOM     78  Cl  UNL A   1      32.057  21.949  23.994  1.00  0.00    -0.107 Cl
ATOM     79  C   UNL A   1      35.709  24.204  25.629  1.00  0.00     0.013 A 
ATOM     80  C   UNL A   1      34.962  23.440  23.459  1.00  0.00     0.031 A 
ATOM     81  O   UNL A   1      34.083  22.973  21.337  1.00  0.00    -0.292 OA
ATOM     82  C   UNL A   1      36.954  23.625  25.409  1.00  0.00     0.001 A 
ATOM     83  C   UNL A   1      36.224  22.891  23.219  1.00  0.00     0.012 A 
ATOM     84  C   UNL A   1      37.221  22.998  24.193  1.00  0.00     0.001 A 
ENDBRANCH  63  71
ENDBRANCH  60  63
ENDBRANCH  58  59
ENDBRANCH  57  58
ENDBRANCH   1  57
TORSDOF 14
ENDMDL
