MODEL 1
REMARK VINA RESULT:     -11.6      0.000      0.000
REMARK SMILES Cc1nc(C)c(C(=O)N2CCC([C@H](C)C(=O)NCCCCNC(=O)c3ccc(-c4c5nc(c(-c6ccccc6)c6ccc([nH]6)c(-c6ccccc6)c6nc(c(-c7ccccc7)c7ccc4[nH]7)C=C6)C=C5)cc3)CC2)s1
REMARK SMILES IDX 19 1 18 2 17 3 15 4 16 5 13 7 14 8 12 9 7 10 8 11 9 12 10 13
REMARK SMILES IDX 74 14 11 15 73 16 6 17 1 18 2 19 3 20 75 21 4 22 5 23 20 24
REMARK SMILES IDX 21 25 22 26 23 27 24 29 25 30 26 31 72 32 27 33 71 34 28 35
REMARK SMILES IDX 29 36 30 37 65 38 31 39 70 40 64 41 66 42 32 43 69 44 63 45
REMARK SMILES IDX 62 46 33 48 55 49 40 50 54 51 41 52 44 53 53 54 67 55 42 56
REMARK SMILES IDX 43 57 52 59 68 60 45 61 34 62 35 63 39 64 36 65 38 66 37 67
REMARK SMILES IDX 56 68 57 69 61 70 58 71 60 72 59 73 46 74 47 75 51 76 48 77
REMARK SMILES IDX 50 78 49 79
REMARK H PARENT 17 6 22 28 66 47 44 58
REMARK Flexibility Score: inf
ROOT
ATOM      1  C   UNL A   1      31.671  30.335  26.451  1.00  0.00     0.023 C 
ENDROOT
BRANCH   1   2
ATOM      2  C   UNL A   1      33.036  29.834  26.010  1.00  0.00     0.116 C 
BRANCH   2   3
ATOM      3  N   UNL A   1      33.146  29.633  24.584  1.00  0.00    -0.356 N 
ATOM      4  C   UNL A   1      32.399  28.847  23.764  1.00  0.00     0.223 C 
ATOM      5  O   UNL A   1      32.594  28.949  22.550  1.00  0.00    -0.275 OA
ATOM      6  H   UNL A   1      33.866  30.138  24.142  1.00  0.00     0.163 HD
BRANCH   4   7
ATOM      7  C   UNL A   1      31.348  27.863  24.299  1.00  0.00     0.078 C 
ATOM      8  C   UNL A   1      30.011  28.038  23.572  1.00  0.00     0.018 C 
BRANCH   7   9
ATOM      9  C   UNL A   1      31.819  26.392  24.558  1.00  0.00     0.005 C 
ATOM     10  C   UNL A   1      34.422  23.378  23.339  1.00  0.00     0.265 C 
ATOM     11  O   UNL A   1      34.338  23.403  22.109  1.00  0.00    -0.268 OA
ATOM     12  N   UNL A   1      33.465  24.047  24.104  1.00  0.00    -0.338 N 
ATOM     13  C   UNL A   1      32.077  24.002  23.691  1.00  0.00     0.120 C 
ATOM     14  C   UNL A   1      33.759  24.862  25.276  1.00  0.00     0.120 C 
ATOM     15  C   UNL A   1      31.526  25.391  23.420  1.00  0.00     0.026 C 
ATOM     16  C   UNL A   1      33.281  26.298  25.056  1.00  0.00     0.026 C 
BRANCH  10  17
ATOM     17  C   UNL A   1      35.430  22.586  24.032  1.00  0.00     0.115 A 
ATOM     18  C   UNL A   1      38.745  21.723  25.878  1.00  0.00     0.079 C 
ATOM     19  C   UNL A   1      37.403  21.839  25.248  1.00  0.00     0.091 A 
ATOM     20  N   UNL A   1      36.445  20.950  25.371  1.00  0.00    -0.246 NA
ATOM     21  S   UNL A   1      37.007  23.217  24.324  1.00  0.00    -0.113 S 
ATOM     22  C   UNL A   1      35.296  21.382  24.714  1.00  0.00     0.061 A 
ATOM     23  C   UNL A   1      34.083  20.527  24.857  1.00  0.00     0.068 C 
ENDBRANCH  10  17
ENDBRANCH   7   9
ENDBRANCH   4   7
ENDBRANCH   2   3
ENDBRANCH   1   2
BRANCH   1  24
ATOM     24  C   UNL A   1      31.557  31.847  26.591  1.00  0.00     0.023 C 
BRANCH  24  25
ATOM     25  C   UNL A   1      32.734  32.525  27.284  1.00  0.00     0.116 C 
BRANCH  25  26
ATOM     26  N   UNL A   1      32.458  33.899  27.680  1.00  0.00    -0.352 N 
ATOM     27  C   UNL A   1      33.129  34.689  28.583  1.00  0.00     0.251 C 
ATOM     28  H   UNL A   1      31.685  34.321  27.240  1.00  0.00     0.163 HD
ATOM     29  O   UNL A   1      32.688  35.787  28.907  1.00  0.00    -0.269 OA
BRANCH  27  30
ATOM     30  C   UNL A   1      34.377  34.188  29.193  1.00  0.00     0.039 A 
ATOM     31  C   UNL A   1      34.307  33.482  30.396  1.00  0.00     0.014 A 
ATOM     32  C   UNL A   1      35.604  34.377  28.552  1.00  0.00     0.014 A 
ATOM     33  C   UNL A   1      35.461  32.894  30.915  1.00  0.00     0.010 A 
ATOM     34  C   UNL A   1      36.734  33.719  29.025  1.00  0.00     0.010 A 
ATOM     35  C   UNL A   1      36.674  32.970  30.210  1.00  0.00    -0.014 A 
BRANCH  35  36
ATOM     36  C   UNL A   1      37.890  32.271  30.697  1.00  0.00     0.031 A 
ATOM     37  C   UNL A   1      38.692  32.851  31.828  1.00  0.00     0.074 A 
ATOM     38  C   UNL A   1      38.306  31.147  30.081  1.00  0.00     0.049 A 
ATOM     39  N   UNL A   1      39.807  32.415  32.358  1.00  0.00    -0.248 NA
ATOM     40  C   UNL A   1      38.192  34.101  32.424  1.00  0.00     0.031 C 
ATOM     41  C   UNL A   1      37.646  30.508  28.941  1.00  0.00     0.029 A 
ATOM     42  N   UNL A   1      39.392  30.345  30.327  1.00  0.00    -0.354 N 
ATOM     43  C   UNL A   1      40.143  33.339  33.339  1.00  0.00     0.074 A 
ATOM     44  C   UNL A   1      39.151  34.391  33.290  1.00  0.00     0.031 C 
ATOM     45  C   UNL A   1      38.323  29.398  28.605  1.00  0.00     0.029 A 
ATOM     46  C   UNL A   1      39.484  29.268  29.479  1.00  0.00     0.049 A 
ATOM     47  H   UNL A   1      40.042  30.524  31.044  1.00  0.00     0.167 HD
ATOM     48  C   UNL A   1      41.171  33.305  34.220  1.00  0.00     0.031 A 
ATOM     49  C   UNL A   1      40.403  28.286  29.411  1.00  0.00     0.031 A 
ATOM     50  C   UNL A   1      42.155  32.259  34.275  1.00  0.00     0.049 A 
ATOM     51  C   UNL A   1      41.541  28.276  30.394  1.00  0.00     0.074 A 
ATOM     52  C   UNL A   1      43.209  32.111  35.159  1.00  0.00     0.029 A 
ATOM     53  N   UNL A   1      42.205  31.178  33.408  1.00  0.00    -0.354 N 
ATOM     54  N   UNL A   1      41.807  29.122  31.358  1.00  0.00    -0.248 NA
ATOM     55  C   UNL A   1      42.497  27.165  30.285  1.00  0.00     0.031 C 
ATOM     56  C   UNL A   1      43.924  30.965  34.798  1.00  0.00     0.029 A 
ATOM     57  C   UNL A   1      43.282  30.369  33.724  1.00  0.00     0.049 A 
ATOM     58  H   UNL A   1      41.568  31.012  32.675  1.00  0.00     0.167 HD
ATOM     59  C   UNL A   1      42.943  28.632  31.989  1.00  0.00     0.074 A 
ATOM     60  C   UNL A   1      43.304  27.406  31.309  1.00  0.00     0.031 C 
ATOM     61  C   UNL A   1      43.628  29.152  33.037  1.00  0.00     0.031 A 
BRANCH  48  62
ATOM     62  C   UNL A   1      41.274  34.441  35.200  1.00  0.00    -0.014 A 
ATOM     63  C   UNL A   1      40.610  34.394  36.436  1.00  0.00     0.009 A 
ATOM     64  C   UNL A   1      42.066  35.559  34.898  1.00  0.00     0.009 A 
ATOM     65  C   UNL A   1      40.704  35.460  37.333  1.00  0.00     0.001 A 
ATOM     66  C   UNL A   1      42.185  36.611  35.809  1.00  0.00     0.001 A 
ATOM     67  C   UNL A   1      41.496  36.564  37.022  1.00  0.00     0.000 A 
ENDBRANCH  48  62
BRANCH  49  68
ATOM     68  C   UNL A   1      40.281  27.219  28.382  1.00  0.00    -0.014 A 
ATOM     69  C   UNL A   1      40.900  27.362  27.131  1.00  0.00     0.009 A 
ATOM     70  C   UNL A   1      39.535  26.060  28.641  1.00  0.00     0.009 A 
ATOM     71  C   UNL A   1      40.746  26.380  26.149  1.00  0.00     0.001 A 
ATOM     72  C   UNL A   1      39.408  25.066  27.668  1.00  0.00     0.001 A 
ATOM     73  C   UNL A   1      40.004  25.232  26.420  1.00  0.00     0.000 A 
ENDBRANCH  49  68
BRANCH  61  74
ATOM     74  C   UNL A   1      44.814  28.375  33.534  1.00  0.00    -0.014 A 
ATOM     75  C   UNL A   1      46.106  28.624  33.045  1.00  0.00     0.009 A 
ATOM     76  C   UNL A   1      44.638  27.404  34.532  1.00  0.00     0.009 A 
ATOM     77  C   UNL A   1      47.193  27.889  33.521  1.00  0.00     0.001 A 
ATOM     78  C   UNL A   1      45.731  26.692  35.027  1.00  0.00     0.001 A 
ATOM     79  C   UNL A   1      47.006  26.928  34.515  1.00  0.00     0.000 A 
ENDBRANCH  61  74
ENDBRANCH  35  36
ENDBRANCH  27  30
ENDBRANCH  25  26
ENDBRANCH  24  25
ENDBRANCH   1  24
TORSDOF 13
ENDMDL
MODEL 2
REMARK VINA RESULT:     -11.6      3.640      9.342
REMARK SMILES Cc1nc(C)c(C(=O)N2CCC([C@H](C)C(=O)NCCCCNC(=O)c3ccc(-c4c5nc(c(-c6ccccc6)c6ccc([nH]6)c(-c6ccccc6)c6nc(c(-c7ccccc7)c7ccc4[nH]7)C=C6)C=C5)cc3)CC2)s1
REMARK SMILES IDX 19 1 18 2 17 3 15 4 16 5 13 7 14 8 12 9 7 10 8 11 9 12 10 13
REMARK SMILES IDX 74 14 11 15 73 16 6 17 1 18 2 19 3 20 75 21 4 22 5 23 20 24
REMARK SMILES IDX 21 25 22 26 23 27 24 29 25 30 26 31 72 32 27 33 71 34 28 35
REMARK SMILES IDX 29 36 30 37 65 38 31 39 70 40 64 41 66 42 32 43 69 44 63 45
REMARK SMILES IDX 62 46 33 48 55 49 40 50 54 51 41 52 44 53 53 54 67 55 42 56
REMARK SMILES IDX 43 57 52 59 68 60 45 61 34 62 35 63 39 64 36 65 38 66 37 67
REMARK SMILES IDX 56 68 57 69 61 70 58 71 60 72 59 73 46 74 47 75 51 76 48 77
REMARK SMILES IDX 50 78 49 79
REMARK H PARENT 17 6 22 28 66 47 44 58
REMARK Flexibility Score: inf
ROOT
ATOM      1  C   UNL A   1      37.146  21.376  24.417  1.00  0.00     0.023 C 
ENDROOT
BRANCH   1   2
ATOM      2  C   UNL A   1      36.890  22.464  25.447  1.00  0.00     0.116 C 
BRANCH   2   3
ATOM      3  N   UNL A   1      35.901  22.104  26.436  1.00  0.00    -0.356 N 
ATOM      4  C   UNL A   1      34.678  21.536  26.265  1.00  0.00     0.223 C 
ATOM      5  O   UNL A   1      34.068  21.190  27.280  1.00  0.00    -0.275 OA
ATOM      6  H   UNL A   1      36.149  22.298  27.369  1.00  0.00     0.163 HD
BRANCH   4   7
ATOM      7  C   UNL A   1      34.056  21.321  24.878  1.00  0.00     0.078 C 
ATOM      8  C   UNL A   1      33.665  19.854  24.672  1.00  0.00     0.018 C 
BRANCH   7   9
ATOM      9  C   UNL A   1      33.030  22.396  24.385  1.00  0.00     0.005 C 
ATOM     10  C   UNL A   1      30.981  25.877  25.405  1.00  0.00     0.265 C 
ATOM     11  O   UNL A   1      30.582  25.653  26.549  1.00  0.00    -0.268 OA
ATOM     12  N   UNL A   1      31.451  24.818  24.624  1.00  0.00    -0.338 N 
ATOM     13  C   UNL A   1      30.765  23.544  24.680  1.00  0.00     0.120 C 
ATOM     14  C   UNL A   1      32.643  24.869  23.787  1.00  0.00     0.120 C 
ATOM     15  C   UNL A   1      31.687  22.429  25.145  1.00  0.00     0.026 C 
ATOM     16  C   UNL A   1      33.649  23.806  24.233  1.00  0.00     0.026 C 
BRANCH  10  17
ATOM     17  C   UNL A   1      30.884  27.195  24.793  1.00  0.00     0.115 A 
ATOM     18  C   UNL A   1      29.530  30.084  22.564  1.00  0.00     0.079 C 
ATOM     19  C   UNL A   1      30.182  29.149  23.519  1.00  0.00     0.091 A 
ATOM     20  N   UNL A   1      31.024  29.513  24.459  1.00  0.00    -0.246 NA
ATOM     21  S   UNL A   1      29.819  27.483  23.469  1.00  0.00    -0.113 S 
ATOM     22  C   UNL A   1      31.405  28.411  25.221  1.00  0.00     0.061 A 
ATOM     23  C   UNL A   1      32.276  28.684  26.399  1.00  0.00     0.068 C 
ENDBRANCH  10  17
ENDBRANCH   7   9
ENDBRANCH   4   7
ENDBRANCH   2   3
ENDBRANCH   1   2
BRANCH   1  24
ATOM     24  C   UNL A   1      37.884  20.153  24.946  1.00  0.00     0.023 C 
BRANCH  24  25
ATOM     25  C   UNL A   1      39.050  20.453  25.881  1.00  0.00     0.116 C 
BRANCH  25  26
ATOM     26  N   UNL A   1      40.116  19.463  25.813  1.00  0.00    -0.352 N 
ATOM     27  C   UNL A   1      41.458  19.621  26.063  1.00  0.00     0.251 C 
ATOM     28  H   UNL A   1      39.836  18.556  25.553  1.00  0.00     0.163 HD
ATOM     29  O   UNL A   1      42.251  18.714  25.829  1.00  0.00    -0.269 OA
BRANCH  27  30
ATOM     30  C   UNL A   1      41.949  20.912  26.585  1.00  0.00     0.039 A 
ATOM     31  C   UNL A   1      42.366  21.892  25.683  1.00  0.00     0.014 A 
ATOM     32  C   UNL A   1      41.951  21.164  27.959  1.00  0.00     0.014 A 
ATOM     33  C   UNL A   1      42.710  23.159  26.158  1.00  0.00     0.010 A 
ATOM     34  C   UNL A   1      42.211  22.450  28.421  1.00  0.00     0.010 A 
ATOM     35  C   UNL A   1      42.591  23.461  27.525  1.00  0.00    -0.014 A 
BRANCH  35  36
ATOM     36  C   UNL A   1      42.859  24.829  28.035  1.00  0.00     0.031 A 
ATOM     37  C   UNL A   1      44.254  25.225  28.433  1.00  0.00     0.074 A 
ATOM     38  C   UNL A   1      41.839  25.693  28.199  1.00  0.00     0.049 A 
ATOM     39  N   UNL A   1      44.676  26.354  28.945  1.00  0.00    -0.248 NA
ATOM     40  C   UNL A   1      45.308  24.212  28.259  1.00  0.00     0.031 C 
ATOM     41  C   UNL A   1      40.433  25.415  27.898  1.00  0.00     0.029 A 
ATOM     42  N   UNL A   1      41.829  26.983  28.666  1.00  0.00    -0.354 N 
ATOM     43  C   UNL A   1      46.038  26.181  29.162  1.00  0.00     0.074 A 
ATOM     44  C   UNL A   1      46.359  24.823  28.784  1.00  0.00     0.031 C 
ATOM     45  C   UNL A   1      39.702  26.511  28.160  1.00  0.00     0.029 A 
ATOM     46  C   UNL A   1      40.578  27.553  28.683  1.00  0.00     0.049 A 
ATOM     47  H   UNL A   1      42.640  27.456  28.960  1.00  0.00     0.167 HD
ATOM     48  C   UNL A   1      46.946  27.080  29.611  1.00  0.00     0.031 A 
ATOM     49  C   UNL A   1      40.182  28.777  29.077  1.00  0.00     0.031 A 
ATOM     50  C   UNL A   1      46.630  28.433  29.981  1.00  0.00     0.049 A 
ATOM     51  C   UNL A   1      41.208  29.754  29.582  1.00  0.00     0.074 A 
ATOM     52  C   UNL A   1      47.486  29.433  30.405  1.00  0.00     0.029 A 
ATOM     53  N   UNL A   1      45.354  28.975  29.970  1.00  0.00    -0.354 N 
ATOM     54  N   UNL A   1      42.502  29.597  29.717  1.00  0.00    -0.248 NA
ATOM     55  C   UNL A   1      40.718  31.083  29.974  1.00  0.00     0.031 C 
ATOM     56  C   UNL A   1      46.723  30.568  30.695  1.00  0.00     0.029 A 
ATOM     57  C   UNL A   1      45.398  30.291  30.397  1.00  0.00     0.049 A 
ATOM     58  H   UNL A   1      44.539  28.495  29.699  1.00  0.00     0.167 HD
ATOM     59  C   UNL A   1      42.984  30.813  30.183  1.00  0.00     0.074 A 
ATOM     60  C   UNL A   1      41.847  31.703  30.289  1.00  0.00     0.031 C 
ATOM     61  C   UNL A   1      44.256  31.163  30.497  1.00  0.00     0.031 A 
BRANCH  48  62
ATOM     62  C   UNL A   1      48.372  26.619  29.720  1.00  0.00    -0.014 A 
ATOM     63  C   UNL A   1      48.836  25.964  30.872  1.00  0.00     0.009 A 
ATOM     64  C   UNL A   1      49.258  26.817  28.650  1.00  0.00     0.009 A 
ATOM     65  C   UNL A   1      50.166  25.550  30.967  1.00  0.00     0.001 A 
ATOM     66  C   UNL A   1      50.581  26.375  28.734  1.00  0.00     0.001 A 
ATOM     67  C   UNL A   1      51.036  25.751  29.896  1.00  0.00     0.000 A 
ENDBRANCH  48  62
BRANCH  49  68
ATOM     68  C   UNL A   1      38.747  29.159  29.001  1.00  0.00    -0.014 A 
ATOM     69  C   UNL A   1      37.913  29.025  30.121  1.00  0.00     0.009 A 
ATOM     70  C   UNL A   1      38.201  29.645  27.803  1.00  0.00     0.009 A 
ATOM     71  C   UNL A   1      36.555  29.340  30.035  1.00  0.00     0.001 A 
ATOM     72  C   UNL A   1      36.849  29.988  27.728  1.00  0.00     0.001 A 
ATOM     73  C   UNL A   1      36.025  29.825  28.840  1.00  0.00     0.000 A 
ENDBRANCH  49  68
BRANCH  61  74
ATOM     74  C   UNL A   1      44.488  32.577  30.949  1.00  0.00    -0.014 A 
ATOM     75  C   UNL A   1      44.458  32.922  32.309  1.00  0.00     0.009 A 
ATOM     76  C   UNL A   1      44.772  33.570  29.999  1.00  0.00     0.009 A 
ATOM     77  C   UNL A   1      44.675  34.243  32.705  1.00  0.00     0.001 A 
ATOM     78  C   UNL A   1      45.017  34.884  30.400  1.00  0.00     0.001 A 
ATOM     79  C   UNL A   1      44.959  35.221  31.752  1.00  0.00     0.000 A 
ENDBRANCH  61  74
ENDBRANCH  35  36
ENDBRANCH  27  30
ENDBRANCH  25  26
ENDBRANCH  24  25
ENDBRANCH   1  24
TORSDOF 13
ENDMDL
MODEL 3
REMARK VINA RESULT:     -11.5      4.661      9.728
REMARK SMILES Cc1nc(C)c(C(=O)N2CCC([C@H](C)C(=O)NCCCCNC(=O)c3ccc(-c4c5nc(c(-c6ccccc6)c6ccc([nH]6)c(-c6ccccc6)c6nc(c(-c7ccccc7)c7ccc4[nH]7)C=C6)C=C5)cc3)CC2)s1
REMARK SMILES IDX 19 1 18 2 17 3 15 4 16 5 13 7 14 8 12 9 7 10 8 11 9 12 10 13
REMARK SMILES IDX 74 14 11 15 73 16 6 17 1 18 2 19 3 20 75 21 4 22 5 23 20 24
REMARK SMILES IDX 21 25 22 26 23 27 24 29 25 30 26 31 72 32 27 33 71 34 28 35
REMARK SMILES IDX 29 36 30 37 65 38 31 39 70 40 64 41 66 42 32 43 69 44 63 45
REMARK SMILES IDX 62 46 33 48 55 49 40 50 54 51 41 52 44 53 53 54 67 55 42 56
REMARK SMILES IDX 43 57 52 59 68 60 45 61 34 62 35 63 39 64 36 65 38 66 37 67
REMARK SMILES IDX 56 68 57 69 61 70 58 71 60 72 59 73 46 74 47 75 51 76 48 77
REMARK SMILES IDX 50 78 49 79
REMARK H PARENT 17 6 22 28 66 47 44 58
REMARK Flexibility Score: inf
ROOT
ATOM      1  C   UNL A   1      37.382  21.275  24.412  1.00  0.00     0.023 C 
ENDROOT
BRANCH   1   2
ATOM      2  C   UNL A   1      37.222  22.436  25.378  1.00  0.00     0.116 C 
BRANCH   2   3
ATOM      3  N   UNL A   1      36.232  22.204  26.404  1.00  0.00    -0.356 N 
ATOM      4  C   UNL A   1      34.979  21.689  26.291  1.00  0.00     0.223 C 
ATOM      5  O   UNL A   1      34.368  21.453  27.337  1.00  0.00    -0.275 OA
ATOM      6  H   UNL A   1      36.504  22.455  27.316  1.00  0.00     0.163 HD
BRANCH   4   7
ATOM      7  C   UNL A   1      34.325  21.401  24.932  1.00  0.00     0.078 C 
ATOM      8  C   UNL A   1      33.926  19.927  24.815  1.00  0.00     0.018 C 
BRANCH   7   9
ATOM      9  C   UNL A   1      33.290  22.452  24.405  1.00  0.00     0.005 C 
ATOM     10  C   UNL A   1      31.033  25.810  25.394  1.00  0.00     0.265 C 
ATOM     11  O   UNL A   1      30.568  25.531  26.501  1.00  0.00    -0.268 OA
ATOM     12  N   UNL A   1      31.599  24.799  24.614  1.00  0.00    -0.338 N 
ATOM     13  C   UNL A   1      30.964  23.497  24.581  1.00  0.00     0.120 C 
ATOM     14  C   UNL A   1      32.841  24.926  23.863  1.00  0.00     0.120 C 
ATOM     15  C   UNL A   1      31.899  22.405  25.072  1.00  0.00     0.026 C 
ATOM     16  C   UNL A   1      33.858  23.889  24.342  1.00  0.00     0.026 C 
BRANCH  10  17
ATOM     17  C   UNL A   1      30.923  27.144  24.820  1.00  0.00     0.115 A 
ATOM     18  C   UNL A   1      29.550  30.075  22.659  1.00  0.00     0.079 C 
ATOM     19  C   UNL A   1      30.204  29.124  23.595  1.00  0.00     0.091 A 
ATOM     20  N   UNL A   1      31.028  29.473  24.556  1.00  0.00    -0.246 NA
ATOM     21  S   UNL A   1      29.871  27.454  23.491  1.00  0.00    -0.113 S 
ATOM     22  C   UNL A   1      31.417  28.356  25.291  1.00  0.00     0.061 A 
ATOM     23  C   UNL A   1      32.268  28.608  26.489  1.00  0.00     0.068 C 
ENDBRANCH  10  17
ENDBRANCH   7   9
ENDBRANCH   4   7
ENDBRANCH   2   3
ENDBRANCH   1   2
BRANCH   1  24
ATOM     24  C   UNL A   1      38.046  20.037  25.001  1.00  0.00     0.023 C 
BRANCH  24  25
ATOM     25  C   UNL A   1      39.271  20.308  25.867  1.00  0.00     0.116 C 
BRANCH  25  26
ATOM     26  N   UNL A   1      40.200  19.188  25.922  1.00  0.00    -0.352 N 
ATOM     27  C   UNL A   1      41.560  19.203  26.111  1.00  0.00     0.251 C 
ATOM     28  H   UNL A   1      39.797  18.297  25.808  1.00  0.00     0.163 HD
ATOM     29  O   UNL A   1      42.222  18.175  25.996  1.00  0.00    -0.269 OA
BRANCH  27  30
ATOM     30  C   UNL A   1      42.232  20.480  26.421  1.00  0.00     0.039 A 
ATOM     31  C   UNL A   1      42.779  21.229  25.376  1.00  0.00     0.014 A 
ATOM     32  C   UNL A   1      42.280  20.955  27.734  1.00  0.00     0.014 A 
ATOM     33  C   UNL A   1      43.301  22.496  25.640  1.00  0.00     0.010 A 
ATOM     34  C   UNL A   1      42.722  22.250  27.981  1.00  0.00     0.010 A 
ATOM     35  C   UNL A   1      43.235  23.034  26.937  1.00  0.00    -0.014 A 
BRANCH  35  36
ATOM     36  C   UNL A   1      43.698  24.416  27.218  1.00  0.00     0.031 A 
ATOM     37  C   UNL A   1      42.711  25.475  27.624  1.00  0.00     0.074 A 
ATOM     38  C   UNL A   1      44.996  24.734  27.047  1.00  0.00     0.049 A 
ATOM     39  N   UNL A   1      42.915  26.746  27.863  1.00  0.00    -0.248 NA
ATOM     40  C   UNL A   1      41.305  25.057  27.753  1.00  0.00     0.031 C 
ATOM     41  C   UNL A   1      46.046  23.812  26.608  1.00  0.00     0.029 A 
ATOM     42  N   UNL A   1      45.653  25.927  27.218  1.00  0.00    -0.354 N 
ATOM     43  C   UNL A   1      41.666  27.278  28.159  1.00  0.00     0.074 A 
ATOM     44  C   UNL A   1      40.703  26.209  28.011  1.00  0.00     0.031 C 
ATOM     45  C   UNL A   1      47.219  24.465  26.572  1.00  0.00     0.029 A 
ATOM     46  C   UNL A   1      46.999  25.858  26.947  1.00  0.00     0.049 A 
ATOM     47  H   UNL A   1      45.203  26.752  27.508  1.00  0.00     0.167 HD
ATOM     48  C   UNL A   1      41.350  28.537  28.545  1.00  0.00     0.031 A 
ATOM     49  C   UNL A   1      47.948  26.811  26.994  1.00  0.00     0.031 A 
ATOM     50  C   UNL A   1      42.306  29.600  28.699  1.00  0.00     0.049 A 
ATOM     51  C   UNL A   1      47.570  28.204  27.415  1.00  0.00     0.074 A 
ATOM     52  C   UNL A   1      42.092  30.897  29.128  1.00  0.00     0.029 A 
ATOM     53  N   UNL A   1      43.661  29.485  28.429  1.00  0.00    -0.354 N 
ATOM     54  N   UNL A   1      46.396  28.674  27.757  1.00  0.00    -0.248 NA
ATOM     55  C   UNL A   1      48.655  29.194  27.471  1.00  0.00     0.031 C 
ATOM     56  C   UNL A   1      43.309  31.582  29.073  1.00  0.00     0.029 A 
ATOM     57  C   UNL A   1      44.293  30.694  28.665  1.00  0.00     0.049 A 
ATOM     58  H   UNL A   1      44.108  28.665  28.116  1.00  0.00     0.167 HD
ATOM     59  C   UNL A   1      46.604  30.005  28.095  1.00  0.00     0.074 A 
ATOM     60  C   UNL A   1      48.020  30.262  27.934  1.00  0.00     0.031 C 
ATOM     61  C   UNL A   1      45.703  30.933  28.500  1.00  0.00     0.031 A 
BRANCH  48  62
ATOM     62  C   UNL A   1      39.903  28.825  28.831  1.00  0.00    -0.014 A 
ATOM     63  C   UNL A   1      39.364  28.625  30.112  1.00  0.00     0.009 A 
ATOM     64  C   UNL A   1      39.074  29.328  27.817  1.00  0.00     0.009 A 
ATOM     65  C   UNL A   1      38.015  28.886  30.363  1.00  0.00     0.001 A 
ATOM     66  C   UNL A   1      37.733  29.618  28.077  1.00  0.00     0.001 A 
ATOM     67  C   UNL A   1      37.202  29.387  29.347  1.00  0.00     0.000 A 
ENDBRANCH  48  62
BRANCH  49  68
ATOM     68  C   UNL A   1      49.355  26.481  26.644  1.00  0.00    -0.014 A 
ATOM     69  C   UNL A   1      49.830  26.677  25.338  1.00  0.00     0.009 A 
ATOM     70  C   UNL A   1      50.226  25.955  27.611  1.00  0.00     0.009 A 
ATOM     71  C   UNL A   1      51.138  26.324  25.000  1.00  0.00     0.001 A 
ATOM     72  C   UNL A   1      51.543  25.631  27.276  1.00  0.00     0.001 A 
ATOM     73  C   UNL A   1      51.994  25.805  25.970  1.00  0.00     0.000 A 
ENDBRANCH  49  68
BRANCH  61  74
ATOM     74  C   UNL A   1      46.229  32.300  28.833  1.00  0.00    -0.014 A 
ATOM     75  C   UNL A   1      46.685  32.612  30.124  1.00  0.00     0.009 A 
ATOM     76  C   UNL A   1      46.299  33.279  27.831  1.00  0.00     0.009 A 
ATOM     77  C   UNL A   1      47.168  33.890  30.410  1.00  0.00     0.001 A 
ATOM     78  C   UNL A   1      46.810  34.546  28.113  1.00  0.00     0.001 A 
ATOM     79  C   UNL A   1      47.236  34.854  29.404  1.00  0.00     0.000 A 
ENDBRANCH  61  74
ENDBRANCH  35  36
ENDBRANCH  27  30
ENDBRANCH  25  26
ENDBRANCH  24  25
ENDBRANCH   1  24
TORSDOF 13
ENDMDL
