MODEL 1
REMARK VINA RESULT:     -10.3      0.000      0.000
REMARK SMILES CCN(C)C(=O)Cn1ccc2c(C(=O)NCCCCNC(=O)c3ccc(-c4c5nc(c(-c6ccccc6)c6ccc([nH]6)c(-c6ccccc6)c6nc(c(-c7ccccc7)c7ccc4[nH]7)C=C6)C=C5)cc3)cccc21
REMARK SMILES IDX 16 1 15 2 13 3 14 4 12 6 8 7 9 8 74 9 10 10 11 11 73 12
REMARK SMILES IDX 72 13 71 14 7 15 5 16 6 17 3 18 4 19 2 20 1 21 17 22 18 23
REMARK SMILES IDX 19 24 20 25 21 26 22 28 23 29 24 30 70 31 25 32 69 33 26 34
REMARK SMILES IDX 27 35 28 36 63 37 29 38 68 39 62 40 64 41 30 42 67 43 61 44
REMARK SMILES IDX 60 45 31 47 53 48 38 49 52 50 39 51 42 52 51 53 65 54 40 55
REMARK SMILES IDX 41 56 50 58 66 59 43 60 32 61 33 62 37 63 34 64 36 65 35 66
REMARK SMILES IDX 54 67 55 68 59 69 56 70 58 71 57 72 44 73 45 74 49 75 46 76
REMARK SMILES IDX 48 77 47 78
REMARK H PARENT 15 5 20 27 64 46 42 57
REMARK Flexibility Score: inf
ROOT
ATOM      1  C   UNL A   1      37.772  23.250  25.895  1.00  0.00     0.116 C 
ENDROOT
BRANCH   1   2
ATOM      2  N   UNL A   1      37.152  22.020  25.449  1.00  0.00    -0.352 N 
ATOM      3  C   UNL A   1      35.881  21.504  25.469  1.00  0.00     0.251 C 
ATOM      4  O   UNL A   1      35.777  20.388  24.955  1.00  0.00    -0.269 OA
ATOM      5  H   UNL A   1      37.798  21.406  25.031  1.00  0.00     0.163 HD
BRANCH   3   6
ATOM      6  C   UNL A   1      34.670  22.194  26.023  1.00  0.00     0.049 A 
ATOM      7  N   UNL A   1      32.768  25.084  25.020  1.00  0.00    -0.338 N 
ATOM      8  C   UNL A   1      33.640  25.086  23.967  1.00  0.00     0.087 A 
ATOM      9  C   UNL A   1      33.043  24.019  25.862  1.00  0.00     0.049 A 
ATOM     10  C   UNL A   1      34.528  24.055  24.157  1.00  0.00     0.029 A 
ATOM     11  C   UNL A   1      34.166  23.348  25.346  1.00  0.00     0.012 A 
ATOM     12  C   UNL A   1      32.401  23.600  27.036  1.00  0.00     0.027 A 
ATOM     13  C   UNL A   1      32.872  22.455  27.666  1.00  0.00     0.003 A 
ATOM     14  C   UNL A   1      33.956  21.749  27.149  1.00  0.00     0.014 A 
BRANCH   7  15
ATOM     15  C   UNL A   1      31.668  26.030  25.173  1.00  0.00     0.222 C 
BRANCH  15  16
ATOM     16  C   UNL A   1      31.868  27.046  26.284  1.00  0.00     0.242 C 
ATOM     17  O   UNL A   1      31.243  26.909  27.342  1.00  0.00    -0.273 OA
BRANCH  16  18
ATOM     18  N   UNL A   1      32.792  28.075  26.117  1.00  0.00    -0.344 N 
ATOM     19  C   UNL A   1      33.128  28.673  24.832  1.00  0.00     0.146 C 
BRANCH  18  20
ATOM     20  C   UNL A   1      33.374  28.684  27.312  1.00  0.00     0.115 C 
ATOM     21  C   UNL A   1      34.821  29.107  27.112  1.00  0.00     0.027 C 
ENDBRANCH  18  20
ENDBRANCH  16  18
ENDBRANCH  15  16
ENDBRANCH   7  15
ENDBRANCH   3   6
ENDBRANCH   1   2
BRANCH   1  22
ATOM     22  C   UNL A   1      39.128  22.968  26.549  1.00  0.00     0.023 C 
BRANCH  22  23
ATOM     23  C   UNL A   1      39.828  21.699  26.026  1.00  0.00     0.023 C 
BRANCH  23  24
ATOM     24  C   UNL A   1      41.285  21.546  26.476  1.00  0.00     0.116 C 
BRANCH  24  25
ATOM     25  N   UNL A   1      42.224  22.174  25.567  1.00  0.00    -0.352 N 
ATOM     26  C   UNL A   1      42.700  23.444  25.378  1.00  0.00     0.251 C 
ATOM     27  H   UNL A   1      42.613  21.532  24.930  1.00  0.00     0.163 HD
ATOM     28  O   UNL A   1      43.576  23.570  24.530  1.00  0.00    -0.269 OA
BRANCH  26  29
ATOM     29  C   UNL A   1      42.207  24.659  26.086  1.00  0.00     0.039 A 
ATOM     30  C   UNL A   1      41.404  25.650  25.527  1.00  0.00     0.014 A 
ATOM     31  C   UNL A   1      42.671  24.832  27.406  1.00  0.00     0.014 A 
ATOM     32  C   UNL A   1      41.130  26.813  26.236  1.00  0.00     0.010 A 
ATOM     33  C   UNL A   1      42.398  25.994  28.122  1.00  0.00     0.010 A 
ATOM     34  C   UNL A   1      41.662  27.004  27.515  1.00  0.00    -0.014 A 
BRANCH  34  35
ATOM     35  C   UNL A   1      41.384  28.283  28.156  1.00  0.00     0.031 A 
ATOM     36  C   UNL A   1      42.435  29.329  28.006  1.00  0.00     0.074 A 
ATOM     37  C   UNL A   1      40.256  28.553  28.838  1.00  0.00     0.049 A 
ATOM     38  N   UNL A   1      43.149  29.878  28.934  1.00  0.00    -0.248 NA
ATOM     39  C   UNL A   1      42.785  29.756  26.644  1.00  0.00     0.031 C 
ATOM     40  C   UNL A   1      39.001  27.802  28.881  1.00  0.00     0.029 A 
ATOM     41  N   UNL A   1      39.983  29.657  29.587  1.00  0.00    -0.354 N 
ATOM     42  C   UNL A   1      43.968  30.810  28.301  1.00  0.00     0.074 A 
ATOM     43  C   UNL A   1      43.760  30.635  26.884  1.00  0.00     0.031 C 
ATOM     44  C   UNL A   1      38.035  28.590  29.410  1.00  0.00     0.029 A 
ATOM     45  C   UNL A   1      38.641  29.823  29.883  1.00  0.00     0.049 A 
ATOM     46  H   UNL A   1      40.680  30.283  29.892  1.00  0.00     0.167 HD
ATOM     47  C   UNL A   1      44.673  31.754  28.985  1.00  0.00     0.031 A 
ATOM     48  C   UNL A   1      38.072  30.936  30.401  1.00  0.00     0.031 A 
ATOM     49  C   UNL A   1      44.791  31.440  30.382  1.00  0.00     0.049 A 
ATOM     50  C   UNL A   1      39.133  31.720  31.077  1.00  0.00     0.074 A 
ATOM     51  C   UNL A   1      45.380  30.411  31.091  1.00  0.00     0.029 A 
ATOM     52  N   UNL A   1      43.949  32.069  31.265  1.00  0.00    -0.354 N 
ATOM     53  N   UNL A   1      39.739  31.330  32.162  1.00  0.00    -0.248 NA
ATOM     54  C   UNL A   1      39.822  32.747  30.311  1.00  0.00     0.031 C 
ATOM     55  C   UNL A   1      44.490  30.164  32.176  1.00  0.00     0.029 A 
ATOM     56  C   UNL A   1      43.451  31.093  32.090  1.00  0.00     0.049 A 
ATOM     57  H   UNL A   1      43.743  33.031  31.300  1.00  0.00     0.167 HD
ATOM     58  C   UNL A   1      41.056  31.733  31.997  1.00  0.00     0.074 A 
ATOM     59  C   UNL A   1      41.025  32.685  30.888  1.00  0.00     0.031 C 
ATOM     60  C   UNL A   1      42.090  31.058  32.581  1.00  0.00     0.031 A 
BRANCH  47  61
ATOM     61  C   UNL A   1      45.035  33.106  28.435  1.00  0.00    -0.014 A 
ATOM     62  C   UNL A   1      44.106  34.155  28.323  1.00  0.00     0.009 A 
ATOM     63  C   UNL A   1      46.391  33.438  28.255  1.00  0.00     0.009 A 
ATOM     64  C   UNL A   1      44.501  35.468  28.050  1.00  0.00     0.001 A 
ATOM     65  C   UNL A   1      46.794  34.758  28.022  1.00  0.00     0.001 A 
ATOM     66  C   UNL A   1      45.849  35.773  27.922  1.00  0.00     0.000 A 
ENDBRANCH  47  61
BRANCH  48  67
ATOM     67  C   UNL A   1      36.784  31.539  29.995  1.00  0.00    -0.014 A 
ATOM     68  C   UNL A   1      36.595  31.972  28.669  1.00  0.00     0.009 A 
ATOM     69  C   UNL A   1      35.852  31.955  30.957  1.00  0.00     0.009 A 
ATOM     70  C   UNL A   1      35.539  32.820  28.322  1.00  0.00     0.001 A 
ATOM     71  C   UNL A   1      34.795  32.808  30.611  1.00  0.00     0.001 A 
ATOM     72  C   UNL A   1      34.649  33.251  29.298  1.00  0.00     0.000 A 
ENDBRANCH  48  67
BRANCH  60  73
ATOM     73  C   UNL A   1      41.779  29.973  33.589  1.00  0.00    -0.014 A 
ATOM     74  C   UNL A   1      41.912  30.271  34.955  1.00  0.00     0.009 A 
ATOM     75  C   UNL A   1      41.569  28.631  33.224  1.00  0.00     0.009 A 
ATOM     76  C   UNL A   1      41.856  29.264  35.922  1.00  0.00     0.001 A 
ATOM     77  C   UNL A   1      41.483  27.626  34.193  1.00  0.00     0.001 A 
ATOM     78  C   UNL A   1      41.639  27.942  35.541  1.00  0.00     0.000 A 
ENDBRANCH  60  73
ENDBRANCH  34  35
ENDBRANCH  26  29
ENDBRANCH  24  25
ENDBRANCH  23  24
ENDBRANCH  22  23
ENDBRANCH   1  22
TORSDOF 15
ENDMDL
MODEL 2
REMARK VINA RESULT:     -10.3      3.120      8.724
REMARK SMILES CCN(C)C(=O)Cn1ccc2c(C(=O)NCCCCNC(=O)c3ccc(-c4c5nc(c(-c6ccccc6)c6ccc([nH]6)c(-c6ccccc6)c6nc(c(-c7ccccc7)c7ccc4[nH]7)C=C6)C=C5)cc3)cccc21
REMARK SMILES IDX 16 1 15 2 13 3 14 4 12 6 8 7 9 8 74 9 10 10 11 11 73 12
REMARK SMILES IDX 72 13 71 14 7 15 5 16 6 17 3 18 4 19 2 20 1 21 17 22 18 23
REMARK SMILES IDX 19 24 20 25 21 26 22 28 23 29 24 30 70 31 25 32 69 33 26 34
REMARK SMILES IDX 27 35 28 36 63 37 29 38 68 39 62 40 64 41 30 42 67 43 61 44
REMARK SMILES IDX 60 45 31 47 53 48 38 49 52 50 39 51 42 52 51 53 65 54 40 55
REMARK SMILES IDX 41 56 50 58 66 59 43 60 32 61 33 62 37 63 34 64 36 65 35 66
REMARK SMILES IDX 54 67 55 68 59 69 56 70 58 71 57 72 44 73 45 74 49 75 46 76
REMARK SMILES IDX 48 77 47 78
REMARK H PARENT 15 5 20 27 64 46 42 57
REMARK Flexibility Score: inf
ROOT
ATOM      1  C   UNL A   1      34.810  32.343  31.426  1.00  0.00     0.116 C 
ENDROOT
BRANCH   1   2
ATOM      2  N   UNL A   1      34.647  33.179  30.256  1.00  0.00    -0.352 N 
ATOM      3  C   UNL A   1      34.676  32.977  28.900  1.00  0.00     0.251 C 
ATOM      4  O   UNL A   1      34.469  33.992  28.229  1.00  0.00    -0.269 OA
ATOM      5  H   UNL A   1      34.474  34.120  30.490  1.00  0.00     0.163 HD
BRANCH   3   6
ATOM      6  C   UNL A   1      34.902  31.660  28.220  1.00  0.00     0.049 A 
ATOM      7  N   UNL A   1      32.801  29.446  26.307  1.00  0.00    -0.338 N 
ATOM      8  C   UNL A   1      31.875  30.435  26.491  1.00  0.00     0.087 A 
ATOM      9  C   UNL A   1      34.001  29.802  26.900  1.00  0.00     0.049 A 
ATOM     10  C   UNL A   1      32.455  31.413  27.263  1.00  0.00     0.029 A 
ATOM     11  C   UNL A   1      33.813  31.047  27.526  1.00  0.00     0.012 A 
ATOM     12  C   UNL A   1      35.229  29.128  26.942  1.00  0.00     0.027 A 
ATOM     13  C   UNL A   1      36.294  29.747  27.583  1.00  0.00     0.003 A 
ATOM     14  C   UNL A   1      36.143  31.000  28.174  1.00  0.00     0.014 A 
BRANCH   7  15
ATOM     15  C   UNL A   1      32.560  28.235  25.531  1.00  0.00     0.222 C 
BRANCH  15  16
ATOM     16  C   UNL A   1      32.132  27.036  26.359  1.00  0.00     0.242 C 
ATOM     17  O   UNL A   1      31.191  27.161  27.152  1.00  0.00    -0.273 OA
BRANCH  16  18
ATOM     18  N   UNL A   1      32.762  25.808  26.170  1.00  0.00    -0.344 N 
ATOM     19  C   UNL A   1      32.143  24.519  26.440  1.00  0.00     0.146 C 
BRANCH  18  20
ATOM     20  C   UNL A   1      34.084  25.799  25.544  1.00  0.00     0.115 C 
ATOM     21  C   UNL A   1      34.208  24.752  24.447  1.00  0.00     0.027 C 
ENDBRANCH  18  20
ENDBRANCH  16  18
ENDBRANCH  15  16
ENDBRANCH   7  15
ENDBRANCH   3   6
ENDBRANCH   1   2
BRANCH   1  22
ATOM     22  C   UNL A   1      36.003  32.809  32.264  1.00  0.00     0.023 C 
BRANCH  22  23
ATOM     23  C   UNL A   1      36.526  34.210  31.892  1.00  0.00     0.023 C 
BRANCH  23  24
ATOM     24  C   UNL A   1      38.010  34.437  32.200  1.00  0.00     0.116 C 
BRANCH  24  25
ATOM     25  N   UNL A   1      38.766  34.870  31.042  1.00  0.00    -0.352 N 
ATOM     26  C   UNL A   1      39.617  34.271  30.151  1.00  0.00     0.251 C 
ATOM     27  H   UNL A   1      38.638  35.827  30.849  1.00  0.00     0.163 HD
ATOM     28  O   UNL A   1      40.009  34.974  29.226  1.00  0.00    -0.269 OA
BRANCH  26  29
ATOM     29  C   UNL A   1      40.119  32.873  30.253  1.00  0.00     0.039 A 
ATOM     30  C   UNL A   1      41.452  32.482  30.150  1.00  0.00     0.014 A 
ATOM     31  C   UNL A   1      39.133  31.873  30.386  1.00  0.00     0.014 A 
ATOM     32  C   UNL A   1      41.787  31.135  30.109  1.00  0.00     0.010 A 
ATOM     33  C   UNL A   1      39.463  30.522  30.348  1.00  0.00     0.010 A 
ATOM     34  C   UNL A   1      40.791  30.156  30.164  1.00  0.00    -0.014 A 
BRANCH  34  35
ATOM     35  C   UNL A   1      41.225  28.770  30.041  1.00  0.00     0.031 A 
ATOM     36  C   UNL A   1      41.919  28.198  31.229  1.00  0.00     0.074 A 
ATOM     37  C   UNL A   1      41.020  28.011  28.949  1.00  0.00     0.049 A 
ATOM     38  N   UNL A   1      43.140  27.781  31.312  1.00  0.00    -0.248 NA
ATOM     39  C   UNL A   1      41.181  28.160  32.500  1.00  0.00     0.031 C 
ATOM     40  C   UNL A   1      40.145  28.259  27.804  1.00  0.00     0.029 A 
ATOM     41  N   UNL A   1      41.520  26.770  28.696  1.00  0.00    -0.354 N 
ATOM     42  C   UNL A   1      43.310  27.316  32.615  1.00  0.00     0.074 A 
ATOM     43  C   UNL A   1      42.097  27.648  33.324  1.00  0.00     0.031 C 
ATOM     44  C   UNL A   1      39.989  27.106  27.111  1.00  0.00     0.029 A 
ATOM     45  C   UNL A   1      40.875  26.099  27.671  1.00  0.00     0.049 A 
ATOM     46  H   UNL A   1      42.274  26.383  29.197  1.00  0.00     0.167 HD
ATOM     47  C   UNL A   1      44.385  26.573  32.997  1.00  0.00     0.031 A 
ATOM     48  C   UNL A   1      41.008  24.786  27.371  1.00  0.00     0.031 A 
ATOM     49  C   UNL A   1      45.469  26.663  32.058  1.00  0.00     0.049 A 
ATOM     50  C   UNL A   1      42.296  24.317  27.936  1.00  0.00     0.074 A 
ATOM     51  C   UNL A   1      46.273  27.694  31.612  1.00  0.00     0.029 A 
ATOM     52  N   UNL A   1      45.642  25.639  31.161  1.00  0.00    -0.354 N 
ATOM     53  N   UNL A   1      43.460  24.700  27.496  1.00  0.00    -0.248 NA
ATOM     54  C   UNL A   1      42.291  23.741  29.272  1.00  0.00     0.031 C 
ATOM     55  C   UNL A   1      46.469  27.425  30.227  1.00  0.00     0.029 A 
ATOM     56  C   UNL A   1      45.823  26.223  29.933  1.00  0.00     0.049 A 
ATOM     57  H   UNL A   1      45.638  24.674  31.360  1.00  0.00     0.167 HD
ATOM     58  C   UNL A   1      44.248  24.815  28.633  1.00  0.00     0.074 A 
ATOM     59  C   UNL A   1      43.505  24.118  29.681  1.00  0.00     0.031 C 
ATOM     60  C   UNL A   1      45.290  25.697  28.695  1.00  0.00     0.031 A 
BRANCH  47  61
ATOM     61  C   UNL A   1      44.362  25.548  34.096  1.00  0.00    -0.014 A 
ATOM     62  C   UNL A   1      43.663  24.332  33.988  1.00  0.00     0.009 A 
ATOM     63  C   UNL A   1      45.260  25.669  35.173  1.00  0.00     0.009 A 
ATOM     64  C   UNL A   1      43.847  23.289  34.900  1.00  0.00     0.001 A 
ATOM     65  C   UNL A   1      45.478  24.612  36.064  1.00  0.00     0.001 A 
ATOM     66  C   UNL A   1      44.773  23.421  35.925  1.00  0.00     0.000 A 
ENDBRANCH  47  61
BRANCH  48  67
ATOM     67  C   UNL A   1      39.924  23.852  26.997  1.00  0.00    -0.014 A 
ATOM     68  C   UNL A   1      40.221  22.506  26.710  1.00  0.00     0.009 A 
ATOM     69  C   UNL A   1      38.656  24.332  26.640  1.00  0.00     0.009 A 
ATOM     70  C   UNL A   1      39.302  21.681  26.055  1.00  0.00     0.001 A 
ATOM     71  C   UNL A   1      37.735  23.506  25.981  1.00  0.00     0.001 A 
ATOM     72  C   UNL A   1      38.065  22.187  25.676  1.00  0.00     0.000 A 
ENDBRANCH  48  67
BRANCH  60  73
ATOM     73  C   UNL A   1      45.717  26.414  27.433  1.00  0.00    -0.014 A 
ATOM     74  C   UNL A   1      44.948  27.501  26.989  1.00  0.00     0.009 A 
ATOM     75  C   UNL A   1      46.717  25.919  26.577  1.00  0.00     0.009 A 
ATOM     76  C   UNL A   1      45.155  28.063  25.726  1.00  0.00     0.001 A 
ATOM     77  C   UNL A   1      46.945  26.499  25.325  1.00  0.00     0.001 A 
ATOM     78  C   UNL A   1      46.155  27.564  24.895  1.00  0.00     0.000 A 
ENDBRANCH  60  73
ENDBRANCH  34  35
ENDBRANCH  26  29
ENDBRANCH  24  25
ENDBRANCH  23  24
ENDBRANCH  22  23
ENDBRANCH   1  22
TORSDOF 15
ENDMDL
MODEL 3
REMARK VINA RESULT:     -10.2      2.416      7.890
REMARK SMILES CCN(C)C(=O)Cn1ccc2c(C(=O)NCCCCNC(=O)c3ccc(-c4c5nc(c(-c6ccccc6)c6ccc([nH]6)c(-c6ccccc6)c6nc(c(-c7ccccc7)c7ccc4[nH]7)C=C6)C=C5)cc3)cccc21
REMARK SMILES IDX 16 1 15 2 13 3 14 4 12 6 8 7 9 8 74 9 10 10 11 11 73 12
REMARK SMILES IDX 72 13 71 14 7 15 5 16 6 17 3 18 4 19 2 20 1 21 17 22 18 23
REMARK SMILES IDX 19 24 20 25 21 26 22 28 23 29 24 30 70 31 25 32 69 33 26 34
REMARK SMILES IDX 27 35 28 36 63 37 29 38 68 39 62 40 64 41 30 42 67 43 61 44
REMARK SMILES IDX 60 45 31 47 53 48 38 49 52 50 39 51 42 52 51 53 65 54 40 55
REMARK SMILES IDX 41 56 50 58 66 59 43 60 32 61 33 62 37 63 34 64 36 65 35 66
REMARK SMILES IDX 54 67 55 68 59 69 56 70 58 71 57 72 44 73 45 74 49 75 46 76
REMARK SMILES IDX 48 77 47 78
REMARK H PARENT 15 5 20 27 64 46 42 57
REMARK Flexibility Score: inf
ROOT
ATOM      1  C   UNL A   1      34.031  28.685  26.835  1.00  0.00     0.116 C 
ENDROOT
BRANCH   1   2
ATOM      2  N   UNL A   1      32.910  29.195  26.074  1.00  0.00    -0.352 N 
ATOM      3  C   UNL A   1      31.868  28.637  25.379  1.00  0.00     0.251 C 
ATOM      4  O   UNL A   1      31.100  29.456  24.868  1.00  0.00    -0.269 OA
ATOM      5  H   UNL A   1      32.892  30.179  26.049  1.00  0.00     0.163 HD
BRANCH   3   6
ATOM      6  C   UNL A   1      31.604  27.168  25.236  1.00  0.00     0.049 A 
ATOM      7  N   UNL A   1      33.004  24.571  23.168  1.00  0.00    -0.338 N 
ATOM      8  C   UNL A   1      33.828  25.579  22.749  1.00  0.00     0.087 A 
ATOM      9  C   UNL A   1      32.126  25.045  24.130  1.00  0.00     0.049 A 
ATOM     10  C   UNL A   1      33.443  26.730  23.395  1.00  0.00     0.029 A 
ATOM     11  C   UNL A   1      32.373  26.419  24.291  1.00  0.00     0.012 A 
ATOM     12  C   UNL A   1      31.133  24.377  24.860  1.00  0.00     0.027 A 
ATOM     13  C   UNL A   1      30.417  25.101  25.805  1.00  0.00     0.003 A 
ATOM     14  C   UNL A   1      30.674  26.455  26.013  1.00  0.00     0.014 A 
BRANCH   7  15
ATOM     15  C   UNL A   1      33.102  23.190  22.710  1.00  0.00     0.222 C 
BRANCH  15  16
ATOM     16  C   UNL A   1      33.722  22.240  23.719  1.00  0.00     0.242 C 
ATOM     17  O   UNL A   1      33.077  21.250  24.085  1.00  0.00    -0.273 OA
BRANCH  16  18
ATOM     18  N   UNL A   1      35.021  22.465  24.169  1.00  0.00    -0.344 N 
ATOM     19  C   UNL A   1      36.132  22.842  23.307  1.00  0.00     0.146 C 
BRANCH  18  20
ATOM     20  C   UNL A   1      35.268  22.446  25.610  1.00  0.00     0.115 C 
ATOM     21  C   UNL A   1      34.472  23.505  26.357  1.00  0.00     0.027 C 
ENDBRANCH  18  20
ENDBRANCH  16  18
ENDBRANCH  15  16
ENDBRANCH   7  15
ENDBRANCH   3   6
ENDBRANCH   1   2
BRANCH   1  22
ATOM     22  C   UNL A   1      34.787  29.827  27.520  1.00  0.00     0.023 C 
BRANCH  22  23
ATOM     23  C   UNL A   1      34.009  31.156  27.571  1.00  0.00     0.023 C 
BRANCH  23  24
ATOM     24  C   UNL A   1      34.819  32.346  28.099  1.00  0.00     0.116 C 
BRANCH  24  25
ATOM     25  N   UNL A   1      34.625  32.574  29.517  1.00  0.00    -0.352 N 
ATOM     26  C   UNL A   1      35.324  32.280  30.658  1.00  0.00     0.251 C 
ATOM     27  H   UNL A   1      33.789  33.057  29.706  1.00  0.00     0.163 HD
ATOM     28  O   UNL A   1      34.860  32.725  31.702  1.00  0.00    -0.269 OA
BRANCH  26  29
ATOM     29  C   UNL A   1      36.553  31.442  30.719  1.00  0.00     0.039 A 
ATOM     30  C   UNL A   1      37.848  31.885  30.466  1.00  0.00     0.014 A 
ATOM     31  C   UNL A   1      36.349  30.071  30.980  1.00  0.00     0.014 A 
ATOM     32  C   UNL A   1      38.900  30.979  30.405  1.00  0.00     0.010 A 
ATOM     33  C   UNL A   1      37.400  29.159  30.922  1.00  0.00     0.010 A 
ATOM     34  C   UNL A   1      38.670  29.613  30.589  1.00  0.00    -0.014 A 
BRANCH  34  35
ATOM     35  C   UNL A   1      39.817  28.727  30.436  1.00  0.00     0.031 A 
ATOM     36  C   UNL A   1      40.633  28.501  31.662  1.00  0.00     0.074 A 
ATOM     37  C   UNL A   1      40.148  28.118  29.283  1.00  0.00     0.049 A 
ATOM     38  N   UNL A   1      41.868  28.825  31.866  1.00  0.00    -0.248 NA
ATOM     39  C   UNL A   1      39.964  27.910  32.829  1.00  0.00     0.031 C 
ATOM     40  C   UNL A   1      39.362  27.971  28.058  1.00  0.00     0.029 A 
ATOM     41  N   UNL A   1      41.275  27.403  29.016  1.00  0.00    -0.354 N 
ATOM     42  C   UNL A   1      42.185  28.383  33.148  1.00  0.00     0.074 A 
ATOM     43  C   UNL A   1      40.953  27.900  33.725  1.00  0.00     0.031 C 
ATOM     44  C   UNL A   1      39.930  27.018  27.282  1.00  0.00     0.029 A 
ATOM     45  C   UNL A   1      41.191  26.614  27.882  1.00  0.00     0.049 A 
ATOM     46  H   UNL A   1      42.082  27.443  29.580  1.00  0.00     0.167 HD
ATOM     47  C   UNL A   1      43.464  28.323  33.611  1.00  0.00     0.031 A 
ATOM     48  C   UNL A   1      42.061  25.642  27.521  1.00  0.00     0.031 A 
ATOM     49  C   UNL A   1      44.367  29.110  32.817  1.00  0.00     0.049 A 
ATOM     50  C   UNL A   1      43.348  25.903  28.207  1.00  0.00     0.074 A 
ATOM     51  C   UNL A   1      44.477  30.457  32.534  1.00  0.00     0.029 A 
ATOM     52  N   UNL A   1      45.146  28.468  31.887  1.00  0.00    -0.354 N 
ATOM     53  N   UNL A   1      44.119  26.916  27.935  1.00  0.00    -0.248 NA
ATOM     54  C   UNL A   1      43.581  25.268  29.495  1.00  0.00     0.031 C 
ATOM     55  C   UNL A   1      44.880  30.508  31.169  1.00  0.00     0.029 A 
ATOM     56  C   UNL A   1      45.045  29.194  30.727  1.00  0.00     0.049 A 
ATOM     57  H   UNL A   1      45.673  27.648  32.024  1.00  0.00     0.167 HD
ATOM     58  C   UNL A   1      44.628  27.315  29.163  1.00  0.00     0.074 A 
ATOM     59  C   UNL A   1      44.341  26.205  30.070  1.00  0.00     0.031 C 
ATOM     60  C   UNL A   1      44.984  28.612  29.404  1.00  0.00     0.031 A 
BRANCH  47  61
ATOM     61  C   UNL A   1      43.951  27.336  34.635  1.00  0.00    -0.014 A 
ATOM     62  C   UNL A   1      44.221  25.991  34.327  1.00  0.00     0.009 A 
ATOM     63  C   UNL A   1      44.400  27.802  35.885  1.00  0.00     0.009 A 
ATOM     64  C   UNL A   1      44.902  25.150  35.212  1.00  0.00     0.001 A 
ATOM     65  C   UNL A   1      45.119  26.976  36.757  1.00  0.00     0.001 A 
ATOM     66  C   UNL A   1      45.372  25.651  36.419  1.00  0.00     0.000 A 
ENDBRANCH  47  61
BRANCH  48  67
ATOM     67  C   UNL A   1      41.720  24.315  26.963  1.00  0.00    -0.014 A 
ATOM     68  C   UNL A   1      40.730  23.525  27.578  1.00  0.00     0.009 A 
ATOM     69  C   UNL A   1      42.551  23.701  26.015  1.00  0.00     0.009 A 
ATOM     70  C   UNL A   1      40.600  22.164  27.288  1.00  0.00     0.001 A 
ATOM     71  C   UNL A   1      42.423  22.335  25.726  1.00  0.00     0.001 A 
ATOM     72  C   UNL A   1      41.458  21.566  26.373  1.00  0.00     0.000 A 
ENDBRANCH  48  67
BRANCH  60  73
ATOM     73  C   UNL A   1      45.014  29.589  28.249  1.00  0.00    -0.014 A 
ATOM     74  C   UNL A   1      46.261  29.975  27.732  1.00  0.00     0.009 A 
ATOM     75  C   UNL A   1      43.873  30.285  27.811  1.00  0.00     0.009 A 
ATOM     76  C   UNL A   1      46.369  31.031  26.823  1.00  0.00     0.001 A 
ATOM     77  C   UNL A   1      43.977  31.323  26.879  1.00  0.00     0.001 A 
ATOM     78  C   UNL A   1      45.226  31.703  26.395  1.00  0.00     0.000 A 
ENDBRANCH  60  73
ENDBRANCH  34  35
ENDBRANCH  26  29
ENDBRANCH  24  25
ENDBRANCH  23  24
ENDBRANCH  22  23
ENDBRANCH   1  22
TORSDOF 15
ENDMDL
