MODEL 1
REMARK VINA RESULT:     -11.6      0.000      0.000
REMARK SMILES CC(=O)Nc1ccc2sc(C(=O)NCCCCNC(=O)c3ccc(-c4c5nc(c(-c6ccccc6)c6ccc([nH]6)c(-c6ccccc6)c6nc(c(-c7ccccc7)c7ccc4[nH]7)C=C6)C=C5)cc3)cc2c1
REMARK SMILES IDX 16 1 15 2 14 3 13 4 11 5 12 6 10 8 5 9 6 10 71 11 7 12 70 13
REMARK SMILES IDX 8 14 69 15 9 16 4 17 1 18 2 19 3 20 17 22 18 23 19 24 20 26
REMARK SMILES IDX 21 27 22 28 68 29 23 30 67 31 24 32 25 33 26 34 61 35 27 36
REMARK SMILES IDX 66 37 60 38 62 39 28 40 65 41 59 42 58 43 29 45 51 46 36 47
REMARK SMILES IDX 50 48 37 49 40 50 49 51 63 52 38 53 39 54 48 56 64 57 41 58
REMARK SMILES IDX 30 59 31 60 35 61 32 62 34 63 33 64 52 65 53 66 57 67 54 68
REMARK SMILES IDX 56 69 55 70 42 71 43 72 47 73 44 74 46 75 45 76
REMARK H PARENT 13 7 4 21 18 25 62 44 40 55
REMARK Flexibility Score: inf
ROOT
ATOM      1  C   UNL A   1      37.353  21.049  24.582  1.00  0.00     0.023 C 
ENDROOT
BRANCH   1   2
ATOM      2  C   UNL A   1      36.531  22.342  24.515  1.00  0.00     0.023 C 
BRANCH   2   3
ATOM      3  C   UNL A   1      36.356  23.037  25.865  1.00  0.00     0.116 C 
BRANCH   3   4
ATOM      4  N   UNL A   1      35.155  23.847  25.883  1.00  0.00    -0.351 N 
ATOM      5  C   UNL A   1      33.846  23.587  25.553  1.00  0.00     0.261 C 
ATOM      6  O   UNL A   1      33.073  24.533  25.739  1.00  0.00    -0.268 OA
ATOM      7  H   UNL A   1      35.307  24.770  26.193  1.00  0.00     0.163 HD
BRANCH   5   8
ATOM      8  C   UNL A   1      33.357  22.298  25.080  1.00  0.00     0.093 A 
ATOM      9  C   UNL A   1      32.521  17.622  24.644  1.00  0.00     0.041 A 
ATOM     10  C   UNL A   1      32.313  17.944  23.307  1.00  0.00     0.027 A 
ATOM     11  C   UNL A   1      32.739  18.642  25.578  1.00  0.00     0.035 A 
ATOM     12  C   UNL A   1      32.348  19.273  22.875  1.00  0.00     0.022 A 
ATOM     13  C   UNL A   1      32.865  19.987  25.152  1.00  0.00    -0.005 A 
ATOM     14  C   UNL A   1      32.644  20.279  23.810  1.00  0.00     0.035 A 
ATOM     15  C   UNL A   1      33.239  21.167  25.875  1.00  0.00     0.034 A 
ATOM     16  S   UNL A   1      32.763  21.963  23.520  1.00  0.00    -0.130 S 
BRANCH   9  17
ATOM     17  N   UNL A   1      32.486  16.305  25.126  1.00  0.00    -0.326 N 
ATOM     18  C   UNL A   1      34.929  15.852  25.211  1.00  0.00     0.114 C 
ATOM     19  C   UNL A   1      33.495  15.393  25.266  1.00  0.00     0.221 C 
ATOM     20  O   UNL A   1      33.216  14.220  25.521  1.00  0.00    -0.275 OA
ATOM     21  H   UNL A   1      31.598  15.988  25.406  1.00  0.00     0.169 HD
ENDBRANCH   9  17
ENDBRANCH   5   8
ENDBRANCH   3   4
ENDBRANCH   2   3
ENDBRANCH   1   2
BRANCH   1  22
ATOM     22  C   UNL A   1      38.347  20.971  25.738  1.00  0.00     0.116 C 
BRANCH  22  23
ATOM     23  N   UNL A   1      39.290  19.870  25.617  1.00  0.00    -0.352 N 
ATOM     24  C   UNL A   1      40.627  19.856  25.936  1.00  0.00     0.251 C 
ATOM     25  H   UNL A   1      38.925  19.028  25.262  1.00  0.00     0.163 HD
ATOM     26  O   UNL A   1      41.320  18.874  25.687  1.00  0.00    -0.269 OA
BRANCH  24  27
ATOM     27  C   UNL A   1      41.232  21.056  26.546  1.00  0.00     0.039 A 
ATOM     28  C   UNL A   1      41.813  22.015  25.713  1.00  0.00     0.014 A 
ATOM     29  C   UNL A   1      41.186  21.251  27.928  1.00  0.00     0.014 A 
ATOM     30  C   UNL A   1      42.283  23.210  26.261  1.00  0.00     0.010 A 
ATOM     31  C   UNL A   1      41.599  22.466  28.465  1.00  0.00     0.010 A 
ATOM     32  C   UNL A   1      42.143  23.459  27.636  1.00  0.00    -0.014 A 
BRANCH  32  33
ATOM     33  C   UNL A   1      42.555  24.753  28.234  1.00  0.00     0.031 A 
ATOM     34  C   UNL A   1      41.537  25.842  28.434  1.00  0.00     0.074 A 
ATOM     35  C   UNL A   1      43.852  24.975  28.525  1.00  0.00     0.049 A 
ATOM     36  N   UNL A   1      41.718  27.077  28.825  1.00  0.00    -0.248 NA
ATOM     37  C   UNL A   1      40.136  25.502  28.135  1.00  0.00     0.031 C 
ATOM     38  C   UNL A   1      44.940  24.009  28.358  1.00  0.00     0.029 A 
ATOM     39  N   UNL A   1      44.476  26.096  29.014  1.00  0.00    -0.354 N 
ATOM     40  C   UNL A   1      40.459  27.664  28.806  1.00  0.00     0.074 A 
ATOM     41  C   UNL A   1      39.530  26.665  28.322  1.00  0.00     0.031 C 
ATOM     42  C   UNL A   1      46.093  24.573  28.752  1.00  0.00     0.029 A 
ATOM     43  C   UNL A   1      45.836  25.951  29.158  1.00  0.00     0.049 A 
ATOM     44  H   UNL A   1      43.996  26.925  29.240  1.00  0.00     0.167 HD
ATOM     45  C   UNL A   1      40.103  28.916  29.177  1.00  0.00     0.031 A 
ATOM     46  C   UNL A   1      46.770  26.834  29.558  1.00  0.00     0.031 A 
ATOM     47  C   UNL A   1      41.022  29.908  29.668  1.00  0.00     0.049 A 
ATOM     48  C   UNL A   1      46.349  28.229  29.935  1.00  0.00     0.074 A 
ATOM     49  C   UNL A   1      40.752  31.198  30.088  1.00  0.00     0.029 A 
ATOM     50  N   UNL A   1      42.385  29.712  29.816  1.00  0.00    -0.354 N 
ATOM     51  N   UNL A   1      45.149  28.756  29.944  1.00  0.00    -0.248 NA
ATOM     52  C   UNL A   1      47.413  29.147  30.369  1.00  0.00     0.031 C 
ATOM     53  C   UNL A   1      41.960  31.797  30.460  1.00  0.00     0.029 A 
ATOM     54  C   UNL A   1      42.971  30.862  30.317  1.00  0.00     0.049 A 
ATOM     55  H   UNL A   1      42.865  28.881  29.598  1.00  0.00     0.167 HD
ATOM     56  C   UNL A   1      45.309  30.051  30.420  1.00  0.00     0.074 A 
ATOM     57  C   UNL A   1      46.720  30.227  30.697  1.00  0.00     0.031 C 
ATOM     58  C   UNL A   1      44.370  31.008  30.612  1.00  0.00     0.031 A 
BRANCH  45  59
ATOM     59  C   UNL A   1      38.651  29.283  29.076  1.00  0.00    -0.014 A 
ATOM     60  C   UNL A   1      37.807  29.195  30.194  1.00  0.00     0.009 A 
ATOM     61  C   UNL A   1      38.131  29.774  27.868  1.00  0.00     0.009 A 
ATOM     62  C   UNL A   1      36.465  29.567  30.097  1.00  0.00     0.001 A 
ATOM     63  C   UNL A   1      36.796  30.170  27.781  1.00  0.00     0.001 A 
ATOM     64  C   UNL A   1      35.962  30.060  28.894  1.00  0.00     0.000 A 
ENDBRANCH  45  59
BRANCH  46  65
ATOM     65  C   UNL A   1      48.201  26.439  29.629  1.00  0.00    -0.014 A 
ATOM     66  C   UNL A   1      48.717  25.846  30.792  1.00  0.00     0.009 A 
ATOM     67  C   UNL A   1      49.067  26.687  28.553  1.00  0.00     0.009 A 
ATOM     68  C   UNL A   1      50.077  25.548  30.891  1.00  0.00     0.001 A 
ATOM     69  C   UNL A   1      50.421  26.360  28.643  1.00  0.00     0.001 A 
ATOM     70  C   UNL A   1      50.929  25.802  29.817  1.00  0.00     0.000 A 
ENDBRANCH  46  65
BRANCH  58  71
ATOM     71  C   UNL A   1      44.823  32.309  31.212  1.00  0.00    -0.014 A 
ATOM     72  C   UNL A   1      45.229  33.382  30.406  1.00  0.00     0.009 A 
ATOM     73  C   UNL A   1      44.787  32.475  32.605  1.00  0.00     0.009 A 
ATOM     74  C   UNL A   1      45.617  34.591  30.988  1.00  0.00     0.001 A 
ATOM     75  C   UNL A   1      45.149  33.692  33.182  1.00  0.00     0.001 A 
ATOM     76  C   UNL A   1      45.570  34.747  32.374  1.00  0.00     0.000 A 
ENDBRANCH  58  71
ENDBRANCH  32  33
ENDBRANCH  24  27
ENDBRANCH  22  23
ENDBRANCH   1  22
TORSDOF 12
ENDMDL
MODEL 2
REMARK VINA RESULT:     -11.6      4.800      9.784
REMARK SMILES CC(=O)Nc1ccc2sc(C(=O)NCCCCNC(=O)c3ccc(-c4c5nc(c(-c6ccccc6)c6ccc([nH]6)c(-c6ccccc6)c6nc(c(-c7ccccc7)c7ccc4[nH]7)C=C6)C=C5)cc3)cc2c1
REMARK SMILES IDX 16 1 15 2 14 3 13 4 11 5 12 6 10 8 5 9 6 10 71 11 7 12 70 13
REMARK SMILES IDX 8 14 69 15 9 16 4 17 1 18 2 19 3 20 17 22 18 23 19 24 20 26
REMARK SMILES IDX 21 27 22 28 68 29 23 30 67 31 24 32 25 33 26 34 61 35 27 36
REMARK SMILES IDX 66 37 60 38 62 39 28 40 65 41 59 42 58 43 29 45 51 46 36 47
REMARK SMILES IDX 50 48 37 49 40 50 49 51 63 52 38 53 39 54 48 56 64 57 41 58
REMARK SMILES IDX 30 59 31 60 35 61 32 62 34 63 33 64 52 65 53 66 57 67 54 68
REMARK SMILES IDX 56 69 55 70 42 71 43 72 47 73 44 74 46 75 45 76
REMARK H PARENT 13 7 4 21 18 25 62 44 40 55
REMARK Flexibility Score: inf
ROOT
ATOM      1  C   UNL A   1      31.812  30.347  26.896  1.00  0.00     0.023 C 
ENDROOT
BRANCH   1   2
ATOM      2  C   UNL A   1      32.310  28.898  26.836  1.00  0.00     0.023 C 
BRANCH   2   3
ATOM      3  C   UNL A   1      33.606  28.720  26.044  1.00  0.00     0.116 C 
BRANCH   3   4
ATOM      4  N   UNL A   1      33.688  27.392  25.470  1.00  0.00    -0.351 N 
ATOM      5  C   UNL A   1      32.891  26.705  24.586  1.00  0.00     0.261 C 
ATOM      6  O   UNL A   1      33.308  25.580  24.288  1.00  0.00    -0.268 OA
ATOM      7  H   UNL A   1      34.471  26.879  25.775  1.00  0.00     0.163 HD
BRANCH   5   8
ATOM      8  C   UNL A   1      31.680  27.244  23.978  1.00  0.00     0.093 A 
ATOM      9  C   UNL A   1      28.541  30.167  21.893  1.00  0.00     0.041 A 
ATOM     10  C   UNL A   1      27.604  29.335  22.497  1.00  0.00     0.027 A 
ATOM     11  C   UNL A   1      29.902  29.846  21.963  1.00  0.00     0.035 A 
ATOM     12  C   UNL A   1      28.003  28.197  23.201  1.00  0.00     0.022 A 
ATOM     13  C   UNL A   1      30.338  28.747  22.743  1.00  0.00    -0.005 A 
ATOM     14  C   UNL A   1      29.377  27.929  23.330  1.00  0.00     0.035 A 
ATOM     15  C   UNL A   1      31.658  28.316  23.098  1.00  0.00     0.034 A 
ATOM     16  S   UNL A   1      30.107  26.618  24.155  1.00  0.00    -0.130 S 
BRANCH   9  17
ATOM     17  N   UNL A   1      28.188  31.315  21.168  1.00  0.00    -0.326 N 
ATOM     18  C   UNL A   1      28.733  33.040  22.872  1.00  0.00     0.114 C 
ATOM     19  C   UNL A   1      28.099  32.618  21.572  1.00  0.00     0.221 C 
ATOM     20  O   UNL A   1      27.573  33.446  20.827  1.00  0.00    -0.275 OA
ATOM     21  H   UNL A   1      27.970  31.158  20.222  1.00  0.00     0.169 HD
ENDBRANCH   9  17
ENDBRANCH   5   8
ENDBRANCH   3   4
ENDBRANCH   2   3
ENDBRANCH   1   2
BRANCH   1  22
ATOM     22  C   UNL A   1      32.908  31.411  26.919  1.00  0.00     0.116 C 
BRANCH  22  23
ATOM     23  N   UNL A   1      32.433  32.724  27.326  1.00  0.00    -0.352 N 
ATOM     24  C   UNL A   1      33.049  33.633  28.151  1.00  0.00     0.251 C 
ATOM     25  H   UNL A   1      31.559  32.996  26.964  1.00  0.00     0.163 HD
ATOM     26  O   UNL A   1      32.477  34.668  28.482  1.00  0.00    -0.269 OA
BRANCH  24  27
ATOM     27  C   UNL A   1      34.396  33.332  28.672  1.00  0.00     0.039 A 
ATOM     28  C   UNL A   1      34.513  32.668  29.896  1.00  0.00     0.014 A 
ATOM     29  C   UNL A   1      35.534  33.666  27.935  1.00  0.00     0.014 A 
ATOM     30  C   UNL A   1      35.773  32.270  30.347  1.00  0.00     0.010 A 
ATOM     31  C   UNL A   1      36.782  33.216  28.354  1.00  0.00     0.010 A 
ATOM     32  C   UNL A   1      36.912  32.507  29.559  1.00  0.00    -0.014 A 
BRANCH  32  33
ATOM     33  C   UNL A   1      38.252  32.022  29.970  1.00  0.00     0.031 A 
ATOM     34  C   UNL A   1      38.747  30.689  29.480  1.00  0.00     0.074 A 
ATOM     35  C   UNL A   1      38.989  32.740  30.841  1.00  0.00     0.049 A 
ATOM     36  N   UNL A   1      39.829  30.036  29.819  1.00  0.00    -0.248 NA
ATOM     37  C   UNL A   1      37.903  29.990  28.496  1.00  0.00     0.031 C 
ATOM     38  C   UNL A   1      38.612  34.038  31.407  1.00  0.00     0.029 A 
ATOM     39  N   UNL A   1      40.207  32.470  31.411  1.00  0.00    -0.354 N 
ATOM     40  C   UNL A   1      39.789  28.847  29.101  1.00  0.00     0.074 A 
ATOM     41  C   UNL A   1      38.556  28.847  28.345  1.00  0.00     0.031 C 
ATOM     42  C   UNL A   1      39.586  34.457  32.230  1.00  0.00     0.029 A 
ATOM     43  C   UNL A   1      40.634  33.442  32.286  1.00  0.00     0.049 A 
ATOM     44  H   UNL A   1      40.727  31.658  31.215  1.00  0.00     0.167 HD
ATOM     45  C   UNL A   1      40.706  27.853  29.060  1.00  0.00     0.031 A 
ATOM     46  C   UNL A   1      41.737  33.501  33.055  1.00  0.00     0.031 A 
ATOM     47  C   UNL A   1      41.937  27.854  29.803  1.00  0.00     0.049 A 
ATOM     48  C   UNL A   1      42.725  32.366  33.011  1.00  0.00     0.074 A 
ATOM     49  C   UNL A   1      42.940  26.900  29.811  1.00  0.00     0.029 A 
ATOM     50  N   UNL A   1      42.338  28.866  30.659  1.00  0.00    -0.354 N 
ATOM     51  N   UNL A   1      42.688  31.265  32.301  1.00  0.00    -0.248 NA
ATOM     52  C   UNL A   1      43.913  32.489  33.869  1.00  0.00     0.031 C 
ATOM     53  C   UNL A   1      43.935  27.320  30.699  1.00  0.00     0.029 A 
ATOM     54  C   UNL A   1      43.572  28.557  31.205  1.00  0.00     0.049 A 
ATOM     55  H   UNL A   1      41.823  29.683  30.851  1.00  0.00     0.167 HD
ATOM     56  C   UNL A   1      43.862  30.586  32.595  1.00  0.00     0.074 A 
ATOM     57  C   UNL A   1      44.595  31.401  33.542  1.00  0.00     0.031 C 
ATOM     58  C   UNL A   1      44.297  29.393  32.123  1.00  0.00     0.031 A 
BRANCH  45  59
ATOM     59  C   UNL A   1      40.417  26.678  28.170  1.00  0.00    -0.014 A 
ATOM     60  C   UNL A   1      39.602  25.624  28.613  1.00  0.00     0.009 A 
ATOM     61  C   UNL A   1      40.916  26.648  26.859  1.00  0.00     0.009 A 
ATOM     62  C   UNL A   1      39.314  24.551  27.769  1.00  0.00     0.001 A 
ATOM     63  C   UNL A   1      40.604  25.586  26.008  1.00  0.00     0.001 A 
ATOM     64  C   UNL A   1      39.809  24.536  26.465  1.00  0.00     0.000 A 
ENDBRANCH  45  59
BRANCH  46  65
ATOM     65  C   UNL A   1      41.982  34.672  33.936  1.00  0.00    -0.014 A 
ATOM     66  C   UNL A   1      41.526  34.670  35.263  1.00  0.00     0.009 A 
ATOM     67  C   UNL A   1      42.636  35.813  33.445  1.00  0.00     0.009 A 
ATOM     68  C   UNL A   1      41.684  35.801  36.068  1.00  0.00     0.001 A 
ATOM     69  C   UNL A   1      42.819  36.931  34.261  1.00  0.00     0.001 A 
ATOM     70  C   UNL A   1      42.331  36.930  35.568  1.00  0.00     0.000 A 
ENDBRANCH  46  65
BRANCH  58  71
ATOM     71  C   UNL A   1      45.654  28.928  32.565  1.00  0.00    -0.014 A 
ATOM     72  C   UNL A   1      45.814  28.113  33.696  1.00  0.00     0.009 A 
ATOM     73  C   UNL A   1      46.782  29.267  31.802  1.00  0.00     0.009 A 
ATOM     74  C   UNL A   1      47.085  27.669  34.068  1.00  0.00     0.001 A 
ATOM     75  C   UNL A   1      48.046  28.801  32.161  1.00  0.00     0.001 A 
ATOM     76  C   UNL A   1      48.198  28.007  33.297  1.00  0.00     0.000 A 
ENDBRANCH  58  71
ENDBRANCH  32  33
ENDBRANCH  24  27
ENDBRANCH  22  23
ENDBRANCH   1  22
TORSDOF 12
ENDMDL
MODEL 3
REMARK VINA RESULT:     -11.4      0.441      6.075
REMARK SMILES CC(=O)Nc1ccc2sc(C(=O)NCCCCNC(=O)c3ccc(-c4c5nc(c(-c6ccccc6)c6ccc([nH]6)c(-c6ccccc6)c6nc(c(-c7ccccc7)c7ccc4[nH]7)C=C6)C=C5)cc3)cc2c1
REMARK SMILES IDX 16 1 15 2 14 3 13 4 11 5 12 6 10 8 5 9 6 10 71 11 7 12 70 13
REMARK SMILES IDX 8 14 69 15 9 16 4 17 1 18 2 19 3 20 17 22 18 23 19 24 20 26
REMARK SMILES IDX 21 27 22 28 68 29 23 30 67 31 24 32 25 33 26 34 61 35 27 36
REMARK SMILES IDX 66 37 60 38 62 39 28 40 65 41 59 42 58 43 29 45 51 46 36 47
REMARK SMILES IDX 50 48 37 49 40 50 49 51 63 52 38 53 39 54 48 56 64 57 41 58
REMARK SMILES IDX 30 59 31 60 35 61 32 62 34 63 33 64 52 65 53 66 57 67 54 68
REMARK SMILES IDX 56 69 55 70 42 71 43 72 47 73 44 74 46 75 45 76
REMARK H PARENT 13 7 4 21 18 25 62 44 40 55
REMARK Flexibility Score: inf
ROOT
ATOM      1  C   UNL A   1      37.561  20.825  24.677  1.00  0.00     0.023 C 
ENDROOT
BRANCH   1   2
ATOM      2  C   UNL A   1      36.729  22.109  24.576  1.00  0.00     0.023 C 
BRANCH   2   3
ATOM      3  C   UNL A   1      36.629  22.889  25.888  1.00  0.00     0.116 C 
BRANCH   3   4
ATOM      4  N   UNL A   1      35.480  23.771  25.884  1.00  0.00    -0.351 N 
ATOM      5  C   UNL A   1      34.160  23.587  25.548  1.00  0.00     0.261 C 
ATOM      6  O   UNL A   1      33.446  24.582  25.713  1.00  0.00    -0.268 OA
ATOM      7  H   UNL A   1      35.687  24.688  26.180  1.00  0.00     0.163 HD
BRANCH   5   8
ATOM      8  C   UNL A   1      33.596  22.323  25.091  1.00  0.00     0.093 A 
ATOM      9  C   UNL A   1      32.548  17.689  24.664  1.00  0.00     0.041 A 
ATOM     10  C   UNL A   1      32.288  18.032  23.342  1.00  0.00     0.027 A 
ATOM     11  C   UNL A   1      32.854  18.692  25.593  1.00  0.00     0.035 A 
ATOM     12  C   UNL A   1      32.356  19.361  22.918  1.00  0.00     0.022 A 
ATOM     13  C   UNL A   1      33.014  20.033  25.171  1.00  0.00    -0.005 A 
ATOM     14  C   UNL A   1      32.739  20.347  23.844  1.00  0.00     0.035 A 
ATOM     15  C   UNL A   1      33.471  21.191  25.882  1.00  0.00     0.034 A 
ATOM     16  S   UNL A   1      32.912  22.026  23.560  1.00  0.00    -0.130 S 
BRANCH   9  17
ATOM     17  N   UNL A   1      32.483  16.371  25.138  1.00  0.00    -0.326 N 
ATOM     18  C   UNL A   1      34.915  15.859  25.214  1.00  0.00     0.114 C 
ATOM     19  C   UNL A   1      33.470  15.434  25.270  1.00  0.00     0.221 C 
ATOM     20  O   UNL A   1      33.164  14.266  25.518  1.00  0.00    -0.275 OA
ATOM     21  H   UNL A   1      31.589  16.073  25.419  1.00  0.00     0.169 HD
ENDBRANCH   9  17
ENDBRANCH   5   8
ENDBRANCH   3   4
ENDBRANCH   2   3
ENDBRANCH   1   2
BRANCH   1  22
ATOM     22  C   UNL A   1      38.548  20.780  25.841  1.00  0.00     0.116 C 
BRANCH  22  23
ATOM     23  N   UNL A   1      39.579  19.765  25.688  1.00  0.00    -0.352 N 
ATOM     24  C   UNL A   1      40.921  19.867  25.962  1.00  0.00     0.251 C 
ATOM     25  H   UNL A   1      39.276  18.893  25.345  1.00  0.00     0.163 HD
ATOM     26  O   UNL A   1      41.688  18.949  25.689  1.00  0.00    -0.269 OA
BRANCH  24  27
ATOM     27  C   UNL A   1      41.440  21.117  26.551  1.00  0.00     0.039 A 
ATOM     28  C   UNL A   1      42.004  22.077  25.708  1.00  0.00     0.014 A 
ATOM     29  C   UNL A   1      41.329  21.355  27.923  1.00  0.00     0.014 A 
ATOM     30  C   UNL A   1      42.391  23.312  26.231  1.00  0.00     0.010 A 
ATOM     31  C   UNL A   1      41.658  22.607  28.433  1.00  0.00     0.010 A 
ATOM     32  C   UNL A   1      42.185  23.599  27.591  1.00  0.00    -0.014 A 
BRANCH  32  33
ATOM     33  C   UNL A   1      42.506  24.931  28.158  1.00  0.00     0.031 A 
ATOM     34  C   UNL A   1      43.900  25.222  28.641  1.00  0.00     0.074 A 
ATOM     35  C   UNL A   1      41.531  25.850  28.309  1.00  0.00     0.049 A 
ATOM     36  N   UNL A   1      44.351  26.274  29.275  1.00  0.00    -0.248 NA
ATOM     37  C   UNL A   1      44.916  24.184  28.395  1.00  0.00     0.031 C 
ATOM     38  C   UNL A   1      40.134  25.683  27.902  1.00  0.00     0.029 A 
ATOM     39  N   UNL A   1      41.568  27.106  28.860  1.00  0.00    -0.354 N 
ATOM     40  C   UNL A   1      45.695  26.019  29.516  1.00  0.00     0.074 A 
ATOM     41  C   UNL A   1      45.977  24.697  29.002  1.00  0.00     0.031 C 
ATOM     42  C   UNL A   1      39.453  26.800  28.203  1.00  0.00     0.029 A 
ATOM     43  C   UNL A   1      40.350  27.743  28.862  1.00  0.00     0.049 A 
ATOM     44  H   UNL A   1      42.389  27.513  29.222  1.00  0.00     0.167 HD
ATOM     45  C   UNL A   1      46.618  26.822  30.095  1.00  0.00     0.031 A 
ATOM     46  C   UNL A   1      39.995  28.946  29.353  1.00  0.00     0.031 A 
ATOM     47  C   UNL A   1      46.343  28.141  30.598  1.00  0.00     0.049 A 
ATOM     48  C   UNL A   1      41.036  29.804  30.020  1.00  0.00     0.074 A 
ATOM     49  C   UNL A   1      47.218  29.039  31.184  1.00  0.00     0.029 A 
ATOM     50  N   UNL A   1      45.102  28.754  30.561  1.00  0.00    -0.354 N 
ATOM     51  N   UNL A   1      42.310  29.561  30.208  1.00  0.00    -0.248 NA
ATOM     52  C   UNL A   1      40.589  31.109  30.531  1.00  0.00     0.031 C 
ATOM     53  C   UNL A   1      46.498  30.185  31.533  1.00  0.00     0.029 A 
ATOM     54  C   UNL A   1      45.187  30.018  31.119  1.00  0.00     0.049 A 
ATOM     55  H   UNL A   1      44.282  28.352  30.193  1.00  0.00     0.167 HD
ATOM     56  C   UNL A   1      42.823  30.696  30.822  1.00  0.00     0.074 A 
ATOM     57  C   UNL A   1      41.726  31.630  30.968  1.00  0.00     0.031 C 
ATOM     58  C   UNL A   1      44.092  30.943  31.229  1.00  0.00     0.031 A 
BRANCH  45  59
ATOM     59  C   UNL A   1      48.020  26.298  30.208  1.00  0.00    -0.014 A 
ATOM     60  C   UNL A   1      48.481  25.728  31.406  1.00  0.00     0.009 A 
ATOM     61  C   UNL A   1      48.874  26.324  29.094  1.00  0.00     0.009 A 
ATOM     62  C   UNL A   1      49.776  25.216  31.493  1.00  0.00     0.001 A 
ATOM     63  C   UNL A   1      50.160  25.788  29.177  1.00  0.00     0.001 A 
ATOM     64  C   UNL A   1      50.612  25.240  30.377  1.00  0.00     0.000 A 
ENDBRANCH  45  59
BRANCH  46  65
ATOM     65  C   UNL A   1      38.592  29.424  29.237  1.00  0.00    -0.014 A 
ATOM     66  C   UNL A   1      37.695  29.256  30.303  1.00  0.00     0.009 A 
ATOM     67  C   UNL A   1      38.133  30.013  28.049  1.00  0.00     0.009 A 
ATOM     68  C   UNL A   1      36.356  29.632  30.167  1.00  0.00     0.001 A 
ATOM     69  C   UNL A   1      36.801  30.415  27.927  1.00  0.00     0.001 A 
ATOM     70  C   UNL A   1      35.910  30.213  28.981  1.00  0.00     0.000 A 
ENDBRANCH  46  65
BRANCH  58  71
ATOM     71  C   UNL A   1      44.380  32.299  31.806  1.00  0.00    -0.014 A 
ATOM     72  C   UNL A   1      44.295  32.539  33.185  1.00  0.00     0.009 A 
ATOM     73  C   UNL A   1      44.799  33.334  30.957  1.00  0.00     0.009 A 
ATOM     74  C   UNL A   1      44.598  33.801  33.699  1.00  0.00     0.001 A 
ATOM     75  C   UNL A   1      45.126  34.587  31.475  1.00  0.00     0.001 A 
ATOM     76  C   UNL A   1      45.020  34.821  32.846  1.00  0.00     0.000 A 
ENDBRANCH  58  71
ENDBRANCH  32  33
ENDBRANCH  24  27
ENDBRANCH  22  23
ENDBRANCH   1  22
TORSDOF 12
ENDMDL
