MODEL 1
REMARK VINA RESULT:     -10.0      0.000      0.000
REMARK SMILES [NH3+]CCOCC(=O)N[C@]1(C(=O)NCCCCNC(=O)c2ccc(-c3c4nc(c(-c5ccccc5)c5ccc([nH]5)c(-c5ccccc5)c5nc(c(-c6ccccc6)c6ccc3[nH]6)C=C5)C=C4)cc2)CCOC1
REMARK SMILES IDX 10 1 11 2 12 3 9 5 68 6 71 7 69 8 70 9 8 10 6 11 7 12 5 14
REMARK SMILES IDX 4 15 3 16 2 17 1 18 13 22 14 23 15 24 16 25 17 26 18 27
REMARK SMILES IDX 19 29 20 30 21 31 67 32 22 33 66 34 23 35 24 36 25 37 60 38
REMARK SMILES IDX 26 39 65 40 59 41 61 42 27 43 64 44 58 45 57 46 28 48 50 49
REMARK SMILES IDX 35 50 49 51 36 52 39 53 48 54 62 55 37 56 38 57 47 59 63 60
REMARK SMILES IDX 40 61 29 62 30 63 34 64 31 65 33 66 32 67 51 68 52 69 56 70
REMARK SMILES IDX 53 71 55 72 54 73 41 74 42 75 46 76 43 77 45 78 44 79
REMARK H PARENT 12 4 8 13 1 19 1 20 1 21 17 28 61 47 39 58
REMARK Flexibility Score: inf
ROOT
ATOM      1  C   UNL A   1      33.101  28.638  23.801  1.00  0.00     0.248 C 
ATOM      2  O   UNL A   1      33.782  29.049  22.856  1.00  0.00    -0.272 OA
ATOM      3  N   UNL A   1      32.575  29.592  24.628  1.00  0.00    -0.354 N 
ATOM      4  H   UNL A   1      32.865  30.511  24.424  1.00  0.00     0.163 HD
ENDROOT
BRANCH   1   5
ATOM      5  C   UNL A   1      32.879  27.116  24.031  1.00  0.00     0.144 C 
ATOM      6  C   UNL A   1      33.390  26.307  22.832  1.00  0.00     0.069 C 
ATOM      7  C   UNL A   1      33.740  26.591  25.183  1.00  0.00     0.198 C 
ATOM      8  C   UNL A   1      33.878  25.029  23.472  1.00  0.00     0.163 C 
ATOM      9  O   UNL A   1      34.409  25.396  24.745  1.00  0.00    -0.378 OA
BRANCH   5  10
ATOM     10  N   UNL A   1      31.412  26.835  24.089  1.00  0.00    -0.338 N 
ATOM     11  C   UNL A   1      30.308  27.133  23.363  1.00  0.00     0.246 C 
ATOM     12  O   UNL A   1      29.254  26.584  23.705  1.00  0.00    -0.272 OA
ATOM     13  H   UNL A   1      31.186  26.281  24.871  1.00  0.00     0.164 HD
BRANCH  11  14
ATOM     14  C   UNL A   1      30.299  28.143  22.210  1.00  0.00     0.260 C 
BRANCH  14  15
ATOM     15  O   UNL A   1      30.126  29.530  22.432  1.00  0.00    -0.366 OA
BRANCH  15  16
ATOM     16  C   UNL A   1      28.974  29.922  23.177  1.00  0.00     0.222 C 
BRANCH  16  17
ATOM     17  C   UNL A   1      27.678  29.617  22.419  1.00  0.00     0.287 C 
BRANCH  17  18
ATOM     18  N   UNL A   1      26.890  28.548  23.034  1.00  0.00    -0.356 N 
ATOM     19  H   UNL A   1      26.900  28.659  24.048  1.00  0.00     0.344 HD
ATOM     20  H   UNL A   1      27.292  27.643  22.787  1.00  0.00     0.344 HD
ATOM     21  H   UNL A   1      25.929  28.596  22.696  1.00  0.00     0.344 HD
ENDBRANCH  17  18
ENDBRANCH  16  17
ENDBRANCH  15  16
ENDBRANCH  14  15
ENDBRANCH  11  14
ENDBRANCH   5  10
ENDBRANCH   1   5
BRANCH   3  22
ATOM     22  C   UNL A   1      31.663  29.486  25.758  1.00  0.00     0.116 C 
BRANCH  22  23
ATOM     23  C   UNL A   1      32.097  30.321  26.956  1.00  0.00     0.023 C 
BRANCH  23  24
ATOM     24  C   UNL A   1      31.833  31.817  26.828  1.00  0.00     0.023 C 
BRANCH  24  25
ATOM     25  C   UNL A   1      32.942  32.720  27.352  1.00  0.00     0.116 C 
BRANCH  25  26
ATOM     26  N   UNL A   1      32.497  34.075  27.652  1.00  0.00    -0.352 N 
ATOM     27  C   UNL A   1      33.000  34.968  28.570  1.00  0.00     0.251 C 
ATOM     28  H   UNL A   1      31.731  34.396  27.124  1.00  0.00     0.163 HD
ATOM     29  O   UNL A   1      32.451  36.043  28.762  1.00  0.00    -0.269 OA
BRANCH  27  30
ATOM     30  C   UNL A   1      34.189  34.587  29.356  1.00  0.00     0.039 A 
ATOM     31  C   UNL A   1      34.009  34.077  30.644  1.00  0.00     0.014 A 
ATOM     32  C   UNL A   1      35.464  34.663  28.792  1.00  0.00     0.014 A 
ATOM     33  C   UNL A   1      35.105  33.557  31.334  1.00  0.00     0.010 A 
ATOM     34  C   UNL A   1      36.537  34.071  29.446  1.00  0.00     0.010 A 
ATOM     35  C   UNL A   1      36.367  33.506  30.720  1.00  0.00    -0.014 A 
BRANCH  35  36
ATOM     36  C   UNL A   1      37.523  32.855  31.382  1.00  0.00     0.031 A 
ATOM     37  C   UNL A   1      38.196  31.681  30.730  1.00  0.00     0.074 A 
ATOM     38  C   UNL A   1      37.912  33.266  32.604  1.00  0.00     0.049 A 
ATOM     39  N   UNL A   1      39.160  30.924  31.189  1.00  0.00    -0.248 NA
ATOM     40  C   UNL A   1      37.699  31.285  29.402  1.00  0.00     0.031 C 
ATOM     41  C   UNL A   1      37.310  34.364  33.365  1.00  0.00     0.029 A 
ATOM     42  N   UNL A   1      38.904  32.798  33.429  1.00  0.00    -0.354 N 
ATOM     43  C   UNL A   1      39.368  29.952  30.218  1.00  0.00     0.074 A 
ATOM     44  C   UNL A   1      38.399  30.185  29.169  1.00  0.00     0.031 C 
ATOM     45  C   UNL A   1      37.963  34.501  34.531  1.00  0.00     0.029 A 
ATOM     46  C   UNL A   1      38.998  33.478  34.618  1.00  0.00     0.049 A 
ATOM     47  H   UNL A   1      39.492  32.046  33.190  1.00  0.00     0.167 HD
ATOM     48  C   UNL A   1      40.294  28.966  30.192  1.00  0.00     0.031 A 
ATOM     49  C   UNL A   1      39.824  33.294  35.666  1.00  0.00     0.031 A 
ATOM     50  C   UNL A   1      41.271  28.747  31.223  1.00  0.00     0.049 A 
ATOM     51  C   UNL A   1      40.844  32.191  35.613  1.00  0.00     0.074 A 
ATOM     52  C   UNL A   1      42.294  27.816  31.258  1.00  0.00     0.029 A 
ATOM     53  N   UNL A   1      41.345  29.470  32.403  1.00  0.00    -0.354 N 
ATOM     54  N   UNL A   1      41.073  31.325  34.657  1.00  0.00    -0.248 NA
ATOM     55  C   UNL A   1      41.725  32.050  36.780  1.00  0.00     0.031 C 
ATOM     56  C   UNL A   1      42.961  27.948  32.480  1.00  0.00     0.029 A 
ATOM     57  C   UNL A   1      42.384  28.992  33.184  1.00  0.00     0.049 A 
ATOM     58  H   UNL A   1      40.747  30.213  32.650  1.00  0.00     0.167 HD
ATOM     59  C   UNL A   1      42.140  30.552  35.094  1.00  0.00     0.074 A 
ATOM     60  C   UNL A   1      42.522  31.061  36.396  1.00  0.00     0.031 C 
ATOM     61  C   UNL A   1      42.749  29.513  34.474  1.00  0.00     0.031 A 
BRANCH  48  62
ATOM     62  C   UNL A   1      40.289  28.047  29.003  1.00  0.00    -0.014 A 
ATOM     63  C   UNL A   1      40.996  28.368  27.833  1.00  0.00     0.009 A 
ATOM     64  C   UNL A   1      39.587  26.833  29.062  1.00  0.00     0.009 A 
ATOM     65  C   UNL A   1      40.969  27.509  26.732  1.00  0.00     0.001 A 
ATOM     66  C   UNL A   1      39.586  25.963  27.971  1.00  0.00     0.001 A 
ATOM     67  C   UNL A   1      40.268  26.307  26.804  1.00  0.00     0.000 A 
ENDBRANCH  48  62
BRANCH  49  68
ATOM     68  C   UNL A   1      39.733  34.184  36.853  1.00  0.00    -0.014 A 
ATOM     69  C   UNL A   1      38.977  33.799  37.971  1.00  0.00     0.009 A 
ATOM     70  C   UNL A   1      40.394  35.421  36.873  1.00  0.00     0.009 A 
ATOM     71  C   UNL A   1      38.864  34.647  39.075  1.00  0.00     0.001 A 
ATOM     72  C   UNL A   1      40.300  36.256  37.989  1.00  0.00     0.001 A 
ATOM     73  C   UNL A   1      39.529  35.872  39.085  1.00  0.00     0.000 A 
ENDBRANCH  49  68
BRANCH  61  74
ATOM     74  C   UNL A   1      43.913  28.878  35.181  1.00  0.00    -0.014 A 
ATOM     75  C   UNL A   1      43.731  27.798  36.056  1.00  0.00     0.009 A 
ATOM     76  C   UNL A   1      45.214  29.341  34.928  1.00  0.00     0.009 A 
ATOM     77  C   UNL A   1      44.829  27.210  36.687  1.00  0.00     0.001 A 
ATOM     78  C   UNL A   1      46.312  28.734  35.538  1.00  0.00     0.001 A 
ATOM     79  C   UNL A   1      46.118  27.675  36.423  1.00  0.00     0.000 A 
ENDBRANCH  61  74
ENDBRANCH  35  36
ENDBRANCH  27  30
ENDBRANCH  25  26
ENDBRANCH  24  25
ENDBRANCH  23  24
ENDBRANCH  22  23
ENDBRANCH   3  22
TORSDOF 17
ENDMDL
MODEL 2
REMARK VINA RESULT:      -9.9      0.843      6.106
REMARK SMILES [NH3+]CCOCC(=O)N[C@]1(C(=O)NCCCCNC(=O)c2ccc(-c3c4nc(c(-c5ccccc5)c5ccc([nH]5)c(-c5ccccc5)c5nc(c(-c6ccccc6)c6ccc3[nH]6)C=C5)C=C4)cc2)CCOC1
REMARK SMILES IDX 10 1 11 2 12 3 9 5 68 6 71 7 69 8 70 9 8 10 6 11 7 12 5 14
REMARK SMILES IDX 4 15 3 16 2 17 1 18 13 22 14 23 15 24 16 25 17 26 18 27
REMARK SMILES IDX 19 29 20 30 21 31 67 32 22 33 66 34 23 35 24 36 25 37 60 38
REMARK SMILES IDX 26 39 65 40 59 41 61 42 27 43 64 44 58 45 57 46 28 48 50 49
REMARK SMILES IDX 35 50 49 51 36 52 39 53 48 54 62 55 37 56 38 57 47 59 63 60
REMARK SMILES IDX 40 61 29 62 30 63 34 64 31 65 33 66 32 67 51 68 52 69 56 70
REMARK SMILES IDX 53 71 55 72 54 73 41 74 42 75 46 76 43 77 45 78 44 79
REMARK H PARENT 12 4 8 13 1 19 1 20 1 21 17 28 61 47 39 58
REMARK Flexibility Score: inf
ROOT
ATOM      1  C   UNL A   1      33.083  28.624  23.804  1.00  0.00     0.248 C 
ATOM      2  O   UNL A   1      33.844  28.853  22.859  1.00  0.00    -0.272 OA
ATOM      3  N   UNL A   1      32.501  29.715  24.391  1.00  0.00    -0.354 N 
ATOM      4  H   UNL A   1      32.817  30.580  24.043  1.00  0.00     0.163 HD
ENDROOT
BRANCH   1   5
ATOM      5  C   UNL A   1      32.826  27.172  24.297  1.00  0.00     0.144 C 
ATOM      6  C   UNL A   1      33.346  26.153  23.274  1.00  0.00     0.069 C 
ATOM      7  C   UNL A   1      33.654  26.848  25.544  1.00  0.00     0.198 C 
ATOM      8  C   UNL A   1      33.796  25.003  24.143  1.00  0.00     0.163 C 
ATOM      9  O   UNL A   1      34.307  25.583  25.342  1.00  0.00    -0.378 OA
BRANCH   5  10
ATOM     10  N   UNL A   1      31.353  26.929  24.370  1.00  0.00    -0.338 N 
ATOM     11  C   UNL A   1      30.268  27.133  23.586  1.00  0.00     0.246 C 
ATOM     12  O   UNL A   1      29.197  26.661  23.988  1.00  0.00    -0.272 OA
ATOM     13  H   UNL A   1      31.104  26.505  25.223  1.00  0.00     0.164 HD
BRANCH  11  14
ATOM     14  C   UNL A   1      30.297  27.954  22.293  1.00  0.00     0.260 C 
BRANCH  14  15
ATOM     15  O   UNL A   1      30.084  29.354  22.291  1.00  0.00    -0.366 OA
BRANCH  15  16
ATOM     16  C   UNL A   1      28.803  29.807  21.858  1.00  0.00     0.222 C 
BRANCH  16  17
ATOM     17  C   UNL A   1      27.771  29.756  22.989  1.00  0.00     0.287 C 
BRANCH  17  18
ATOM     18  N   UNL A   1      26.886  28.592  22.908  1.00  0.00    -0.356 N 
ATOM     19  H   UNL A   1      26.559  28.349  23.843  1.00  0.00     0.344 HD
ATOM     20  H   UNL A   1      27.397  27.804  22.510  1.00  0.00     0.344 HD
ATOM     21  H   UNL A   1      26.087  28.813  22.316  1.00  0.00     0.344 HD
ENDBRANCH  17  18
ENDBRANCH  16  17
ENDBRANCH  15  16
ENDBRANCH  14  15
ENDBRANCH  11  14
ENDBRANCH   5  10
ENDBRANCH   1   5
BRANCH   3  22
ATOM     22  C   UNL A   1      31.498  29.818  25.442  1.00  0.00     0.116 C 
BRANCH  22  23
ATOM     23  C   UNL A   1      32.047  30.409  26.734  1.00  0.00     0.023 C 
BRANCH  23  24
ATOM     24  C   UNL A   1      31.691  31.872  26.975  1.00  0.00     0.023 C 
BRANCH  24  25
ATOM     25  C   UNL A   1      32.874  32.794  27.245  1.00  0.00     0.116 C 
BRANCH  25  26
ATOM     26  N   UNL A   1      32.485  34.131  27.672  1.00  0.00    -0.352 N 
ATOM     27  C   UNL A   1      33.058  34.934  28.632  1.00  0.00     0.251 C 
ATOM     28  H   UNL A   1      31.705  34.514  27.210  1.00  0.00     0.163 HD
ATOM     29  O   UNL A   1      32.552  36.004  28.935  1.00  0.00    -0.269 OA
BRANCH  27  30
ATOM     30  C   UNL A   1      34.271  34.460  29.325  1.00  0.00     0.039 A 
ATOM     31  C   UNL A   1      34.131  33.779  30.536  1.00  0.00     0.014 A 
ATOM     32  C   UNL A   1      35.529  34.621  28.740  1.00  0.00     0.014 A 
ATOM     33  C   UNL A   1      35.248  33.180  31.118  1.00  0.00     0.010 A 
ATOM     34  C   UNL A   1      36.623  33.954  29.278  1.00  0.00     0.010 A 
ATOM     35  C   UNL A   1      36.492  33.221  30.468  1.00  0.00    -0.014 A 
BRANCH  35  36
ATOM     36  C   UNL A   1      37.669  32.496  31.002  1.00  0.00     0.031 A 
ATOM     37  C   UNL A   1      38.383  33.018  32.217  1.00  0.00     0.074 A 
ATOM     38  C   UNL A   1      38.144  31.418  30.349  1.00  0.00     0.049 A 
ATOM     39  N   UNL A   1      39.479  32.578  32.782  1.00  0.00    -0.248 NA
ATOM     40  C   UNL A   1      37.808  34.209  32.863  1.00  0.00     0.031 C 
ATOM     41  C   UNL A   1      37.569  30.839  29.131  1.00  0.00     0.029 A 
ATOM     42  N   UNL A   1      39.230  30.622  30.612  1.00  0.00    -0.354 N 
ATOM     43  C   UNL A   1      39.736  33.450  33.831  1.00  0.00     0.074 A 
ATOM     44  C   UNL A   1      38.711  34.471  33.797  1.00  0.00     0.031 C 
ATOM     45  C   UNL A   1      38.292  29.767  28.771  1.00  0.00     0.029 A 
ATOM     46  C   UNL A   1      39.402  29.606  29.703  1.00  0.00     0.049 A 
ATOM     47  H   UNL A   1      39.828  30.765  31.380  1.00  0.00     0.167 HD
ATOM     48  C   UNL A   1      40.724  33.397  34.754  1.00  0.00     0.031 A 
ATOM     49  C   UNL A   1      40.352  28.655  29.627  1.00  0.00     0.031 A 
ATOM     50  C   UNL A   1      41.729  32.371  34.803  1.00  0.00     0.049 A 
ATOM     51  C   UNL A   1      41.439  28.617  30.664  1.00  0.00     0.074 A 
ATOM     52  C   UNL A   1      42.733  32.192  35.739  1.00  0.00     0.029 A 
ATOM     53  N   UNL A   1      41.857  31.350  33.876  1.00  0.00    -0.354 N 
ATOM     54  N   UNL A   1      41.627  29.409  31.691  1.00  0.00    -0.248 NA
ATOM     55  C   UNL A   1      42.438  27.547  30.535  1.00  0.00     0.031 C 
ATOM     56  C   UNL A   1      43.496  31.086  35.352  1.00  0.00     0.029 A 
ATOM     57  C   UNL A   1      42.938  30.549  34.204  1.00  0.00     0.049 A 
ATOM     58  H   UNL A   1      41.267  31.214  33.098  1.00  0.00     0.167 HD
ATOM     59  C   UNL A   1      42.749  28.919  32.345  1.00  0.00     0.074 A 
ATOM     60  C   UNL A   1      43.191  27.753  31.608  1.00  0.00     0.031 C 
ATOM     61  C   UNL A   1      43.360  29.392  33.458  1.00  0.00     0.031 A 
BRANCH  48  62
ATOM     62  C   UNL A   1      40.761  34.487  35.787  1.00  0.00    -0.014 A 
ATOM     63  C   UNL A   1      41.482  35.673  35.569  1.00  0.00     0.009 A 
ATOM     64  C   UNL A   1      40.045  34.339  36.985  1.00  0.00     0.009 A 
ATOM     65  C   UNL A   1      41.517  36.670  36.546  1.00  0.00     0.001 A 
ATOM     66  C   UNL A   1      40.058  35.349  37.948  1.00  0.00     0.001 A 
ATOM     67  C   UNL A   1      40.802  36.509  37.731  1.00  0.00     0.000 A 
ENDBRANCH  48  62
BRANCH  49  68
ATOM     68  C   UNL A   1      40.311  27.647  28.536  1.00  0.00    -0.014 A 
ATOM     69  C   UNL A   1      39.633  26.432  28.718  1.00  0.00     0.009 A 
ATOM     70  C   UNL A   1      40.952  27.890  27.311  1.00  0.00     0.009 A 
ATOM     71  C   UNL A   1      39.620  25.470  27.706  1.00  0.00     0.001 A 
ATOM     72  C   UNL A   1      40.915  26.936  26.291  1.00  0.00     0.001 A 
ATOM     73  C   UNL A   1      40.256  25.724  26.492  1.00  0.00     0.000 A 
ENDBRANCH  49  68
BRANCH  61  74
ATOM     74  C   UNL A   1      44.552  28.631  33.964  1.00  0.00    -0.014 A 
ATOM     75  C   UNL A   1      45.853  28.968  33.565  1.00  0.00     0.009 A 
ATOM     76  C   UNL A   1      44.368  27.591  34.890  1.00  0.00     0.009 A 
ATOM     77  C   UNL A   1      46.948  28.259  34.064  1.00  0.00     0.001 A 
ATOM     78  C   UNL A   1      45.466  26.903  35.407  1.00  0.00     0.001 A 
ATOM     79  C   UNL A   1      46.754  27.232  34.988  1.00  0.00     0.000 A 
ENDBRANCH  61  74
ENDBRANCH  35  36
ENDBRANCH  27  30
ENDBRANCH  25  26
ENDBRANCH  24  25
ENDBRANCH  23  24
ENDBRANCH  22  23
ENDBRANCH   3  22
TORSDOF 17
ENDMDL
MODEL 3
REMARK VINA RESULT:      -9.8      1.819      2.401
REMARK SMILES [NH3+]CCOCC(=O)N[C@]1(C(=O)NCCCCNC(=O)c2ccc(-c3c4nc(c(-c5ccccc5)c5ccc([nH]5)c(-c5ccccc5)c5nc(c(-c6ccccc6)c6ccc3[nH]6)C=C5)C=C4)cc2)CCOC1
REMARK SMILES IDX 10 1 11 2 12 3 9 5 68 6 71 7 69 8 70 9 8 10 6 11 7 12 5 14
REMARK SMILES IDX 4 15 3 16 2 17 1 18 13 22 14 23 15 24 16 25 17 26 18 27
REMARK SMILES IDX 19 29 20 30 21 31 67 32 22 33 66 34 23 35 24 36 25 37 60 38
REMARK SMILES IDX 26 39 65 40 59 41 61 42 27 43 64 44 58 45 57 46 28 48 50 49
REMARK SMILES IDX 35 50 49 51 36 52 39 53 48 54 62 55 37 56 38 57 47 59 63 60
REMARK SMILES IDX 40 61 29 62 30 63 34 64 31 65 33 66 32 67 51 68 52 69 56 70
REMARK SMILES IDX 53 71 55 72 54 73 41 74 42 75 46 76 43 77 45 78 44 79
REMARK H PARENT 12 4 8 13 1 19 1 20 1 21 17 28 61 47 39 58
REMARK Flexibility Score: inf
ROOT
ATOM      1  C   UNL A   1      33.670  28.242  23.754  1.00  0.00     0.248 C 
ATOM      2  O   UNL A   1      34.039  28.869  22.755  1.00  0.00    -0.272 OA
ATOM      3  N   UNL A   1      33.806  28.883  24.955  1.00  0.00    -0.354 N 
ATOM      4  H   UNL A   1      34.262  29.754  24.902  1.00  0.00     0.163 HD
ENDROOT
BRANCH   1   5
ATOM      5  C   UNL A   1      33.102  26.800  23.634  1.00  0.00     0.144 C 
ATOM      6  C   UNL A   1      33.158  26.315  22.180  1.00  0.00     0.069 C 
ATOM      7  C   UNL A   1      33.990  25.785  24.360  1.00  0.00     0.198 C 
ATOM      8  C   UNL A   1      33.401  24.832  22.328  1.00  0.00     0.163 C 
ATOM      9  O   UNL A   1      34.231  24.675  23.478  1.00  0.00    -0.378 OA
BRANCH   5  10
ATOM     10  N   UNL A   1      31.649  26.811  23.983  1.00  0.00    -0.338 N 
ATOM     11  C   UNL A   1      30.537  27.486  23.606  1.00  0.00     0.246 C 
ATOM     12  O   UNL A   1      29.463  27.093  24.077  1.00  0.00    -0.272 OA
ATOM     13  H   UNL A   1      31.444  26.145  24.679  1.00  0.00     0.164 HD
BRANCH  11  14
ATOM     14  C   UNL A   1      30.561  28.719  22.696  1.00  0.00     0.260 C 
BRANCH  14  15
ATOM     15  O   UNL A   1      29.462  29.062  21.872  1.00  0.00    -0.366 OA
BRANCH  15  16
ATOM     16  C   UNL A   1      29.314  30.442  21.542  1.00  0.00     0.222 C 
BRANCH  16  17
ATOM     17  C   UNL A   1      28.847  31.266  22.746  1.00  0.00     0.287 C 
BRANCH  17  18
ATOM     18  N   UNL A   1      29.213  32.681  22.652  1.00  0.00    -0.356 N 
ATOM     19  H   UNL A   1      29.534  32.886  21.706  1.00  0.00     0.344 HD
ATOM     20  H   UNL A   1      29.960  32.883  23.317  1.00  0.00     0.344 HD
ATOM     21  H   UNL A   1      28.400  33.257  22.867  1.00  0.00     0.344 HD
ENDBRANCH  17  18
ENDBRANCH  16  17
ENDBRANCH  15  16
ENDBRANCH  14  15
ENDBRANCH  11  14
ENDBRANCH   5  10
ENDBRANCH   1   5
BRANCH   3  22
ATOM     22  C   UNL A   1      33.397  28.499  26.299  1.00  0.00     0.116 C 
BRANCH  22  23
ATOM     23  C   UNL A   1      32.049  29.082  26.701  1.00  0.00     0.023 C 
BRANCH  23  24
ATOM     24  C   UNL A   1      31.911  30.587  26.502  1.00  0.00     0.023 C 
BRANCH  24  25
ATOM     25  C   UNL A   1      32.943  31.437  27.231  1.00  0.00     0.116 C 
BRANCH  25  26
ATOM     26  N   UNL A   1      32.499  32.801  27.488  1.00  0.00    -0.352 N 
ATOM     27  C   UNL A   1      33.118  33.791  28.216  1.00  0.00     0.251 C 
ATOM     28  H   UNL A   1      31.637  33.049  27.083  1.00  0.00     0.163 HD
ATOM     29  O   UNL A   1      32.565  34.863  28.410  1.00  0.00    -0.269 OA
BRANCH  27  30
ATOM     30  C   UNL A   1      34.445  33.520  28.801  1.00  0.00     0.039 A 
ATOM     31  C   UNL A   1      34.517  32.855  30.026  1.00  0.00     0.014 A 
ATOM     32  C   UNL A   1      35.608  33.853  28.103  1.00  0.00     0.014 A 
ATOM     33  C   UNL A   1      35.759  32.443  30.511  1.00  0.00     0.010 A 
ATOM     34  C   UNL A   1      36.833  33.371  28.546  1.00  0.00     0.010 A 
ATOM     35  C   UNL A   1      36.920  32.655  29.750  1.00  0.00    -0.014 A 
BRANCH  35  36
ATOM     36  C   UNL A   1      38.236  32.126  30.183  1.00  0.00     0.031 A 
ATOM     37  C   UNL A   1      38.729  30.812  29.646  1.00  0.00     0.074 A 
ATOM     38  C   UNL A   1      38.946  32.786  31.118  1.00  0.00     0.049 A 
ATOM     39  N   UNL A   1      39.806  30.143  29.968  1.00  0.00    -0.248 NA
ATOM     40  C   UNL A   1      37.885  30.149  28.639  1.00  0.00     0.031 C 
ATOM     41  C   UNL A   1      38.554  34.047  31.753  1.00  0.00     0.029 A 
ATOM     42  N   UNL A   1      40.145  32.478  31.709  1.00  0.00    -0.354 N 
ATOM     43  C   UNL A   1      39.757  28.972  29.223  1.00  0.00     0.074 A 
ATOM     44  C   UNL A   1      38.522  29.000  28.469  1.00  0.00     0.031 C 
ATOM     45  C   UNL A   1      39.508  34.416  32.622  1.00  0.00     0.029 A 
ATOM     46  C   UNL A   1      40.556  33.402  32.638  1.00  0.00     0.049 A 
ATOM     47  H   UNL A   1      40.663  31.670  31.487  1.00  0.00     0.167 HD
ATOM     48  C   UNL A   1      40.665  27.972  29.155  1.00  0.00     0.031 A 
ATOM     49  C   UNL A   1      41.652  33.426  33.420  1.00  0.00     0.031 A 
ATOM     50  C   UNL A   1      41.903  27.954  29.886  1.00  0.00     0.049 A 
ATOM     51  C   UNL A   1      42.647  32.304  33.327  1.00  0.00     0.074 A 
ATOM     52  C   UNL A   1      42.921  27.018  29.835  1.00  0.00     0.029 A 
ATOM     53  N   UNL A   1      42.290  28.918  30.802  1.00  0.00    -0.354 N 
ATOM     54  N   UNL A   1      42.618  31.238  32.565  1.00  0.00    -0.248 NA
ATOM     55  C   UNL A   1      43.829  32.394  34.195  1.00  0.00     0.031 C 
ATOM     56  C   UNL A   1      43.905  27.394  30.754  1.00  0.00     0.029 A 
ATOM     57  C   UNL A   1      43.522  28.589  31.341  1.00  0.00     0.049 A 
ATOM     58  H   UNL A   1      41.766  29.719  31.037  1.00  0.00     0.167 HD
ATOM     59  C   UNL A   1      43.788  30.544  32.841  1.00  0.00     0.074 A 
ATOM     60  C   UNL A   1      44.511  31.317  33.831  1.00  0.00     0.031 C 
ATOM     61  C   UNL A   1      44.226  29.371  32.322  1.00  0.00     0.031 A 
BRANCH  48  62
ATOM     62  C   UNL A   1      40.348  26.812  28.254  1.00  0.00    -0.014 A 
ATOM     63  C   UNL A   1      39.559  25.739  28.700  1.00  0.00     0.009 A 
ATOM     64  C   UNL A   1      40.823  26.803  26.933  1.00  0.00     0.009 A 
ATOM     65  C   UNL A   1      39.285  24.663  27.854  1.00  0.00     0.001 A 
ATOM     66  C   UNL A   1      40.524  25.739  26.081  1.00  0.00     0.001 A 
ATOM     67  C   UNL A   1      39.764  24.666  26.545  1.00  0.00     0.000 A 
ENDBRANCH  48  62
BRANCH  49  68
ATOM     68  C   UNL A   1      41.877  34.562  34.353  1.00  0.00    -0.014 A 
ATOM     69  C   UNL A   1      42.552  35.713  33.918  1.00  0.00     0.009 A 
ATOM     70  C   UNL A   1      41.425  34.500  35.680  1.00  0.00     0.009 A 
ATOM     71  C   UNL A   1      42.792  36.768  34.800  1.00  0.00     0.001 A 
ATOM     72  C   UNL A   1      41.645  35.568  36.553  1.00  0.00     0.001 A 
ATOM     73  C   UNL A   1      42.335  36.697  36.115  1.00  0.00     0.000 A 
ENDBRANCH  49  68
BRANCH  61  74
ATOM     74  C   UNL A   1      45.561  28.869  32.791  1.00  0.00    -0.014 A 
ATOM     75  C   UNL A   1      46.748  29.249  32.148  1.00  0.00     0.009 A 
ATOM     76  C   UNL A   1      45.631  28.040  33.923  1.00  0.00     0.009 A 
ATOM     77  C   UNL A   1      47.980  28.785  32.614  1.00  0.00     0.001 A 
ATOM     78  C   UNL A   1      46.866  27.601  34.402  1.00  0.00     0.001 A 
ATOM     79  C   UNL A   1      48.038  27.967  33.742  1.00  0.00     0.000 A 
ENDBRANCH  61  74
ENDBRANCH  35  36
ENDBRANCH  27  30
ENDBRANCH  25  26
ENDBRANCH  24  25
ENDBRANCH  23  24
ENDBRANCH  22  23
ENDBRANCH   3  22
TORSDOF 17
ENDMDL
