MODEL 1
REMARK VINA RESULT:     -11.4      0.000      0.000
REMARK SMILES CC(C)c1ccc(NC(=O)c2nccnc2C(=O)NCCCCNC(=O)c2ccc(-c3c4nc(c(-c5ccccc5)c5ccc([nH]5)c(-c5ccccc5)c5nc(c(-c6ccccc6)c6ccc3[nH]6)C=C5)C=C4)cc2)cc1
REMARK SMILES IDX 21 1 20 2 19 3 17 4 18 5 16 7 11 8 12 9 13 10 15 11 14 12
REMARK SMILES IDX 9 13 8 14 10 16 7 17 4 18 5 19 76 20 6 21 75 22 2 23 1 24
REMARK SMILES IDX 3 25 22 26 23 27 24 28 25 29 26 31 27 32 28 33 74 34 29 35
REMARK SMILES IDX 73 36 30 37 31 38 32 39 67 40 33 41 72 42 66 43 68 44 34 45
REMARK SMILES IDX 71 46 65 47 64 48 35 50 57 51 42 52 56 53 43 54 46 55 55 56
REMARK SMILES IDX 69 57 44 58 45 59 54 61 70 62 47 63 36 64 37 65 41 66 38 67
REMARK SMILES IDX 40 68 39 69 58 70 59 71 63 72 60 73 62 74 61 75 48 76 49 77
REMARK SMILES IDX 53 78 50 79 52 80 51 81
REMARK H PARENT 19 6 8 15 24 30 68 49 46 60
REMARK Flexibility Score: inf
ROOT
ATOM      1  C   UNL A   1      31.417  27.422  27.172  1.00  0.00     0.023 C 
ENDROOT
BRANCH   1   2
ATOM      2  C   UNL A   1      32.239  26.337  26.489  1.00  0.00     0.116 C 
BRANCH   2   3
ATOM      3  N   UNL A   1      31.779  24.984  26.693  1.00  0.00    -0.351 N 
ATOM      4  C   UNL A   1      32.266  23.774  26.248  1.00  0.00     0.272 C 
ATOM      5  O   UNL A   1      31.690  22.769  26.676  1.00  0.00    -0.267 OA
ATOM      6  H   UNL A   1      30.970  24.913  27.250  1.00  0.00     0.163 HD
BRANCH   4   7
ATOM      7  C   UNL A   1      33.360  23.585  25.243  1.00  0.00     0.159 A 
ATOM      8  C   UNL A   1      33.230  23.171  23.927  1.00  0.00     0.159 A 
ATOM      9  N   UNL A   1      34.277  23.176  23.034  1.00  0.00    -0.247 NA
ATOM     10  C   UNL A   1      35.466  23.590  23.517  1.00  0.00     0.132 A 
ATOM     11  N   UNL A   1      34.593  23.973  25.714  1.00  0.00    -0.247 NA
ATOM     12  C   UNL A   1      35.623  23.968  24.835  1.00  0.00     0.132 A 
BRANCH   8  13
ATOM     13  C   UNL A   1      31.979  22.650  23.369  1.00  0.00     0.276 C 
ATOM     14  N   UNL A   1      30.902  23.487  23.119  1.00  0.00    -0.321 N 
ATOM     15  H   UNL A   1      30.096  23.010  22.816  1.00  0.00     0.170 HD
ATOM     16  O   UNL A   1      31.896  21.450  23.114  1.00  0.00    -0.267 OA
BRANCH  14  17
ATOM     17  C   UNL A   1      30.726  24.888  23.210  1.00  0.00     0.041 A 
ATOM     18  C   UNL A   1      30.284  27.690  22.962  1.00  0.00    -0.045 A 
ATOM     19  C   UNL A   1      29.566  26.918  23.880  1.00  0.00     0.006 A 
ATOM     20  C   UNL A   1      31.356  27.061  22.312  1.00  0.00     0.006 A 
ATOM     21  C   UNL A   1      29.794  25.542  24.010  1.00  0.00     0.026 A 
ATOM     22  C   UNL A   1      31.564  25.679  22.423  1.00  0.00     0.026 A 
BRANCH  18  23
ATOM     23  C   UNL A   1      29.919  29.147  22.683  1.00  0.00     0.013 C 
ATOM     24  C   UNL A   1      28.434  29.316  22.312  1.00  0.00     0.012 C 
ATOM     25  C   UNL A   1      30.200  30.087  23.870  1.00  0.00     0.012 C 
ENDBRANCH  18  23
ENDBRANCH  14  17
ENDBRANCH   8  13
ENDBRANCH   4   7
ENDBRANCH   2   3
ENDBRANCH   1   2
BRANCH   1  26
ATOM     26  C   UNL A   1      31.874  28.867  26.954  1.00  0.00     0.023 C 
BRANCH  26  27
ATOM     27  C   UNL A   1      33.325  29.203  27.295  1.00  0.00     0.116 C 
BRANCH  27  28
ATOM     28  N   UNL A   1      33.513  30.523  27.879  1.00  0.00    -0.352 N 
ATOM     29  C   UNL A   1      34.606  31.095  28.487  1.00  0.00     0.251 C 
ATOM     30  H   UNL A   1      32.721  31.107  27.830  1.00  0.00     0.163 HD
ATOM     31  O   UNL A   1      34.510  32.220  28.972  1.00  0.00    -0.269 OA
BRANCH  29  32
ATOM     32  C   UNL A   1      35.880  30.352  28.616  1.00  0.00     0.039 A 
ATOM     33  C   UNL A   1      36.753  30.325  27.523  1.00  0.00     0.014 A 
ATOM     34  C   UNL A   1      36.230  29.694  29.796  1.00  0.00     0.014 A 
ATOM     35  C   UNL A   1      38.017  29.742  27.654  1.00  0.00     0.010 A 
ATOM     36  C   UNL A   1      37.521  29.193  29.954  1.00  0.00     0.010 A 
ATOM     37  C   UNL A   1      38.436  29.228  28.891  1.00  0.00    -0.014 A 
BRANCH  37  38
ATOM     38  C   UNL A   1      39.831  28.757  29.105  1.00  0.00     0.031 A 
ATOM     39  C   UNL A   1      40.875  29.686  29.662  1.00  0.00     0.074 A 
ATOM     40  C   UNL A   1      40.184  27.517  28.711  1.00  0.00     0.049 A 
ATOM     41  N   UNL A   1      42.159  29.483  29.821  1.00  0.00    -0.248 NA
ATOM     42  C   UNL A   1      40.422  31.026  30.068  1.00  0.00     0.031 C 
ATOM     43  C   UNL A   1      39.286  26.528  28.107  1.00  0.00     0.029 A 
ATOM     44  N   UNL A   1      41.399  26.878  28.749  1.00  0.00    -0.354 N 
ATOM     45  C   UNL A   1      42.671  30.678  30.313  1.00  0.00     0.074 A 
ATOM     46  C   UNL A   1      41.567  31.610  30.391  1.00  0.00     0.031 C 
ATOM     47  C   UNL A   1      39.974  25.402  27.858  1.00  0.00     0.029 A 
ATOM     48  C   UNL A   1      41.367  25.600  28.245  1.00  0.00     0.049 A 
ATOM     49  H   UNL A   1      42.215  27.297  29.104  1.00  0.00     0.167 HD
ATOM     50  C   UNL A   1      43.941  30.970  30.684  1.00  0.00     0.031 A 
ATOM     51  C   UNL A   1      42.348  24.689  28.102  1.00  0.00     0.031 A 
ATOM     52  C   UNL A   1      45.037  30.042  30.635  1.00  0.00     0.049 A 
ATOM     53  C   UNL A   1      43.744  25.032  28.539  1.00  0.00     0.074 A 
ATOM     54  C   UNL A   1      46.345  30.229  31.049  1.00  0.00     0.029 A 
ATOM     55  N   UNL A   1      44.953  28.747  30.148  1.00  0.00    -0.354 N 
ATOM     56  N   UNL A   1      44.197  26.147  29.057  1.00  0.00    -0.248 NA
ATOM     57  C   UNL A   1      44.762  23.983  28.377  1.00  0.00     0.031 C 
ATOM     58  C   UNL A   1      47.061  29.057  30.782  1.00  0.00     0.029 A 
ATOM     59  C   UNL A   1      46.188  28.128  30.241  1.00  0.00     0.049 A 
ATOM     60  H   UNL A   1      44.137  28.330  29.789  1.00  0.00     0.167 HD
ATOM     61  C   UNL A   1      45.544  25.926  29.309  1.00  0.00     0.074 A 
ATOM     62  C   UNL A   1      45.833  24.568  28.897  1.00  0.00     0.031 C 
ATOM     63  C   UNL A   1      46.460  26.775  29.833  1.00  0.00     0.031 A 
BRANCH  50  64
ATOM     64  C   UNL A   1      44.210  32.364  31.177  1.00  0.00    -0.014 A 
ATOM     65  C   UNL A   1      44.572  33.388  30.288  1.00  0.00     0.009 A 
ATOM     66  C   UNL A   1      44.071  32.663  32.541  1.00  0.00     0.009 A 
ATOM     67  C   UNL A   1      44.827  34.677  30.761  1.00  0.00     0.001 A 
ATOM     68  C   UNL A   1      44.301  33.959  33.007  1.00  0.00     0.001 A 
ATOM     69  C   UNL A   1      44.688  34.961  32.119  1.00  0.00     0.000 A 
ENDBRANCH  50  64
BRANCH  51  70
ATOM     70  C   UNL A   1      42.044  23.349  27.539  1.00  0.00    -0.014 A 
ATOM     71  C   UNL A   1      41.462  22.359  28.346  1.00  0.00     0.009 A 
ATOM     72  C   UNL A   1      42.343  23.048  26.201  1.00  0.00     0.009 A 
ATOM     73  C   UNL A   1      41.210  21.086  27.832  1.00  0.00     0.001 A 
ATOM     74  C   UNL A   1      42.066  21.781  25.683  1.00  0.00     0.001 A 
ATOM     75  C   UNL A   1      41.508  20.799  26.501  1.00  0.00     0.000 A 
ENDBRANCH  51  70
BRANCH  63  76
ATOM     76  C   UNL A   1      47.850  26.246  30.030  1.00  0.00    -0.014 A 
ATOM     77  C   UNL A   1      48.778  26.230  28.978  1.00  0.00     0.009 A 
ATOM     78  C   UNL A   1      48.247  25.792  31.297  1.00  0.00     0.009 A 
ATOM     79  C   UNL A   1      50.069  25.741  29.184  1.00  0.00     0.001 A 
ATOM     80  C   UNL A   1      49.546  25.326  31.506  1.00  0.00     0.001 A 
ATOM     81  C   UNL A   1      50.453  25.294  30.448  1.00  0.00     0.000 A 
ENDBRANCH  63  76
ENDBRANCH  37  38
ENDBRANCH  29  32
ENDBRANCH  27  28
ENDBRANCH  26  27
ENDBRANCH   1  26
TORSDOF 14
ENDMDL
MODEL 2
REMARK VINA RESULT:     -11.3      2.167      7.512
REMARK SMILES CC(C)c1ccc(NC(=O)c2nccnc2C(=O)NCCCCNC(=O)c2ccc(-c3c4nc(c(-c5ccccc5)c5ccc([nH]5)c(-c5ccccc5)c5nc(c(-c6ccccc6)c6ccc3[nH]6)C=C5)C=C4)cc2)cc1
REMARK SMILES IDX 21 1 20 2 19 3 17 4 18 5 16 7 11 8 12 9 13 10 15 11 14 12
REMARK SMILES IDX 9 13 8 14 10 16 7 17 4 18 5 19 76 20 6 21 75 22 2 23 1 24
REMARK SMILES IDX 3 25 22 26 23 27 24 28 25 29 26 31 27 32 28 33 74 34 29 35
REMARK SMILES IDX 73 36 30 37 31 38 32 39 67 40 33 41 72 42 66 43 68 44 34 45
REMARK SMILES IDX 71 46 65 47 64 48 35 50 57 51 42 52 56 53 43 54 46 55 55 56
REMARK SMILES IDX 69 57 44 58 45 59 54 61 70 62 47 63 36 64 37 65 41 66 38 67
REMARK SMILES IDX 40 68 39 69 58 70 59 71 63 72 60 73 62 74 61 75 48 76 49 77
REMARK SMILES IDX 53 78 50 79 52 80 51 81
REMARK H PARENT 19 6 8 15 24 30 68 49 46 60
REMARK Flexibility Score: inf
ROOT
ATOM      1  C   UNL A   1      36.993  22.306  23.932  1.00  0.00     0.023 C 
ENDROOT
BRANCH   1   2
ATOM      2  C   UNL A   1      35.559  22.800  24.074  1.00  0.00     0.116 C 
BRANCH   2   3
ATOM      3  N   UNL A   1      35.389  24.010  24.843  1.00  0.00    -0.351 N 
ATOM      4  C   UNL A   1      34.439  25.006  24.786  1.00  0.00     0.272 C 
ATOM      5  O   UNL A   1      34.519  25.880  25.655  1.00  0.00    -0.267 OA
ATOM      6  H   UNL A   1      36.078  24.148  25.533  1.00  0.00     0.163 HD
BRANCH   4   7
ATOM      7  C   UNL A   1      33.392  25.158  23.728  1.00  0.00     0.159 A 
ATOM      8  C   UNL A   1      32.016  25.154  23.898  1.00  0.00     0.159 A 
ATOM      9  N   UNL A   1      31.135  25.455  22.886  1.00  0.00    -0.247 NA
ATOM     10  C   UNL A   1      31.684  25.739  21.687  1.00  0.00     0.132 A 
ATOM     11  N   UNL A   1      33.919  25.421  22.485  1.00  0.00    -0.247 NA
ATOM     12  C   UNL A   1      33.049  25.709  21.488  1.00  0.00     0.132 A 
BRANCH   8  13
ATOM     13  C   UNL A   1      31.365  24.789  25.160  1.00  0.00     0.276 C 
ATOM     14  N   UNL A   1      31.374  23.480  25.619  1.00  0.00    -0.321 N 
ATOM     15  H   UNL A   1      30.842  23.347  26.436  1.00  0.00     0.170 HD
ATOM     16  O   UNL A   1      30.812  25.667  25.820  1.00  0.00    -0.267 OA
BRANCH  14  17
ATOM     17  C   UNL A   1      31.992  22.297  25.151  1.00  0.00     0.041 A 
ATOM     18  C   UNL A   1      33.000  19.710  24.519  1.00  0.00    -0.045 A 
ATOM     19  C   UNL A   1      32.390  20.511  23.549  1.00  0.00     0.006 A 
ATOM     20  C   UNL A   1      33.262  20.311  25.758  1.00  0.00     0.006 A 
ATOM     21  C   UNL A   1      31.907  21.789  23.859  1.00  0.00     0.026 A 
ATOM     22  C   UNL A   1      32.754  21.579  26.074  1.00  0.00     0.026 A 
BRANCH  18  23
ATOM     23  C   UNL A   1      33.364  18.253  24.240  1.00  0.00     0.013 C 
ATOM     24  C   UNL A   1      32.910  17.795  22.842  1.00  0.00     0.012 C 
ATOM     25  C   UNL A   1      34.873  17.967  24.344  1.00  0.00     0.012 C 
ENDBRANCH  18  23
ENDBRANCH  14  17
ENDBRANCH   8  13
ENDBRANCH   4   7
ENDBRANCH   2   3
ENDBRANCH   1   2
BRANCH   1  26
ATOM     26  C   UNL A   1      37.327  20.972  24.606  1.00  0.00     0.023 C 
BRANCH  26  27
ATOM     27  C   UNL A   1      38.377  20.990  25.714  1.00  0.00     0.116 C 
BRANCH  27  28
ATOM     28  N   UNL A   1      39.369  19.929  25.617  1.00  0.00    -0.352 N 
ATOM     29  C   UNL A   1      40.698  19.899  25.972  1.00  0.00     0.251 C 
ATOM     30  H   UNL A   1      39.032  19.088  25.231  1.00  0.00     0.163 HD
ATOM     31  O   UNL A   1      41.368  18.896  25.732  1.00  0.00    -0.269 OA
BRANCH  29  32
ATOM     32  C   UNL A   1      41.348  21.077  26.588  1.00  0.00     0.039 A 
ATOM     33  C   UNL A   1      41.935  22.034  25.751  1.00  0.00     0.014 A 
ATOM     34  C   UNL A   1      41.380  21.258  27.971  1.00  0.00     0.014 A 
ATOM     35  C   UNL A   1      42.443  23.217  26.293  1.00  0.00     0.010 A 
ATOM     36  C   UNL A   1      41.804  22.475  28.503  1.00  0.00     0.010 A 
ATOM     37  C   UNL A   1      42.324  23.476  27.668  1.00  0.00    -0.014 A 
BRANCH  37  38
ATOM     38  C   UNL A   1      42.701  24.794  28.247  1.00  0.00     0.031 A 
ATOM     39  C   UNL A   1      41.663  25.862  28.456  1.00  0.00     0.074 A 
ATOM     40  C   UNL A   1      43.998  25.064  28.500  1.00  0.00     0.049 A 
ATOM     41  N   UNL A   1      41.822  27.101  28.850  1.00  0.00    -0.248 NA
ATOM     42  C   UNL A   1      40.269  25.501  28.155  1.00  0.00     0.031 C 
ATOM     43  C   UNL A   1      45.116  24.140  28.295  1.00  0.00     0.029 A 
ATOM     44  N   UNL A   1      44.596  26.205  28.975  1.00  0.00    -0.354 N 
ATOM     45  C   UNL A   1      40.556  27.673  28.815  1.00  0.00     0.074 A 
ATOM     46  C   UNL A   1      39.648  26.659  28.325  1.00  0.00     0.031 C 
ATOM     47  C   UNL A   1      46.258  24.740  28.668  1.00  0.00     0.029 A 
ATOM     48  C   UNL A   1      45.961  26.102  29.098  1.00  0.00     0.049 A 
ATOM     49  H   UNL A   1      44.095  27.020  29.205  1.00  0.00     0.167 HD
ATOM     50  C   UNL A   1      40.178  28.924  29.173  1.00  0.00     0.031 A 
ATOM     51  C   UNL A   1      46.875  27.002  29.507  1.00  0.00     0.031 A 
ATOM     52  C   UNL A   1      41.070  29.928  29.687  1.00  0.00     0.049 A 
ATOM     53  C   UNL A   1      46.427  28.376  29.917  1.00  0.00     0.074 A 
ATOM     54  C   UNL A   1      40.766  31.203  30.136  1.00  0.00     0.029 A 
ATOM     55  N   UNL A   1      42.439  29.769  29.826  1.00  0.00    -0.354 N 
ATOM     56  N   UNL A   1      45.218  28.880  29.932  1.00  0.00    -0.248 NA
ATOM     57  C   UNL A   1      47.474  29.302  30.375  1.00  0.00     0.031 C 
ATOM     58  C   UNL A   1      41.959  31.828  30.517  1.00  0.00     0.029 A 
ATOM     59  C   UNL A   1      42.997  30.927  30.344  1.00  0.00     0.049 A 
ATOM     60  H   UNL A   1      42.941  28.956  29.593  1.00  0.00     0.167 HD
ATOM     61  C   UNL A   1      45.354  30.171  30.426  1.00  0.00     0.074 A 
ATOM     62  C   UNL A   1      46.760  30.369  30.708  1.00  0.00     0.031 C 
ATOM     63  C   UNL A   1      44.397  31.108  30.626  1.00  0.00     0.031 A 
BRANCH  50  64
ATOM     64  C   UNL A   1      38.726  29.274  29.018  1.00  0.00    -0.014 A 
ATOM     65  C   UNL A   1      38.223  29.753  27.798  1.00  0.00     0.009 A 
ATOM     66  C   UNL A   1      37.843  29.096  30.094  1.00  0.00     0.009 A 
ATOM     67  C   UNL A   1      36.873  30.083  27.670  1.00  0.00     0.001 A 
ATOM     68  C   UNL A   1      36.488  29.401  29.956  1.00  0.00     0.001 A 
ATOM     69  C   UNL A   1      36.006  29.904  28.748  1.00  0.00     0.000 A 
ENDBRANCH  50  64
BRANCH  51  70
ATOM     70  C   UNL A   1      48.311  26.629  29.571  1.00  0.00    -0.014 A 
ATOM     71  C   UNL A   1      49.136  26.798  28.449  1.00  0.00     0.009 A 
ATOM     72  C   UNL A   1      48.861  26.093  30.746  1.00  0.00     0.009 A 
ATOM     73  C   UNL A   1      50.477  26.413  28.493  1.00  0.00     0.001 A 
ATOM     74  C   UNL A   1      50.209  25.732  30.794  1.00  0.00     0.001 A 
ATOM     75  C   UNL A   1      51.014  25.884  29.665  1.00  0.00     0.000 A 
ENDBRANCH  51  70
BRANCH  63  76
ATOM     76  C   UNL A   1      44.833  32.418  31.215  1.00  0.00    -0.014 A 
ATOM     77  C   UNL A   1      45.177  33.504  30.396  1.00  0.00     0.009 A 
ATOM     78  C   UNL A   1      44.863  32.576  32.609  1.00  0.00     0.009 A 
ATOM     79  C   UNL A   1      45.572  34.716  30.964  1.00  0.00     0.001 A 
ATOM     80  C   UNL A   1      45.235  33.797  33.173  1.00  0.00     0.001 A 
ATOM     81  C   UNL A   1      45.597  34.863  32.351  1.00  0.00     0.000 A 
ENDBRANCH  63  76
ENDBRANCH  37  38
ENDBRANCH  29  32
ENDBRANCH  27  28
ENDBRANCH  26  27
ENDBRANCH   1  26
TORSDOF 14
ENDMDL
MODEL 3
REMARK VINA RESULT:     -11.3      2.582      6.847
REMARK SMILES CC(C)c1ccc(NC(=O)c2nccnc2C(=O)NCCCCNC(=O)c2ccc(-c3c4nc(c(-c5ccccc5)c5ccc([nH]5)c(-c5ccccc5)c5nc(c(-c6ccccc6)c6ccc3[nH]6)C=C5)C=C4)cc2)cc1
REMARK SMILES IDX 21 1 20 2 19 3 17 4 18 5 16 7 11 8 12 9 13 10 15 11 14 12
REMARK SMILES IDX 9 13 8 14 10 16 7 17 4 18 5 19 76 20 6 21 75 22 2 23 1 24
REMARK SMILES IDX 3 25 22 26 23 27 24 28 25 29 26 31 27 32 28 33 74 34 29 35
REMARK SMILES IDX 73 36 30 37 31 38 32 39 67 40 33 41 72 42 66 43 68 44 34 45
REMARK SMILES IDX 71 46 65 47 64 48 35 50 57 51 42 52 56 53 43 54 46 55 55 56
REMARK SMILES IDX 69 57 44 58 45 59 54 61 70 62 47 63 36 64 37 65 41 66 38 67
REMARK SMILES IDX 40 68 39 69 58 70 59 71 63 72 60 73 62 74 61 75 48 76 49 77
REMARK SMILES IDX 53 78 50 79 52 80 51 81
REMARK H PARENT 19 6 8 15 24 30 68 49 46 60
REMARK Flexibility Score: inf
ROOT
ATOM      1  C   UNL A   1      31.789  29.126  27.222  1.00  0.00     0.023 C 
ENDROOT
BRANCH   1   2
ATOM      2  C   UNL A   1      31.775  27.935  26.273  1.00  0.00     0.116 C 
BRANCH   2   3
ATOM      3  N   UNL A   1      33.028  27.230  26.137  1.00  0.00    -0.351 N 
ATOM      4  C   UNL A   1      33.313  25.923  25.806  1.00  0.00     0.272 C 
ATOM      5  O   UNL A   1      34.510  25.645  25.684  1.00  0.00    -0.267 OA
ATOM      6  H   UNL A   1      33.823  27.784  26.315  1.00  0.00     0.163 HD
BRANCH   4   7
ATOM      7  C   UNL A   1      32.315  24.817  25.668  1.00  0.00     0.159 A 
ATOM      8  C   UNL A   1      32.042  24.065  24.536  1.00  0.00     0.159 A 
ATOM      9  N   UNL A   1      31.216  22.966  24.548  1.00  0.00    -0.247 NA
ATOM     10  C   UNL A   1      30.654  22.660  25.735  1.00  0.00     0.132 A 
ATOM     11  N   UNL A   1      31.701  24.497  26.857  1.00  0.00    -0.247 NA
ATOM     12  C   UNL A   1      30.882  23.419  26.863  1.00  0.00     0.132 A 
BRANCH   8  13
ATOM     13  C   UNL A   1      32.573  24.392  23.209  1.00  0.00     0.276 C 
ATOM     14  N   UNL A   1      32.119  25.499  22.508  1.00  0.00    -0.321 N 
ATOM     15  H   UNL A   1      32.495  25.571  21.601  1.00  0.00     0.170 HD
ATOM     16  O   UNL A   1      33.443  23.671  22.722  1.00  0.00    -0.267 OA
BRANCH  14  17
ATOM     17  C   UNL A   1      31.225  26.546  22.831  1.00  0.00     0.041 A 
ATOM     18  C   UNL A   1      29.459  28.768  23.057  1.00  0.00    -0.045 A 
ATOM     19  C   UNL A   1      29.063  27.482  23.436  1.00  0.00     0.006 A 
ATOM     20  C   UNL A   1      30.815  28.944  22.745  1.00  0.00     0.006 A 
ATOM     21  C   UNL A   1      29.938  26.393  23.337  1.00  0.00     0.026 A 
ATOM     22  C   UNL A   1      31.680  27.849  22.620  1.00  0.00     0.026 A 
BRANCH  18  23
ATOM     23  C   UNL A   1      28.462  29.924  22.988  1.00  0.00     0.013 C 
ATOM     24  C   UNL A   1      28.983  31.187  23.699  1.00  0.00     0.012 C 
ATOM     25  C   UNL A   1      28.093  30.332  21.550  1.00  0.00     0.012 C 
ENDBRANCH  18  23
ENDBRANCH  14  17
ENDBRANCH   8  13
ENDBRANCH   4   7
ENDBRANCH   2   3
ENDBRANCH   1   2
BRANCH   1  26
ATOM     26  C   UNL A   1      31.751  30.515  26.579  1.00  0.00     0.023 C 
BRANCH  26  27
ATOM     27  C   UNL A   1      32.903  31.466  26.895  1.00  0.00     0.116 C 
BRANCH  27  28
ATOM     28  N   UNL A   1      32.485  32.797  27.310  1.00  0.00    -0.352 N 
ATOM     29  C   UNL A   1      33.100  33.729  28.114  1.00  0.00     0.251 C 
ATOM     30  H   UNL A   1      31.611  33.079  26.954  1.00  0.00     0.163 HD
ATOM     31  O   UNL A   1      32.517  34.777  28.382  1.00  0.00    -0.269 OA
BRANCH  29  32
ATOM     32  C   UNL A   1      34.430  33.463  28.706  1.00  0.00     0.039 A 
ATOM     33  C   UNL A   1      34.499  32.745  29.905  1.00  0.00     0.014 A 
ATOM     34  C   UNL A   1      35.606  33.900  28.095  1.00  0.00     0.014 A 
ATOM     35  C   UNL A   1      35.742  32.368  30.423  1.00  0.00     0.010 A 
ATOM     36  C   UNL A   1      36.840  33.449  28.561  1.00  0.00     0.010 A 
ATOM     37  C   UNL A   1      36.921  32.663  29.720  1.00  0.00    -0.014 A 
BRANCH  37  38
ATOM     38  C   UNL A   1      38.240  32.130  30.157  1.00  0.00     0.031 A 
ATOM     39  C   UNL A   1      38.754  30.824  29.617  1.00  0.00     0.074 A 
ATOM     40  C   UNL A   1      38.937  32.778  31.113  1.00  0.00     0.049 A 
ATOM     41  N   UNL A   1      39.828  30.156  29.958  1.00  0.00    -0.248 NA
ATOM     42  C   UNL A   1      37.941  30.168  28.580  1.00  0.00     0.031 C 
ATOM     43  C   UNL A   1      38.532  34.027  31.762  1.00  0.00     0.029 A 
ATOM     44  N   UNL A   1      40.131  32.466  31.714  1.00  0.00    -0.354 N 
ATOM     45  C   UNL A   1      39.802  28.990  29.201  1.00  0.00     0.074 A 
ATOM     46  C   UNL A   1      38.589  29.025  28.413  1.00  0.00     0.031 C 
ATOM     47  C   UNL A   1      39.473  34.388  32.649  1.00  0.00     0.029 A 
ATOM     48  C   UNL A   1      40.526  33.379  32.662  1.00  0.00     0.049 A 
ATOM     49  H   UNL A   1      40.654  31.663  31.488  1.00  0.00     0.167 HD
ATOM     50  C   UNL A   1      40.713  27.989  29.152  1.00  0.00     0.031 A 
ATOM     51  C   UNL A   1      41.612  33.401  33.459  1.00  0.00     0.031 A 
ATOM     52  C   UNL A   1      41.934  27.960  29.911  1.00  0.00     0.049 A 
ATOM     53  C   UNL A   1      42.616  32.288  33.371  1.00  0.00     0.074 A 
ATOM     54  C   UNL A   1      42.948  27.017  29.879  1.00  0.00     0.029 A 
ATOM     55  N   UNL A   1      42.310  28.922  30.835  1.00  0.00    -0.354 N 
ATOM     56  N   UNL A   1      42.604  31.223  32.607  1.00  0.00    -0.248 NA
ATOM     57  C   UNL A   1      43.790  32.386  34.252  1.00  0.00     0.031 C 
ATOM     58  C   UNL A   1      43.924  27.392  30.808  1.00  0.00     0.029 A 
ATOM     59  C   UNL A   1      43.536  28.589  31.387  1.00  0.00     0.049 A 
ATOM     60  H   UNL A   1      41.785  29.722  31.064  1.00  0.00     0.167 HD
ATOM     61  C   UNL A   1      43.778  30.540  32.894  1.00  0.00     0.074 A 
ATOM     62  C   UNL A   1      44.484  31.315  33.894  1.00  0.00     0.031 C 
ATOM     63  C   UNL A   1      44.229  29.373  32.376  1.00  0.00     0.031 A 
BRANCH  50  64
ATOM     64  C   UNL A   1      40.416  26.833  28.239  1.00  0.00    -0.014 A 
ATOM     65  C   UNL A   1      39.635  25.750  28.673  1.00  0.00     0.009 A 
ATOM     66  C   UNL A   1      40.897  26.840  26.921  1.00  0.00     0.009 A 
ATOM     67  C   UNL A   1      39.373  24.679  27.817  1.00  0.00     0.001 A 
ATOM     68  C   UNL A   1      40.612  25.780  26.059  1.00  0.00     0.001 A 
ATOM     69  C   UNL A   1      39.859  24.696  26.510  1.00  0.00     0.000 A 
ENDBRANCH  50  64
BRANCH  51  70
ATOM     70  C   UNL A   1      41.822  34.531  34.400  1.00  0.00    -0.014 A 
ATOM     71  C   UNL A   1      41.278  34.485  35.692  1.00  0.00     0.009 A 
ATOM     72  C   UNL A   1      42.555  35.663  34.009  1.00  0.00     0.009 A 
ATOM     73  C   UNL A   1      41.440  35.561  36.566  1.00  0.00     0.001 A 
ATOM     74  C   UNL A   1      42.736  36.727  34.896  1.00  0.00     0.001 A 
ATOM     75  C   UNL A   1      42.172  36.678  36.170  1.00  0.00     0.000 A 
ENDBRANCH  51  70
BRANCH  63  76
ATOM     76  C   UNL A   1      45.567  28.884  32.850  1.00  0.00    -0.014 A 
ATOM     77  C   UNL A   1      46.752  29.274  32.209  1.00  0.00     0.009 A 
ATOM     78  C   UNL A   1      45.642  28.051  33.977  1.00  0.00     0.009 A 
ATOM     79  C   UNL A   1      47.986  28.815  32.671  1.00  0.00     0.001 A 
ATOM     80  C   UNL A   1      46.879  27.612  34.450  1.00  0.00     0.001 A 
ATOM     81  C   UNL A   1      48.049  27.988  33.793  1.00  0.00     0.000 A 
ENDBRANCH  63  76
ENDBRANCH  37  38
ENDBRANCH  29  32
ENDBRANCH  27  28
ENDBRANCH  26  27
ENDBRANCH   1  26
TORSDOF 14
ENDMDL
