MODEL 1
REMARK VINA RESULT:     -12.0      0.000      0.000
REMARK SMILES Cc1c(Cl)ccc2c1C=C(C(=O)NCCCCNC(=O)c1ccc(-c3c4nc(c(-c5ccccc5)c5ccc([nH]5)c(-c5ccccc5)c5nc(c(-c6ccccc6)c6ccc3[nH]6)C=C5)C=C4)cc1)[C@@H](C(F)(F)F)O2
REMARK SMILES IDX 16 1 15 2 14 3 13 4 11 5 12 6 10 8 1 9 2 10 3 11 8 12 4 13
REMARK SMILES IDX 5 14 7 15 9 16 6 17 74 18 69 19 70 20 71 21 72 22 73 23
REMARK SMILES IDX 17 24 18 25 19 26 20 28 21 29 22 30 68 31 23 32 67 33 24 34
REMARK SMILES IDX 25 35 26 36 61 37 27 38 66 39 60 40 62 41 28 42 65 43 59 44
REMARK SMILES IDX 58 45 29 47 51 48 36 49 50 50 37 51 40 52 49 53 63 54 38 55
REMARK SMILES IDX 39 56 48 58 64 59 41 60 30 61 31 62 35 63 32 64 34 65 33 66
REMARK SMILES IDX 52 67 53 68 57 69 54 70 56 71 55 72 42 73 43 74 47 75 44 76
REMARK SMILES IDX 46 77 45 78
REMARK H PARENT 13 7 18 27 62 46 40 57
REMARK Flexibility Score: inf
ROOT
ATOM      1  C   UNL A   1      37.971  19.965  25.001  1.00  0.00     0.023 C 
ENDROOT
BRANCH   1   2
ATOM      2  C   UNL A   1      37.202  21.224  24.596  1.00  0.00     0.023 C 
BRANCH   2   3
ATOM      3  C   UNL A   1      37.348  22.384  25.575  1.00  0.00     0.116 C 
BRANCH   3   4
ATOM      4  N   UNL A   1      36.201  22.492  26.458  1.00  0.00    -0.352 N 
ATOM      5  C   UNL A   1      35.008  23.129  26.455  1.00  0.00     0.251 C 
ATOM      6  O   UNL A   1      34.318  22.944  27.464  1.00  0.00    -0.270 OA
ATOM      7  H   UNL A   1      36.323  21.958  27.276  1.00  0.00     0.163 HD
BRANCH   5   8
ATOM      8  C   UNL A   1      34.491  24.003  25.358  1.00  0.00     0.067 C 
ATOM      9  C   UNL A   1      32.205  27.555  26.514  1.00  0.00     0.047 C 
ATOM     10  C   UNL A   1      32.587  27.220  25.094  1.00  0.00    -0.021 A 
ATOM     11  C   UNL A   1      32.096  28.027  24.042  1.00  0.00     0.044 A 
ATOM     12  C   UNL A   1      33.369  26.086  24.761  1.00  0.00     0.022 A 
ATOM     13  Cl  UNL A   1      31.083  29.401  24.335  1.00  0.00    -0.084 Cl
ATOM     14  C   UNL A   1      32.402  27.750  22.707  1.00  0.00     0.024 A 
ATOM     15  C   UNL A   1      33.647  25.819  23.410  1.00  0.00     0.128 A 
ATOM     16  C   UNL A   1      33.946  25.171  25.751  1.00  0.00     0.026 C 
ATOM     17  C   UNL A   1      33.185  26.649  22.392  1.00  0.00     0.048 A 
ATOM     18  O   UNL A   1      34.414  24.766  22.997  1.00  0.00    -0.475 OA
ATOM     19  C   UNL A   1      34.510  23.639  23.906  1.00  0.00     0.314 C 
BRANCH  19  20
ATOM     20  C   UNL A   1      33.448  22.587  23.540  1.00  0.00     0.429 C 
ATOM     21  F   UNL A   1      33.235  22.575  22.199  1.00  0.00    -0.167 F 
ATOM     22  F   UNL A   1      33.825  21.332  23.876  1.00  0.00    -0.167 F 
ATOM     23  F   UNL A   1      32.257  22.815  24.138  1.00  0.00    -0.167 F 
ENDBRANCH  19  20
ENDBRANCH   5   8
ENDBRANCH   3   4
ENDBRANCH   2   3
ENDBRANCH   1   2
BRANCH   1  24
ATOM     24  C   UNL A   1      39.236  20.209  25.820  1.00  0.00     0.116 C 
BRANCH  24  25
ATOM     25  N   UNL A   1      40.195  19.114  25.751  1.00  0.00    -0.352 N 
ATOM     26  C   UNL A   1      41.548  19.165  25.982  1.00  0.00     0.251 C 
ATOM     27  H   UNL A   1      39.830  18.233  25.508  1.00  0.00     0.163 HD
ATOM     28  O   UNL A   1      42.260  18.181  25.829  1.00  0.00    -0.269 OA
BRANCH  26  29
ATOM     29  C   UNL A   1      42.132  20.455  26.382  1.00  0.00     0.039 A 
ATOM     30  C   UNL A   1      42.536  21.344  25.387  1.00  0.00     0.014 A 
ATOM     31  C   UNL A   1      42.175  20.809  27.734  1.00  0.00     0.014 A 
ATOM     32  C   UNL A   1      42.929  22.630  25.745  1.00  0.00     0.010 A 
ATOM     33  C   UNL A   1      42.527  22.107  28.085  1.00  0.00     0.010 A 
ATOM     34  C   UNL A   1      42.897  23.027  27.093  1.00  0.00    -0.014 A 
BRANCH  34  35
ATOM     35  C   UNL A   1      43.253  24.410  27.474  1.00  0.00     0.031 A 
ATOM     36  C   UNL A   1      44.683  24.851  27.431  1.00  0.00     0.074 A 
ATOM     37  C   UNL A   1      42.287  25.257  27.879  1.00  0.00     0.049 A 
ATOM     38  N   UNL A   1      45.189  26.022  27.715  1.00  0.00    -0.248 NA
ATOM     39  C   UNL A   1      45.677  23.841  27.031  1.00  0.00     0.031 C 
ATOM     40  C   UNL A   1      40.863  24.931  27.985  1.00  0.00     0.029 A 
ATOM     41  N   UNL A   1      42.361  26.569  28.267  1.00  0.00    -0.354 N 
ATOM     42  C   UNL A   1      46.557  25.893  27.526  1.00  0.00     0.074 A 
ATOM     43  C   UNL A   1      46.810  24.520  27.148  1.00  0.00     0.031 C 
ATOM     44  C   UNL A   1      40.193  26.028  28.376  1.00  0.00     0.029 A 
ATOM     45  C   UNL A   1      41.140  27.123  28.566  1.00  0.00     0.049 A 
ATOM     46  H   UNL A   1      43.207  27.068  28.325  1.00  0.00     0.167 HD
ATOM     47  C   UNL A   1      47.515  26.841  27.633  1.00  0.00     0.031 A 
ATOM     48  C   UNL A   1      40.819  28.375  28.940  1.00  0.00     0.031 A 
ATOM     49  C   UNL A   1      47.265  28.207  27.996  1.00  0.00     0.049 A 
ATOM     50  C   UNL A   1      41.903  29.405  29.074  1.00  0.00     0.074 A 
ATOM     51  C   UNL A   1      48.168  29.250  28.091  1.00  0.00     0.029 A 
ATOM     52  N   UNL A   1      46.019  28.718  28.321  1.00  0.00    -0.354 N 
ATOM     53  N   UNL A   1      43.189  29.277  28.855  1.00  0.00    -0.248 NA
ATOM     54  C   UNL A   1      41.494  30.751  29.504  1.00  0.00     0.031 C 
ATOM     55  C   UNL A   1      47.471  30.391  28.501  1.00  0.00     0.029 A 
ATOM     56  C   UNL A   1      46.130  30.061  28.630  1.00  0.00     0.049 A 
ATOM     57  H   UNL A   1      45.180  28.202  28.329  1.00  0.00     0.167 HD
ATOM     58  C   UNL A   1      43.741  30.526  29.103  1.00  0.00     0.074 A 
ATOM     59  C   UNL A   1      42.652  31.400  29.488  1.00  0.00     0.031 C 
ATOM     60  C   UNL A   1      45.036  30.911  29.015  1.00  0.00     0.031 A 
BRANCH  47  61
ATOM     61  C   UNL A   1      48.924  26.428  27.337  1.00  0.00    -0.014 A 
ATOM     62  C   UNL A   1      49.766  25.977  28.365  1.00  0.00     0.009 A 
ATOM     63  C   UNL A   1      49.403  26.454  26.020  1.00  0.00     0.009 A 
ATOM     64  C   UNL A   1      51.074  25.580  28.081  1.00  0.00     0.001 A 
ATOM     65  C   UNL A   1      50.705  26.038  25.736  1.00  0.00     0.001 A 
ATOM     66  C   UNL A   1      51.540  25.608  26.767  1.00  0.00     0.000 A 
ENDBRANCH  47  61
BRANCH  48  67
ATOM     67  C   UNL A   1      39.397  28.727  29.165  1.00  0.00    -0.014 A 
ATOM     68  C   UNL A   1      38.833  28.588  30.442  1.00  0.00     0.009 A 
ATOM     69  C   UNL A   1      38.613  29.243  28.123  1.00  0.00     0.009 A 
ATOM     70  C   UNL A   1      37.505  28.956  30.670  1.00  0.00     0.001 A 
ATOM     71  C   UNL A   1      37.289  29.623  28.359  1.00  0.00     0.001 A 
ATOM     72  C   UNL A   1      36.736  29.477  29.631  1.00  0.00     0.000 A 
ENDBRANCH  48  67
BRANCH  60  73
ATOM     73  C   UNL A   1      45.361  32.340  29.331  1.00  0.00    -0.014 A 
ATOM     74  C   UNL A   1      45.765  32.711  30.620  1.00  0.00     0.009 A 
ATOM     75  C   UNL A   1      45.376  33.294  28.302  1.00  0.00     0.009 A 
ATOM     76  C   UNL A   1      46.179  34.020  30.875  1.00  0.00     0.001 A 
ATOM     77  C   UNL A   1      45.804  34.597  28.557  1.00  0.00     0.001 A 
ATOM     78  C   UNL A   1      46.205  34.958  29.843  1.00  0.00     0.000 A 
ENDBRANCH  60  73
ENDBRANCH  34  35
ENDBRANCH  26  29
ENDBRANCH  24  25
ENDBRANCH   1  24
TORSDOF 12
ENDMDL
MODEL 2
REMARK VINA RESULT:     -12.0      5.253     10.102
REMARK SMILES Cc1c(Cl)ccc2c1C=C(C(=O)NCCCCNC(=O)c1ccc(-c3c4nc(c(-c5ccccc5)c5ccc([nH]5)c(-c5ccccc5)c5nc(c(-c6ccccc6)c6ccc3[nH]6)C=C5)C=C4)cc1)[C@@H](C(F)(F)F)O2
REMARK SMILES IDX 16 1 15 2 14 3 13 4 11 5 12 6 10 8 1 9 2 10 3 11 8 12 4 13
REMARK SMILES IDX 5 14 7 15 9 16 6 17 74 18 69 19 70 20 71 21 72 22 73 23
REMARK SMILES IDX 17 24 18 25 19 26 20 28 21 29 22 30 68 31 23 32 67 33 24 34
REMARK SMILES IDX 25 35 26 36 61 37 27 38 66 39 60 40 62 41 28 42 65 43 59 44
REMARK SMILES IDX 58 45 29 47 51 48 36 49 50 50 37 51 40 52 49 53 63 54 38 55
REMARK SMILES IDX 39 56 48 58 64 59 41 60 30 61 31 62 35 63 32 64 34 65 33 66
REMARK SMILES IDX 52 67 53 68 57 69 54 70 56 71 55 72 42 73 43 74 47 75 44 76
REMARK SMILES IDX 46 77 45 78
REMARK H PARENT 13 7 18 27 62 46 40 57
REMARK Flexibility Score: inf
ROOT
ATOM      1  C   UNL A   1      31.632  32.011  26.747  1.00  0.00     0.023 C 
ENDROOT
BRANCH   1   2
ATOM      2  C   UNL A   1      31.856  30.500  26.841  1.00  0.00     0.023 C 
BRANCH   2   3
ATOM      3  C   UNL A   1      33.318  30.081  26.740  1.00  0.00     0.116 C 
BRANCH   3   4
ATOM      4  N   UNL A   1      33.656  29.618  25.407  1.00  0.00    -0.352 N 
ATOM      5  C   UNL A   1      33.621  28.449  24.727  1.00  0.00     0.251 C 
ATOM      6  O   UNL A   1      34.036  28.511  23.565  1.00  0.00    -0.270 OA
ATOM      7  H   UNL A   1      34.001  30.350  24.847  1.00  0.00     0.163 HD
BRANCH   5   8
ATOM      8  C   UNL A   1      33.130  27.144  25.266  1.00  0.00     0.067 C 
ATOM      9  C   UNL A   1      35.646  23.619  24.617  1.00  0.00     0.047 C 
ATOM     10  C   UNL A   1      34.377  23.614  25.434  1.00  0.00    -0.021 A 
ATOM     11  C   UNL A   1      33.891  22.387  25.940  1.00  0.00     0.044 A 
ATOM     12  C   UNL A   1      33.613  24.785  25.663  1.00  0.00     0.022 A 
ATOM     13  Cl  UNL A   1      34.717  20.889  25.667  1.00  0.00    -0.084 Cl
ATOM     14  C   UNL A   1      32.710  22.323  26.685  1.00  0.00     0.024 A 
ATOM     15  C   UNL A   1      32.420  24.691  26.399  1.00  0.00     0.128 A 
ATOM     16  C   UNL A   1      34.005  26.121  25.201  1.00  0.00     0.026 C 
ATOM     17  C   UNL A   1      31.979  23.478  26.921  1.00  0.00     0.048 A 
ATOM     18  O   UNL A   1      31.634  25.769  26.692  1.00  0.00    -0.475 OA
ATOM     19  C   UNL A   1      31.755  26.917  25.814  1.00  0.00     0.314 C 
BRANCH  19  20
ATOM     20  C   UNL A   1      30.680  26.843  24.715  1.00  0.00     0.429 C 
ATOM     21  F   UNL A   1      29.575  26.202  25.175  1.00  0.00    -0.167 F 
ATOM     22  F   UNL A   1      30.268  28.068  24.311  1.00  0.00    -0.167 F 
ATOM     23  F   UNL A   1      31.102  26.186  23.612  1.00  0.00    -0.167 F 
ENDBRANCH  19  20
ENDBRANCH   5   8
ENDBRANCH   3   4
ENDBRANCH   2   3
ENDBRANCH   1   2
BRANCH   1  24
ATOM     24  C   UNL A   1      32.775  32.874  27.277  1.00  0.00     0.116 C 
BRANCH  24  25
ATOM     25  N   UNL A   1      32.359  34.212  27.674  1.00  0.00    -0.352 N 
ATOM     26  C   UNL A   1      32.952  35.037  28.598  1.00  0.00     0.251 C 
ATOM     27  H   UNL A   1      31.557  34.567  27.227  1.00  0.00     0.163 HD
ATOM     28  O   UNL A   1      32.465  36.123  28.891  1.00  0.00    -0.269 OA
BRANCH  26  29
ATOM     29  C   UNL A   1      34.174  34.562  29.265  1.00  0.00     0.039 A 
ATOM     30  C   UNL A   1      34.054  33.875  30.473  1.00  0.00     0.014 A 
ATOM     31  C   UNL A   1      35.413  34.711  28.635  1.00  0.00     0.014 A 
ATOM     32  C   UNL A   1      35.180  33.273  31.026  1.00  0.00     0.010 A 
ATOM     33  C   UNL A   1      36.527  34.073  29.167  1.00  0.00     0.010 A 
ATOM     34  C   UNL A   1      36.415  33.344  30.360  1.00  0.00    -0.014 A 
BRANCH  34  35
ATOM     35  C   UNL A   1      37.602  32.654  30.909  1.00  0.00     0.031 A 
ATOM     36  C   UNL A   1      38.219  33.135  32.186  1.00  0.00     0.074 A 
ATOM     37  C   UNL A   1      38.132  31.611  30.242  1.00  0.00     0.049 A 
ATOM     38  N   UNL A   1      39.251  32.654  32.829  1.00  0.00    -0.248 NA
ATOM     39  C   UNL A   1      37.607  34.316  32.815  1.00  0.00     0.031 C 
ATOM     40  C   UNL A   1      37.631  31.071  28.976  1.00  0.00     0.029 A 
ATOM     41  N   UNL A   1      39.204  30.814  30.546  1.00  0.00    -0.354 N 
ATOM     42  C   UNL A   1      39.410  33.471  33.939  1.00  0.00     0.074 A 
ATOM     43  C   UNL A   1      38.401  34.504  33.860  1.00  0.00     0.031 C 
ATOM     44  C   UNL A   1      38.376  30.007  28.630  1.00  0.00     0.029 A 
ATOM     45  C   UNL A   1      39.414  29.805  29.638  1.00  0.00     0.049 A 
ATOM     46  H   UNL A   1      39.771  30.950  31.339  1.00  0.00     0.167 HD
ATOM     47  C   UNL A   1      40.303  33.355  34.948  1.00  0.00     0.031 A 
ATOM     48  C   UNL A   1      40.332  28.821  29.625  1.00  0.00     0.031 A 
ATOM     49  C   UNL A   1      41.297  32.324  35.034  1.00  0.00     0.049 A 
ATOM     50  C   UNL A   1      41.327  28.727  30.744  1.00  0.00     0.074 A 
ATOM     51  C   UNL A   1      42.220  32.102  36.040  1.00  0.00     0.029 A 
ATOM     52  N   UNL A   1      41.495  31.341  34.078  1.00  0.00    -0.354 N 
ATOM     53  N   UNL A   1      41.441  29.484  31.807  1.00  0.00    -0.248 NA
ATOM     54  C   UNL A   1      42.317  27.642  30.665  1.00  0.00     0.031 C 
ATOM     55  C   UNL A   1      42.997  30.996  35.679  1.00  0.00     0.029 A 
ATOM     56  C   UNL A   1      42.535  30.516  34.464  1.00  0.00     0.049 A 
ATOM     57  H   UNL A   1      40.973  31.244  33.249  1.00  0.00     0.167 HD
ATOM     58  C   UNL A   1      42.504  28.961  32.532  1.00  0.00     0.074 A 
ATOM     59  C   UNL A   1      42.999  27.820  31.790  1.00  0.00     0.031 C 
ATOM     60  C   UNL A   1      43.016  29.389  33.710  1.00  0.00     0.031 A 
BRANCH  47  61
ATOM     61  C   UNL A   1      40.229  34.369  36.047  1.00  0.00    -0.014 A 
ATOM     62  C   UNL A   1      40.954  35.568  35.964  1.00  0.00     0.009 A 
ATOM     63  C   UNL A   1      39.402  34.144  37.157  1.00  0.00     0.009 A 
ATOM     64  C   UNL A   1      40.870  36.515  36.985  1.00  0.00     0.001 A 
ATOM     65  C   UNL A   1      39.306  35.102  38.169  1.00  0.00     0.001 A 
ATOM     66  C   UNL A   1      40.044  36.282  38.084  1.00  0.00     0.000 A 
ENDBRANCH  47  61
BRANCH  48  67
ATOM     67  C   UNL A   1      40.313  27.820  28.532  1.00  0.00    -0.014 A 
ATOM     68  C   UNL A   1      41.018  28.064  27.343  1.00  0.00     0.009 A 
ATOM     69  C   UNL A   1      39.630  26.604  28.684  1.00  0.00     0.009 A 
ATOM     70  C   UNL A   1      41.038  27.108  26.325  1.00  0.00     0.001 A 
ATOM     71  C   UNL A   1      39.663  25.645  27.669  1.00  0.00     0.001 A 
ATOM     72  C   UNL A   1      40.365  25.899  26.491  1.00  0.00     0.000 A 
ENDBRANCH  48  67
BRANCH  60  73
ATOM     73  C   UNL A   1      44.170  28.625  34.286  1.00  0.00    -0.014 A 
ATOM     74  C   UNL A   1      45.488  29.031  34.039  1.00  0.00     0.009 A 
ATOM     75  C   UNL A   1      43.929  27.567  35.176  1.00  0.00     0.009 A 
ATOM     76  C   UNL A   1      46.551  28.386  34.675  1.00  0.00     0.001 A 
ATOM     77  C   UNL A   1      44.992  26.935  35.820  1.00  0.00     0.001 A 
ATOM     78  C   UNL A   1      46.301  27.345  35.570  1.00  0.00     0.000 A 
ENDBRANCH  60  73
ENDBRANCH  34  35
ENDBRANCH  26  29
ENDBRANCH  24  25
ENDBRANCH   1  24
TORSDOF 12
ENDMDL
MODEL 3
REMARK VINA RESULT:     -11.9      1.822      2.396
REMARK SMILES Cc1c(Cl)ccc2c1C=C(C(=O)NCCCCNC(=O)c1ccc(-c3c4nc(c(-c5ccccc5)c5ccc([nH]5)c(-c5ccccc5)c5nc(c(-c6ccccc6)c6ccc3[nH]6)C=C5)C=C4)cc1)[C@@H](C(F)(F)F)O2
REMARK SMILES IDX 16 1 15 2 14 3 13 4 11 5 12 6 10 8 1 9 2 10 3 11 8 12 4 13
REMARK SMILES IDX 5 14 7 15 9 16 6 17 74 18 69 19 70 20 71 21 72 22 73 23
REMARK SMILES IDX 17 24 18 25 19 26 20 28 21 29 22 30 68 31 23 32 67 33 24 34
REMARK SMILES IDX 25 35 26 36 61 37 27 38 66 39 60 40 62 41 28 42 65 43 59 44
REMARK SMILES IDX 58 45 29 47 51 48 36 49 50 50 37 51 40 52 49 53 63 54 38 55
REMARK SMILES IDX 39 56 48 58 64 59 41 60 30 61 31 62 35 63 32 64 34 65 33 66
REMARK SMILES IDX 52 67 53 68 57 69 54 70 56 71 55 72 42 73 43 74 47 75 44 76
REMARK SMILES IDX 46 77 45 78
REMARK H PARENT 13 7 18 27 62 46 40 57
REMARK Flexibility Score: inf
ROOT
ATOM      1  C   UNL A   1      39.253  21.431  25.825  1.00  0.00     0.023 C 
ENDROOT
BRANCH   1   2
ATOM      2  C   UNL A   1      39.191  22.811  26.484  1.00  0.00     0.023 C 
BRANCH   2   3
ATOM      3  C   UNL A   1      37.986  23.647  26.064  1.00  0.00     0.116 C 
BRANCH   3   4
ATOM      4  N   UNL A   1      37.624  23.413  24.678  1.00  0.00    -0.352 N 
ATOM      5  C   UNL A   1      36.485  23.327  23.955  1.00  0.00     0.251 C 
ATOM      6  O   UNL A   1      36.649  23.089  22.754  1.00  0.00    -0.270 OA
ATOM      7  H   UNL A   1      38.420  23.284  24.114  1.00  0.00     0.163 HD
BRANCH   5   8
ATOM      8  C   UNL A   1      35.100  23.498  24.491  1.00  0.00     0.067 C 
ATOM      9  C   UNL A   1      34.028  27.429  26.097  1.00  0.00     0.047 C 
ATOM     10  C   UNL A   1      33.061  26.279  25.959  1.00  0.00    -0.021 A 
ATOM     11  C   UNL A   1      31.751  26.417  26.472  1.00  0.00     0.044 A 
ATOM     12  C   UNL A   1      33.431  25.035  25.390  1.00  0.00     0.022 A 
ATOM     13  Cl  UNL A   1      31.216  27.875  27.240  1.00  0.00    -0.084 Cl
ATOM     14  C   UNL A   1      30.822  25.377  26.389  1.00  0.00     0.024 A 
ATOM     15  C   UNL A   1      32.484  23.999  25.334  1.00  0.00     0.128 A 
ATOM     16  C   UNL A   1      34.752  24.759  24.814  1.00  0.00     0.026 C 
ATOM     17  C   UNL A   1      31.187  24.170  25.812  1.00  0.00     0.048 A 
ATOM     18  O   UNL A   1      32.742  22.777  24.781  1.00  0.00    -0.475 OA
ATOM     19  C   UNL A   1      34.135  22.376  24.716  1.00  0.00     0.314 C 
BRANCH  19  20
ATOM     20  C   UNL A   1      34.485  21.526  25.952  1.00  0.00     0.429 C 
ATOM     21  F   UNL A   1      34.790  22.326  27.006  1.00  0.00    -0.167 F 
ATOM     22  F   UNL A   1      33.454  20.745  26.352  1.00  0.00    -0.167 F 
ATOM     23  F   UNL A   1      35.541  20.709  25.743  1.00  0.00    -0.167 F 
ENDBRANCH  19  20
ENDBRANCH   5   8
ENDBRANCH   3   4
ENDBRANCH   2   3
ENDBRANCH   1   2
BRANCH   1  24
ATOM     24  C   UNL A   1      39.927  20.342  26.656  1.00  0.00     0.116 C 
BRANCH  24  25
ATOM     25  N   UNL A   1      41.009  19.662  25.957  1.00  0.00    -0.352 N 
ATOM     26  C   UNL A   1      42.292  20.109  25.755  1.00  0.00     0.251 C 
ATOM     27  H   UNL A   1      40.795  18.776  25.585  1.00  0.00     0.163 HD
ATOM     28  O   UNL A   1      43.096  19.466  25.091  1.00  0.00    -0.269 OA
BRANCH  26  29
ATOM     29  C   UNL A   1      42.666  21.413  26.325  1.00  0.00     0.039 A 
ATOM     30  C   UNL A   1      42.917  22.475  25.458  1.00  0.00     0.014 A 
ATOM     31  C   UNL A   1      42.663  21.592  27.712  1.00  0.00     0.014 A 
ATOM     32  C   UNL A   1      43.103  23.750  25.984  1.00  0.00     0.010 A 
ATOM     33  C   UNL A   1      42.807  22.873  28.232  1.00  0.00     0.010 A 
ATOM     34  C   UNL A   1      43.018  23.960  27.371  1.00  0.00    -0.014 A 
BRANCH  34  35
ATOM     35  C   UNL A   1      43.153  25.321  27.931  1.00  0.00     0.031 A 
ATOM     36  C   UNL A   1      44.508  25.853  28.281  1.00  0.00     0.074 A 
ATOM     37  C   UNL A   1      42.050  26.064  28.144  1.00  0.00     0.049 A 
ATOM     38  N   UNL A   1      44.829  27.022  28.769  1.00  0.00    -0.248 NA
ATOM     39  C   UNL A   1      45.651  24.950  28.068  1.00  0.00     0.031 C 
ATOM     40  C   UNL A   1      40.675  25.640  27.866  1.00  0.00     0.029 A 
ATOM     41  N   UNL A   1      41.916  27.336  28.635  1.00  0.00    -0.354 N 
ATOM     42  C   UNL A   1      46.207  26.998  28.919  1.00  0.00     0.074 A 
ATOM     43  C   UNL A   1      46.659  25.685  28.515  1.00  0.00     0.031 C 
ATOM     44  C   UNL A   1      39.840  26.651  28.158  1.00  0.00     0.029 A 
ATOM     45  C   UNL A   1      40.617  27.781  28.660  1.00  0.00     0.049 A 
ATOM     46  H   UNL A   1      42.677  27.880  28.941  1.00  0.00     0.167 HD
ATOM     47  C   UNL A   1      47.027  27.990  29.333  1.00  0.00     0.031 A 
ATOM     48  C   UNL A   1      40.110  28.970  29.034  1.00  0.00     0.031 A 
ATOM     49  C   UNL A   1      46.581  29.298  29.723  1.00  0.00     0.049 A 
ATOM     50  C   UNL A   1      41.038  30.049  29.512  1.00  0.00     0.074 A 
ATOM     51  C   UNL A   1      47.343  30.382  30.119  1.00  0.00     0.029 A 
ATOM     52  N   UNL A   1      45.256  29.696  29.763  1.00  0.00    -0.354 N 
ATOM     53  N   UNL A   1      42.344  30.024  29.612  1.00  0.00    -0.248 NA
ATOM     54  C   UNL A   1      40.424  31.321  29.925  1.00  0.00     0.031 C 
ATOM     55  C   UNL A   1      46.473  31.433  30.425  1.00  0.00     0.029 A 
ATOM     56  C   UNL A   1      45.174  31.009  30.190  1.00  0.00     0.049 A 
ATOM     57  H   UNL A   1      44.487  29.131  29.523  1.00  0.00     0.167 HD
ATOM     58  C   UNL A   1      42.712  31.277  30.084  1.00  0.00     0.074 A 
ATOM     59  C   UNL A   1      41.492  32.040  30.249  1.00  0.00     0.031 C 
ATOM     60  C   UNL A   1      43.952  31.749  30.352  1.00  0.00     0.031 A 
BRANCH  47  61
ATOM     61  C   UNL A   1      48.495  27.696  29.369  1.00  0.00    -0.014 A 
ATOM     62  C   UNL A   1      49.303  27.961  28.253  1.00  0.00     0.009 A 
ATOM     63  C   UNL A   1      49.082  27.185  30.535  1.00  0.00     0.009 A 
ATOM     64  C   UNL A   1      50.673  27.697  28.297  1.00  0.00     0.001 A 
ATOM     65  C   UNL A   1      50.456  26.939  30.582  1.00  0.00     0.001 A 
ATOM     66  C   UNL A   1      51.248  27.190  29.462  1.00  0.00     0.000 A 
ENDBRANCH  47  61
BRANCH  48  67
ATOM     67  C   UNL A   1      38.652  29.210  28.922  1.00  0.00    -0.014 A 
ATOM     68  C   UNL A   1      37.827  29.065  30.048  1.00  0.00     0.009 A 
ATOM     69  C   UNL A   1      38.084  29.624  27.708  1.00  0.00     0.009 A 
ATOM     70  C   UNL A   1      36.458  29.329  29.959  1.00  0.00     0.001 A 
ATOM     71  C   UNL A   1      36.717  29.899  27.626  1.00  0.00     0.001 A 
ATOM     72  C   UNL A   1      35.906  29.749  28.751  1.00  0.00     0.000 A 
ENDBRANCH  48  67
BRANCH  60  73
ATOM     73  C   UNL A   1      44.068  33.160  30.845  1.00  0.00    -0.014 A 
ATOM     74  C   UNL A   1      44.136  34.227  29.940  1.00  0.00     0.009 A 
ATOM     75  C   UNL A   1      43.989  33.426  32.220  1.00  0.00     0.009 A 
ATOM     76  C   UNL A   1      44.125  35.543  30.406  1.00  0.00     0.001 A 
ATOM     77  C   UNL A   1      43.964  34.741  32.682  1.00  0.00     0.001 A 
ATOM     78  C   UNL A   1      44.031  35.798  31.775  1.00  0.00     0.000 A 
ENDBRANCH  60  73
ENDBRANCH  34  35
ENDBRANCH  26  29
ENDBRANCH  24  25
ENDBRANCH   1  24
TORSDOF 12
ENDMDL
