MODEL 1
REMARK VINA RESULT:      -9.4      0.000      0.000
REMARK SMILES CCC[C@@H](C[NH2+]C(C)C)C(=O)NCCCCNC(=O)c1ccc(-c2c3nc(c(-c4ccccc4)c4ccc([nH]4)c(-c4ccccc4)c4nc(c(-c5ccccc5)c5ccc2[nH]5)C=C4)C=C3)cc1
REMARK SMILES IDX 14 1 13 2 12 3 10 4 11 5 4 7 3 8 2 9 1 10 5 11 6 12 7 15
REMARK SMILES IDX 8 16 9 17 15 18 16 19 17 20 18 21 19 23 20 24 21 25 67 26
REMARK SMILES IDX 22 27 66 28 23 29 24 30 25 31 60 32 26 33 65 34 59 35 61 36
REMARK SMILES IDX 27 37 64 38 58 39 57 40 28 42 50 43 35 44 49 45 36 46 39 47
REMARK SMILES IDX 48 48 62 49 37 50 38 51 47 53 63 54 40 55 29 56 30 57 34 58
REMARK SMILES IDX 31 59 33 60 32 61 51 62 52 63 56 64 53 65 55 66 54 67 41 68
REMARK SMILES IDX 42 69 46 70 43 71 45 72 44 73
REMARK H PARENT 12 6 6 13 6 14 17 22 61 41 39 52
REMARK Flexibility Score: inf
ROOT
ATOM      1  C   UNL A   1      36.967  21.101  24.792  1.00  0.00     0.023 C 
ENDROOT
BRANCH   1   2
ATOM      2  C   UNL A   1      35.781  21.112  25.746  1.00  0.00     0.116 C 
BRANCH   2   3
ATOM      3  N   UNL A   1      34.660  20.331  25.265  1.00  0.00    -0.356 N 
ATOM      4  C   UNL A   1      33.521  20.734  24.635  1.00  0.00     0.228 C 
ATOM      5  O   UNL A   1      32.780  19.848  24.196  1.00  0.00    -0.275 OA
ATOM      6  H   UNL A   1      34.731  19.362  25.417  1.00  0.00     0.163 HD
BRANCH   4   7
ATOM      7  C   UNL A   1      33.138  22.208  24.467  1.00  0.00     0.133 C 
BRANCH   7   8
ATOM      8  C   UNL A   1      33.819  22.846  23.239  1.00  0.00     0.019 C 
BRANCH   8   9
ATOM      9  C   UNL A   1      34.360  24.262  23.430  1.00  0.00    -0.002 C 
ATOM     10  C   UNL A   1      34.790  24.556  24.856  1.00  0.00     0.004 C 
ENDBRANCH   8   9
ENDBRANCH   7   8
BRANCH   7  11
ATOM     11  C   UNL A   1      31.626  22.444  24.687  1.00  0.00     0.274 C 
BRANCH  11  12
ATOM     12  N   UNL A   1      31.111  21.986  25.975  1.00  0.00    -0.344 N 
ATOM     13  H   UNL A   1      31.854  21.473  26.450  1.00  0.00     0.346 HD
ATOM     14  H   UNL A   1      30.295  21.408  25.772  1.00  0.00     0.346 HD
BRANCH  12  15
ATOM     15  C   UNL A   1      30.655  23.056  26.862  1.00  0.00     0.176 C 
ATOM     16  C   UNL A   1      30.671  24.402  26.140  1.00  0.00     0.075 C 
ATOM     17  C   UNL A   1      29.232  22.705  27.300  1.00  0.00     0.075 C 
ENDBRANCH  12  15
ENDBRANCH  11  12
ENDBRANCH   7  11
ENDBRANCH   4   7
ENDBRANCH   2   3
ENDBRANCH   1   2
BRANCH   1  18
ATOM     18  C   UNL A   1      37.936  19.943  24.995  1.00  0.00     0.023 C 
BRANCH  18  19
ATOM     19  C   UNL A   1      39.158  20.264  25.846  1.00  0.00     0.116 C 
BRANCH  19  20
ATOM     20  N   UNL A   1      40.163  19.210  25.844  1.00  0.00    -0.352 N 
ATOM     21  C   UNL A   1      41.513  19.296  26.097  1.00  0.00     0.251 C 
ATOM     22  H   UNL A   1      39.830  18.308  25.632  1.00  0.00     0.163 HD
ATOM     23  O   UNL A   1      42.239  18.322  25.950  1.00  0.00    -0.269 OA
BRANCH  21  24
ATOM     24  C   UNL A   1      42.085  20.594  26.513  1.00  0.00     0.039 A 
ATOM     25  C   UNL A   1      42.474  21.504  25.529  1.00  0.00     0.014 A 
ATOM     26  C   UNL A   1      42.191  20.926  27.865  1.00  0.00     0.014 A 
ATOM     27  C   UNL A   1      42.897  22.779  25.903  1.00  0.00     0.010 A 
ATOM     28  C   UNL A   1      42.522  22.225  28.230  1.00  0.00     0.010 A 
ATOM     29  C   UNL A   1      42.883  23.165  27.255  1.00  0.00    -0.014 A 
BRANCH  29  30
ATOM     30  C   UNL A   1      43.241  24.548  27.656  1.00  0.00     0.031 A 
ATOM     31  C   UNL A   1      44.677  24.996  27.644  1.00  0.00     0.074 A 
ATOM     32  C   UNL A   1      42.276  25.390  28.074  1.00  0.00     0.049 A 
ATOM     33  N   UNL A   1      45.177  26.167  27.946  1.00  0.00    -0.248 NA
ATOM     34  C   UNL A   1      45.686  23.991  27.271  1.00  0.00     0.031 C 
ATOM     35  C   UNL A   1      40.853  25.061  28.193  1.00  0.00     0.029 A 
ATOM     36  N   UNL A   1      42.346  26.701  28.472  1.00  0.00    -0.354 N 
ATOM     37  C   UNL A   1      46.554  26.034  27.811  1.00  0.00     0.074 A 
ATOM     38  C   UNL A   1      46.814  24.656  27.462  1.00  0.00     0.031 C 
ATOM     39  C   UNL A   1      40.180  26.153  28.588  1.00  0.00     0.029 A 
ATOM     40  C   UNL A   1      41.124  27.248  28.782  1.00  0.00     0.049 A 
ATOM     41  H   UNL A   1      43.192  27.203  28.529  1.00  0.00     0.167 HD
ATOM     42  C   UNL A   1      47.515  26.980  27.937  1.00  0.00     0.031 A 
ATOM     43  C   UNL A   1      40.799  28.496  29.168  1.00  0.00     0.031 A 
ATOM     44  C   UNL A   1      47.258  28.353  28.277  1.00  0.00     0.049 A 
ATOM     45  C   UNL A   1      41.883  29.531  29.291  1.00  0.00     0.074 A 
ATOM     46  C   UNL A   1      48.157  29.400  28.377  1.00  0.00     0.029 A 
ATOM     47  N   UNL A   1      46.006  28.870  28.572  1.00  0.00    -0.354 N 
ATOM     48  N   UNL A   1      43.172  29.409  29.080  1.00  0.00    -0.248 NA
ATOM     49  C   UNL A   1      41.460  30.882  29.684  1.00  0.00     0.031 C 
ATOM     50  C   UNL A   1      47.455  30.542  28.780  1.00  0.00     0.029 A 
ATOM     51  C   UNL A   1      46.111  30.217  28.873  1.00  0.00     0.049 A 
ATOM     52  H   UNL A   1      45.167  28.355  28.569  1.00  0.00     0.167 HD
ATOM     53  C   UNL A   1      43.709  30.673  29.286  1.00  0.00     0.074 A 
ATOM     54  C   UNL A   1      42.603  31.549  29.618  1.00  0.00     0.031 C 
ATOM     55  C   UNL A   1      45.002  31.074  29.208  1.00  0.00     0.031 A 
BRANCH  42  56
ATOM     56  C   UNL A   1      48.937  26.549  27.706  1.00  0.00    -0.014 A 
ATOM     57  C   UNL A   1      49.497  26.549  26.418  1.00  0.00     0.009 A 
ATOM     58  C   UNL A   1      49.735  26.154  28.792  1.00  0.00     0.009 A 
ATOM     59  C   UNL A   1      50.812  26.124  26.216  1.00  0.00     0.001 A 
ATOM     60  C   UNL A   1      51.060  25.760  28.591  1.00  0.00     0.001 A 
ATOM     61  C   UNL A   1      51.593  25.734  27.303  1.00  0.00     0.000 A 
ENDBRANCH  42  56
BRANCH  43  62
ATOM     62  C   UNL A   1      39.379  28.852  29.426  1.00  0.00    -0.014 A 
ATOM     63  C   UNL A   1      38.825  28.680  30.704  1.00  0.00     0.009 A 
ATOM     64  C   UNL A   1      38.570  29.357  28.397  1.00  0.00     0.009 A 
ATOM     65  C   UNL A   1      37.481  28.976  30.939  1.00  0.00     0.001 A 
ATOM     66  C   UNL A   1      37.233  29.681  28.643  1.00  0.00     0.001 A 
ATOM     67  C   UNL A   1      36.687  29.480  29.910  1.00  0.00     0.000 A 
ENDBRANCH  43  62
BRANCH  55  68
ATOM     68  C   UNL A   1      45.279  32.531  29.450  1.00  0.00    -0.014 A 
ATOM     69  C   UNL A   1      45.242  33.467  28.405  1.00  0.00     0.009 A 
ATOM     70  C   UNL A   1      45.570  32.974  30.750  1.00  0.00     0.009 A 
ATOM     71  C   UNL A   1      45.538  34.810  28.650  1.00  0.00     0.001 A 
ATOM     72  C   UNL A   1      45.833  34.322  30.997  1.00  0.00     0.001 A 
ATOM     73  C   UNL A   1      45.830  35.235  29.944  1.00  0.00     0.000 A 
ENDBRANCH  55  68
ENDBRANCH  29  30
ENDBRANCH  21  24
ENDBRANCH  19  20
ENDBRANCH  18  19
ENDBRANCH   1  18
TORSDOF 16
ENDMDL
MODEL 2
REMARK VINA RESULT:      -9.1      1.473      2.070
REMARK SMILES CCC[C@@H](C[NH2+]C(C)C)C(=O)NCCCCNC(=O)c1ccc(-c2c3nc(c(-c4ccccc4)c4ccc([nH]4)c(-c4ccccc4)c4nc(c(-c5ccccc5)c5ccc2[nH]5)C=C4)C=C3)cc1
REMARK SMILES IDX 14 1 13 2 12 3 10 4 11 5 4 7 3 8 2 9 1 10 5 11 6 12 7 15
REMARK SMILES IDX 8 16 9 17 15 18 16 19 17 20 18 21 19 23 20 24 21 25 67 26
REMARK SMILES IDX 22 27 66 28 23 29 24 30 25 31 60 32 26 33 65 34 59 35 61 36
REMARK SMILES IDX 27 37 64 38 58 39 57 40 28 42 50 43 35 44 49 45 36 46 39 47
REMARK SMILES IDX 48 48 62 49 37 50 38 51 47 53 63 54 40 55 29 56 30 57 34 58
REMARK SMILES IDX 31 59 33 60 32 61 51 62 52 63 56 64 53 65 55 66 54 67 41 68
REMARK SMILES IDX 42 69 46 70 43 71 45 72 44 73
REMARK H PARENT 12 6 6 13 6 14 17 22 61 41 39 52
REMARK Flexibility Score: inf
ROOT
ATOM      1  C   UNL A   1      36.579  20.969  25.127  1.00  0.00     0.023 C 
ENDROOT
BRANCH   1   2
ATOM      2  C   UNL A   1      36.771  22.387  24.608  1.00  0.00     0.116 C 
BRANCH   2   3
ATOM      3  N   UNL A   1      35.899  22.706  23.496  1.00  0.00    -0.356 N 
ATOM      4  C   UNL A   1      34.605  23.132  23.495  1.00  0.00     0.228 C 
ATOM      5  O   UNL A   1      34.129  23.475  22.407  1.00  0.00    -0.275 OA
ATOM      6  H   UNL A   1      36.302  22.598  22.605  1.00  0.00     0.163 HD
BRANCH   4   7
ATOM      7  C   UNL A   1      33.745  23.190  24.762  1.00  0.00     0.133 C 
BRANCH   7   8
ATOM      8  C   UNL A   1      33.151  24.595  24.993  1.00  0.00     0.019 C 
BRANCH   8   9
ATOM      9  C   UNL A   1      34.152  25.704  25.312  1.00  0.00    -0.002 C 
ATOM     10  C   UNL A   1      33.517  26.917  25.967  1.00  0.00     0.004 C 
ENDBRANCH   8   9
ENDBRANCH   7   8
BRANCH   7  11
ATOM     11  C   UNL A   1      32.819  21.959  24.893  1.00  0.00     0.274 C 
BRANCH  11  12
ATOM     12  N   UNL A   1      32.775  21.093  23.717  1.00  0.00    -0.344 N 
ATOM     13  H   UNL A   1      33.445  21.448  23.035  1.00  0.00     0.346 HD
ATOM     14  H   UNL A   1      31.812  21.114  23.378  1.00  0.00     0.346 HD
BRANCH  12  15
ATOM     15  C   UNL A   1      33.093  19.691  23.983  1.00  0.00     0.176 C 
ATOM     16  C   UNL A   1      32.750  19.322  25.425  1.00  0.00     0.075 C 
ATOM     17  C   UNL A   1      32.271  18.846  23.008  1.00  0.00     0.075 C 
ENDBRANCH  12  15
ENDBRANCH  11  12
ENDBRANCH   7  11
ENDBRANCH   4   7
ENDBRANCH   2   3
ENDBRANCH   1   2
BRANCH   1  18
ATOM     18  C   UNL A   1      37.785  20.057  24.946  1.00  0.00     0.023 C 
BRANCH  18  19
ATOM     19  C   UNL A   1      39.021  20.451  25.746  1.00  0.00     0.116 C 
BRANCH  19  20
ATOM     20  N   UNL A   1      40.073  19.444  25.727  1.00  0.00    -0.352 N 
ATOM     21  C   UNL A   1      41.400  19.568  26.069  1.00  0.00     0.251 C 
ATOM     22  H   UNL A   1      39.797  18.549  25.426  1.00  0.00     0.163 HD
ATOM     23  O   UNL A   1      42.179  18.641  25.895  1.00  0.00    -0.269 OA
BRANCH  21  24
ATOM     24  C   UNL A   1      41.885  20.853  26.618  1.00  0.00     0.039 A 
ATOM     25  C   UNL A   1      42.314  21.842  25.733  1.00  0.00     0.014 A 
ATOM     26  C   UNL A   1      41.867  21.093  27.993  1.00  0.00     0.014 A 
ATOM     27  C   UNL A   1      42.654  23.102  26.226  1.00  0.00     0.010 A 
ATOM     28  C   UNL A   1      42.115  22.374  28.471  1.00  0.00     0.010 A 
ATOM     29  C   UNL A   1      42.516  23.392  27.594  1.00  0.00    -0.014 A 
BRANCH  29  30
ATOM     30  C   UNL A   1      42.784  24.755  28.115  1.00  0.00     0.031 A 
ATOM     31  C   UNL A   1      44.184  25.169  28.477  1.00  0.00     0.074 A 
ATOM     32  C   UNL A   1      41.759  25.608  28.306  1.00  0.00     0.049 A 
ATOM     33  N   UNL A   1      44.611  26.319  28.931  1.00  0.00    -0.248 NA
ATOM     34  C   UNL A   1      45.238  24.150  28.337  1.00  0.00     0.031 C 
ATOM     35  C   UNL A   1      40.346  25.309  28.054  1.00  0.00     0.029 A 
ATOM     36  N   UNL A   1      41.748  26.906  28.749  1.00  0.00    -0.354 N 
ATOM     37  C   UNL A   1      45.976  26.158  29.141  1.00  0.00     0.074 A 
ATOM     38  C   UNL A   1      46.293  24.783  28.825  1.00  0.00     0.031 C 
ATOM     39  C   UNL A   1      39.614  26.407  28.303  1.00  0.00     0.029 A 
ATOM     40  C   UNL A   1      40.496  27.473  28.761  1.00  0.00     0.049 A 
ATOM     41  H   UNL A   1      42.560  27.386  29.032  1.00  0.00     0.167 HD
ATOM     42  C   UNL A   1      46.890  27.076  29.533  1.00  0.00     0.031 A 
ATOM     43  C   UNL A   1      40.105  28.718  29.093  1.00  0.00     0.031 A 
ATOM     44  C   UNL A   1      46.578  28.446  29.841  1.00  0.00     0.049 A 
ATOM     45  C   UNL A   1      41.140  29.723  29.515  1.00  0.00     0.074 A 
ATOM     46  C   UNL A   1      47.440  29.469  30.195  1.00  0.00     0.029 A 
ATOM     47  N   UNL A   1      45.300  28.984  29.830  1.00  0.00    -0.354 N 
ATOM     48  N   UNL A   1      42.438  29.576  29.630  1.00  0.00    -0.248 NA
ATOM     49  C   UNL A   1      40.654  31.073  29.833  1.00  0.00     0.031 C 
ATOM     50  C   UNL A   1      46.678  30.615  30.446  1.00  0.00     0.029 A 
ATOM     51  C   UNL A   1      45.348  30.321  30.190  1.00  0.00     0.049 A 
ATOM     52  H   UNL A   1      44.481  28.490  29.601  1.00  0.00     0.167 HD
ATOM     53  C   UNL A   1      42.928  30.822  30.004  1.00  0.00     0.074 A 
ATOM     54  C   UNL A   1      41.788  31.714  30.076  1.00  0.00     0.031 C 
ATOM     55  C   UNL A   1      44.205  31.194  30.264  1.00  0.00     0.031 A 
BRANCH  42  56
ATOM     56  C   UNL A   1      48.317  26.618  29.652  1.00  0.00    -0.014 A 
ATOM     57  C   UNL A   1      49.215  26.748  28.579  1.00  0.00     0.009 A 
ATOM     58  C   UNL A   1      48.778  26.066  30.857  1.00  0.00     0.009 A 
ATOM     59  C   UNL A   1      50.531  26.296  28.697  1.00  0.00     0.001 A 
ATOM     60  C   UNL A   1      50.104  25.645  30.982  1.00  0.00     0.001 A 
ATOM     61  C   UNL A   1      50.975  25.749  29.899  1.00  0.00     0.000 A 
ENDBRANCH  42  56
BRANCH  43  62
ATOM     62  C   UNL A   1      38.672  29.100  28.998  1.00  0.00    -0.014 A 
ATOM     63  C   UNL A   1      37.845  29.039  30.131  1.00  0.00     0.009 A 
ATOM     64  C   UNL A   1      38.122  29.520  27.778  1.00  0.00     0.009 A 
ATOM     65  C   UNL A   1      36.489  29.360  30.036  1.00  0.00     0.001 A 
ATOM     66  C   UNL A   1      36.772  29.869  27.693  1.00  0.00     0.001 A 
ATOM     67  C   UNL A   1      35.954  29.779  28.818  1.00  0.00     0.000 A 
ENDBRANCH  43  62
BRANCH  55  68
ATOM     68  C   UNL A   1      44.436  32.637  30.614  1.00  0.00    -0.014 A 
ATOM     69  C   UNL A   1      44.422  33.079  31.946  1.00  0.00     0.009 A 
ATOM     70  C   UNL A   1      44.684  33.566  29.592  1.00  0.00     0.009 A 
ATOM     71  C   UNL A   1      44.604  34.432  32.242  1.00  0.00     0.001 A 
ATOM     72  C   UNL A   1      44.898  34.911  29.894  1.00  0.00     0.001 A 
ATOM     73  C   UNL A   1      44.844  35.345  31.217  1.00  0.00     0.000 A 
ENDBRANCH  55  68
ENDBRANCH  29  30
ENDBRANCH  21  24
ENDBRANCH  19  20
ENDBRANCH  18  19
ENDBRANCH   1  18
TORSDOF 16
ENDMDL
MODEL 3
REMARK VINA RESULT:      -9.1      0.650      6.278
REMARK SMILES CCC[C@@H](C[NH2+]C(C)C)C(=O)NCCCCNC(=O)c1ccc(-c2c3nc(c(-c4ccccc4)c4ccc([nH]4)c(-c4ccccc4)c4nc(c(-c5ccccc5)c5ccc2[nH]5)C=C4)C=C3)cc1
REMARK SMILES IDX 14 1 13 2 12 3 10 4 11 5 4 7 3 8 2 9 1 10 5 11 6 12 7 15
REMARK SMILES IDX 8 16 9 17 15 18 16 19 17 20 18 21 19 23 20 24 21 25 67 26
REMARK SMILES IDX 22 27 66 28 23 29 24 30 25 31 60 32 26 33 65 34 59 35 61 36
REMARK SMILES IDX 27 37 64 38 58 39 57 40 28 42 50 43 35 44 49 45 36 46 39 47
REMARK SMILES IDX 48 48 62 49 37 50 38 51 47 53 63 54 40 55 29 56 30 57 34 58
REMARK SMILES IDX 31 59 33 60 32 61 51 62 52 63 56 64 53 65 55 66 54 67 41 68
REMARK SMILES IDX 42 69 46 70 43 71 45 72 44 73
REMARK H PARENT 12 6 6 13 6 14 17 22 61 41 39 52
REMARK Flexibility Score: inf
ROOT
ATOM      1  C   UNL A   1      37.144  21.265  24.728  1.00  0.00     0.023 C 
ENDROOT
BRANCH   1   2
ATOM      2  C   UNL A   1      35.957  21.410  25.670  1.00  0.00     0.116 C 
BRANCH   2   3
ATOM      3  N   UNL A   1      34.862  20.520  25.342  1.00  0.00    -0.356 N 
ATOM      4  C   UNL A   1      33.674  20.786  24.731  1.00  0.00     0.228 C 
ATOM      5  O   UNL A   1      32.966  19.816  24.437  1.00  0.00    -0.275 OA
ATOM      6  H   UNL A   1      34.996  19.581  25.601  1.00  0.00     0.163 HD
BRANCH   4   7
ATOM      7  C   UNL A   1      33.197  22.207  24.415  1.00  0.00     0.133 C 
BRANCH   7   8
ATOM      8  C   UNL A   1      33.786  22.732  23.091  1.00  0.00     0.019 C 
BRANCH   8   9
ATOM      9  C   UNL A   1      33.079  23.936  22.470  1.00  0.00    -0.002 C 
ATOM     10  C   UNL A   1      33.635  25.268  22.936  1.00  0.00     0.004 C 
ENDBRANCH   8   9
ENDBRANCH   7   8
BRANCH   7  11
ATOM     11  C   UNL A   1      31.685  22.387  24.682  1.00  0.00     0.274 C 
BRANCH  11  12
ATOM     12  N   UNL A   1      31.242  21.983  26.014  1.00  0.00    -0.344 N 
ATOM     13  H   UNL A   1      32.031  21.552  26.495  1.00  0.00     0.346 HD
ATOM     14  H   UNL A   1      30.459  21.342  25.878  1.00  0.00     0.346 HD
BRANCH  12  15
ATOM     15  C   UNL A   1      30.743  23.078  26.846  1.00  0.00     0.176 C 
ATOM     16  C   UNL A   1      30.759  24.395  26.073  1.00  0.00     0.075 C 
ATOM     17  C   UNL A   1      29.314  22.720  27.257  1.00  0.00     0.075 C 
ENDBRANCH  12  15
ENDBRANCH  11  12
ENDBRANCH   7  11
ENDBRANCH   4   7
ENDBRANCH   2   3
ENDBRANCH   1   2
BRANCH   1  18
ATOM     18  C   UNL A   1      38.022  20.050  24.993  1.00  0.00     0.023 C 
BRANCH  18  19
ATOM     19  C   UNL A   1      39.229  20.306  25.888  1.00  0.00     0.116 C 
BRANCH  19  20
ATOM     20  N   UNL A   1      40.184  19.206  25.908  1.00  0.00    -0.352 N 
ATOM     21  C   UNL A   1      41.543  19.240  26.121  1.00  0.00     0.251 C 
ATOM     22  H   UNL A   1      39.804  18.313  25.747  1.00  0.00     0.163 HD
ATOM     23  O   UNL A   1      42.219  18.227  26.000  1.00  0.00    -0.269 OA
BRANCH  21  24
ATOM     24  C   UNL A   1      42.186  20.526  26.461  1.00  0.00     0.039 A 
ATOM     25  C   UNL A   1      42.681  21.324  25.428  1.00  0.00     0.014 A 
ATOM     26  C   UNL A   1      42.254  20.961  27.786  1.00  0.00     0.014 A 
ATOM     27  C   UNL A   1      43.176  22.595  25.721  1.00  0.00     0.010 A 
ATOM     28  C   UNL A   1      42.660  22.261  28.063  1.00  0.00     0.010 A 
ATOM     29  C   UNL A   1      43.129  23.091  27.035  1.00  0.00    -0.014 A 
BRANCH  29  30
ATOM     30  C   UNL A   1      43.565  24.476  27.343  1.00  0.00     0.031 A 
ATOM     31  C   UNL A   1      42.563  25.512  27.770  1.00  0.00     0.074 A 
ATOM     32  C   UNL A   1      44.862  24.813  27.194  1.00  0.00     0.049 A 
ATOM     33  N   UNL A   1      42.760  26.765  28.094  1.00  0.00    -0.248 NA
ATOM     34  C   UNL A   1      41.151  25.096  27.813  1.00  0.00     0.031 C 
ATOM     35  C   UNL A   1      45.925  23.919  26.726  1.00  0.00     0.029 A 
ATOM     36  N   UNL A   1      45.508  26.000  27.429  1.00  0.00    -0.354 N 
ATOM     37  C   UNL A   1      41.500  27.285  28.366  1.00  0.00     0.074 A 
ATOM     38  C   UNL A   1      40.543  26.234  28.109  1.00  0.00     0.031 C 
ATOM     39  C   UNL A   1      47.095  24.576  26.754  1.00  0.00     0.029 A 
ATOM     40  C   UNL A   1      46.862  25.943  27.207  1.00  0.00     0.049 A 
ATOM     41  H   UNL A   1      45.045  26.816  27.728  1.00  0.00     0.167 HD
ATOM     42  C   UNL A   1      41.170  28.519  28.817  1.00  0.00     0.031 A 
ATOM     43  C   UNL A   1      47.813  26.883  27.364  1.00  0.00     0.031 A 
ATOM     44  C   UNL A   1      42.122  29.564  29.080  1.00  0.00     0.049 A 
ATOM     45  C   UNL A   1      47.423  28.241  27.876  1.00  0.00     0.074 A 
ATOM     46  C   UNL A   1      41.894  30.831  29.589  1.00  0.00     0.029 A 
ATOM     47  N   UNL A   1      43.486  29.463  28.853  1.00  0.00    -0.354 N 
ATOM     48  N   UNL A   1      46.237  28.692  28.206  1.00  0.00    -0.248 NA
ATOM     49  C   UNL A   1      48.511  29.213  28.056  1.00  0.00     0.031 C 
ATOM     50  C   UNL A   1      43.115  31.513  29.626  1.00  0.00     0.029 A 
ATOM     51  C   UNL A   1      44.110  30.650  29.195  1.00  0.00     0.049 A 
ATOM     52  H   UNL A   1      43.942  28.665  28.502  1.00  0.00     0.167 HD
ATOM     53  C   UNL A   1      46.439  29.989  28.661  1.00  0.00     0.074 A 
ATOM     54  C   UNL A   1      47.864  30.243  28.583  1.00  0.00     0.031 C 
ATOM     55  C   UNL A   1      45.528  30.890  29.104  1.00  0.00     0.031 A 
BRANCH  42  56
ATOM     56  C   UNL A   1      39.711  28.798  29.050  1.00  0.00    -0.014 A 
ATOM     57  C   UNL A   1      38.901  29.333  28.034  1.00  0.00     0.009 A 
ATOM     58  C   UNL A   1      39.131  28.505  30.294  1.00  0.00     0.009 A 
ATOM     59  C   UNL A   1      37.553  29.608  28.273  1.00  0.00     0.001 A 
ATOM     60  C   UNL A   1      37.775  28.752  30.520  1.00  0.00     0.001 A 
ATOM     61  C   UNL A   1      36.991  29.314  29.513  1.00  0.00     0.000 A 
ENDBRANCH  42  56
BRANCH  43  62
ATOM     62  C   UNL A   1      49.235  26.562  27.074  1.00  0.00    -0.014 A 
ATOM     63  C   UNL A   1      49.766  26.781  25.794  1.00  0.00     0.009 A 
ATOM     64  C   UNL A   1      50.066  26.029  28.071  1.00  0.00     0.009 A 
ATOM     65  C   UNL A   1      51.091  26.444  25.509  1.00  0.00     0.001 A 
ATOM     66  C   UNL A   1      51.400  25.720  27.791  1.00  0.00     0.001 A 
ATOM     67  C   UNL A   1      51.908  25.917  26.508  1.00  0.00     0.000 A 
ENDBRANCH  43  62
BRANCH  55  68
ATOM     68  C   UNL A   1      46.055  32.217  29.573  1.00  0.00    -0.014 A 
ATOM     69  C   UNL A   1      46.175  33.308  28.697  1.00  0.00     0.009 A 
ATOM     70  C   UNL A   1      46.425  32.381  30.916  1.00  0.00     0.009 A 
ATOM     71  C   UNL A   1      46.701  34.520  29.148  1.00  0.00     0.001 A 
ATOM     72  C   UNL A   1      46.920  33.603  31.372  1.00  0.00     0.001 A 
ATOM     73  C   UNL A   1      47.070  34.667  30.484  1.00  0.00     0.000 A 
ENDBRANCH  55  68
ENDBRANCH  29  30
ENDBRANCH  21  24
ENDBRANCH  19  20
ENDBRANCH  18  19
ENDBRANCH   1  18
TORSDOF 16
ENDMDL
