MODEL 1
REMARK VINA RESULT:     -12.0      0.000      0.000
REMARK SMILES O=C(NCCCCNC(=O)[C@H]1CC2(CCN(C(=O)C3CC3)CC2)CN1C(=O)CCn1cccn1)c1ccc(-c2c3nc(c(-c4ccccc4)c4ccc([nH]4)c(-c4ccccc4)c4nc(c(-c5ccccc5)c5ccc2[nH]5)C=C4)C=C3)cc1
REMARK SMILES IDX 6 1 5 2 4 3 3 4 1 5 2 6 35 8 36 9 82 10 37 11 81 12 38 13
REMARK SMILES IDX 39 14 40 15 75 16 41 17 80 18 74 19 76 20 42 21 79 22 73 23
REMARK SMILES IDX 72 24 43 26 65 27 50 28 64 29 51 30 54 31 63 32 77 33 52 34
REMARK SMILES IDX 53 35 62 37 78 38 55 39 44 40 45 41 49 42 46 43 48 44 47 45
REMARK SMILES IDX 66 46 67 47 71 48 68 49 70 50 69 51 56 52 57 53 61 54 58 55
REMARK SMILES IDX 60 56 59 57 7 58 8 59 9 60 10 62 11 63 12 64 25 65 13 66
REMARK SMILES IDX 24 67 14 68 23 69 15 70 22 71 16 72 17 73 18 74 26 75 27 76
REMARK SMILES IDX 28 77 29 78 30 79 31 80 34 81 32 82 33 83 19 84 20 85 21 86
REMARK H PARENT 3 7 76 25 54 36 8 61
REMARK Flexibility Score: inf
ROOT
ATOM      1  C   UNL A   1      34.637  30.903  27.635  1.00  0.00     0.023 C 
ENDROOT
BRANCH   1   2
ATOM      2  C   UNL A   1      34.074  32.323  27.783  1.00  0.00     0.023 C 
BRANCH   2   3
ATOM      3  C   UNL A   1      34.759  33.192  28.838  1.00  0.00     0.116 C 
BRANCH   3   4
ATOM      4  N   UNL A   1      34.360  32.916  30.202  1.00  0.00    -0.352 N 
ATOM      5  O   UNL A   1      34.360  32.434  32.356  1.00  0.00    -0.269 OA
ATOM      6  C   UNL A   1      34.986  32.387  31.294  1.00  0.00     0.251 C 
ATOM      7  H   UNL A   1      33.425  33.166  30.383  1.00  0.00     0.163 HD
BRANCH   6   8
ATOM      8  C   UNL A   1      36.300  31.693  31.269  1.00  0.00     0.039 A 
ATOM      9  C   UNL A   1      37.552  32.308  31.265  1.00  0.00     0.014 A 
ATOM     10  C   UNL A   1      36.238  30.289  31.182  1.00  0.00     0.014 A 
ATOM     11  C   UNL A   1      38.701  31.560  31.027  1.00  0.00     0.010 A 
ATOM     12  C   UNL A   1      37.382  29.533  30.973  1.00  0.00     0.010 A 
ATOM     13  C   UNL A   1      38.604  30.180  30.836  1.00  0.00    -0.014 A 
BRANCH  13  14
ATOM     14  C   UNL A   1      39.829  29.416  30.642  1.00  0.00     0.031 A 
ATOM     15  C   UNL A   1      40.636  29.236  31.880  1.00  0.00     0.074 A 
ATOM     16  C   UNL A   1      40.134  28.794  29.485  1.00  0.00     0.049 A 
ATOM     17  N   UNL A   1      41.841  29.644  32.113  1.00  0.00    -0.248 NA
ATOM     18  C   UNL A   1      39.974  28.630  33.048  1.00  0.00     0.031 C 
ATOM     19  C   UNL A   1      39.302  28.652  28.287  1.00  0.00     0.029 A 
ATOM     20  N   UNL A   1      41.231  28.045  29.179  1.00  0.00    -0.354 N 
ATOM     21  C   UNL A   1      42.159  29.190  33.392  1.00  0.00     0.074 A 
ATOM     22  C   UNL A   1      40.931  28.708  33.971  1.00  0.00     0.031 C 
ATOM     23  C   UNL A   1      39.811  27.674  27.503  1.00  0.00     0.029 A 
ATOM     24  C   UNL A   1      41.071  27.223  28.070  1.00  0.00     0.049 A 
ATOM     25  H   UNL A   1      42.066  28.083  29.700  1.00  0.00     0.167 HD
ATOM     26  C   UNL A   1      43.452  29.019  33.788  1.00  0.00     0.031 A 
ATOM     27  C   UNL A   1      41.882  26.203  27.687  1.00  0.00     0.031 A 
ATOM     28  C   UNL A   1      44.369  29.731  32.940  1.00  0.00     0.049 A 
ATOM     29  C   UNL A   1      43.188  26.394  28.356  1.00  0.00     0.074 A 
ATOM     30  C   UNL A   1      44.573  31.055  32.609  1.00  0.00     0.029 A 
ATOM     31  N   UNL A   1      45.036  29.001  31.986  1.00  0.00    -0.354 N 
ATOM     32  N   UNL A   1      43.998  27.373  28.075  1.00  0.00    -0.248 NA
ATOM     33  C   UNL A   1      43.388  25.768  29.653  1.00  0.00     0.031 C 
ATOM     34  C   UNL A   1      44.914  31.036  31.223  1.00  0.00     0.029 A 
ATOM     35  C   UNL A   1      44.966  29.703  30.814  1.00  0.00     0.049 A 
ATOM     36  H   UNL A   1      45.481  28.133  32.122  1.00  0.00     0.167 HD
ATOM     37  C   UNL A   1      44.489  27.784  29.305  1.00  0.00     0.074 A 
ATOM     38  C   UNL A   1      44.152  26.700  30.229  1.00  0.00     0.031 C 
ATOM     39  C   UNL A   1      44.862  29.080  29.516  1.00  0.00     0.031 A 
BRANCH  26  40
ATOM     40  C   UNL A   1      43.905  27.854  34.640  1.00  0.00    -0.014 A 
ATOM     41  C   UNL A   1      44.694  28.123  35.775  1.00  0.00     0.009 A 
ATOM     42  C   UNL A   1      43.865  26.516  34.204  1.00  0.00     0.009 A 
ATOM     43  C   UNL A   1      45.486  27.131  36.364  1.00  0.00     0.001 A 
ATOM     44  C   UNL A   1      44.623  25.514  34.817  1.00  0.00     0.001 A 
ATOM     45  C   UNL A   1      45.462  25.829  35.874  1.00  0.00     0.000 A 
ENDBRANCH  26  40
BRANCH  27  46
ATOM     46  C   UNL A   1      41.519  24.920  27.044  1.00  0.00    -0.014 A 
ATOM     47  C   UNL A   1      42.404  24.269  26.169  1.00  0.00     0.009 A 
ATOM     48  C   UNL A   1      40.411  24.190  27.513  1.00  0.00     0.009 A 
ATOM     49  C   UNL A   1      42.205  22.927  25.807  1.00  0.00     0.001 A 
ATOM     50  C   UNL A   1      40.213  22.852  27.151  1.00  0.00     0.001 A 
ATOM     51  C   UNL A   1      41.118  22.217  26.310  1.00  0.00     0.000 A 
ENDBRANCH  27  46
BRANCH  39  52
ATOM     52  C   UNL A   1      44.924  30.000  28.323  1.00  0.00    -0.014 A 
ATOM     53  C   UNL A   1      43.816  30.732  27.857  1.00  0.00     0.009 A 
ATOM     54  C   UNL A   1      46.178  30.252  27.746  1.00  0.00     0.009 A 
ATOM     55  C   UNL A   1      43.958  31.665  26.824  1.00  0.00     0.001 A 
ATOM     56  C   UNL A   1      46.321  31.197  26.730  1.00  0.00     0.001 A 
ATOM     57  C   UNL A   1      45.212  31.900  26.264  1.00  0.00     0.000 A 
ENDBRANCH  39  52
ENDBRANCH  13  14
ENDBRANCH   6   8
ENDBRANCH   3   4
ENDBRANCH   2   3
ENDBRANCH   1   2
BRANCH   1  58
ATOM     58  C   UNL A   1      33.751  29.931  26.856  1.00  0.00     0.116 C 
BRANCH  58  59
ATOM     59  N   UNL A   1      33.459  28.747  27.631  1.00  0.00    -0.354 N 
ATOM     60  C   UNL A   1      32.522  27.838  27.227  1.00  0.00     0.242 C 
ATOM     61  H   UNL A   1      33.949  28.590  28.471  1.00  0.00     0.163 HD
ATOM     62  O   UNL A   1      31.398  27.889  27.722  1.00  0.00    -0.273 OA
BRANCH  60  63
ATOM     63  C   UNL A   1      32.903  26.908  26.067  1.00  0.00     0.175 C 
ATOM     64  C   UNL A   1      32.768  25.392  26.247  1.00  0.00     0.044 C 
ATOM     65  N   UNL A   1      32.401  27.056  24.693  1.00  0.00    -0.330 N 
ATOM     66  C   UNL A   1      33.210  24.814  24.864  1.00  0.00    -0.006 C 
ATOM     67  C   UNL A   1      33.118  26.048  23.913  1.00  0.00     0.127 C 
ATOM     68  C   UNL A   1      32.283  23.696  24.340  1.00  0.00     0.030 C 
ATOM     69  C   UNL A   1      34.642  24.253  24.960  1.00  0.00     0.030 C 
ATOM     70  C   UNL A   1      32.404  22.374  25.097  1.00  0.00     0.120 C 
ATOM     71  C   UNL A   1      34.694  22.949  25.765  1.00  0.00     0.120 C 
ATOM     72  N   UNL A   1      33.793  21.937  25.209  1.00  0.00    -0.342 N 
ATOM     73  C   UNL A   1      34.329  20.670  24.970  1.00  0.00     0.225 C 
ATOM     74  O   UNL A   1      35.524  20.447  25.204  1.00  0.00    -0.275 OA
BRANCH  65  75
ATOM     75  C   UNL A   1      31.118  27.392  24.276  1.00  0.00     0.225 C 
ATOM     76  O   UNL A   1      30.188  26.579  24.343  1.00  0.00    -0.275 OA
BRANCH  75  77
ATOM     77  C   UNL A   1      30.813  28.737  23.652  1.00  0.00     0.124 C 
BRANCH  77  78
ATOM     78  C   UNL A   1      29.639  28.721  22.683  1.00  0.00     0.154 C 
BRANCH  78  79
ATOM     79  N   UNL A   1      29.028  30.000  22.381  1.00  0.00    -0.272 N 
ATOM     80  C   UNL A   1      28.676  30.961  23.289  1.00  0.00     0.108 A 
ATOM     81  N   UNL A   1      28.617  30.289  21.128  1.00  0.00    -0.182 NA
ATOM     82  C   UNL A   1      28.038  31.950  22.580  1.00  0.00     0.042 A 
ATOM     83  C   UNL A   1      28.024  31.482  21.255  1.00  0.00     0.135 A 
ENDBRANCH  78  79
ENDBRANCH  77  78
ENDBRANCH  75  77
ENDBRANCH  65  75
BRANCH  73  84
ATOM     84  C   UNL A   1      33.589  19.502  24.404  1.00  0.00     0.079 C 
ATOM     85  C   UNL A   1      33.913  18.038  24.378  1.00  0.00     0.014 C 
ATOM     86  C   UNL A   1      32.836  18.550  25.299  1.00  0.00     0.014 C 
ENDBRANCH  73  84
ENDBRANCH  60  63
ENDBRANCH  58  59
ENDBRANCH   1  58
TORSDOF 16
ENDMDL
MODEL 2
REMARK VINA RESULT:     -11.6      2.246      8.631
REMARK SMILES O=C(NCCCCNC(=O)[C@H]1CC2(CCN(C(=O)C3CC3)CC2)CN1C(=O)CCn1cccn1)c1ccc(-c2c3nc(c(-c4ccccc4)c4ccc([nH]4)c(-c4ccccc4)c4nc(c(-c5ccccc5)c5ccc2[nH]5)C=C4)C=C3)cc1
REMARK SMILES IDX 6 1 5 2 4 3 3 4 1 5 2 6 35 8 36 9 82 10 37 11 81 12 38 13
REMARK SMILES IDX 39 14 40 15 75 16 41 17 80 18 74 19 76 20 42 21 79 22 73 23
REMARK SMILES IDX 72 24 43 26 65 27 50 28 64 29 51 30 54 31 63 32 77 33 52 34
REMARK SMILES IDX 53 35 62 37 78 38 55 39 44 40 45 41 49 42 46 43 48 44 47 45
REMARK SMILES IDX 66 46 67 47 71 48 68 49 70 50 69 51 56 52 57 53 61 54 58 55
REMARK SMILES IDX 60 56 59 57 7 58 8 59 9 60 10 62 11 63 12 64 25 65 13 66
REMARK SMILES IDX 24 67 14 68 23 69 15 70 22 71 16 72 17 73 18 74 26 75 27 76
REMARK SMILES IDX 28 77 29 78 30 79 31 80 34 81 32 82 33 83 19 84 20 85 21 86
REMARK H PARENT 3 7 76 25 54 36 8 61
REMARK Flexibility Score: inf
ROOT
ATOM      1  C   UNL A   1      38.457  23.507  26.213  1.00  0.00     0.023 C 
ENDROOT
BRANCH   1   2
ATOM      2  C   UNL A   1      38.900  22.043  26.087  1.00  0.00     0.023 C 
BRANCH   2   3
ATOM      3  C   UNL A   1      40.324  21.748  26.559  1.00  0.00     0.116 C 
BRANCH   3   4
ATOM      4  N   UNL A   1      41.358  22.062  25.596  1.00  0.00    -0.352 N 
ATOM      5  O   UNL A   1      43.113  22.926  24.573  1.00  0.00    -0.269 OA
ATOM      6  C   UNL A   1      42.278  23.063  25.471  1.00  0.00     0.251 C 
ATOM      7  H   UNL A   1      41.410  21.404  24.866  1.00  0.00     0.163 HD
BRANCH   6   8
ATOM      8  C   UNL A   1      42.282  24.320  26.264  1.00  0.00     0.039 A 
ATOM      9  C   UNL A   1      42.779  24.471  27.558  1.00  0.00     0.014 A 
ATOM     10  C   UNL A   1      41.667  25.425  25.645  1.00  0.00     0.014 A 
ATOM     11  C   UNL A   1      42.535  25.639  28.273  1.00  0.00     0.010 A 
ATOM     12  C   UNL A   1      41.445  26.604  26.341  1.00  0.00     0.010 A 
ATOM     13  C   UNL A   1      41.827  26.684  27.675  1.00  0.00    -0.014 A 
BRANCH  13  14
ATOM     14  C   UNL A   1      41.633  27.915  28.428  1.00  0.00     0.031 A 
ATOM     15  C   UNL A   1      42.697  28.935  28.212  1.00  0.00     0.074 A 
ATOM     16  C   UNL A   1      40.517  28.177  29.139  1.00  0.00     0.049 A 
ATOM     17  N   UNL A   1      43.508  29.438  29.083  1.00  0.00    -0.248 NA
ATOM     18  C   UNL A   1      42.968  29.358  26.827  1.00  0.00     0.031 C 
ATOM     19  C   UNL A   1      39.283  27.390  29.206  1.00  0.00     0.029 A 
ATOM     20  N   UNL A   1      40.208  29.284  29.871  1.00  0.00    -0.354 N 
ATOM     21  C   UNL A   1      44.276  30.377  28.395  1.00  0.00     0.074 A 
ATOM     22  C   UNL A   1      44.005  30.177  26.994  1.00  0.00     0.031 C 
ATOM     23  C   UNL A   1      38.293  28.155  29.722  1.00  0.00     0.029 A 
ATOM     24  C   UNL A   1      38.854  29.426  30.148  1.00  0.00     0.049 A 
ATOM     25  H   UNL A   1      40.887  29.928  30.178  1.00  0.00     0.167 HD
ATOM     26  C   UNL A   1      44.890  31.408  29.040  1.00  0.00     0.031 A 
ATOM     27  C   UNL A   1      38.232  30.534  30.629  1.00  0.00     0.031 A 
ATOM     28  C   UNL A   1      44.999  31.165  30.454  1.00  0.00     0.049 A 
ATOM     29  C   UNL A   1      39.266  31.398  31.241  1.00  0.00     0.074 A 
ATOM     30  C   UNL A   1      45.616  30.213  31.241  1.00  0.00     0.029 A 
ATOM     31  N   UNL A   1      44.087  31.788  31.270  1.00  0.00    -0.354 N 
ATOM     32  N   UNL A   1      39.913  31.080  32.324  1.00  0.00    -0.248 NA
ATOM     33  C   UNL A   1      39.905  32.397  30.399  1.00  0.00     0.031 C 
ATOM     34  C   UNL A   1      44.706  29.982  32.315  1.00  0.00     0.029 A 
ATOM     35  C   UNL A   1      43.627  30.853  32.155  1.00  0.00     0.049 A 
ATOM     36  H   UNL A   1      43.813  32.734  31.223  1.00  0.00     0.167 HD
ATOM     37  C   UNL A   1      41.220  31.476  32.078  1.00  0.00     0.074 A 
ATOM     38  C   UNL A   1      41.136  32.363  30.918  1.00  0.00     0.031 C 
ATOM     39  C   UNL A   1      42.272  30.823  32.653  1.00  0.00     0.031 A 
BRANCH  26  40
ATOM     40  C   UNL A   1      44.965  32.808  28.471  1.00  0.00    -0.014 A 
ATOM     41  C   UNL A   1      43.870  33.670  28.670  1.00  0.00     0.009 A 
ATOM     42  C   UNL A   1      45.903  33.196  27.496  1.00  0.00     0.009 A 
ATOM     43  C   UNL A   1      43.668  34.791  27.857  1.00  0.00     0.001 A 
ATOM     44  C   UNL A   1      45.725  34.338  26.711  1.00  0.00     0.001 A 
ATOM     45  C   UNL A   1      44.589  35.116  26.866  1.00  0.00     0.000 A 
ENDBRANCH  26  40
BRANCH  27  46
ATOM     46  C   UNL A   1      36.875  31.042  30.325  1.00  0.00    -0.014 A 
ATOM     47  C   UNL A   1      36.056  31.576  31.334  1.00  0.00     0.009 A 
ATOM     48  C   UNL A   1      36.493  31.264  28.989  1.00  0.00     0.009 A 
ATOM     49  C   UNL A   1      34.917  32.332  31.015  1.00  0.00     0.001 A 
ATOM     50  C   UNL A   1      35.357  32.018  28.671  1.00  0.00     0.001 A 
ATOM     51  C   UNL A   1      34.577  32.564  29.684  1.00  0.00     0.000 A 
ENDBRANCH  27  46
BRANCH  39  52
ATOM     52  C   UNL A   1      41.971  29.801  33.721  1.00  0.00    -0.014 A 
ATOM     53  C   UNL A   1      41.688  28.452  33.436  1.00  0.00     0.009 A 
ATOM     54  C   UNL A   1      42.130  30.179  35.062  1.00  0.00     0.009 A 
ATOM     55  C   UNL A   1      41.538  27.520  34.469  1.00  0.00     0.001 A 
ATOM     56  C   UNL A   1      42.001  29.244  36.089  1.00  0.00     0.001 A 
ATOM     57  C   UNL A   1      41.700  27.916  35.795  1.00  0.00     0.000 A 
ENDBRANCH  39  52
ENDBRANCH  13  14
ENDBRANCH   6   8
ENDBRANCH   3   4
ENDBRANCH   2   3
ENDBRANCH   1   2
BRANCH   1  58
ATOM     58  C   UNL A   1      36.959  23.749  26.025  1.00  0.00     0.116 C 
BRANCH  58  59
ATOM     59  N   UNL A   1      36.454  23.056  24.861  1.00  0.00    -0.354 N 
ATOM     60  C   UNL A   1      35.358  22.244  24.930  1.00  0.00     0.242 C 
ATOM     61  H   UNL A   1      36.912  23.172  23.997  1.00  0.00     0.163 HD
ATOM     62  O   UNL A   1      35.527  21.030  25.020  1.00  0.00    -0.273 OA
BRANCH  60  63
ATOM     63  C   UNL A   1      33.987  22.926  25.039  1.00  0.00     0.175 C 
ATOM     64  C   UNL A   1      33.815  24.352  24.503  1.00  0.00     0.044 C 
ATOM     65  N   UNL A   1      32.727  22.320  24.587  1.00  0.00    -0.330 N 
ATOM     66  C   UNL A   1      32.307  24.666  24.764  1.00  0.00    -0.006 C 
ATOM     67  C   UNL A   1      31.681  23.256  25.001  1.00  0.00     0.127 C 
ATOM     68  C   UNL A   1      31.603  25.341  23.567  1.00  0.00     0.030 C 
ATOM     69  C   UNL A   1      32.164  25.584  25.993  1.00  0.00     0.030 C 
ATOM     70  C   UNL A   1      32.017  26.794  23.334  1.00  0.00     0.120 C 
ATOM     71  C   UNL A   1      32.634  27.014  25.698  1.00  0.00     0.120 C 
ATOM     72  N   UNL A   1      31.923  27.588  24.555  1.00  0.00    -0.342 N 
ATOM     73  C   UNL A   1      31.354  28.852  24.730  1.00  0.00     0.225 C 
ATOM     74  O   UNL A   1      31.443  29.428  25.822  1.00  0.00    -0.275 OA
BRANCH  65  75
ATOM     75  C   UNL A   1      32.494  21.571  23.438  1.00  0.00     0.225 C 
ATOM     76  O   UNL A   1      32.075  22.101  22.401  1.00  0.00    -0.275 OA
BRANCH  75  77
ATOM     77  C   UNL A   1      32.667  20.068  23.422  1.00  0.00     0.124 C 
BRANCH  77  78
ATOM     78  C   UNL A   1      32.496  19.407  24.783  1.00  0.00     0.154 C 
BRANCH  78  79
ATOM     79  N   UNL A   1      32.985  18.050  24.912  1.00  0.00    -0.272 N 
ATOM     80  C   UNL A   1      32.561  17.122  25.824  1.00  0.00     0.108 A 
ATOM     81  N   UNL A   1      34.048  17.628  24.194  1.00  0.00    -0.182 NA
ATOM     82  C   UNL A   1      33.364  16.019  25.659  1.00  0.00     0.042 A 
ATOM     83  C   UNL A   1      34.266  16.388  24.646  1.00  0.00     0.135 A 
ENDBRANCH  78  79
ENDBRANCH  77  78
ENDBRANCH  75  77
ENDBRANCH  65  75
BRANCH  73  84
ATOM     84  C   UNL A   1      30.584  29.613  23.699  1.00  0.00     0.079 C 
ATOM     85  C   UNL A   1      30.373  29.368  22.235  1.00  0.00     0.014 C 
ATOM     86  C   UNL A   1      29.247  29.119  23.205  1.00  0.00     0.014 C 
ENDBRANCH  73  84
ENDBRANCH  60  63
ENDBRANCH  58  59
ENDBRANCH   1  58
TORSDOF 16
ENDMDL
MODEL 3
REMARK VINA RESULT:     -11.4      2.547      7.766
REMARK SMILES O=C(NCCCCNC(=O)[C@H]1CC2(CCN(C(=O)C3CC3)CC2)CN1C(=O)CCn1cccn1)c1ccc(-c2c3nc(c(-c4ccccc4)c4ccc([nH]4)c(-c4ccccc4)c4nc(c(-c5ccccc5)c5ccc2[nH]5)C=C4)C=C3)cc1
REMARK SMILES IDX 6 1 5 2 4 3 3 4 1 5 2 6 35 8 36 9 82 10 37 11 81 12 38 13
REMARK SMILES IDX 39 14 40 15 75 16 41 17 80 18 74 19 76 20 42 21 79 22 73 23
REMARK SMILES IDX 72 24 43 26 65 27 50 28 64 29 51 30 54 31 63 32 77 33 52 34
REMARK SMILES IDX 53 35 62 37 78 38 55 39 44 40 45 41 49 42 46 43 48 44 47 45
REMARK SMILES IDX 66 46 67 47 71 48 68 49 70 50 69 51 56 52 57 53 61 54 58 55
REMARK SMILES IDX 60 56 59 57 7 58 8 59 9 60 10 62 11 63 12 64 25 65 13 66
REMARK SMILES IDX 24 67 14 68 23 69 15 70 22 71 16 72 17 73 18 74 26 75 27 76
REMARK SMILES IDX 28 77 29 78 30 79 31 80 34 81 32 82 33 83 19 84 20 85 21 86
REMARK H PARENT 3 7 76 25 54 36 8 61
REMARK Flexibility Score: inf
ROOT
ATOM      1  C   UNL A   1      32.940  22.121  25.962  1.00  0.00     0.023 C 
ENDROOT
BRANCH   1   2
ATOM      2  C   UNL A   1      34.163  22.146  25.035  1.00  0.00     0.023 C 
BRANCH   2   3
ATOM      3  C   UNL A   1      35.515  21.987  25.730  1.00  0.00     0.116 C 
BRANCH   3   4
ATOM      4  N   UNL A   1      36.407  21.033  25.109  1.00  0.00    -0.352 N 
ATOM      5  O   UNL A   1      38.147  19.769  24.607  1.00  0.00    -0.269 OA
ATOM      6  C   UNL A   1      37.747  20.779  25.192  1.00  0.00     0.251 C 
ATOM      7  H   UNL A   1      35.944  20.429  24.484  1.00  0.00     0.163 HD
BRANCH   6   8
ATOM      8  C   UNL A   1      38.743  21.668  25.845  1.00  0.00     0.039 A 
ATOM      9  C   UNL A   1      39.941  21.263  26.433  1.00  0.00     0.014 A 
ATOM     10  C   UNL A   1      38.385  23.028  25.911  1.00  0.00     0.014 A 
ATOM     11  C   UNL A   1      40.686  22.156  27.197  1.00  0.00     0.010 A 
ATOM     12  C   UNL A   1      39.137  23.931  26.647  1.00  0.00     0.010 A 
ATOM     13  C   UNL A   1      40.254  23.476  27.338  1.00  0.00    -0.014 A 
BRANCH  13  14
ATOM     14  C   UNL A   1      41.082  24.402  28.099  1.00  0.00     0.031 A 
ATOM     15  C   UNL A   1      40.507  25.771  28.224  1.00  0.00     0.074 A 
ATOM     16  C   UNL A   1      42.192  24.023  28.764  1.00  0.00     0.049 A 
ATOM     17  N   UNL A   1      41.003  26.885  27.798  1.00  0.00    -0.248 NA
ATOM     18  C   UNL A   1      39.153  25.896  28.789  1.00  0.00     0.031 C 
ATOM     19  C   UNL A   1      42.710  22.667  28.960  1.00  0.00     0.029 A 
ATOM     20  N   UNL A   1      43.041  24.780  29.516  1.00  0.00    -0.354 N 
ATOM     21  C   UNL A   1      40.113  27.880  28.198  1.00  0.00     0.074 A 
ATOM     22  C   UNL A   1      38.930  27.204  28.666  1.00  0.00     0.031 C 
ATOM     23  C   UNL A   1      43.617  22.675  29.964  1.00  0.00     0.029 A 
ATOM     24  C   UNL A   1      43.844  24.048  30.382  1.00  0.00     0.049 A 
ATOM     25  H   UNL A   1      43.081  25.762  29.450  1.00  0.00     0.167 HD
ATOM     26  C   UNL A   1      40.507  29.176  28.343  1.00  0.00     0.031 A 
ATOM     27  C   UNL A   1      44.588  24.533  31.409  1.00  0.00     0.031 A 
ATOM     28  C   UNL A   1      41.744  29.438  27.657  1.00  0.00     0.049 A 
ATOM     29  C   UNL A   1      44.775  25.984  31.182  1.00  0.00     0.074 A 
ATOM     30  C   UNL A   1      42.170  29.381  26.345  1.00  0.00     0.029 A 
ATOM     31  N   UNL A   1      42.887  29.475  28.418  1.00  0.00    -0.354 N 
ATOM     32  N   UNL A   1      45.491  26.467  30.208  1.00  0.00    -0.248 NA
ATOM     33  C   UNL A   1      43.798  26.895  31.754  1.00  0.00     0.031 C 
ATOM     34  C   UNL A   1      43.506  28.886  26.416  1.00  0.00     0.029 A 
ATOM     35  C   UNL A   1      43.836  28.738  27.764  1.00  0.00     0.049 A 
ATOM     36  H   UNL A   1      43.001  29.944  29.277  1.00  0.00     0.167 HD
ATOM     37  C   UNL A   1      44.761  27.552  29.745  1.00  0.00     0.074 A 
ATOM     38  C   UNL A   1      43.777  27.823  30.794  1.00  0.00     0.031 C 
ATOM     39  C   UNL A   1      44.833  27.941  28.438  1.00  0.00     0.031 A 
BRANCH  26  40
ATOM     40  C   UNL A   1      40.026  30.063  29.469  1.00  0.00    -0.014 A 
ATOM     41  C   UNL A   1      38.961  30.949  29.215  1.00  0.00     0.009 A 
ATOM     42  C   UNL A   1      40.767  30.293  30.643  1.00  0.00     0.009 A 
ATOM     43  C   UNL A   1      38.730  32.065  30.027  1.00  0.00     0.001 A 
ATOM     44  C   UNL A   1      40.512  31.383  31.480  1.00  0.00     0.001 A 
ATOM     45  C   UNL A   1      39.517  32.290  31.151  1.00  0.00     0.000 A 
ENDBRANCH  26  40
BRANCH  27  46
ATOM     46  C   UNL A   1      44.879  23.909  32.719  1.00  0.00    -0.014 A 
ATOM     47  C   UNL A   1      46.023  24.262  33.455  1.00  0.00     0.009 A 
ATOM     48  C   UNL A   1      43.880  23.171  33.382  1.00  0.00     0.009 A 
ATOM     49  C   UNL A   1      46.145  23.917  34.811  1.00  0.00     0.001 A 
ATOM     50  C   UNL A   1      44.003  22.827  34.733  1.00  0.00     0.001 A 
ATOM     51  C   UNL A   1      45.129  23.213  35.452  1.00  0.00     0.000 A 
ENDBRANCH  27  46
BRANCH  39  52
ATOM     52  C   UNL A   1      45.880  27.295  27.566  1.00  0.00    -0.014 A 
ATOM     53  C   UNL A   1      47.181  27.811  27.416  1.00  0.00     0.009 A 
ATOM     54  C   UNL A   1      45.591  26.045  27.000  1.00  0.00     0.009 A 
ATOM     55  C   UNL A   1      48.151  27.107  26.694  1.00  0.00     0.001 A 
ATOM     56  C   UNL A   1      46.565  25.334  26.298  1.00  0.00     0.001 A 
ATOM     57  C   UNL A   1      47.843  25.866  26.140  1.00  0.00     0.000 A 
ENDBRANCH  39  52
ENDBRANCH  13  14
ENDBRANCH   6   8
ENDBRANCH   3   4
ENDBRANCH   2   3
ENDBRANCH   1   2
BRANCH   1  58
ATOM     58  C   UNL A   1      31.589  22.033  25.252  1.00  0.00     0.116 C 
BRANCH  58  59
ATOM     59  N   UNL A   1      30.660  23.016  25.764  1.00  0.00    -0.354 N 
ATOM     60  C   UNL A   1      31.072  24.260  26.149  1.00  0.00     0.242 C 
ATOM     61  H   UNL A   1      29.706  22.782  25.835  1.00  0.00     0.163 HD
ATOM     62  O   UNL A   1      31.258  24.476  27.345  1.00  0.00    -0.273 OA
BRANCH  60  63
ATOM     63  C   UNL A   1      31.418  25.259  25.036  1.00  0.00     0.175 C 
ATOM     64  C   UNL A   1      30.618  26.561  24.923  1.00  0.00     0.044 C 
ATOM     65  N   UNL A   1      32.775  25.758  24.769  1.00  0.00    -0.330 N 
ATOM     66  C   UNL A   1      31.282  27.301  23.718  1.00  0.00    -0.006 C 
ATOM     67  C   UNL A   1      32.652  26.570  23.559  1.00  0.00     0.127 C 
ATOM     68  C   UNL A   1      31.533  28.802  23.979  1.00  0.00     0.030 C 
ATOM     69  C   UNL A   1      30.398  27.167  22.464  1.00  0.00     0.030 C 
ATOM     70  C   UNL A   1      30.265  29.655  23.995  1.00  0.00     0.120 C 
ATOM     71  C   UNL A   1      29.127  28.019  22.565  1.00  0.00     0.120 C 
ATOM     72  N   UNL A   1      29.442  29.428  22.811  1.00  0.00    -0.342 N 
ATOM     73  C   UNL A   1      28.837  30.370  21.976  1.00  0.00     0.225 C 
ATOM     74  O   UNL A   1      28.089  30.000  21.062  1.00  0.00    -0.275 OA
BRANCH  65  75
ATOM     75  C   UNL A   1      33.754  26.123  25.686  1.00  0.00     0.225 C 
ATOM     76  O   UNL A   1      34.739  25.403  25.894  1.00  0.00    -0.275 OA
BRANCH  75  77
ATOM     77  C   UNL A   1      33.628  27.376  26.526  1.00  0.00     0.124 C 
BRANCH  77  78
ATOM     78  C   UNL A   1      34.408  28.567  25.987  1.00  0.00     0.154 C 
BRANCH  78  79
ATOM     79  N   UNL A   1      34.589  29.687  26.888  1.00  0.00    -0.272 N 
ATOM     80  C   UNL A   1      35.603  29.838  27.796  1.00  0.00     0.108 A 
ATOM     81  N   UNL A   1      33.643  30.644  26.999  1.00  0.00    -0.182 NA
ATOM     82  C   UNL A   1      35.322  30.981  28.505  1.00  0.00     0.042 A 
ATOM     83  C   UNL A   1      34.101  31.433  27.977  1.00  0.00     0.135 A 
ENDBRANCH  78  79
ENDBRANCH  77  78
ENDBRANCH  75  77
ENDBRANCH  65  75
BRANCH  73  84
ATOM     84  C   UNL A   1      29.025  31.850  22.051  1.00  0.00     0.079 C 
ATOM     85  C   UNL A   1      28.096  32.987  21.745  1.00  0.00     0.014 C 
ATOM     86  C   UNL A   1      28.427  32.656  23.177  1.00  0.00     0.014 C 
ENDBRANCH  73  84
ENDBRANCH  60  63
ENDBRANCH  58  59
ENDBRANCH   1  58
TORSDOF 16
ENDMDL
