MODEL 1
REMARK VINA RESULT:     -12.9      0.000      0.000
REMARK SMILES COc1ccccc1[C@@H]1CN(C(=O)c2cnn3ccccc23)C[C@H]1C(=O)NCCCCNC(=O)c1ccc(-c2c3nc(c(-c4ccccc4)c4ccc([nH]4)c(-c4ccccc4)c4nc(c(-c5ccccc5)c5ccc2[nH]5)C=C4)C=C3)cc1
REMARK SMILES IDX 29 1 28 2 27 3 25 4 26 5 24 7 9 8 10 9 11 10 23 11 8 12 3 13
REMARK SMILES IDX 4 14 5 15 7 16 6 17 2 18 1 19 12 20 13 21 14 22 15 23 22 24
REMARK SMILES IDX 16 25 17 26 21 27 18 28 20 29 19 30 30 31 31 32 32 33 33 34
REMARK SMILES IDX 34 36 35 37 36 38 82 39 37 40 81 41 38 42 39 43 40 44 75 45
REMARK SMILES IDX 41 46 80 47 74 48 76 49 42 50 79 51 73 52 72 53 43 55 65 56
REMARK SMILES IDX 50 57 64 58 51 59 54 60 63 61 77 62 52 63 53 64 62 66 78 67
REMARK SMILES IDX 55 68 44 69 45 70 49 71 46 72 48 73 47 74 66 75 67 76 71 77
REMARK SMILES IDX 68 78 70 79 69 80 56 81 57 82 61 83 58 84 60 85 59 86
REMARK H PARENT 27 6 32 35 76 54 54 65
REMARK Flexibility Score: inf
ROOT
ATOM      1  C   UNL A   1      36.542  20.377  25.046  1.00  0.00     0.023 C 
ENDROOT
BRANCH   1   2
ATOM      2  C   UNL A   1      36.352  21.854  25.390  1.00  0.00     0.116 C 
BRANCH   2   3
ATOM      3  N   UNL A   1      35.581  22.035  26.602  1.00  0.00    -0.356 N 
ATOM      4  C   UNL A   1      34.308  22.460  26.804  1.00  0.00     0.225 C 
ATOM      5  O   UNL A   1      33.924  22.518  27.977  1.00  0.00    -0.275 OA
ATOM      6  H   UNL A   1      36.067  21.809  27.428  1.00  0.00     0.163 HD
BRANCH   4   7
ATOM      7  C   UNL A   1      33.359  22.832  25.679  1.00  0.00     0.107 C 
ATOM      8  C   UNL A   1      32.136  21.908  25.507  1.00  0.00     0.057 C 
ATOM      9  C   UNL A   1      31.029  22.845  25.027  1.00  0.00     0.129 C 
ATOM     10  N   UNL A   1      31.346  24.096  25.696  1.00  0.00    -0.337 N 
ATOM     11  C   UNL A   1      32.787  24.247  25.821  1.00  0.00     0.134 C 
BRANCH   8  12
ATOM     12  C   UNL A   1      32.333  20.656  24.683  1.00  0.00    -0.000 A 
ATOM     13  C   UNL A   1      32.259  20.590  23.282  1.00  0.00     0.122 A 
ATOM     14  C   UNL A   1      32.415  19.370  22.615  1.00  0.00     0.047 A 
ATOM     15  C   UNL A   1      32.630  18.193  23.332  1.00  0.00     0.004 A 
ATOM     16  C   UNL A   1      32.552  19.452  25.385  1.00  0.00     0.008 A 
ATOM     17  C   UNL A   1      32.686  18.232  24.720  1.00  0.00     0.001 A 
BRANCH  13  18
ATOM     18  O   UNL A   1      31.832  21.648  22.527  1.00  0.00    -0.496 OA
ATOM     19  C   UNL A   1      32.883  22.486  22.058  1.00  0.00     0.278 C 
ENDBRANCH  13  18
ENDBRANCH   8  12
BRANCH  10  20
ATOM     20  C   UNL A   1      30.478  25.117  26.038  1.00  0.00     0.257 C 
ATOM     21  O   UNL A   1      29.560  24.947  26.833  1.00  0.00    -0.269 OA
BRANCH  20  22
ATOM     22  C   UNL A   1      30.697  26.401  25.408  1.00  0.00     0.085 A 
ATOM     23  C   UNL A   1      30.413  26.763  24.078  1.00  0.00     0.150 A 
ATOM     24  C   UNL A   1      31.285  27.533  25.942  1.00  0.00     0.079 A 
ATOM     25  N   UNL A   1      30.692  28.040  23.810  1.00  0.00    -0.176 NA
ATOM     26  N   UNL A   1      31.216  28.528  24.962  1.00  0.00    -0.240 N 
ATOM     27  C   UNL A   1      31.880  27.873  27.193  1.00  0.00     0.029 A 
ATOM     28  C   UNL A   1      31.634  29.837  25.212  1.00  0.00     0.113 A 
ATOM     29  C   UNL A   1      32.283  29.138  27.421  1.00  0.00     0.004 A 
ATOM     30  C   UNL A   1      32.146  30.170  26.409  1.00  0.00     0.020 A 
ENDBRANCH  20  22
ENDBRANCH  10  20
ENDBRANCH   4   7
ENDBRANCH   2   3
ENDBRANCH   1   2
BRANCH   1  31
ATOM     31  C   UNL A   1      37.974  19.958  24.690  1.00  0.00     0.023 C 
BRANCH  31  32
ATOM     32  C   UNL A   1      38.994  20.203  25.793  1.00  0.00     0.116 C 
BRANCH  32  33
ATOM     33  N   UNL A   1      40.065  19.211  25.797  1.00  0.00    -0.352 N 
ATOM     34  C   UNL A   1      41.421  19.439  25.932  1.00  0.00     0.251 C 
ATOM     35  H   UNL A   1      39.789  18.272  25.692  1.00  0.00     0.163 HD
ATOM     36  O   UNL A   1      42.242  18.623  25.552  1.00  0.00    -0.269 OA
BRANCH  34  37
ATOM     37  C   UNL A   1      41.853  20.700  26.560  1.00  0.00     0.039 A 
ATOM     38  C   UNL A   1      42.292  21.773  25.782  1.00  0.00     0.014 A 
ATOM     39  C   UNL A   1      41.767  20.801  27.947  1.00  0.00     0.014 A 
ATOM     40  C   UNL A   1      42.563  22.985  26.410  1.00  0.00     0.010 A 
ATOM     41  C   UNL A   1      41.929  22.024  28.552  1.00  0.00     0.010 A 
ATOM     42  C   UNL A   1      42.356  23.111  27.794  1.00  0.00    -0.014 A 
BRANCH  42  43
ATOM     43  C   UNL A   1      42.445  24.419  28.436  1.00  0.00     0.031 A 
ATOM     44  C   UNL A   1      41.317  25.343  28.127  1.00  0.00     0.074 A 
ATOM     45  C   UNL A   1      43.330  24.703  29.413  1.00  0.00     0.049 A 
ATOM     46  N   UNL A   1      41.366  26.454  27.472  1.00  0.00    -0.248 NA
ATOM     47  C   UNL A   1      39.952  24.925  28.489  1.00  0.00     0.031 C 
ATOM     48  C   UNL A   1      44.284  23.797  30.065  1.00  0.00     0.029 A 
ATOM     49  N   UNL A   1      43.476  25.852  30.128  1.00  0.00    -0.354 N 
ATOM     50  C   UNL A   1      40.077  26.981  27.503  1.00  0.00     0.074 A 
ATOM     51  C   UNL A   1      39.224  25.926  27.990  1.00  0.00     0.031 C 
ATOM     52  C   UNL A   1      44.718  24.353  31.218  1.00  0.00     0.029 A 
ATOM     53  C   UNL A   1      44.215  25.711  31.296  1.00  0.00     0.049 A 
ATOM     54  H   UNL A   1      43.090  26.711  29.841  1.00  0.00     0.167 HD
ATOM     55  C   UNL A   1      39.853  28.317  27.360  1.00  0.00     0.031 A 
ATOM     56  C   UNL A   1      44.376  26.636  32.275  1.00  0.00     0.031 A 
ATOM     57  C   UNL A   1      41.022  29.000  26.865  1.00  0.00     0.049 A 
ATOM     58  C   UNL A   1      44.040  27.955  31.696  1.00  0.00     0.074 A 
ATOM     59  C   UNL A   1      41.798  28.917  25.727  1.00  0.00     0.029 A 
ATOM     60  N   UNL A   1      41.782  29.672  27.794  1.00  0.00    -0.354 N 
ATOM     61  N   UNL A   1      44.754  28.539  30.778  1.00  0.00    -0.248 NA
ATOM     62  C   UNL A   1      42.672  28.431  31.820  1.00  0.00     0.031 C 
ATOM     63  C   UNL A   1      43.136  29.108  26.182  1.00  0.00     0.029 A 
ATOM     64  C   UNL A   1      43.095  29.369  27.553  1.00  0.00     0.049 A 
ATOM     65  H   UNL A   1      41.442  30.264  28.503  1.00  0.00     0.167 HD
ATOM     66  C   UNL A   1      43.824  29.108  29.922  1.00  0.00     0.074 A 
ATOM     67  C   UNL A   1      42.571  29.110  30.673  1.00  0.00     0.031 C 
ATOM     68  C   UNL A   1      44.096  29.252  28.591  1.00  0.00     0.031 A 
BRANCH  55  69
ATOM     69  C   UNL A   1      38.754  29.073  28.072  1.00  0.00    -0.014 A 
ATOM     70  C   UNL A   1      38.633  28.922  29.468  1.00  0.00     0.009 A 
ATOM     71  C   UNL A   1      37.667  29.670  27.408  1.00  0.00     0.009 A 
ATOM     72  C   UNL A   1      37.452  29.259  30.140  1.00  0.00     0.001 A 
ATOM     73  C   UNL A   1      36.503  30.047  28.083  1.00  0.00     0.001 A 
ATOM     74  C   UNL A   1      36.382  29.810  29.444  1.00  0.00     0.000 A 
ENDBRANCH  55  69
BRANCH  56  75
ATOM     75  C   UNL A   1      44.564  26.446  33.728  1.00  0.00    -0.014 A 
ATOM     76  C   UNL A   1      45.550  27.166  34.423  1.00  0.00     0.009 A 
ATOM     77  C   UNL A   1      43.589  25.773  34.484  1.00  0.00     0.009 A 
ATOM     78  C   UNL A   1      45.529  27.249  35.821  1.00  0.00     0.001 A 
ATOM     79  C   UNL A   1      43.569  25.854  35.881  1.00  0.00     0.001 A 
ATOM     80  C   UNL A   1      44.530  26.607  36.548  1.00  0.00     0.000 A 
ENDBRANCH  56  75
BRANCH  68  81
ATOM     81  C   UNL A   1      45.515  29.027  28.129  1.00  0.00    -0.014 A 
ATOM     82  C   UNL A   1      46.462  30.059  28.001  1.00  0.00     0.009 A 
ATOM     83  C   UNL A   1      45.948  27.705  27.957  1.00  0.00     0.009 A 
ATOM     84  C   UNL A   1      47.795  29.773  27.683  1.00  0.00     0.001 A 
ATOM     85  C   UNL A   1      47.282  27.417  27.661  1.00  0.00     0.001 A 
ATOM     86  C   UNL A   1      48.203  28.451  27.517  1.00  0.00     0.000 A 
ENDBRANCH  68  81
ENDBRANCH  42  43
ENDBRANCH  34  37
ENDBRANCH  32  33
ENDBRANCH  31  32
ENDBRANCH   1  31
TORSDOF 15
ENDMDL
MODEL 2
REMARK VINA RESULT:     -12.6      2.432      7.730
REMARK SMILES COc1ccccc1[C@@H]1CN(C(=O)c2cnn3ccccc23)C[C@H]1C(=O)NCCCCNC(=O)c1ccc(-c2c3nc(c(-c4ccccc4)c4ccc([nH]4)c(-c4ccccc4)c4nc(c(-c5ccccc5)c5ccc2[nH]5)C=C4)C=C3)cc1
REMARK SMILES IDX 29 1 28 2 27 3 25 4 26 5 24 7 9 8 10 9 11 10 23 11 8 12 3 13
REMARK SMILES IDX 4 14 5 15 7 16 6 17 2 18 1 19 12 20 13 21 14 22 15 23 22 24
REMARK SMILES IDX 16 25 17 26 21 27 18 28 20 29 19 30 30 31 31 32 32 33 33 34
REMARK SMILES IDX 34 36 35 37 36 38 82 39 37 40 81 41 38 42 39 43 40 44 75 45
REMARK SMILES IDX 41 46 80 47 74 48 76 49 42 50 79 51 73 52 72 53 43 55 65 56
REMARK SMILES IDX 50 57 64 58 51 59 54 60 63 61 77 62 52 63 53 64 62 66 78 67
REMARK SMILES IDX 55 68 44 69 45 70 49 71 46 72 48 73 47 74 66 75 67 76 71 77
REMARK SMILES IDX 68 78 70 79 69 80 56 81 57 82 61 83 58 84 60 85 59 86
REMARK H PARENT 27 6 32 35 76 54 54 65
REMARK Flexibility Score: inf
ROOT
ATOM      1  C   UNL A   1      33.183  27.570  26.001  1.00  0.00     0.023 C 
ENDROOT
BRANCH   1   2
ATOM      2  C   UNL A   1      32.824  26.089  26.122  1.00  0.00     0.116 C 
BRANCH   2   3
ATOM      3  N   UNL A   1      31.462  25.894  26.571  1.00  0.00    -0.356 N 
ATOM      4  C   UNL A   1      30.304  25.722  25.884  1.00  0.00     0.225 C 
ATOM      5  O   UNL A   1      29.277  25.585  26.558  1.00  0.00    -0.275 OA
ATOM      6  H   UNL A   1      31.356  25.884  27.550  1.00  0.00     0.163 HD
BRANCH   4   7
ATOM      7  C   UNL A   1      30.227  25.668  24.369  1.00  0.00     0.107 C 
ATOM      8  C   UNL A   1      30.725  26.928  23.631  1.00  0.00     0.057 C 
ATOM      9  C   UNL A   1      31.333  26.384  22.340  1.00  0.00     0.129 C 
ATOM     10  N   UNL A   1      31.867  25.095  22.748  1.00  0.00    -0.337 N 
ATOM     11  C   UNL A   1      31.021  24.502  23.770  1.00  0.00     0.134 C 
BRANCH   8  12
ATOM     12  C   UNL A   1      29.736  28.058  23.461  1.00  0.00    -0.000 A 
ATOM     13  C   UNL A   1      30.049  29.425  23.537  1.00  0.00     0.122 A 
ATOM     14  C   UNL A   1      29.049  30.396  23.408  1.00  0.00     0.047 A 
ATOM     15  C   UNL A   1      27.720  30.022  23.215  1.00  0.00     0.004 A 
ATOM     16  C   UNL A   1      28.383  27.706  23.265  1.00  0.00     0.008 A 
ATOM     17  C   UNL A   1      27.384  28.674  23.157  1.00  0.00     0.001 A 
BRANCH  13  18
ATOM     18  O   UNL A   1      31.278  29.867  23.944  1.00  0.00    -0.496 OA
ATOM     19  C   UNL A   1      31.308  30.334  25.289  1.00  0.00     0.278 C 
ENDBRANCH  13  18
ENDBRANCH   8  12
BRANCH  10  20
ATOM     20  C   UNL A   1      32.914  24.395  22.178  1.00  0.00     0.257 C 
ATOM     21  O   UNL A   1      33.188  24.495  20.986  1.00  0.00    -0.269 OA
BRANCH  20  22
ATOM     22  C   UNL A   1      33.676  23.529  23.052  1.00  0.00     0.085 A 
ATOM     23  C   UNL A   1      34.890  23.819  23.701  1.00  0.00     0.150 A 
ATOM     24  C   UNL A   1      33.422  22.213  23.395  1.00  0.00     0.079 A 
ATOM     25  N   UNL A   1      35.324  22.823  24.476  1.00  0.00    -0.176 NA
ATOM     26  N   UNL A   1      34.412  21.832  24.306  1.00  0.00    -0.240 N 
ATOM     27  C   UNL A   1      32.426  21.250  23.056  1.00  0.00     0.029 A 
ATOM     28  C   UNL A   1      34.393  20.584  24.934  1.00  0.00     0.113 A 
ATOM     29  C   UNL A   1      32.420  20.049  23.665  1.00  0.00     0.004 A 
ATOM     30  C   UNL A   1      33.424  19.697  24.653  1.00  0.00     0.020 A 
ENDBRANCH  20  22
ENDBRANCH  10  20
ENDBRANCH   4   7
ENDBRANCH   2   3
ENDBRANCH   1   2
BRANCH   1  31
ATOM     31  C   UNL A   1      33.623  28.253  27.302  1.00  0.00     0.023 C 
BRANCH  31  32
ATOM     32  C   UNL A   1      34.970  28.957  27.221  1.00  0.00     0.116 C 
BRANCH  32  33
ATOM     33  N   UNL A   1      35.130  29.984  28.245  1.00  0.00    -0.352 N 
ATOM     34  C   UNL A   1      36.152  30.098  29.168  1.00  0.00     0.251 C 
ATOM     35  H   UNL A   1      34.430  30.674  28.282  1.00  0.00     0.163 HD
ATOM     36  O   UNL A   1      36.010  30.738  30.194  1.00  0.00    -0.269 OA
BRANCH  34  37
ATOM     37  C   UNL A   1      37.431  29.428  28.873  1.00  0.00     0.039 A 
ATOM     38  C   UNL A   1      38.159  29.747  27.726  1.00  0.00     0.014 A 
ATOM     39  C   UNL A   1      37.908  28.500  29.797  1.00  0.00     0.014 A 
ATOM     40  C   UNL A   1      39.422  29.185  27.559  1.00  0.00     0.010 A 
ATOM     41  C   UNL A   1      39.195  28.031  29.687  1.00  0.00     0.010 A 
ATOM     42  C   UNL A   1      39.945  28.346  28.557  1.00  0.00    -0.014 A 
BRANCH  42  43
ATOM     43  C   UNL A   1      41.335  27.907  28.495  1.00  0.00     0.031 A 
ATOM     44  C   UNL A   1      41.563  26.673  27.690  1.00  0.00     0.074 A 
ATOM     45  C   UNL A   1      42.368  28.664  28.917  1.00  0.00     0.049 A 
ATOM     46  N   UNL A   1      41.964  25.521  28.111  1.00  0.00    -0.248 NA
ATOM     47  C   UNL A   1      41.192  26.690  26.265  1.00  0.00     0.031 C 
ATOM     48  C   UNL A   1      42.336  30.041  29.424  1.00  0.00     0.029 A 
ATOM     49  N   UNL A   1      43.702  28.399  28.861  1.00  0.00    -0.354 N 
ATOM     50  C   UNL A   1      42.087  24.715  26.982  1.00  0.00     0.074 A 
ATOM     51  C   UNL A   1      41.443  25.429  25.908  1.00  0.00     0.031 C 
ATOM     52  C   UNL A   1      43.582  30.563  29.391  1.00  0.00     0.029 A 
ATOM     53  C   UNL A   1      44.516  29.513  29.032  1.00  0.00     0.049 A 
ATOM     54  H   UNL A   1      44.061  27.494  28.713  1.00  0.00     0.167 HD
ATOM     55  C   UNL A   1      42.923  23.639  26.965  1.00  0.00     0.031 A 
ATOM     56  C   UNL A   1      45.859  29.574  28.859  1.00  0.00     0.031 A 
ATOM     57  C   UNL A   1      43.359  23.287  28.292  1.00  0.00     0.049 A 
ATOM     58  C   UNL A   1      46.377  28.189  28.920  1.00  0.00     0.074 A 
ATOM     59  C   UNL A   1      42.734  22.896  29.459  1.00  0.00     0.029 A 
ATOM     60  N   UNL A   1      44.617  23.705  28.658  1.00  0.00    -0.354 N 
ATOM     61  N   UNL A   1      46.367  27.467  30.002  1.00  0.00    -0.248 NA
ATOM     62  C   UNL A   1      46.504  27.449  27.676  1.00  0.00     0.031 C 
ATOM     63  C   UNL A   1      43.461  23.547  30.499  1.00  0.00     0.029 A 
ATOM     64  C   UNL A   1      44.529  24.235  29.917  1.00  0.00     0.049 A 
ATOM     65  H   UNL A   1      45.433  23.636  28.112  1.00  0.00     0.167 HD
ATOM     66  C   UNL A   1      46.026  26.195  29.570  1.00  0.00     0.074 A 
ATOM     67  C   UNL A   1      46.239  26.219  28.124  1.00  0.00     0.031 C 
ATOM     68  C   UNL A   1      45.333  25.343  30.382  1.00  0.00     0.031 A 
BRANCH  55  69
ATOM     69  C   UNL A   1      43.693  23.185  25.746  1.00  0.00    -0.014 A 
ATOM     70  C   UNL A   1      43.719  21.809  25.443  1.00  0.00     0.009 A 
ATOM     71  C   UNL A   1      44.628  23.993  25.073  1.00  0.00     0.009 A 
ATOM     72  C   UNL A   1      44.688  21.264  24.593  1.00  0.00     0.001 A 
ATOM     73  C   UNL A   1      45.570  23.459  24.190  1.00  0.00     0.001 A 
ATOM     74  C   UNL A   1      45.622  22.089  23.976  1.00  0.00     0.000 A 
ENDBRANCH  55  69
BRANCH  56  75
ATOM     75  C   UNL A   1      46.700  30.702  28.408  1.00  0.00    -0.014 A 
ATOM     76  C   UNL A   1      48.055  30.775  28.769  1.00  0.00     0.009 A 
ATOM     77  C   UNL A   1      46.247  31.557  27.388  1.00  0.00     0.009 A 
ATOM     78  C   UNL A   1      48.934  31.636  28.100  1.00  0.00     0.001 A 
ATOM     79  C   UNL A   1      47.124  32.419  26.720  1.00  0.00     0.001 A 
ATOM     80  C   UNL A   1      48.471  32.445  27.065  1.00  0.00     0.000 A 
ENDBRANCH  56  75
BRANCH  68  81
ATOM     81  C   UNL A   1      45.181  25.716  31.836  1.00  0.00    -0.014 A 
ATOM     82  C   UNL A   1      46.082  25.313  32.838  1.00  0.00     0.009 A 
ATOM     83  C   UNL A   1      44.173  26.629  32.179  1.00  0.00     0.009 A 
ATOM     84  C   UNL A   1      45.956  25.788  34.149  1.00  0.00     0.001 A 
ATOM     85  C   UNL A   1      44.060  27.120  33.481  1.00  0.00     0.001 A 
ATOM     86  C   UNL A   1      44.946  26.694  34.467  1.00  0.00     0.000 A 
ENDBRANCH  68  81
ENDBRANCH  42  43
ENDBRANCH  34  37
ENDBRANCH  32  33
ENDBRANCH  31  32
ENDBRANCH   1  31
TORSDOF 15
ENDMDL
MODEL 3
REMARK VINA RESULT:     -12.5      2.569      8.102
REMARK SMILES COc1ccccc1[C@@H]1CN(C(=O)c2cnn3ccccc23)C[C@H]1C(=O)NCCCCNC(=O)c1ccc(-c2c3nc(c(-c4ccccc4)c4ccc([nH]4)c(-c4ccccc4)c4nc(c(-c5ccccc5)c5ccc2[nH]5)C=C4)C=C3)cc1
REMARK SMILES IDX 29 1 28 2 27 3 25 4 26 5 24 7 9 8 10 9 11 10 23 11 8 12 3 13
REMARK SMILES IDX 4 14 5 15 7 16 6 17 2 18 1 19 12 20 13 21 14 22 15 23 22 24
REMARK SMILES IDX 16 25 17 26 21 27 18 28 20 29 19 30 30 31 31 32 32 33 33 34
REMARK SMILES IDX 34 36 35 37 36 38 82 39 37 40 81 41 38 42 39 43 40 44 75 45
REMARK SMILES IDX 41 46 80 47 74 48 76 49 42 50 79 51 73 52 72 53 43 55 65 56
REMARK SMILES IDX 50 57 64 58 51 59 54 60 63 61 77 62 52 63 53 64 62 66 78 67
REMARK SMILES IDX 55 68 44 69 45 70 49 71 46 72 48 73 47 74 66 75 67 76 71 77
REMARK SMILES IDX 68 78 70 79 69 80 56 81 57 82 61 83 58 84 60 85 59 86
REMARK H PARENT 27 6 32 35 76 54 54 65
REMARK Flexibility Score: inf
ROOT
ATOM      1  C   UNL A   1      32.768  30.634  27.155  1.00  0.00     0.023 C 
ENDROOT
BRANCH   1   2
ATOM      2  C   UNL A   1      32.004  29.694  26.222  1.00  0.00     0.116 C 
BRANCH   2   3
ATOM      3  N   UNL A   1      32.549  29.698  24.881  1.00  0.00    -0.356 N 
ATOM      4  C   UNL A   1      32.551  28.752  23.908  1.00  0.00     0.225 C 
ATOM      5  O   UNL A   1      33.112  29.050  22.848  1.00  0.00    -0.275 OA
ATOM      6  H   UNL A   1      32.999  30.537  24.629  1.00  0.00     0.163 HD
BRANCH   4   7
ATOM      7  C   UNL A   1      31.889  27.394  24.056  1.00  0.00     0.107 C 
ATOM      8  C   UNL A   1      30.874  27.024  22.954  1.00  0.00     0.057 C 
ATOM      9  C   UNL A   1      31.019  25.510  22.811  1.00  0.00     0.129 C 
ATOM     10  N   UNL A   1      32.427  25.288  23.095  1.00  0.00    -0.337 N 
ATOM     11  C   UNL A   1      32.895  26.238  24.091  1.00  0.00     0.134 C 
BRANCH   8  12
ATOM     12  C   UNL A   1      29.460  27.530  23.126  1.00  0.00    -0.000 A 
ATOM     13  C   UNL A   1      28.991  28.781  22.692  1.00  0.00     0.122 A 
ATOM     14  C   UNL A   1      27.671  29.174  22.939  1.00  0.00     0.047 A 
ATOM     15  C   UNL A   1      26.801  28.335  23.635  1.00  0.00     0.004 A 
ATOM     16  C   UNL A   1      28.559  26.700  23.827  1.00  0.00     0.008 A 
ATOM     17  C   UNL A   1      27.250  27.101  24.091  1.00  0.00     0.001 A 
BRANCH  13  18
ATOM     18  O   UNL A   1      29.833  29.744  22.208  1.00  0.00    -0.496 OA
ATOM     19  C   UNL A   1      29.163  30.858  21.625  1.00  0.00     0.278 C 
ENDBRANCH  13  18
ENDBRANCH   8  12
BRANCH  10  20
ATOM     20  C   UNL A   1      33.225  24.248  22.655  1.00  0.00     0.257 C 
ATOM     21  O   UNL A   1      33.656  24.203  21.507  1.00  0.00    -0.269 OA
BRANCH  20  22
ATOM     22  C   UNL A   1      33.528  23.204  23.611  1.00  0.00     0.085 A 
ATOM     23  C   UNL A   1      32.626  22.517  24.444  1.00  0.00     0.150 A 
ATOM     24  C   UNL A   1      34.762  22.694  23.968  1.00  0.00     0.079 A 
ATOM     25  N   UNL A   1      33.209  21.577  25.189  1.00  0.00    -0.176 NA
ATOM     26  N   UNL A   1      34.529  21.669  24.888  1.00  0.00    -0.240 N 
ATOM     27  C   UNL A   1      36.116  22.963  23.602  1.00  0.00     0.029 A 
ATOM     28  C   UNL A   1      35.565  20.870  25.379  1.00  0.00     0.113 A 
ATOM     29  C   UNL A   1      37.106  22.189  24.084  1.00  0.00     0.004 A 
ATOM     30  C   UNL A   1      36.833  21.090  24.993  1.00  0.00     0.020 A 
ENDBRANCH  20  22
ENDBRANCH  10  20
ENDBRANCH   4   7
ENDBRANCH   2   3
ENDBRANCH   1   2
BRANCH   1  31
ATOM     31  C   UNL A   1      34.225  30.247  27.439  1.00  0.00     0.023 C 
BRANCH  31  32
ATOM     32  C   UNL A   1      35.167  31.428  27.626  1.00  0.00     0.116 C 
BRANCH  32  33
ATOM     33  N   UNL A   1      34.831  32.235  28.794  1.00  0.00    -0.352 N 
ATOM     34  C   UNL A   1      35.207  32.014  30.105  1.00  0.00     0.251 C 
ATOM     35  H   UNL A   1      34.271  33.028  28.629  1.00  0.00     0.163 HD
ATOM     36  O   UNL A   1      34.587  32.500  31.033  1.00  0.00    -0.269 OA
BRANCH  34  37
ATOM     37  C   UNL A   1      36.393  31.175  30.354  1.00  0.00     0.039 A 
ATOM     38  C   UNL A   1      36.262  29.810  30.618  1.00  0.00     0.014 A 
ATOM     39  C   UNL A   1      37.647  31.777  30.272  1.00  0.00     0.014 A 
ATOM     40  C   UNL A   1      37.414  29.035  30.714  1.00  0.00     0.010 A 
ATOM     41  C   UNL A   1      38.777  30.997  30.259  1.00  0.00     0.010 A 
ATOM     42  C   UNL A   1      38.670  29.631  30.509  1.00  0.00    -0.014 A 
BRANCH  42  43
ATOM     43  C   UNL A   1      39.869  28.806  30.412  1.00  0.00     0.031 A 
ATOM     44  C   UNL A   1      40.561  28.557  31.708  1.00  0.00     0.074 A 
ATOM     45  C   UNL A   1      40.205  28.119  29.300  1.00  0.00     0.049 A 
ATOM     46  N   UNL A   1      41.734  28.962  32.065  1.00  0.00    -0.248 NA
ATOM     47  C   UNL A   1      39.816  27.875  32.779  1.00  0.00     0.031 C 
ATOM     48  C   UNL A   1      39.447  27.991  28.050  1.00  0.00     0.029 A 
ATOM     49  N   UNL A   1      41.253  27.275  29.100  1.00  0.00    -0.354 N 
ATOM     50  C   UNL A   1      41.962  28.425  33.329  1.00  0.00     0.074 A 
ATOM     51  C   UNL A   1      40.694  27.913  33.783  1.00  0.00     0.031 C 
ATOM     52  C   UNL A   1      39.925  26.947  27.337  1.00  0.00     0.029 A 
ATOM     53  C   UNL A   1      41.121  26.449  27.990  1.00  0.00     0.049 A 
ATOM     54  H   UNL A   1      42.040  27.251  29.691  1.00  0.00     0.167 HD
ATOM     55  C   UNL A   1      43.227  28.224  33.797  1.00  0.00     0.031 A 
ATOM     56  C   UNL A   1      41.921  25.409  27.649  1.00  0.00     0.031 A 
ATOM     57  C   UNL A   1      44.204  28.916  32.995  1.00  0.00     0.049 A 
ATOM     58  C   UNL A   1      43.202  25.581  28.369  1.00  0.00     0.074 A 
ATOM     59  C   UNL A   1      44.442  30.233  32.659  1.00  0.00     0.029 A 
ATOM     60  N   UNL A   1      44.894  28.160  32.078  1.00  0.00    -0.354 N 
ATOM     61  N   UNL A   1      44.041  26.543  28.118  1.00  0.00    -0.248 NA
ATOM     62  C   UNL A   1      43.352  24.944  29.666  1.00  0.00     0.031 C 
ATOM     63  C   UNL A   1      44.853  30.193  31.293  1.00  0.00     0.029 A 
ATOM     64  C   UNL A   1      44.915  28.854  30.899  1.00  0.00     0.049 A 
ATOM     65  H   UNL A   1      45.300  27.278  32.241  1.00  0.00     0.167 HD
ATOM     66  C   UNL A   1      44.505  26.935  29.364  1.00  0.00     0.074 A 
ATOM     67  C   UNL A   1      44.139  25.843  30.263  1.00  0.00     0.031 C 
ATOM     68  C   UNL A   1      44.880  28.228  29.596  1.00  0.00     0.031 A 
BRANCH  55  69
ATOM     69  C   UNL A   1      43.627  27.070  34.687  1.00  0.00    -0.014 A 
ATOM     70  C   UNL A   1      44.441  27.336  35.806  1.00  0.00     0.009 A 
ATOM     71  C   UNL A   1      43.497  25.720  34.312  1.00  0.00     0.009 A 
ATOM     72  C   UNL A   1      45.160  26.320  36.446  1.00  0.00     0.001 A 
ATOM     73  C   UNL A   1      44.180  24.698  34.976  1.00  0.00     0.001 A 
ATOM     74  C   UNL A   1      45.038  25.002  36.022  1.00  0.00     0.000 A 
ENDBRANCH  55  69
BRANCH  56  75
ATOM     75  C   UNL A   1      41.585  24.155  26.943  1.00  0.00    -0.014 A 
ATOM     76  C   UNL A   1      42.550  23.487  26.172  1.00  0.00     0.009 A 
ATOM     77  C   UNL A   1      40.402  23.463  27.256  1.00  0.00     0.009 A 
ATOM     78  C   UNL A   1      42.358  22.158  25.773  1.00  0.00     0.001 A 
ATOM     79  C   UNL A   1      40.209  22.136  26.855  1.00  0.00     0.001 A 
ATOM     80  C   UNL A   1      41.196  21.478  26.129  1.00  0.00     0.000 A 
ENDBRANCH  56  75
BRANCH  68  81
ATOM     81  C   UNL A   1      45.029  29.146  28.408  1.00  0.00    -0.014 A 
ATOM     82  C   UNL A   1      43.984  29.947  27.912  1.00  0.00     0.009 A 
ATOM     83  C   UNL A   1      46.310  29.316  27.864  1.00  0.00     0.009 A 
ATOM     84  C   UNL A   1      44.213  30.867  26.882  1.00  0.00     0.001 A 
ATOM     85  C   UNL A   1      46.544  30.249  26.852  1.00  0.00     0.001 A 
ATOM     86  C   UNL A   1      45.494  31.019  26.356  1.00  0.00     0.000 A 
ENDBRANCH  68  81
ENDBRANCH  42  43
ENDBRANCH  34  37
ENDBRANCH  32  33
ENDBRANCH  31  32
ENDBRANCH   1  31
TORSDOF 15
ENDMDL
