MODEL 1
REMARK VINA RESULT:      -9.7      0.000      0.000
REMARK SMILES CC[N@@H+]1CCC[C@@H]1C[N@@H+](C)C[C@H]([NH3+])C(=O)NCCCCNC(=O)c1ccc(-c2c3nc(c(-c4ccccc4)c4ccc([nH]4)c(-c4ccccc4)c4nc(c(-c5ccccc5)c5ccc2[nH]5)C=C4)C=C3)cc1
REMARK SMILES IDX 17 1 16 2 14 3 15 4 12 6 11 7 9 8 10 9 8 11 7 12 3 13 4 14
REMARK SMILES IDX 5 16 6 17 2 18 1 19 13 20 18 24 19 25 20 26 21 27 22 28
REMARK SMILES IDX 23 30 24 31 25 32 71 33 26 34 70 35 27 36 28 37 29 38 64 39
REMARK SMILES IDX 30 40 69 41 63 42 65 43 31 44 68 45 62 46 61 47 32 49 54 50
REMARK SMILES IDX 39 51 53 52 40 53 43 54 52 55 66 56 41 57 42 58 51 60 67 61
REMARK SMILES IDX 44 62 33 63 34 64 38 65 35 66 37 67 36 68 55 69 56 70 60 71
REMARK SMILES IDX 57 72 59 73 58 74 45 75 46 76 50 77 47 78 49 79 48 80
REMARK H PARENT 16 5 9 10 3 15 13 21 13 22 13 23 21 29 65 48 43 59
REMARK Flexibility Score: inf
ROOT
ATOM      1  C   UNL A   1      32.048  26.741  26.795  1.00  0.00     0.116 C 
ENDROOT
BRANCH   1   2
ATOM      2  N   UNL A   1      31.014  25.745  26.677  1.00  0.00    -0.351 N 
ATOM      3  C   UNL A   1      31.136  24.380  26.736  1.00  0.00     0.284 C 
ATOM      4  O   UNL A   1      30.089  23.745  26.916  1.00  0.00    -0.268 OA
ATOM      5  H   UNL A   1      30.102  26.088  26.535  1.00  0.00     0.163 HD
BRANCH   3   6
ATOM      6  C   UNL A   1      32.481  23.609  26.594  1.00  0.00     0.326 C 
BRANCH   6   7
ATOM      7  C   UNL A   1      33.152  23.576  25.181  1.00  0.00     0.338 C 
BRANCH   7   8
ATOM      8  N   UNL A   1      32.508  23.954  23.903  1.00  0.00    -0.327 N 
ATOM      9  C   UNL A   1      32.917  23.000  22.858  1.00  0.00     0.333 C 
ATOM     10  H   UNL A   1      31.511  23.909  24.111  1.00  0.00     0.348 HD
BRANCH   8  11
ATOM     11  C   UNL A   1      32.654  25.340  23.425  1.00  0.00     0.327 C 
BRANCH  11  12
ATOM     12  C   UNL A   1      31.533  26.125  22.678  1.00  0.00     0.239 C 
ATOM     13  N   UNL A   1      31.800  27.576  22.354  1.00  0.00    -0.328 N 
ATOM     14  C   UNL A   1      30.514  28.279  22.510  1.00  0.00     0.262 C 
ATOM     15  H   UNL A   1      32.186  27.572  21.410  1.00  0.00     0.348 HD
ATOM     16  C   UNL A   1      29.833  27.556  23.645  1.00  0.00     0.068 C 
ATOM     17  C   UNL A   1      30.144  26.110  23.327  1.00  0.00     0.077 C 
BRANCH  13  18
ATOM     18  C   UNL A   1      32.845  28.290  23.098  1.00  0.00     0.259 C 
ATOM     19  C   UNL A   1      34.141  28.433  22.317  1.00  0.00     0.071 C 
ENDBRANCH  13  18
ENDBRANCH  11  12
ENDBRANCH   8  11
ENDBRANCH   7   8
ENDBRANCH   6   7
BRANCH   6  20
ATOM     20  N   UNL A   1      32.530  22.345  27.363  1.00  0.00    -0.343 N 
ATOM     21  H   UNL A   1      33.190  21.705  26.922  1.00  0.00     0.345 HD
ATOM     22  H   UNL A   1      31.602  21.920  27.379  1.00  0.00     0.345 HD
ATOM     23  H   UNL A   1      32.831  22.539  28.318  1.00  0.00     0.345 HD
ENDBRANCH   6  20
ENDBRANCH   3   6
ENDBRANCH   1   2
BRANCH   1  24
ATOM     24  C   UNL A   1      31.691  28.051  27.478  1.00  0.00     0.023 C 
BRANCH  24  25
ATOM     25  C   UNL A   1      32.131  29.345  26.800  1.00  0.00     0.023 C 
BRANCH  25  26
ATOM     26  C   UNL A   1      33.588  29.770  26.965  1.00  0.00     0.116 C 
BRANCH  26  27
ATOM     27  N   UNL A   1      33.795  30.904  27.856  1.00  0.00    -0.352 N 
ATOM     28  C   UNL A   1      34.821  31.240  28.714  1.00  0.00     0.251 C 
ATOM     29  H   UNL A   1      33.059  31.558  27.843  1.00  0.00     0.163 HD
ATOM     30  O   UNL A   1      34.714  32.196  29.465  1.00  0.00    -0.269 OA
BRANCH  28  31
ATOM     31  C   UNL A   1      36.048  30.423  28.737  1.00  0.00     0.039 A 
ATOM     32  C   UNL A   1      36.895  30.409  27.627  1.00  0.00     0.014 A 
ATOM     33  C   UNL A   1      36.373  29.703  29.883  1.00  0.00     0.014 A 
ATOM     34  C   UNL A   1      38.141  29.787  27.727  1.00  0.00     0.010 A 
ATOM     35  C   UNL A   1      37.654  29.204  30.027  1.00  0.00     0.010 A 
ATOM     36  C   UNL A   1      38.557  29.251  28.956  1.00  0.00    -0.014 A 
BRANCH  36  37
ATOM     37  C   UNL A   1      39.936  28.757  29.181  1.00  0.00     0.031 A 
ATOM     38  C   UNL A   1      40.985  29.696  29.713  1.00  0.00     0.074 A 
ATOM     39  C   UNL A   1      40.270  27.521  28.763  1.00  0.00     0.049 A 
ATOM     40  N   UNL A   1      42.277  29.521  29.811  1.00  0.00    -0.248 NA
ATOM     41  C   UNL A   1      40.524  31.029  30.138  1.00  0.00     0.031 C 
ATOM     42  C   UNL A   1      39.354  26.549  28.155  1.00  0.00     0.029 A 
ATOM     43  N   UNL A   1      41.479  26.874  28.766  1.00  0.00    -0.354 N 
ATOM     44  C   UNL A   1      42.783  30.733  30.263  1.00  0.00     0.074 A 
ATOM     45  C   UNL A   1      41.671  31.650  30.366  1.00  0.00     0.031 C 
ATOM     46  C   UNL A   1      40.028  25.420  27.880  1.00  0.00     0.029 A 
ATOM     47  C   UNL A   1      41.426  25.603  28.245  1.00  0.00     0.049 A 
ATOM     48  H   UNL A   1      42.307  27.282  29.109  1.00  0.00     0.167 HD
ATOM     49  C   UNL A   1      44.060  31.047  30.585  1.00  0.00     0.031 A 
ATOM     50  C   UNL A   1      42.399  24.690  28.079  1.00  0.00     0.031 A 
ATOM     51  C   UNL A   1      45.151  30.114  30.519  1.00  0.00     0.049 A 
ATOM     52  C   UNL A   1      43.797  25.041  28.501  1.00  0.00     0.074 A 
ATOM     53  C   UNL A   1      46.469  30.296  30.898  1.00  0.00     0.029 A 
ATOM     54  N   UNL A   1      45.041  28.814  30.051  1.00  0.00    -0.354 N 
ATOM     55  N   UNL A   1      44.251  26.169  28.994  1.00  0.00    -0.248 NA
ATOM     56  C   UNL A   1      44.814  23.991  28.357  1.00  0.00     0.031 C 
ATOM     57  C   UNL A   1      47.165  29.113  30.629  1.00  0.00     0.029 A 
ATOM     58  C   UNL A   1      46.270  28.182  30.124  1.00  0.00     0.049 A 
ATOM     59  H   UNL A   1      44.213  28.401  29.717  1.00  0.00     0.167 HD
ATOM     60  C   UNL A   1      45.599  25.957  29.244  1.00  0.00     0.074 A 
ATOM     61  C   UNL A   1      45.884  24.588  28.862  1.00  0.00     0.031 C 
ATOM     62  C   UNL A   1      46.521  26.817  29.740  1.00  0.00     0.031 A 
BRANCH  49  63
ATOM     63  C   UNL A   1      44.329  32.453  31.045  1.00  0.00    -0.014 A 
ATOM     64  C   UNL A   1      44.667  33.466  30.131  1.00  0.00     0.009 A 
ATOM     65  C   UNL A   1      44.239  32.774  32.407  1.00  0.00     0.009 A 
ATOM     66  C   UNL A   1      44.958  34.757  30.579  1.00  0.00     0.001 A 
ATOM     67  C   UNL A   1      44.499  34.073  32.849  1.00  0.00     0.001 A 
ATOM     68  C   UNL A   1      44.870  35.060  31.936  1.00  0.00     0.000 A 
ENDBRANCH  49  63
BRANCH  50  69
ATOM     69  C   UNL A   1      42.077  23.348  27.529  1.00  0.00    -0.014 A 
ATOM     70  C   UNL A   1      42.334  23.059  26.180  1.00  0.00     0.009 A 
ATOM     71  C   UNL A   1      41.529  22.346  28.344  1.00  0.00     0.009 A 
ATOM     72  C   UNL A   1      42.025  21.803  25.651  1.00  0.00     0.001 A 
ATOM     73  C   UNL A   1      41.246  21.082  27.819  1.00  0.00     0.001 A 
ATOM     74  C   UNL A   1      41.486  20.815  26.472  1.00  0.00     0.000 A 
ENDBRANCH  50  69
BRANCH  62  75
ATOM     75  C   UNL A   1      47.911  26.286  29.929  1.00  0.00    -0.014 A 
ATOM     76  C   UNL A   1      48.831  26.269  28.870  1.00  0.00     0.009 A 
ATOM     77  C   UNL A   1      48.313  25.832  31.195  1.00  0.00     0.009 A 
ATOM     78  C   UNL A   1      50.122  25.778  29.070  1.00  0.00     0.001 A 
ATOM     79  C   UNL A   1      49.612  25.367  31.396  1.00  0.00     0.001 A 
ATOM     80  C   UNL A   1      50.513  25.333  30.333  1.00  0.00     0.000 A 
ENDBRANCH  62  75
ENDBRANCH  36  37
ENDBRANCH  28  31
ENDBRANCH  26  27
ENDBRANCH  25  26
ENDBRANCH  24  25
ENDBRANCH   1  24
TORSDOF 17
ENDMDL
MODEL 2
REMARK VINA RESULT:      -9.6      2.700      7.502
REMARK SMILES CC[N@@H+]1CCC[C@@H]1C[N@@H+](C)C[C@H]([NH3+])C(=O)NCCCCNC(=O)c1ccc(-c2c3nc(c(-c4ccccc4)c4ccc([nH]4)c(-c4ccccc4)c4nc(c(-c5ccccc5)c5ccc2[nH]5)C=C4)C=C3)cc1
REMARK SMILES IDX 17 1 16 2 14 3 15 4 12 6 11 7 9 8 10 9 8 11 7 12 3 13 4 14
REMARK SMILES IDX 5 16 6 17 2 18 1 19 13 20 18 24 19 25 20 26 21 27 22 28
REMARK SMILES IDX 23 30 24 31 25 32 71 33 26 34 70 35 27 36 28 37 29 38 64 39
REMARK SMILES IDX 30 40 69 41 63 42 65 43 31 44 68 45 62 46 61 47 32 49 54 50
REMARK SMILES IDX 39 51 53 52 40 53 43 54 52 55 66 56 41 57 42 58 51 60 67 61
REMARK SMILES IDX 44 62 33 63 34 64 38 65 35 66 37 67 36 68 55 69 56 70 60 71
REMARK SMILES IDX 57 72 59 73 58 74 45 75 46 76 50 77 47 78 49 79 48 80
REMARK H PARENT 16 5 9 10 3 15 13 21 13 22 13 23 21 29 65 48 43 59
REMARK Flexibility Score: inf
ROOT
ATOM      1  C   UNL A   1      31.779  27.826  25.931  1.00  0.00     0.116 C 
ENDROOT
BRANCH   1   2
ATOM      2  N   UNL A   1      31.316  28.161  24.609  1.00  0.00    -0.351 N 
ATOM      3  C   UNL A   1      30.289  27.595  23.899  1.00  0.00     0.284 C 
ATOM      4  O   UNL A   1      29.879  28.239  22.924  1.00  0.00    -0.268 OA
ATOM      5  H   UNL A   1      31.800  28.890  24.157  1.00  0.00     0.163 HD
BRANCH   3   6
ATOM      6  C   UNL A   1      29.630  26.227  24.241  1.00  0.00     0.326 C 
BRANCH   6   7
ATOM      7  C   UNL A   1      30.450  24.931  23.936  1.00  0.00     0.338 C 
BRANCH   7   8
ATOM      8  N   UNL A   1      30.670  23.800  24.866  1.00  0.00    -0.327 N 
ATOM      9  C   UNL A   1      30.627  24.302  26.250  1.00  0.00     0.333 C 
ATOM     10  H   UNL A   1      29.905  23.160  24.653  1.00  0.00     0.348 HD
BRANCH   8  11
ATOM     11  C   UNL A   1      31.848  22.941  24.662  1.00  0.00     0.327 C 
BRANCH  11  12
ATOM     12  C   UNL A   1      31.846  21.396  24.874  1.00  0.00     0.239 C 
ATOM     13  N   UNL A   1      32.577  20.862  26.083  1.00  0.00    -0.328 N 
ATOM     14  C   UNL A   1      33.191  19.588  25.667  1.00  0.00     0.262 C 
ATOM     15  H   UNL A   1      31.868  20.788  26.813  1.00  0.00     0.348 HD
ATOM     16  C   UNL A   1      33.558  19.810  24.221  1.00  0.00     0.068 C 
ATOM     17  C   UNL A   1      32.344  20.547  23.699  1.00  0.00     0.077 C 
BRANCH  13  18
ATOM     18  C   UNL A   1      33.586  21.705  26.735  1.00  0.00     0.259 C 
ATOM     19  C   UNL A   1      33.100  22.319  28.037  1.00  0.00     0.071 C 
ENDBRANCH  13  18
ENDBRANCH  11  12
ENDBRANCH   8  11
ENDBRANCH   7   8
ENDBRANCH   6   7
BRANCH   6  20
ATOM     20  N   UNL A   1      28.183  26.166  23.929  1.00  0.00    -0.343 N 
ATOM     21  H   UNL A   1      27.811  25.264  24.227  1.00  0.00     0.345 HD
ATOM     22  H   UNL A   1      28.047  26.276  22.925  1.00  0.00     0.345 HD
ATOM     23  H   UNL A   1      27.697  26.914  24.424  1.00  0.00     0.345 HD
ENDBRANCH   6  20
ENDBRANCH   3   6
ENDBRANCH   1   2
BRANCH   1  24
ATOM     24  C   UNL A   1      31.787  28.928  26.977  1.00  0.00     0.023 C 
BRANCH  24  25
ATOM     25  C   UNL A   1      31.989  30.361  26.493  1.00  0.00     0.023 C 
BRANCH  25  26
ATOM     26  C   UNL A   1      33.020  31.216  27.227  1.00  0.00     0.116 C 
BRANCH  26  27
ATOM     27  N   UNL A   1      32.608  32.594  27.467  1.00  0.00    -0.352 N 
ATOM     28  C   UNL A   1      33.161  33.615  28.210  1.00  0.00     0.251 C 
ATOM     29  H   UNL A   1      31.772  32.844  27.011  1.00  0.00     0.163 HD
ATOM     30  O   UNL A   1      32.560  34.666  28.365  1.00  0.00    -0.269 OA
BRANCH  28  31
ATOM     31  C   UNL A   1      34.481  33.426  28.839  1.00  0.00     0.039 A 
ATOM     32  C   UNL A   1      34.581  32.748  30.057  1.00  0.00     0.014 A 
ATOM     33  C   UNL A   1      35.623  33.887  28.193  1.00  0.00     0.014 A 
ATOM     34  C   UNL A   1      35.843  32.411  30.549  1.00  0.00     0.010 A 
ATOM     35  C   UNL A   1      36.864  33.440  28.608  1.00  0.00     0.010 A 
ATOM     36  C   UNL A   1      36.987  32.686  29.784  1.00  0.00    -0.014 A 
BRANCH  36  37
ATOM     37  C   UNL A   1      38.330  32.180  30.152  1.00  0.00     0.031 A 
ATOM     38  C   UNL A   1      38.812  30.870  29.590  1.00  0.00     0.074 A 
ATOM     39  C   UNL A   1      39.037  32.820  31.104  1.00  0.00     0.049 A 
ATOM     40  N   UNL A   1      39.864  30.167  29.919  1.00  0.00    -0.248 NA
ATOM     41  C   UNL A   1      37.966  30.242  28.559  1.00  0.00     0.031 C 
ATOM     42  C   UNL A   1      38.632  34.057  31.781  1.00  0.00     0.029 A 
ATOM     43  N   UNL A   1      40.240  32.508  31.683  1.00  0.00    -0.354 N 
ATOM     44  C   UNL A   1      39.779  28.998  29.172  1.00  0.00     0.074 A 
ATOM     45  C   UNL A   1      38.548  29.062  28.417  1.00  0.00     0.031 C 
ATOM     46  C   UNL A   1      39.587  34.414  32.655  1.00  0.00     0.029 A 
ATOM     47  C   UNL A   1      40.645  33.413  32.635  1.00  0.00     0.049 A 
ATOM     48  H   UNL A   1      40.764  31.711  31.440  1.00  0.00     0.167 HD
ATOM     49  C   UNL A   1      40.661  27.974  29.105  1.00  0.00     0.031 A 
ATOM     50  C   UNL A   1      41.746  33.429  33.407  1.00  0.00     0.031 A 
ATOM     51  C   UNL A   1      41.902  27.942  29.828  1.00  0.00     0.049 A 
ATOM     52  C   UNL A   1      42.740  32.312  33.269  1.00  0.00     0.074 A 
ATOM     53  C   UNL A   1      42.910  26.996  29.774  1.00  0.00     0.029 A 
ATOM     54  N   UNL A   1      42.307  28.913  30.730  1.00  0.00    -0.354 N 
ATOM     55  N   UNL A   1      42.682  31.246  32.506  1.00  0.00    -0.248 NA
ATOM     56  C   UNL A   1      43.955  32.404  34.088  1.00  0.00     0.031 C 
ATOM     57  C   UNL A   1      43.913  27.380  30.670  1.00  0.00     0.029 A 
ATOM     58  C   UNL A   1      43.548  28.587  31.248  1.00  0.00     0.049 A 
ATOM     59  H   UNL A   1      41.790  29.716  30.968  1.00  0.00     0.167 HD
ATOM     60  C   UNL A   1      43.863  30.554  32.733  1.00  0.00     0.074 A 
ATOM     61  C   UNL A   1      44.624  31.330  33.692  1.00  0.00     0.031 C 
ATOM     62  C   UNL A   1      44.281  29.382  32.199  1.00  0.00     0.031 A 
BRANCH  49  63
ATOM     63  C   UNL A   1      40.308  26.818  28.209  1.00  0.00    -0.014 A 
ATOM     64  C   UNL A   1      39.504  25.761  28.668  1.00  0.00     0.009 A 
ATOM     65  C   UNL A   1      40.779  26.785  26.889  1.00  0.00     0.009 A 
ATOM     66  C   UNL A   1      39.222  24.673  27.840  1.00  0.00     0.001 A 
ATOM     67  C   UNL A   1      40.468  25.712  26.051  1.00  0.00     0.001 A 
ATOM     68  C   UNL A   1      39.700  24.651  26.531  1.00  0.00     0.000 A 
ENDBRANCH  49  63
BRANCH  50  69
ATOM     69  C   UNL A   1      41.986  34.559  34.341  1.00  0.00    -0.014 A 
ATOM     70  C   UNL A   1      42.640  35.717  33.892  1.00  0.00     0.009 A 
ATOM     71  C   UNL A   1      41.555  34.499  35.675  1.00  0.00     0.009 A 
ATOM     72  C   UNL A   1      42.880  36.781  34.765  1.00  0.00     0.001 A 
ATOM     73  C   UNL A   1      41.772  35.575  36.539  1.00  0.00     0.001 A 
ATOM     74  C   UNL A   1      42.442  36.711  36.087  1.00  0.00     0.000 A 
ENDBRANCH  50  69
BRANCH  62  75
ATOM     75  C   UNL A   1      45.635  28.890  32.618  1.00  0.00    -0.014 A 
ATOM     76  C   UNL A   1      46.793  29.267  31.920  1.00  0.00     0.009 A 
ATOM     77  C   UNL A   1      45.753  28.069  33.750  1.00  0.00     0.009 A 
ATOM     78  C   UNL A   1      48.043  28.804  32.332  1.00  0.00     0.001 A 
ATOM     79  C   UNL A   1      47.007  27.631  34.174  1.00  0.00     0.001 A 
ATOM     80  C   UNL A   1      48.150  27.992  33.461  1.00  0.00     0.000 A 
ENDBRANCH  62  75
ENDBRANCH  36  37
ENDBRANCH  28  31
ENDBRANCH  26  27
ENDBRANCH  25  26
ENDBRANCH  24  25
ENDBRANCH   1  24
TORSDOF 17
ENDMDL
MODEL 3
REMARK VINA RESULT:      -9.6      2.886      7.887
REMARK SMILES CC[N@@H+]1CCC[C@@H]1C[N@@H+](C)C[C@H]([NH3+])C(=O)NCCCCNC(=O)c1ccc(-c2c3nc(c(-c4ccccc4)c4ccc([nH]4)c(-c4ccccc4)c4nc(c(-c5ccccc5)c5ccc2[nH]5)C=C4)C=C3)cc1
REMARK SMILES IDX 17 1 16 2 14 3 15 4 12 6 11 7 9 8 10 9 8 11 7 12 3 13 4 14
REMARK SMILES IDX 5 16 6 17 2 18 1 19 13 20 18 24 19 25 20 26 21 27 22 28
REMARK SMILES IDX 23 30 24 31 25 32 71 33 26 34 70 35 27 36 28 37 29 38 64 39
REMARK SMILES IDX 30 40 69 41 63 42 65 43 31 44 68 45 62 46 61 47 32 49 54 50
REMARK SMILES IDX 39 51 53 52 40 53 43 54 52 55 66 56 41 57 42 58 51 60 67 61
REMARK SMILES IDX 44 62 33 63 34 64 38 65 35 66 37 67 36 68 55 69 56 70 60 71
REMARK SMILES IDX 57 72 59 73 58 74 45 75 46 76 50 77 47 78 49 79 48 80
REMARK H PARENT 16 5 9 10 3 15 13 21 13 22 13 23 21 29 65 48 43 59
REMARK Flexibility Score: inf
ROOT
ATOM      1  C   UNL A   1      35.765  23.154  24.058  1.00  0.00     0.116 C 
ENDROOT
BRANCH   1   2
ATOM      2  N   UNL A   1      34.612  22.947  23.219  1.00  0.00    -0.351 N 
ATOM      3  C   UNL A   1      33.288  23.112  23.536  1.00  0.00     0.284 C 
ATOM      4  O   UNL A   1      32.502  23.173  22.582  1.00  0.00    -0.268 OA
ATOM      5  H   UNL A   1      34.799  22.647  22.300  1.00  0.00     0.163 HD
BRANCH   3   6
ATOM      6  C   UNL A   1      32.738  23.224  24.988  1.00  0.00     0.326 C 
BRANCH   6   7
ATOM      7  C   UNL A   1      32.231  21.912  25.674  1.00  0.00     0.338 C 
BRANCH   7   8
ATOM      8  N   UNL A   1      33.081  20.864  26.283  1.00  0.00    -0.327 N 
ATOM      9  C   UNL A   1      34.124  21.506  27.102  1.00  0.00     0.333 C 
ATOM     10  H   UNL A   1      32.426  20.314  26.839  1.00  0.00     0.348 HD
BRANCH   8  11
ATOM     11  C   UNL A   1      33.669  19.838  25.406  1.00  0.00     0.327 C 
BRANCH  11  12
ATOM     12  C   UNL A   1      32.877  18.618  24.843  1.00  0.00     0.239 C 
ATOM     13  N   UNL A   1      33.569  17.275  24.860  1.00  0.00    -0.328 N 
ATOM     14  C   UNL A   1      33.147  16.576  23.633  1.00  0.00     0.262 C 
ATOM     15  H   UNL A   1      33.281  16.837  25.735  1.00  0.00     0.348 HD
ATOM     16  C   UNL A   1      32.998  17.677  22.613  1.00  0.00     0.068 C 
ATOM     17  C   UNL A   1      32.323  18.764  23.421  1.00  0.00     0.077 C 
BRANCH  13  18
ATOM     18  C   UNL A   1      35.032  17.229  24.974  1.00  0.00     0.259 C 
ATOM     19  C   UNL A   1      35.560  15.851  25.334  1.00  0.00     0.071 C 
ENDBRANCH  13  18
ENDBRANCH  11  12
ENDBRANCH   8  11
ENDBRANCH   7   8
ENDBRANCH   6   7
BRANCH   6  20
ATOM     20  N   UNL A   1      31.920  24.436  25.226  1.00  0.00    -0.343 N 
ATOM     21  H   UNL A   1      31.843  24.968  24.359  1.00  0.00     0.345 HD
ATOM     22  H   UNL A   1      32.365  25.011  25.941  1.00  0.00     0.345 HD
ATOM     23  H   UNL A   1      30.989  24.161  25.540  1.00  0.00     0.345 HD
ENDBRANCH   6  20
ENDBRANCH   3   6
ENDBRANCH   1   2
BRANCH   1  24
ATOM     24  C   UNL A   1      36.972  22.258  23.833  1.00  0.00     0.023 C 
BRANCH  24  25
ATOM     25  C   UNL A   1      37.244  21.165  24.862  1.00  0.00     0.023 C 
BRANCH  25  26
ATOM     26  C   UNL A   1      38.495  21.304  25.726  1.00  0.00     0.116 C 
BRANCH  26  27
ATOM     27  N   UNL A   1      39.394  20.157  25.687  1.00  0.00    -0.352 N 
ATOM     28  C   UNL A   1      40.732  20.012  25.981  1.00  0.00     0.251 C 
ATOM     29  H   UNL A   1      38.960  19.323  25.393  1.00  0.00     0.163 HD
ATOM     30  O   UNL A   1      41.308  18.961  25.750  1.00  0.00    -0.269 OA
BRANCH  28  31
ATOM     31  C   UNL A   1      41.478  21.145  26.560  1.00  0.00     0.039 A 
ATOM     32  C   UNL A   1      42.073  22.088  25.719  1.00  0.00     0.014 A 
ATOM     33  C   UNL A   1      41.547  21.288  27.943  1.00  0.00     0.014 A 
ATOM     34  C   UNL A   1      42.612  23.251  26.273  1.00  0.00     0.010 A 
ATOM     35  C   UNL A   1      41.959  22.493  28.478  1.00  0.00     0.010 A 
ATOM     36  C   UNL A   1      42.484  23.494  27.650  1.00  0.00    -0.014 A 
BRANCH  36  37
ATOM     37  C   UNL A   1      42.854  24.790  28.266  1.00  0.00     0.031 A 
ATOM     38  C   UNL A   1      41.795  25.832  28.499  1.00  0.00     0.074 A 
ATOM     39  C   UNL A   1      44.156  25.077  28.465  1.00  0.00     0.049 A 
ATOM     40  N   UNL A   1      41.931  27.083  28.854  1.00  0.00    -0.248 NA
ATOM     41  C   UNL A   1      40.401  25.426  28.246  1.00  0.00     0.031 C 
ATOM     42  C   UNL A   1      45.280  24.173  28.197  1.00  0.00     0.029 A 
ATOM     43  N   UNL A   1      44.757  26.221  28.922  1.00  0.00    -0.354 N 
ATOM     44  C   UNL A   1      40.651  27.621  28.820  1.00  0.00     0.074 A 
ATOM     45  C   UNL A   1      39.762  26.580  28.358  1.00  0.00     0.031 C 
ATOM     46  C   UNL A   1      46.427  24.785  28.529  1.00  0.00     0.029 A 
ATOM     47  C   UNL A   1      46.127  26.135  28.986  1.00  0.00     0.049 A 
ATOM     48  H   UNL A   1      44.254  27.028  29.179  1.00  0.00     0.167 HD
ATOM     49  C   UNL A   1      40.249  28.867  29.166  1.00  0.00     0.031 A 
ATOM     50  C   UNL A   1      47.039  27.048  29.369  1.00  0.00     0.031 A 
ATOM     51  C   UNL A   1      41.136  29.881  29.664  1.00  0.00     0.049 A 
ATOM     52  C   UNL A   1      46.562  28.403  29.806  1.00  0.00     0.074 A 
ATOM     53  C   UNL A   1      40.830  31.149  30.122  1.00  0.00     0.029 A 
ATOM     54  N   UNL A   1      42.510  29.731  29.780  1.00  0.00    -0.354 N 
ATOM     55  N   UNL A   1      45.339  28.877  29.837  1.00  0.00    -0.248 NA
ATOM     56  C   UNL A   1      47.588  29.345  30.274  1.00  0.00     0.031 C 
ATOM     57  C   UNL A   1      42.025  31.779  30.487  1.00  0.00     0.029 A 
ATOM     58  C   UNL A   1      43.069  30.886  30.296  1.00  0.00     0.049 A 
ATOM     59  H   UNL A   1      43.013  28.922  29.532  1.00  0.00     0.167 HD
ATOM     60  C   UNL A   1      45.444  30.162  30.351  1.00  0.00     0.074 A 
ATOM     61  C   UNL A   1      46.849  30.385  30.632  1.00  0.00     0.031 C 
ATOM     62  C   UNL A   1      44.469  31.077  30.568  1.00  0.00     0.031 A 
BRANCH  49  63
ATOM     63  C   UNL A   1      38.786  29.184  29.021  1.00  0.00    -0.014 A 
ATOM     64  C   UNL A   1      38.264  29.680  27.814  1.00  0.00     0.009 A 
ATOM     65  C   UNL A   1      37.915  28.981  30.102  1.00  0.00     0.009 A 
ATOM     66  C   UNL A   1      36.912  30.012  27.710  1.00  0.00     0.001 A 
ATOM     67  C   UNL A   1      36.557  29.283  29.985  1.00  0.00     0.001 A 
ATOM     68  C   UNL A   1      36.059  29.810  28.793  1.00  0.00     0.000 A 
ENDBRANCH  49  63
BRANCH  50  69
ATOM     69  C   UNL A   1      48.481  26.695  29.398  1.00  0.00    -0.014 A 
ATOM     70  C   UNL A   1      49.306  27.013  28.308  1.00  0.00     0.009 A 
ATOM     71  C   UNL A   1      49.047  26.055  30.512  1.00  0.00     0.009 A 
ATOM     72  C   UNL A   1      50.662  26.676  28.322  1.00  0.00     0.001 A 
ATOM     73  C   UNL A   1      50.408  25.743  30.533  1.00  0.00     0.001 A 
ATOM     74  C   UNL A   1      51.213  26.045  29.436  1.00  0.00     0.000 A 
ENDBRANCH  50  69
BRANCH  62  75
ATOM     75  C   UNL A   1      44.889  32.386  31.168  1.00  0.00    -0.014 A 
ATOM     76  C   UNL A   1      44.925  32.569  32.558  1.00  0.00     0.009 A 
ATOM     77  C   UNL A   1      45.290  33.436  30.327  1.00  0.00     0.009 A 
ATOM     78  C   UNL A   1      45.326  33.793  33.095  1.00  0.00     0.001 A 
ATOM     79  C   UNL A   1      45.716  34.648  30.868  1.00  0.00     0.001 A 
ATOM     80  C   UNL A   1      45.727  34.829  32.251  1.00  0.00     0.000 A 
ENDBRANCH  62  75
ENDBRANCH  36  37
ENDBRANCH  28  31
ENDBRANCH  26  27
ENDBRANCH  25  26
ENDBRANCH  24  25
ENDBRANCH   1  24
TORSDOF 17
ENDMDL
