MODEL 1
REMARK VINA RESULT:     -12.7      0.000      0.000
REMARK SMILES Cc1ccc(S(=O)(=O)N2c3ccc(C(=O)NCCCCNC(=O)c4ccc(-c5c6nc(c(-c7ccccc7)c7ccc([nH]7)c(-c7ccccc7)c7nc(c(-c8ccccc8)c8ccc5[nH]8)C=C7)C=C6)cc4)cc3C[C@H]2C)cc1
REMARK SMILES IDX 18 1 17 2 16 3 14 4 15 5 13 7 9 8 10 9 75 10 11 11 73 12
REMARK SMILES IDX 74 13 76 14 12 15 72 16 6 17 7 18 8 19 5 20 1 21 2 22 3 23
REMARK SMILES IDX 78 24 4 25 77 26 19 27 20 28 21 29 22 30 23 32 24 33 25 34
REMARK SMILES IDX 71 35 26 36 70 37 27 38 28 39 29 40 64 41 30 42 69 43 63 44
REMARK SMILES IDX 65 45 31 46 68 47 62 48 61 49 32 51 54 52 39 53 53 54 40 55
REMARK SMILES IDX 43 56 52 57 66 58 41 59 42 60 51 62 67 63 44 64 33 65 34 66
REMARK SMILES IDX 38 67 35 68 37 69 36 70 55 71 56 72 60 73 57 74 59 75 58 76
REMARK SMILES IDX 45 77 46 78 50 79 47 80 49 81 48 82
REMARK H PARENT 16 6 21 31 65 50 43 61
REMARK Flexibility Score: inf
ROOT
ATOM      1  C   UNL A   1      38.672  23.241  26.176  1.00  0.00     0.023 C 
ENDROOT
BRANCH   1   2
ATOM      2  C   UNL A   1      37.181  23.554  26.294  1.00  0.00     0.116 C 
BRANCH   2   3
ATOM      3  N   UNL A   1      36.322  22.379  26.374  1.00  0.00    -0.352 N 
ATOM      4  C   UNL A   1      35.001  22.186  26.028  1.00  0.00     0.251 C 
ATOM      5  O   UNL A   1      34.481  21.096  26.258  1.00  0.00    -0.269 OA
ATOM      6  H   UNL A   1      36.764  21.580  26.741  1.00  0.00     0.163 HD
BRANCH   4   7
ATOM      7  C   UNL A   1      34.176  23.276  25.446  1.00  0.00     0.040 A 
ATOM      8  N   UNL A   1      32.202  26.754  24.105  1.00  0.00    -0.263 N 
ATOM      9  C   UNL A   1      32.853  25.497  24.420  1.00  0.00     0.055 A 
ATOM     10  C   UNL A   1      31.815  27.329  25.459  1.00  0.00     0.101 C 
ATOM     11  C   UNL A   1      33.465  24.620  23.545  1.00  0.00     0.028 A 
ATOM     12  C   UNL A   1      32.816  25.223  25.785  1.00  0.00    -0.021 A 
ATOM     13  C   UNL A   1      31.917  26.182  26.486  1.00  0.00     0.063 C 
ATOM     14  C   UNL A   1      32.810  28.439  25.818  1.00  0.00     0.032 C 
ATOM     15  C   UNL A   1      34.058  23.467  24.061  1.00  0.00     0.016 A 
ATOM     16  C   UNL A   1      33.487  24.130  26.320  1.00  0.00     0.019 A 
BRANCH   8  17
ATOM     17  S   UNL A   1      30.959  26.555  22.929  1.00  0.00     0.264 S 
ATOM     18  O   UNL A   1      30.054  25.521  23.431  1.00  0.00    -0.201 OA
ATOM     19  O   UNL A   1      31.584  26.419  21.641  1.00  0.00    -0.201 OA
BRANCH  17  20
ATOM     20  C   UNL A   1      29.978  28.039  22.808  1.00  0.00     0.088 A 
ATOM     21  C   UNL A   1      27.454  31.510  23.170  1.00  0.00     0.044 C 
ATOM     22  C   UNL A   1      28.319  30.299  22.985  1.00  0.00    -0.051 A 
ATOM     23  C   UNL A   1      27.801  29.028  23.242  1.00  0.00     0.005 A 
ATOM     24  C   UNL A   1      29.648  30.420  22.564  1.00  0.00     0.005 A 
ATOM     25  C   UNL A   1      28.624  27.904  23.155  1.00  0.00     0.022 A 
ATOM     26  C   UNL A   1      30.474  29.293  22.468  1.00  0.00     0.022 A 
ENDBRANCH  17  20
ENDBRANCH   8  17
ENDBRANCH   4   7
ENDBRANCH   2   3
ENDBRANCH   1   2
BRANCH   1  27
ATOM     27  C   UNL A   1      39.029  21.824  25.746  1.00  0.00     0.023 C 
BRANCH  27  28
ATOM     28  C   UNL A   1      39.940  21.072  26.706  1.00  0.00     0.116 C 
BRANCH  28  29
ATOM     29  N   UNL A   1      41.036  20.339  26.092  1.00  0.00    -0.352 N 
ATOM     30  C   UNL A   1      42.386  20.648  26.033  1.00  0.00     0.251 C 
ATOM     31  H   UNL A   1      40.781  19.497  25.652  1.00  0.00     0.163 HD
ATOM     32  O   UNL A   1      43.131  19.934  25.367  1.00  0.00    -0.269 OA
BRANCH  30  33
ATOM     33  C   UNL A   1      42.969  21.732  26.873  1.00  0.00     0.039 A 
ATOM     34  C   UNL A   1      42.663  21.743  28.243  1.00  0.00     0.014 A 
ATOM     35  C   UNL A   1      43.628  22.824  26.319  1.00  0.00     0.014 A 
ATOM     36  C   UNL A   1      42.771  22.930  28.967  1.00  0.00     0.010 A 
ATOM     37  C   UNL A   1      43.618  24.027  26.988  1.00  0.00     0.010 A 
ATOM     38  C   UNL A   1      43.131  24.091  28.292  1.00  0.00    -0.014 A 
BRANCH  38  39
ATOM     39  C   UNL A   1      42.924  25.434  28.809  1.00  0.00     0.031 A 
ATOM     40  C   UNL A   1      41.769  26.236  28.370  1.00  0.00     0.074 A 
ATOM     41  C   UNL A   1      43.725  25.880  29.800  1.00  0.00     0.049 A 
ATOM     42  N   UNL A   1      41.726  27.524  28.427  1.00  0.00    -0.248 NA
ATOM     43  C   UNL A   1      40.567  25.641  27.794  1.00  0.00     0.031 C 
ATOM     44  C   UNL A   1      43.518  27.030  30.674  1.00  0.00     0.029 A 
ATOM     45  N   UNL A   1      45.023  25.465  30.081  1.00  0.00    -0.354 N 
ATOM     46  C   UNL A   1      40.423  27.895  28.198  1.00  0.00     0.074 A 
ATOM     47  C   UNL A   1      39.759  26.702  27.726  1.00  0.00     0.031 C 
ATOM     48  C   UNL A   1      44.697  27.385  31.209  1.00  0.00     0.029 A 
ATOM     49  C   UNL A   1      45.725  26.572  30.580  1.00  0.00     0.049 A 
ATOM     50  H   UNL A   1      45.383  24.558  29.953  1.00  0.00     0.167 HD
ATOM     51  C   UNL A   1      39.998  29.131  28.578  1.00  0.00     0.031 A 
ATOM     52  C   UNL A   1      46.795  27.072  29.893  1.00  0.00     0.031 A 
ATOM     53  C   UNL A   1      41.075  29.919  29.168  1.00  0.00     0.049 A 
ATOM     54  C   UNL A   1      46.576  28.478  29.372  1.00  0.00     0.074 A 
ATOM     55  C   UNL A   1      41.432  30.188  30.480  1.00  0.00     0.029 A 
ATOM     56  N   UNL A   1      42.159  30.283  28.381  1.00  0.00    -0.354 N 
ATOM     57  N   UNL A   1      45.405  29.046  29.276  1.00  0.00    -0.248 NA
ATOM     58  C   UNL A   1      47.650  29.346  28.896  1.00  0.00     0.031 C 
ATOM     59  C   UNL A   1      42.774  30.649  30.482  1.00  0.00     0.029 A 
ATOM     60  C   UNL A   1      43.216  30.689  29.171  1.00  0.00     0.049 A 
ATOM     61  H   UNL A   1      42.173  30.255  27.397  1.00  0.00     0.167 HD
ATOM     62  C   UNL A   1      45.541  30.308  28.761  1.00  0.00     0.074 A 
ATOM     63  C   UNL A   1      46.968  30.452  28.542  1.00  0.00     0.031 C 
ATOM     64  C   UNL A   1      44.465  31.122  28.557  1.00  0.00     0.031 A 
BRANCH  51  65
ATOM     65  C   UNL A   1      38.537  29.475  28.690  1.00  0.00    -0.014 A 
ATOM     66  C   UNL A   1      37.875  29.317  29.921  1.00  0.00     0.009 A 
ATOM     67  C   UNL A   1      37.750  29.910  27.611  1.00  0.00     0.009 A 
ATOM     68  C   UNL A   1      36.491  29.483  30.044  1.00  0.00     0.001 A 
ATOM     69  C   UNL A   1      36.358  30.037  27.715  1.00  0.00     0.001 A 
ATOM     70  C   UNL A   1      35.726  29.812  28.931  1.00  0.00     0.000 A 
ENDBRANCH  51  65
BRANCH  52  71
ATOM     71  C   UNL A   1      47.595  26.013  29.212  1.00  0.00    -0.014 A 
ATOM     72  C   UNL A   1      47.187  25.607  27.924  1.00  0.00     0.009 A 
ATOM     73  C   UNL A   1      48.906  25.727  29.617  1.00  0.00     0.009 A 
ATOM     74  C   UNL A   1      48.101  25.051  27.023  1.00  0.00     0.001 A 
ATOM     75  C   UNL A   1      49.815  25.157  28.714  1.00  0.00     0.001 A 
ATOM     76  C   UNL A   1      49.424  24.857  27.409  1.00  0.00     0.000 A 
ENDBRANCH  52  71
BRANCH  64  77
ATOM     77  C   UNL A   1      44.457  32.440  27.821  1.00  0.00    -0.014 A 
ATOM     78  C   UNL A   1      44.668  32.582  26.446  1.00  0.00     0.009 A 
ATOM     79  C   UNL A   1      44.072  33.606  28.526  1.00  0.00     0.009 A 
ATOM     80  C   UNL A   1      44.533  33.828  25.815  1.00  0.00     0.001 A 
ATOM     81  C   UNL A   1      43.890  34.838  27.895  1.00  0.00     0.001 A 
ATOM     82  C   UNL A   1      44.132  34.950  26.536  1.00  0.00     0.000 A 
ENDBRANCH  64  77
ENDBRANCH  38  39
ENDBRANCH  30  33
ENDBRANCH  28  29
ENDBRANCH  27  28
ENDBRANCH   1  27
TORSDOF 13
ENDMDL
MODEL 2
REMARK VINA RESULT:     -12.7      3.132      8.479
REMARK SMILES Cc1ccc(S(=O)(=O)N2c3ccc(C(=O)NCCCCNC(=O)c4ccc(-c5c6nc(c(-c7ccccc7)c7ccc([nH]7)c(-c7ccccc7)c7nc(c(-c8ccccc8)c8ccc5[nH]8)C=C7)C=C6)cc4)cc3C[C@H]2C)cc1
REMARK SMILES IDX 18 1 17 2 16 3 14 4 15 5 13 7 9 8 10 9 75 10 11 11 73 12
REMARK SMILES IDX 74 13 76 14 12 15 72 16 6 17 7 18 8 19 5 20 1 21 2 22 3 23
REMARK SMILES IDX 78 24 4 25 77 26 19 27 20 28 21 29 22 30 23 32 24 33 25 34
REMARK SMILES IDX 71 35 26 36 70 37 27 38 28 39 29 40 64 41 30 42 69 43 63 44
REMARK SMILES IDX 65 45 31 46 68 47 62 48 61 49 32 51 54 52 39 53 53 54 40 55
REMARK SMILES IDX 43 56 52 57 66 58 41 59 42 60 51 62 67 63 44 64 33 65 34 66
REMARK SMILES IDX 38 67 35 68 37 69 36 70 55 71 56 72 60 73 57 74 59 75 58 76
REMARK SMILES IDX 45 77 46 78 50 79 47 80 49 81 48 82
REMARK H PARENT 16 6 21 31 65 50 43 61
REMARK Flexibility Score: inf
ROOT
ATOM      1  C   UNL A   1      32.830  29.606  25.514  1.00  0.00     0.023 C 
ENDROOT
BRANCH   1   2
ATOM      2  C   UNL A   1      33.068  28.985  24.139  1.00  0.00     0.116 C 
BRANCH   2   3
ATOM      3  N   UNL A   1      31.907  29.007  23.258  1.00  0.00    -0.352 N 
ATOM      4  C   UNL A   1      31.048  28.009  22.850  1.00  0.00     0.251 C 
ATOM      5  O   UNL A   1      30.168  28.280  22.036  1.00  0.00    -0.269 OA
ATOM      6  H   UNL A   1      31.699  29.895  22.886  1.00  0.00     0.163 HD
BRANCH   4   7
ATOM      7  C   UNL A   1      31.199  26.606  23.317  1.00  0.00     0.040 A 
ATOM      8  N   UNL A   1      31.125  22.733  24.985  1.00  0.00    -0.263 N 
ATOM      9  C   UNL A   1      31.201  23.996  24.276  1.00  0.00     0.055 A 
ATOM     10  C   UNL A   1      31.208  23.119  26.453  1.00  0.00     0.101 C 
ATOM     11  C   UNL A   1      31.088  24.208  22.915  1.00  0.00     0.028 A 
ATOM     12  C   UNL A   1      31.407  25.065  25.143  1.00  0.00    -0.021 A 
ATOM     13  C   UNL A   1      31.724  24.572  26.514  1.00  0.00     0.063 C 
ATOM     14  C   UNL A   1      29.800  23.041  27.058  1.00  0.00     0.032 C 
ATOM     15  C   UNL A   1      31.168  25.516  22.435  1.00  0.00     0.016 A 
ATOM     16  C   UNL A   1      31.391  26.377  24.688  1.00  0.00     0.019 A 
BRANCH   8  17
ATOM     17  S   UNL A   1      32.267  21.591  24.386  1.00  0.00     0.264 S 
ATOM     18  O   UNL A   1      32.211  21.653  22.925  1.00  0.00    -0.201 OA
ATOM     19  O   UNL A   1      32.055  20.348  25.076  1.00  0.00    -0.201 OA
BRANCH  17  20
ATOM     20  C   UNL A   1      33.924  22.083  24.827  1.00  0.00     0.088 A 
ATOM     21  C   UNL A   1      37.661  23.898  25.962  1.00  0.00     0.044 C 
ATOM     22  C   UNL A   1      36.391  23.225  25.535  1.00  0.00    -0.051 A 
ATOM     23  C   UNL A   1      35.701  23.687  24.411  1.00  0.00     0.005 A 
ATOM     24  C   UNL A   1      35.874  22.139  26.251  1.00  0.00     0.005 A 
ATOM     25  C   UNL A   1      34.475  23.121  24.059  1.00  0.00     0.022 A 
ATOM     26  C   UNL A   1      34.648  21.565  25.895  1.00  0.00     0.022 A 
ENDBRANCH  17  20
ENDBRANCH   8  17
ENDBRANCH   4   7
ENDBRANCH   2   3
ENDBRANCH   1   2
BRANCH   1  27
ATOM     27  C   UNL A   1      34.014  29.589  26.473  1.00  0.00     0.023 C 
BRANCH  27  28
ATOM     28  C   UNL A   1      33.710  30.091  27.877  1.00  0.00     0.116 C 
BRANCH  28  29
ATOM     29  N   UNL A   1      34.485  31.240  28.319  1.00  0.00    -0.352 N 
ATOM     30  C   UNL A   1      35.788  31.303  28.787  1.00  0.00     0.251 C 
ATOM     31  H   UNL A   1      34.014  32.103  28.278  1.00  0.00     0.163 HD
ATOM     32  O   UNL A   1      36.217  32.374  29.210  1.00  0.00    -0.269 OA
BRANCH  30  33
ATOM     33  C   UNL A   1      36.715  30.144  28.654  1.00  0.00     0.039 A 
ATOM     34  C   UNL A   1      36.862  29.286  29.756  1.00  0.00     0.014 A 
ATOM     35  C   UNL A   1      37.571  30.003  27.568  1.00  0.00     0.014 A 
ATOM     36  C   UNL A   1      38.007  28.499  29.873  1.00  0.00     0.010 A 
ATOM     37  C   UNL A   1      38.761  29.330  27.733  1.00  0.00     0.010 A 
ATOM     38  C   UNL A   1      39.005  28.629  28.912  1.00  0.00    -0.014 A 
BRANCH  38  39
ATOM     39  C   UNL A   1      40.375  28.178  29.091  1.00  0.00     0.031 A 
ATOM     40  C   UNL A   1      40.830  26.908  28.500  1.00  0.00     0.074 A 
ATOM     41  C   UNL A   1      41.259  29.006  29.688  1.00  0.00     0.049 A 
ATOM     42  N   UNL A   1      41.842  26.236  28.933  1.00  0.00    -0.248 NA
ATOM     43  C   UNL A   1      40.150  26.271  27.377  1.00  0.00     0.031 C 
ATOM     44  C   UNL A   1      42.715  28.912  29.695  1.00  0.00     0.029 A 
ATOM     45  N   UNL A   1      40.976  30.021  30.596  1.00  0.00    -0.354 N 
ATOM     46  C   UNL A   1      42.126  25.279  27.989  1.00  0.00     0.074 A 
ATOM     47  C   UNL A   1      40.999  25.283  27.084  1.00  0.00     0.031 C 
ATOM     48  C   UNL A   1      43.191  29.639  30.718  1.00  0.00     0.029 A 
ATOM     49  C   UNL A   1      42.052  30.100  31.495  1.00  0.00     0.049 A 
ATOM     50  H   UNL A   1      40.168  30.583  30.607  1.00  0.00     0.167 HD
ATOM     51  C   UNL A   1      43.353  24.690  27.974  1.00  0.00     0.031 A 
ATOM     52  C   UNL A   1      41.858  29.833  32.821  1.00  0.00     0.031 A 
ATOM     53  C   UNL A   1      44.203  25.175  29.056  1.00  0.00     0.049 A 
ATOM     54  C   UNL A   1      42.606  28.608  33.306  1.00  0.00     0.074 A 
ATOM     55  C   UNL A   1      45.212  26.123  29.104  1.00  0.00     0.029 A 
ATOM     56  N   UNL A   1      43.841  24.917  30.371  1.00  0.00    -0.354 N 
ATOM     57  N   UNL A   1      43.108  27.699  32.515  1.00  0.00    -0.248 NA
ATOM     58  C   UNL A   1      42.827  28.293  34.715  1.00  0.00     0.031 C 
ATOM     59  C   UNL A   1      45.404  26.490  30.462  1.00  0.00     0.029 A 
ATOM     60  C   UNL A   1      44.535  25.742  31.235  1.00  0.00     0.049 A 
ATOM     61  H   UNL A   1      43.182  24.241  30.650  1.00  0.00     0.167 HD
ATOM     62  C   UNL A   1      43.710  26.718  33.256  1.00  0.00     0.074 A 
ATOM     63  C   UNL A   1      43.511  27.136  34.632  1.00  0.00     0.031 C 
ATOM     64  C   UNL A   1      44.318  25.644  32.673  1.00  0.00     0.031 A 
BRANCH  51  65
ATOM     65  C   UNL A   1      43.855  23.917  26.785  1.00  0.00    -0.014 A 
ATOM     66  C   UNL A   1      44.722  24.536  25.866  1.00  0.00     0.009 A 
ATOM     67  C   UNL A   1      43.472  22.598  26.489  1.00  0.00     0.009 A 
ATOM     68  C   UNL A   1      45.101  23.913  24.671  1.00  0.00     0.001 A 
ATOM     69  C   UNL A   1      43.812  21.984  25.276  1.00  0.00     0.001 A 
ATOM     70  C   UNL A   1      44.619  22.647  24.360  1.00  0.00     0.000 A 
ENDBRANCH  51  65
BRANCH  52  71
ATOM     71  C   UNL A   1      40.527  30.285  33.317  1.00  0.00    -0.014 A 
ATOM     72  C   UNL A   1      40.287  31.674  33.387  1.00  0.00     0.009 A 
ATOM     73  C   UNL A   1      39.425  29.418  33.318  1.00  0.00     0.009 A 
ATOM     74  C   UNL A   1      38.986  32.182  33.328  1.00  0.00     0.001 A 
ATOM     75  C   UNL A   1      38.121  29.933  33.271  1.00  0.00     0.001 A 
ATOM     76  C   UNL A   1      37.905  31.311  33.236  1.00  0.00     0.000 A 
ENDBRANCH  52  71
BRANCH  64  77
ATOM     77  C   UNL A   1      44.835  24.410  33.372  1.00  0.00    -0.014 A 
ATOM     78  C   UNL A   1      46.142  24.256  33.846  1.00  0.00     0.009 A 
ATOM     79  C   UNL A   1      43.916  23.387  33.707  1.00  0.00     0.009 A 
ATOM     80  C   UNL A   1      46.518  23.125  34.586  1.00  0.00     0.001 A 
ATOM     81  C   UNL A   1      44.273  22.283  34.484  1.00  0.00     0.001 A 
ATOM     82  C   UNL A   1      45.582  22.148  34.916  1.00  0.00     0.000 A 
ENDBRANCH  64  77
ENDBRANCH  38  39
ENDBRANCH  30  33
ENDBRANCH  28  29
ENDBRANCH  27  28
ENDBRANCH   1  27
TORSDOF 13
ENDMDL
MODEL 3
REMARK VINA RESULT:     -12.7      3.129      8.646
REMARK SMILES Cc1ccc(S(=O)(=O)N2c3ccc(C(=O)NCCCCNC(=O)c4ccc(-c5c6nc(c(-c7ccccc7)c7ccc([nH]7)c(-c7ccccc7)c7nc(c(-c8ccccc8)c8ccc5[nH]8)C=C7)C=C6)cc4)cc3C[C@H]2C)cc1
REMARK SMILES IDX 18 1 17 2 16 3 14 4 15 5 13 7 9 8 10 9 75 10 11 11 73 12
REMARK SMILES IDX 74 13 76 14 12 15 72 16 6 17 7 18 8 19 5 20 1 21 2 22 3 23
REMARK SMILES IDX 78 24 4 25 77 26 19 27 20 28 21 29 22 30 23 32 24 33 25 34
REMARK SMILES IDX 71 35 26 36 70 37 27 38 28 39 29 40 64 41 30 42 69 43 63 44
REMARK SMILES IDX 65 45 31 46 68 47 62 48 61 49 32 51 54 52 39 53 53 54 40 55
REMARK SMILES IDX 43 56 52 57 66 58 41 59 42 60 51 62 67 63 44 64 33 65 34 66
REMARK SMILES IDX 38 67 35 68 37 69 36 70 55 71 56 72 60 73 57 74 59 75 58 76
REMARK SMILES IDX 45 77 46 78 50 79 47 80 49 81 48 82
REMARK H PARENT 16 6 21 31 65 50 43 61
REMARK Flexibility Score: inf
ROOT
ATOM      1  C   UNL A   1      32.094  30.070  26.699  1.00  0.00     0.023 C 
ENDROOT
BRANCH   1   2
ATOM      2  C   UNL A   1      31.585  29.236  25.524  1.00  0.00     0.116 C 
BRANCH   2   3
ATOM      3  N   UNL A   1      32.300  29.457  24.273  1.00  0.00    -0.352 N 
ATOM      4  C   UNL A   1      33.115  28.632  23.527  1.00  0.00     0.251 C 
ATOM      5  O   UNL A   1      33.659  29.087  22.522  1.00  0.00    -0.269 OA
ATOM      6  H   UNL A   1      32.181  30.357  23.893  1.00  0.00     0.163 HD
BRANCH   4   7
ATOM      7  C   UNL A   1      33.401  27.233  23.938  1.00  0.00     0.040 A 
ATOM      8  N   UNL A   1      34.755  23.339  24.825  1.00  0.00    -0.263 N 
ATOM      9  C   UNL A   1      34.219  24.676  24.664  1.00  0.00     0.055 A 
ATOM     10  C   UNL A   1      35.008  22.860  23.404  1.00  0.00     0.101 C 
ATOM     11  C   UNL A   1      33.898  25.583  25.657  1.00  0.00     0.028 A 
ATOM     12  C   UNL A   1      34.043  25.005  23.323  1.00  0.00    -0.021 A 
ATOM     13  C   UNL A   1      34.235  23.805  22.461  1.00  0.00     0.063 C 
ATOM     14  C   UNL A   1      36.512  22.954  23.118  1.00  0.00     0.032 C 
ATOM     15  C   UNL A   1      33.413  26.837  25.283  1.00  0.00     0.016 A 
ATOM     16  C   UNL A   1      33.654  26.282  22.938  1.00  0.00     0.019 A 
BRANCH   8  17
ATOM     17  S   UNL A   1      33.759  22.366  25.838  1.00  0.00     0.264 S 
ATOM     18  O   UNL A   1      32.379  22.807  25.635  1.00  0.00    -0.201 OA
ATOM     19  O   UNL A   1      34.339  22.355  27.154  1.00  0.00    -0.201 OA
BRANCH  17  20
ATOM     20  C   UNL A   1      33.806  20.665  25.304  1.00  0.00     0.088 A 
ATOM     21  C   UNL A   1      33.646  16.790  23.431  1.00  0.00     0.044 C 
ATOM     22  C   UNL A   1      33.696  18.112  24.137  1.00  0.00    -0.051 A 
ATOM     23  C   UNL A   1      32.526  18.855  24.308  1.00  0.00     0.005 A 
ATOM     24  C   UNL A   1      34.904  18.623  24.626  1.00  0.00     0.005 A 
ATOM     25  C   UNL A   1      32.579  20.124  24.887  1.00  0.00     0.022 A 
ATOM     26  C   UNL A   1      34.958  19.892  25.214  1.00  0.00     0.022 A 
ENDBRANCH  17  20
ENDBRANCH   8  17
ENDBRANCH   4   7
ENDBRANCH   2   3
ENDBRANCH   1   2
BRANCH   1  27
ATOM     27  C   UNL A   1      33.586  30.378  26.709  1.00  0.00     0.023 C 
BRANCH  27  28
ATOM     28  C   UNL A   1      34.198  30.545  28.092  1.00  0.00     0.116 C 
BRANCH  28  29
ATOM     29  N   UNL A   1      35.222  31.572  28.209  1.00  0.00    -0.352 N 
ATOM     30  C   UNL A   1      36.580  31.446  28.449  1.00  0.00     0.251 C 
ATOM     31  H   UNL A   1      34.901  32.496  28.101  1.00  0.00     0.163 HD
ATOM     32  O   UNL A   1      37.252  32.461  28.616  1.00  0.00    -0.269 OA
BRANCH  30  33
ATOM     33  C   UNL A   1      37.261  30.123  28.365  1.00  0.00     0.039 A 
ATOM     34  C   UNL A   1      37.329  29.340  29.528  1.00  0.00     0.014 A 
ATOM     35  C   UNL A   1      37.991  29.737  27.246  1.00  0.00     0.014 A 
ATOM     36  C   UNL A   1      38.313  28.358  29.645  1.00  0.00     0.010 A 
ATOM     37  C   UNL A   1      39.043  28.862  27.398  1.00  0.00     0.010 A 
ATOM     38  C   UNL A   1      39.241  28.219  28.618  1.00  0.00    -0.014 A 
BRANCH  38  39
ATOM     39  C   UNL A   1      40.512  27.527  28.754  1.00  0.00     0.031 A 
ATOM     40  C   UNL A   1      40.610  26.081  28.494  1.00  0.00     0.074 A 
ATOM     41  C   UNL A   1      41.626  28.255  28.986  1.00  0.00     0.049 A 
ATOM     42  N   UNL A   1      41.539  25.326  28.975  1.00  0.00    -0.248 NA
ATOM     43  C   UNL A   1      39.637  25.356  27.683  1.00  0.00     0.031 C 
ATOM     44  C   UNL A   1      43.017  27.837  28.847  1.00  0.00     0.029 A 
ATOM     45  N   UNL A   1      41.702  29.501  29.600  1.00  0.00    -0.354 N 
ATOM     46  C   UNL A   1      41.469  24.126  28.312  1.00  0.00     0.074 A 
ATOM     47  C   UNL A   1      40.222  24.160  27.582  1.00  0.00     0.031 C 
ATOM     48  C   UNL A   1      43.792  28.668  29.562  1.00  0.00     0.029 A 
ATOM     49  C   UNL A   1      42.913  29.554  30.306  1.00  0.00     0.049 A 
ATOM     50  H   UNL A   1      41.028  30.216  29.547  1.00  0.00     0.167 HD
ATOM     51  C   UNL A   1      42.541  23.288  28.319  1.00  0.00     0.031 A 
ATOM     52  C   UNL A   1      42.907  29.678  31.667  1.00  0.00     0.031 A 
ATOM     53  C   UNL A   1      43.643  23.822  29.113  1.00  0.00     0.049 A 
ATOM     54  C   UNL A   1      43.486  28.475  32.385  1.00  0.00     0.074 A 
ATOM     55  C   UNL A   1      44.805  24.496  28.773  1.00  0.00     0.029 A 
ATOM     56  N   UNL A   1      43.475  23.988  30.481  1.00  0.00    -0.354 N 
ATOM     57  N   UNL A   1      43.663  27.309  31.828  1.00  0.00    -0.248 NA
ATOM     58  C   UNL A   1      43.887  28.480  33.790  1.00  0.00     0.031 C 
ATOM     59  C   UNL A   1      45.296  25.136  29.941  1.00  0.00     0.029 A 
ATOM     60  C   UNL A   1      44.451  24.822  30.990  1.00  0.00     0.049 A 
ATOM     61  H   UNL A   1      42.760  23.572  31.013  1.00  0.00     0.167 HD
ATOM     62  C   UNL A   1      44.191  26.432  32.739  1.00  0.00     0.074 A 
ATOM     63  C   UNL A   1      44.316  27.215  33.955  1.00  0.00     0.031 C 
ATOM     64  C   UNL A   1      44.474  25.138  32.412  1.00  0.00     0.031 A 
BRANCH  51  65
ATOM     65  C   UNL A   1      42.675  22.150  27.343  1.00  0.00    -0.014 A 
ATOM     66  C   UNL A   1      42.000  20.939  27.586  1.00  0.00     0.009 A 
ATOM     67  C   UNL A   1      43.488  22.190  26.199  1.00  0.00     0.009 A 
ATOM     68  C   UNL A   1      42.204  19.806  26.792  1.00  0.00     0.001 A 
ATOM     69  C   UNL A   1      43.731  21.048  25.424  1.00  0.00     0.001 A 
ATOM     70  C   UNL A   1      43.097  19.851  25.728  1.00  0.00     0.000 A 
ENDBRANCH  51  65
BRANCH  52  71
ATOM     71  C   UNL A   1      41.792  30.530  32.170  1.00  0.00    -0.014 A 
ATOM     72  C   UNL A   1      41.894  31.925  31.984  1.00  0.00     0.009 A 
ATOM     73  C   UNL A   1      40.528  29.983  32.431  1.00  0.00     0.009 A 
ATOM     74  C   UNL A   1      40.751  32.728  31.930  1.00  0.00     0.001 A 
ATOM     75  C   UNL A   1      39.385  30.795  32.388  1.00  0.00     0.001 A 
ATOM     76  C   UNL A   1      39.493  32.155  32.099  1.00  0.00     0.000 A 
ENDBRANCH  52  71
BRANCH  64  77
ATOM     77  C   UNL A   1      44.866  24.033  33.364  1.00  0.00    -0.014 A 
ATOM     78  C   UNL A   1      44.053  22.943  33.691  1.00  0.00     0.009 A 
ATOM     79  C   UNL A   1      46.193  24.003  33.857  1.00  0.00     0.009 A 
ATOM     80  C   UNL A   1      44.530  21.896  34.496  1.00  0.00     0.001 A 
ATOM     81  C   UNL A   1      46.687  22.942  34.617  1.00  0.00     0.001 A 
ATOM     82  C   UNL A   1      45.848  21.890  34.945  1.00  0.00     0.000 A 
ENDBRANCH  64  77
ENDBRANCH  38  39
ENDBRANCH  30  33
ENDBRANCH  28  29
ENDBRANCH  27  28
ENDBRANCH   1  27
TORSDOF 13
ENDMDL
