MODEL 1
REMARK VINA RESULT:      -8.7      0.000      0.000
REMARK SMILES CC[C@@H](NC(=O)[C@H](C)C[NH2+]C)C(=O)NCCCCNC(=O)c1ccc(-c2c3nc(c(-c4ccccc4)c4ccc([nH]4)c(-c4ccccc4)c4nc(c(-c5ccccc5)c5ccc2[nH]5)C=C4)C=C3)cc1
REMARK SMILES IDX 15 1 14 2 12 3 13 4 3 6 2 7 1 8 4 9 5 10 6 12 7 13 8 14 9 15
REMARK SMILES IDX 10 16 11 17 16 20 17 21 18 22 19 23 20 24 21 26 22 27 23 28
REMARK SMILES IDX 69 29 24 30 68 31 25 32 26 33 27 34 62 35 28 36 67 37 61 38
REMARK SMILES IDX 63 39 29 40 66 41 60 42 59 43 30 45 52 46 37 47 51 48 38 49
REMARK SMILES IDX 41 50 50 51 64 52 39 53 40 54 49 56 65 57 42 58 31 59 32 60
REMARK SMILES IDX 36 61 33 62 35 63 34 64 53 65 54 66 58 67 55 68 57 69 56 70
REMARK SMILES IDX 43 71 44 72 48 73 45 74 47 75 46 76
REMARK H PARENT 14 5 4 11 10 18 10 19 19 25 63 44 41 55
REMARK Flexibility Score: inf
ROOT
ATOM      1  C   UNL A   1      33.117  35.720  30.118  1.00  0.00     0.116 C 
ENDROOT
BRANCH   1   2
ATOM      2  N   UNL A   1      32.982  34.741  31.185  1.00  0.00    -0.354 N 
ATOM      3  C   UNL A   1      33.578  34.709  32.415  1.00  0.00     0.242 C 
ATOM      4  O   UNL A   1      33.283  33.777  33.168  1.00  0.00    -0.273 OA
ATOM      5  H   UNL A   1      32.371  33.992  30.994  1.00  0.00     0.163 HD
BRANCH   3   6
ATOM      6  C   UNL A   1      34.711  35.691  32.772  1.00  0.00     0.171 C 
BRANCH   6   7
ATOM      7  C   UNL A   1      34.002  36.910  33.414  1.00  0.00     0.031 C 
ATOM      8  C   UNL A   1      33.868  38.156  32.555  1.00  0.00     0.006 C 
ENDBRANCH   6   7
BRANCH   6   9
ATOM      9  N   UNL A   1      35.755  35.099  33.617  1.00  0.00    -0.344 N 
ATOM     10  C   UNL A   1      36.687  34.135  33.372  1.00  0.00     0.229 C 
ATOM     11  H   UNL A   1      35.789  35.466  34.531  1.00  0.00     0.164 HD
ATOM     12  O   UNL A   1      37.592  34.038  34.209  1.00  0.00    -0.275 OA
BRANCH  10  13
ATOM     13  C   UNL A   1      36.609  33.116  32.228  1.00  0.00     0.130 C 
ATOM     14  C   UNL A   1      36.921  31.684  32.639  1.00  0.00     0.024 C 
BRANCH  13  15
ATOM     15  C   UNL A   1      37.399  33.655  31.021  1.00  0.00     0.273 C 
BRANCH  15  16
ATOM     16  N   UNL A   1      38.372  34.719  31.292  1.00  0.00    -0.348 N 
ATOM     17  C   UNL A   1      39.296  34.864  30.167  1.00  0.00     0.330 C 
ATOM     18  H   UNL A   1      38.901  34.484  32.132  1.00  0.00     0.346 HD
ATOM     19  H   UNL A   1      37.874  35.597  31.427  1.00  0.00     0.346 HD
ENDBRANCH  15  16
ENDBRANCH  13  15
ENDBRANCH  10  13
ENDBRANCH   6   9
ENDBRANCH   3   6
ENDBRANCH   1   2
BRANCH   1  20
ATOM     20  C   UNL A   1      34.186  35.320  29.106  1.00  0.00     0.023 C 
BRANCH  20  21
ATOM     21  C   UNL A   1      34.666  33.869  29.214  1.00  0.00     0.023 C 
BRANCH  21  22
ATOM     22  C   UNL A   1      34.846  33.136  27.886  1.00  0.00     0.116 C 
BRANCH  22  23
ATOM     23  N   UNL A   1      33.952  32.003  27.748  1.00  0.00    -0.352 N 
ATOM     24  C   UNL A   1      34.216  30.657  27.818  1.00  0.00     0.251 C 
ATOM     25  H   UNL A   1      33.010  32.234  27.579  1.00  0.00     0.163 HD
ATOM     26  O   UNL A   1      33.338  29.853  27.516  1.00  0.00    -0.269 OA
BRANCH  24  27
ATOM     27  C   UNL A   1      35.553  30.160  28.217  1.00  0.00     0.039 A 
ATOM     28  C   UNL A   1      36.554  30.120  27.243  1.00  0.00     0.014 A 
ATOM     29  C   UNL A   1      35.823  29.694  29.509  1.00  0.00     0.014 A 
ATOM     30  C   UNL A   1      37.831  29.663  27.574  1.00  0.00     0.010 A 
ATOM     31  C   UNL A   1      37.118  29.294  29.854  1.00  0.00     0.010 A 
ATOM     32  C   UNL A   1      38.136  29.270  28.888  1.00  0.00    -0.014 A 
BRANCH  32  33
ATOM     33  C   UNL A   1      39.526  28.867  29.230  1.00  0.00     0.031 A 
ATOM     34  C   UNL A   1      40.401  29.735  30.093  1.00  0.00     0.074 A 
ATOM     35  C   UNL A   1      40.000  27.689  28.778  1.00  0.00     0.049 A 
ATOM     36  N   UNL A   1      41.590  29.475  30.581  1.00  0.00    -0.248 NA
ATOM     37  C   UNL A   1      39.887  31.067  30.443  1.00  0.00     0.031 C 
ATOM     38  C   UNL A   1      39.279  26.771  27.893  1.00  0.00     0.029 A 
ATOM     39  N   UNL A   1      41.191  27.051  29.017  1.00  0.00    -0.354 N 
ATOM     40  C   UNL A   1      41.957  30.601  31.307  1.00  0.00     0.074 A 
ATOM     41  C   UNL A   1      40.893  31.569  31.147  1.00  0.00     0.031 C 
ATOM     42  C   UNL A   1      40.024  25.672  27.698  1.00  0.00     0.029 A 
ATOM     43  C   UNL A   1      41.283  25.816  28.422  1.00  0.00     0.049 A 
ATOM     44  H   UNL A   1      41.912  27.442  29.563  1.00  0.00     0.167 HD
ATOM     45  C   UNL A   1      43.066  30.805  32.059  1.00  0.00     0.031 A 
ATOM     46  C   UNL A   1      42.263  24.893  28.461  1.00  0.00     0.031 A 
ATOM     47  C   UNL A   1      44.137  29.855  32.213  1.00  0.00     0.049 A 
ATOM     48  C   UNL A   1      43.487  25.149  29.297  1.00  0.00     0.074 A 
ATOM     49  C   UNL A   1      45.285  29.966  32.980  1.00  0.00     0.029 A 
ATOM     50  N   UNL A   1      44.198  28.623  31.581  1.00  0.00    -0.354 N 
ATOM     51  N   UNL A   1      43.778  26.187  30.041  1.00  0.00    -0.248 NA
ATOM     52  C   UNL A   1      44.507  24.090  29.312  1.00  0.00     0.031 C 
ATOM     53  C   UNL A   1      46.063  28.821  32.776  1.00  0.00     0.029 A 
ATOM     54  C   UNL A   1      45.374  27.973  31.925  1.00  0.00     0.049 A 
ATOM     55  H   UNL A   1      43.509  28.263  30.978  1.00  0.00     0.167 HD
ATOM     56  C   UNL A   1      45.005  25.899  30.627  1.00  0.00     0.074 A 
ATOM     57  C   UNL A   1      45.385  24.577  30.177  1.00  0.00     0.031 C 
ATOM     58  C   UNL A   1      45.752  26.664  31.459  1.00  0.00     0.031 A 
BRANCH  45  59
ATOM     59  C   UNL A   1      43.177  32.117  32.788  1.00  0.00    -0.014 A 
ATOM     60  C   UNL A   1      42.683  32.259  34.095  1.00  0.00     0.009 A 
ATOM     61  C   UNL A   1      43.829  33.205  32.187  1.00  0.00     0.009 A 
ATOM     62  C   UNL A   1      42.815  33.471  34.774  1.00  0.00     0.001 A 
ATOM     63  C   UNL A   1      43.984  34.407  32.879  1.00  0.00     0.001 A 
ATOM     64  C   UNL A   1      43.471  34.543  34.169  1.00  0.00     0.000 A 
ENDBRANCH  45  59
BRANCH  46  65
ATOM     65  C   UNL A   1      42.125  23.627  27.696  1.00  0.00    -0.014 A 
ATOM     66  C   UNL A   1      41.571  22.483  28.293  1.00  0.00     0.009 A 
ATOM     67  C   UNL A   1      42.571  23.551  26.367  1.00  0.00     0.009 A 
ATOM     68  C   UNL A   1      41.497  21.282  27.584  1.00  0.00     0.001 A 
ATOM     69  C   UNL A   1      42.467  22.357  25.652  1.00  0.00     0.001 A 
ATOM     70  C   UNL A   1      41.942  21.220  26.264  1.00  0.00     0.000 A 
ENDBRANCH  46  65
BRANCH  58  71
ATOM     71  C   UNL A   1      47.049  26.078  31.945  1.00  0.00    -0.014 A 
ATOM     72  C   UNL A   1      47.124  25.385  33.164  1.00  0.00     0.009 A 
ATOM     73  C   UNL A   1      48.212  26.218  31.171  1.00  0.00     0.009 A 
ATOM     74  C   UNL A   1      48.347  24.888  33.621  1.00  0.00     0.001 A 
ATOM     75  C   UNL A   1      49.426  25.693  31.615  1.00  0.00     0.001 A 
ATOM     76  C   UNL A   1      49.495  25.040  32.846  1.00  0.00     0.000 A 
ENDBRANCH  58  71
ENDBRANCH  32  33
ENDBRANCH  24  27
ENDBRANCH  22  23
ENDBRANCH  21  22
ENDBRANCH  20  21
ENDBRANCH   1  20
TORSDOF 16
ENDMDL
MODEL 2
REMARK VINA RESULT:      -8.5      4.309      9.902
REMARK SMILES CC[C@@H](NC(=O)[C@H](C)C[NH2+]C)C(=O)NCCCCNC(=O)c1ccc(-c2c3nc(c(-c4ccccc4)c4ccc([nH]4)c(-c4ccccc4)c4nc(c(-c5ccccc5)c5ccc2[nH]5)C=C4)C=C3)cc1
REMARK SMILES IDX 15 1 14 2 12 3 13 4 3 6 2 7 1 8 4 9 5 10 6 12 7 13 8 14 9 15
REMARK SMILES IDX 10 16 11 17 16 20 17 21 18 22 19 23 20 24 21 26 22 27 23 28
REMARK SMILES IDX 69 29 24 30 68 31 25 32 26 33 27 34 62 35 28 36 67 37 61 38
REMARK SMILES IDX 63 39 29 40 66 41 60 42 59 43 30 45 52 46 37 47 51 48 38 49
REMARK SMILES IDX 41 50 50 51 64 52 39 53 40 54 49 56 65 57 42 58 31 59 32 60
REMARK SMILES IDX 36 61 33 62 35 63 34 64 53 65 54 66 58 67 55 68 57 69 56 70
REMARK SMILES IDX 43 71 44 72 48 73 45 74 47 75 46 76
REMARK H PARENT 14 5 4 11 10 18 10 19 19 25 63 44 41 55
REMARK Flexibility Score: inf
ROOT
ATOM      1  C   UNL A   1      35.888  20.898  24.757  1.00  0.00     0.116 C 
ENDROOT
BRANCH   1   2
ATOM      2  N   UNL A   1      35.371  21.066  26.107  1.00  0.00    -0.354 N 
ATOM      3  C   UNL A   1      34.330  21.834  26.550  1.00  0.00     0.242 C 
ATOM      4  O   UNL A   1      34.060  21.792  27.753  1.00  0.00    -0.273 OA
ATOM      5  H   UNL A   1      35.839  20.550  26.804  1.00  0.00     0.163 HD
BRANCH   3   6
ATOM      6  C   UNL A   1      33.643  22.851  25.616  1.00  0.00     0.171 C 
BRANCH   6   7
ATOM      7  C   UNL A   1      32.918  21.994  24.548  1.00  0.00     0.031 C 
ATOM      8  C   UNL A   1      32.058  20.849  25.055  1.00  0.00     0.006 C 
ENDBRANCH   6   7
BRANCH   6   9
ATOM      9  N   UNL A   1      32.764  23.792  26.321  1.00  0.00    -0.344 N 
ATOM     10  C   UNL A   1      32.603  25.141  26.216  1.00  0.00     0.229 C 
ATOM     11  H   UNL A   1      32.182  23.370  26.994  1.00  0.00     0.164 HD
ATOM     12  O   UNL A   1      31.598  25.606  26.767  1.00  0.00    -0.275 OA
BRANCH  10  13
ATOM     13  C   UNL A   1      33.625  26.096  25.585  1.00  0.00     0.130 C 
ATOM     14  C   UNL A   1      33.760  27.432  26.301  1.00  0.00     0.024 C 
BRANCH  13  15
ATOM     15  C   UNL A   1      33.375  26.169  24.067  1.00  0.00     0.273 C 
BRANCH  15  16
ATOM     16  N   UNL A   1      32.003  25.918  23.613  1.00  0.00    -0.348 N 
ATOM     17  C   UNL A   1      32.002  24.990  22.482  1.00  0.00     0.330 C 
ATOM     18  H   UNL A   1      31.577  26.799  23.325  1.00  0.00     0.346 HD
ATOM     19  H   UNL A   1      31.470  25.507  24.379  1.00  0.00     0.346 HD
ENDBRANCH  15  16
ENDBRANCH  13  15
ENDBRANCH  10  13
ENDBRANCH   6   9
ENDBRANCH   3   6
ENDBRANCH   1   2
BRANCH   1  20
ATOM     20  C   UNL A   1      37.379  21.209  24.673  1.00  0.00     0.023 C 
BRANCH  20  21
ATOM     21  C   UNL A   1      38.301  19.995  24.834  1.00  0.00     0.023 C 
BRANCH  21  22
ATOM     22  C   UNL A   1      39.200  20.013  26.068  1.00  0.00     0.116 C 
BRANCH  22  23
ATOM     23  N   UNL A   1      40.392  19.203  25.901  1.00  0.00    -0.352 N 
ATOM     24  C   UNL A   1      41.716  19.545  26.035  1.00  0.00     0.251 C 
ATOM     25  H   UNL A   1      40.227  18.265  25.655  1.00  0.00     0.163 HD
ATOM     26  O   UNL A   1      42.582  18.745  25.696  1.00  0.00    -0.269 OA
BRANCH  24  27
ATOM     27  C   UNL A   1      42.114  20.876  26.548  1.00  0.00     0.039 A 
ATOM     28  C   UNL A   1      42.518  21.841  25.621  1.00  0.00     0.014 A 
ATOM     29  C   UNL A   1      42.140  21.173  27.915  1.00  0.00     0.014 A 
ATOM     30  C   UNL A   1      42.899  23.111  26.058  1.00  0.00     0.010 A 
ATOM     31  C   UNL A   1      42.463  22.465  28.346  1.00  0.00     0.010 A 
ATOM     32  C   UNL A   1      42.850  23.446  27.422  1.00  0.00    -0.014 A 
BRANCH  32  33
ATOM     33  C   UNL A   1      43.181  24.833  27.850  1.00  0.00     0.031 A 
ATOM     34  C   UNL A   1      42.105  25.861  28.066  1.00  0.00     0.074 A 
ATOM     35  C   UNL A   1      44.469  25.163  28.070  1.00  0.00     0.049 A 
ATOM     36  N   UNL A   1      42.214  27.074  28.551  1.00  0.00    -0.248 NA
ATOM     37  C   UNL A   1      40.736  25.490  27.680  1.00  0.00     0.031 C 
ATOM     38  C   UNL A   1      45.617  24.280  27.853  1.00  0.00     0.029 A 
ATOM     39  N   UNL A   1      45.027  26.323  28.547  1.00  0.00    -0.354 N 
ATOM     40  C   UNL A   1      40.929  27.603  28.544  1.00  0.00     0.074 A 
ATOM     41  C   UNL A   1      40.067  26.603  27.950  1.00  0.00     0.031 C 
ATOM     42  C   UNL A   1      46.737  24.915  28.233  1.00  0.00     0.029 A 
ATOM     43  C   UNL A   1      46.391  26.255  28.698  1.00  0.00     0.049 A 
ATOM     44  H   UNL A   1      44.500  27.127  28.759  1.00  0.00     0.167 HD
ATOM     45  C   UNL A   1      40.499  28.801  29.008  1.00  0.00     0.031 A 
ATOM     46  C   UNL A   1      47.268  27.161  29.170  1.00  0.00     0.031 A 
ATOM     47  C   UNL A   1      41.351  29.809  29.586  1.00  0.00     0.049 A 
ATOM     48  C   UNL A   1      46.765  28.487  29.672  1.00  0.00     0.074 A 
ATOM     49  C   UNL A   1      40.996  31.041  30.111  1.00  0.00     0.029 A 
ATOM     50  N   UNL A   1      42.728  29.707  29.707  1.00  0.00    -0.354 N 
ATOM     51  N   UNL A   1      45.536  28.936  29.730  1.00  0.00    -0.248 NA
ATOM     52  C   UNL A   1      47.775  29.420  30.193  1.00  0.00     0.031 C 
ATOM     53  C   UNL A   1      42.163  31.703  30.506  1.00  0.00     0.029 A 
ATOM     54  C   UNL A   1      43.239  30.861  30.279  1.00  0.00     0.049 A 
ATOM     55  H   UNL A   1      43.263  28.929  29.427  1.00  0.00     0.167 HD
ATOM     56  C   UNL A   1      45.622  30.195  30.310  1.00  0.00     0.074 A 
ATOM     57  C   UNL A   1      47.019  30.423  30.615  1.00  0.00     0.031 C 
ATOM     58  C   UNL A   1      44.632  31.086  30.563  1.00  0.00     0.031 A 
BRANCH  45  59
ATOM     59  C   UNL A   1      39.025  29.091  28.917  1.00  0.00    -0.014 A 
ATOM     60  C   UNL A   1      38.175  28.847  30.008  1.00  0.00     0.009 A 
ATOM     61  C   UNL A   1      38.490  29.664  27.753  1.00  0.00     0.009 A 
ATOM     62  C   UNL A   1      36.814  29.146  29.925  1.00  0.00     0.001 A 
ATOM     63  C   UNL A   1      37.133  29.986  27.683  1.00  0.00     0.001 A 
ATOM     64  C   UNL A   1      36.294  29.721  28.765  1.00  0.00     0.000 A 
ENDBRANCH  45  59
BRANCH  46  65
ATOM     65  C   UNL A   1      48.720  26.843  29.207  1.00  0.00    -0.014 A 
ATOM     66  C   UNL A   1      49.545  27.121  28.106  1.00  0.00     0.009 A 
ATOM     67  C   UNL A   1      49.282  26.235  30.341  1.00  0.00     0.009 A 
ATOM     68  C   UNL A   1      50.895  26.766  28.128  1.00  0.00     0.001 A 
ATOM     69  C   UNL A   1      50.638  25.910  30.371  1.00  0.00     0.001 A 
ATOM     70  C   UNL A   1      51.442  26.164  29.261  1.00  0.00     0.000 A 
ENDBRANCH  46  65
BRANCH  58  71
ATOM     71  C   UNL A   1      45.031  32.382  31.215  1.00  0.00    -0.014 A 
ATOM     72  C   UNL A   1      45.189  32.479  32.607  1.00  0.00     0.009 A 
ATOM     73  C   UNL A   1      45.254  33.521  30.425  1.00  0.00     0.009 A 
ATOM     74  C   UNL A   1      45.514  33.703  33.198  1.00  0.00     0.001 A 
ATOM     75  C   UNL A   1      45.610  34.734  31.016  1.00  0.00     0.001 A 
ATOM     76  C   UNL A   1      45.726  34.827  32.402  1.00  0.00     0.000 A 
ENDBRANCH  58  71
ENDBRANCH  32  33
ENDBRANCH  24  27
ENDBRANCH  22  23
ENDBRANCH  21  22
ENDBRANCH  20  21
ENDBRANCH   1  20
TORSDOF 16
ENDMDL
MODEL 3
REMARK VINA RESULT:      -8.4      1.029      6.322
REMARK SMILES CC[C@@H](NC(=O)[C@H](C)C[NH2+]C)C(=O)NCCCCNC(=O)c1ccc(-c2c3nc(c(-c4ccccc4)c4ccc([nH]4)c(-c4ccccc4)c4nc(c(-c5ccccc5)c5ccc2[nH]5)C=C4)C=C3)cc1
REMARK SMILES IDX 15 1 14 2 12 3 13 4 3 6 2 7 1 8 4 9 5 10 6 12 7 13 8 14 9 15
REMARK SMILES IDX 10 16 11 17 16 20 17 21 18 22 19 23 20 24 21 26 22 27 23 28
REMARK SMILES IDX 69 29 24 30 68 31 25 32 26 33 27 34 62 35 28 36 67 37 61 38
REMARK SMILES IDX 63 39 29 40 66 41 60 42 59 43 30 45 52 46 37 47 51 48 38 49
REMARK SMILES IDX 41 50 50 51 64 52 39 53 40 54 49 56 65 57 42 58 31 59 32 60
REMARK SMILES IDX 36 61 33 62 35 63 34 64 53 65 54 66 58 67 55 68 57 69 56 70
REMARK SMILES IDX 43 71 44 72 48 73 45 74 47 75 46 76
REMARK H PARENT 14 5 4 11 10 18 10 19 19 25 63 44 41 55
REMARK Flexibility Score: inf
ROOT
ATOM      1  C   UNL A   1      33.513  35.609  29.688  1.00  0.00     0.116 C 
ENDROOT
BRANCH   1   2
ATOM      2  N   UNL A   1      32.536  35.335  30.730  1.00  0.00    -0.354 N 
ATOM      3  C   UNL A   1      32.668  35.416  32.089  1.00  0.00     0.242 C 
ATOM      4  O   UNL A   1      31.678  35.155  32.776  1.00  0.00    -0.273 OA
ATOM      5  H   UNL A   1      31.649  35.049  30.411  1.00  0.00     0.163 HD
BRANCH   3   6
ATOM      6  C   UNL A   1      34.049  35.642  32.738  1.00  0.00     0.171 C 
BRANCH   6   7
ATOM      7  C   UNL A   1      33.986  37.070  33.336  1.00  0.00     0.031 C 
ATOM      8  C   UNL A   1      33.845  38.220  32.354  1.00  0.00     0.006 C 
ENDBRANCH   6   7
BRANCH   6   9
ATOM      9  N   UNL A   1      34.415  34.605  33.711  1.00  0.00    -0.344 N 
ATOM     10  C   UNL A   1      35.624  34.162  34.159  1.00  0.00     0.229 C 
ATOM     11  H   UNL A   1      33.644  34.144  34.116  1.00  0.00     0.164 HD
ATOM     12  O   UNL A   1      35.594  33.453  35.171  1.00  0.00    -0.275 OA
BRANCH  10  13
ATOM     13  C   UNL A   1      36.957  34.379  33.431  1.00  0.00     0.130 C 
ATOM     14  C   UNL A   1      37.091  33.612  32.124  1.00  0.00     0.024 C 
BRANCH  13  15
ATOM     15  C   UNL A   1      38.112  34.203  34.435  1.00  0.00     0.273 C 
BRANCH  15  16
ATOM     16  N   UNL A   1      38.502  32.826  34.755  1.00  0.00    -0.348 N 
ATOM     17  C   UNL A   1      38.782  32.694  36.185  1.00  0.00     0.330 C 
ATOM     18  H   UNL A   1      39.338  32.581  34.226  1.00  0.00     0.346 HD
ATOM     19  H   UNL A   1      37.736  32.199  34.509  1.00  0.00     0.346 HD
ENDBRANCH  15  16
ENDBRANCH  13  15
ENDBRANCH  10  13
ENDBRANCH   6   9
ENDBRANCH   3   6
ENDBRANCH   1   2
BRANCH   1  20
ATOM     20  C   UNL A   1      34.707  34.662  29.760  1.00  0.00     0.023 C 
BRANCH  20  21
ATOM     21  C   UNL A   1      34.393  33.201  29.419  1.00  0.00     0.023 C 
BRANCH  21  22
ATOM     22  C   UNL A   1      34.432  32.850  27.933  1.00  0.00     0.116 C 
BRANCH  22  23
ATOM     23  N   UNL A   1      33.739  31.612  27.634  1.00  0.00    -0.352 N 
ATOM     24  C   UNL A   1      34.206  30.320  27.621  1.00  0.00     0.251 C 
ATOM     25  H   UNL A   1      32.786  31.712  27.405  1.00  0.00     0.163 HD
ATOM     26  O   UNL A   1      33.489  29.424  27.186  1.00  0.00    -0.269 OA
BRANCH  24  27
ATOM     27  C   UNL A   1      35.573  29.997  28.091  1.00  0.00     0.039 A 
ATOM     28  C   UNL A   1      35.738  29.646  29.433  1.00  0.00     0.014 A 
ATOM     29  C   UNL A   1      36.690  30.078  27.252  1.00  0.00     0.014 A 
ATOM     30  C   UNL A   1      37.008  29.330  29.920  1.00  0.00     0.010 A 
ATOM     31  C   UNL A   1      37.952  29.702  27.726  1.00  0.00     0.010 A 
ATOM     32  C   UNL A   1      38.125  29.327  29.067  1.00  0.00    -0.014 A 
BRANCH  32  33
ATOM     33  C   UNL A   1      39.451  28.905  29.594  1.00  0.00     0.031 A 
ATOM     34  C   UNL A   1      40.104  27.631  29.132  1.00  0.00     0.074 A 
ATOM     35  C   UNL A   1      40.087  29.693  30.482  1.00  0.00     0.049 A 
ATOM     36  N   UNL A   1      41.306  27.180  29.402  1.00  0.00    -0.248 NA
ATOM     37  C   UNL A   1      39.310  26.743  28.271  1.00  0.00     0.031 C 
ATOM     38  C   UNL A   1      39.548  30.930  31.053  1.00  0.00     0.029 A 
ATOM     39  N   UNL A   1      41.333  29.583  31.046  1.00  0.00    -0.354 N 
ATOM     40  C   UNL A   1      41.416  25.968  28.732  1.00  0.00     0.074 A 
ATOM     41  C   UNL A   1      40.140  25.725  28.093  1.00  0.00     0.031 C 
ATOM     42  C   UNL A   1      40.474  31.485  31.851  1.00  0.00     0.029 A 
ATOM     43  C   UNL A   1      41.660  30.634  31.869  1.00  0.00     0.049 A 
ATOM     44  H   UNL A   1      41.937  28.823  30.877  1.00  0.00     0.167 HD
ATOM     45  C   UNL A   1      42.486  25.143  28.635  1.00  0.00     0.031 A 
ATOM     46  C   UNL A   1      42.789  30.895  32.554  1.00  0.00     0.031 A 
ATOM     47  C   UNL A   1      43.755  25.368  29.279  1.00  0.00     0.049 A 
ATOM     48  C   UNL A   1      43.960  29.958  32.436  1.00  0.00     0.074 A 
ATOM     49  C   UNL A   1      44.905  24.599  29.212  1.00  0.00     0.029 A 
ATOM     50  N   UNL A   1      44.038  26.436  30.116  1.00  0.00    -0.354 N 
ATOM     51  N   UNL A   1      44.071  28.858  31.732  1.00  0.00    -0.248 NA
ATOM     52  C   UNL A   1      45.168  30.315  33.193  1.00  0.00     0.031 C 
ATOM     53  C   UNL A   1      45.869  25.177  30.045  1.00  0.00     0.029 A 
ATOM     54  C   UNL A   1      45.338  26.335  30.588  1.00  0.00     0.049 A 
ATOM     55  H   UNL A   1      43.409  27.159  30.342  1.00  0.00     0.167 HD
ATOM     56  C   UNL A   1      45.365  28.402  31.947  1.00  0.00     0.074 A 
ATOM     57  C   UNL A   1      46.009  29.361  32.820  1.00  0.00     0.031 C 
ATOM     58  C   UNL A   1      45.965  27.285  31.468  1.00  0.00     0.031 A 
BRANCH  45  59
ATOM     59  C   UNL A   1      42.334  23.908  27.789  1.00  0.00    -0.014 A 
ATOM     60  C   UNL A   1      42.655  23.929  26.421  1.00  0.00     0.009 A 
ATOM     61  C   UNL A   1      41.922  22.700  28.371  1.00  0.00     0.009 A 
ATOM     62  C   UNL A   1      42.539  22.771  25.649  1.00  0.00     0.001 A 
ATOM     63  C   UNL A   1      41.833  21.538  27.602  1.00  0.00     0.001 A 
ATOM     64  C   UNL A   1      42.134  21.575  26.241  1.00  0.00     0.000 A 
ENDBRANCH  45  59
BRANCH  46  65
ATOM     65  C   UNL A   1      42.880  32.109  33.407  1.00  0.00    -0.014 A 
ATOM     66  C   UNL A   1      42.452  32.082  34.743  1.00  0.00     0.009 A 
ATOM     67  C   UNL A   1      43.373  33.311  32.876  1.00  0.00     0.009 A 
ATOM     68  C   UNL A   1      42.487  33.242  35.520  1.00  0.00     0.001 A 
ATOM     69  C   UNL A   1      43.435  34.461  33.663  1.00  0.00     0.001 A 
ATOM     70  C   UNL A   1      42.981  34.430  34.981  1.00  0.00     0.000 A 
ENDBRANCH  46  65
BRANCH  58  71
ATOM     71  C   UNL A   1      47.396  27.054  31.871  1.00  0.00    -0.014 A 
ATOM     72  C   UNL A   1      48.459  27.558  31.105  1.00  0.00     0.009 A 
ATOM     73  C   UNL A   1      47.684  26.323  33.035  1.00  0.00     0.009 A 
ATOM     74  C   UNL A   1      49.781  27.292  31.469  1.00  0.00     0.001 A 
ATOM     75  C   UNL A   1      49.007  26.087  33.413  1.00  0.00     0.001 A 
ATOM     76  C   UNL A   1      50.053  26.560  32.623  1.00  0.00     0.000 A 
ENDBRANCH  58  71
ENDBRANCH  32  33
ENDBRANCH  24  27
ENDBRANCH  22  23
ENDBRANCH  21  22
ENDBRANCH  20  21
ENDBRANCH   1  20
TORSDOF 16
ENDMDL
