MODEL 1
REMARK VINA RESULT:     -12.2      0.000      0.000
REMARK SMILES Cc1cccc(C(=O)NCCCCNC(=O)c2ccc(-c3c4nc(c(-c5ccccc5)c5ccc([nH]5)c(-c5ccccc5)c5nc(c(-c6ccccc6)c6ccc3[nH]6)C=C5)C=C4)cc2)c1OC[C@@H]1C[C@H]2CC[C@@H]1C2
REMARK SMILES IDX 11 1 10 2 9 3 7 4 8 5 6 7 1 8 2 9 3 10 65 11 4 12 5 13 66 14
REMARK SMILES IDX 67 15 68 16 69 17 73 18 70 19 72 20 74 21 71 22 12 23 13 24
REMARK SMILES IDX 14 25 15 26 16 28 17 29 18 30 64 31 19 32 63 33 20 34 21 35
REMARK SMILES IDX 22 36 57 37 23 38 62 39 56 40 58 41 24 42 61 43 55 44 54 45
REMARK SMILES IDX 25 47 47 48 32 49 46 50 33 51 36 52 45 53 59 54 34 55 35 56
REMARK SMILES IDX 44 58 60 59 37 60 26 61 27 62 31 63 28 64 30 65 29 66 48 67
REMARK SMILES IDX 49 68 53 69 50 70 52 71 51 72 38 73 39 74 43 75 40 76 42 77
REMARK SMILES IDX 41 78
REMARK H PARENT 9 6 14 27 58 46 36 57
REMARK Flexibility Score: inf
ROOT
ATOM      1  C   UNL A   1      37.777  23.448  25.683  1.00  0.00     0.023 C 
ENDROOT
BRANCH   1   2
ATOM      2  C   UNL A   1      36.248  23.582  25.760  1.00  0.00     0.116 C 
BRANCH   2   3
ATOM      3  N   UNL A   1      35.667  22.554  26.589  1.00  0.00    -0.352 N 
ATOM      4  C   UNL A   1      34.393  22.127  26.829  1.00  0.00     0.255 C 
ATOM      5  O   UNL A   1      34.330  21.181  27.627  1.00  0.00    -0.269 OA
ATOM      6  H   UNL A   1      36.342  22.049  27.098  1.00  0.00     0.163 HD
BRANCH   4   7
ATOM      7  C   UNL A   1      33.101  22.637  26.246  1.00  0.00     0.082 A 
ATOM      8  C   UNL A   1      31.289  23.729  23.053  1.00  0.00     0.048 C 
ATOM      9  C   UNL A   1      31.592  23.423  24.496  1.00  0.00    -0.008 A 
ATOM     10  C   UNL A   1      30.941  24.248  25.431  1.00  0.00     0.007 A 
ATOM     11  C   UNL A   1      32.599  22.524  24.927  1.00  0.00     0.134 A 
ATOM     12  C   UNL A   1      31.332  24.264  26.757  1.00  0.00     0.001 A 
ATOM     13  C   UNL A   1      32.420  23.494  27.147  1.00  0.00     0.018 A 
BRANCH  11  14
ATOM     14  O   UNL A   1      33.180  21.658  24.056  1.00  0.00    -0.492 OA
BRANCH  14  15
ATOM     15  C   UNL A   1      32.616  20.351  23.806  1.00  0.00     0.233 C 
BRANCH  15  16
ATOM     16  C   UNL A   1      33.032  19.172  24.714  1.00  0.00     0.030 C 
ATOM     17  C   UNL A   1      34.547  18.828  24.583  1.00  0.00     0.011 C 
ATOM     18  C   UNL A   1      32.392  17.834  24.245  1.00  0.00    -0.004 C 
ATOM     19  C   UNL A   1      34.557  17.358  24.122  1.00  0.00    -0.010 C 
ATOM     20  C   UNL A   1      32.575  16.778  25.347  1.00  0.00     0.004 C 
ATOM     21  C   UNL A   1      33.365  17.333  23.175  1.00  0.00     0.007 C 
ATOM     22  C   UNL A   1      34.073  16.460  25.271  1.00  0.00     0.004 C 
ENDBRANCH  15  16
ENDBRANCH  14  15
ENDBRANCH  11  14
ENDBRANCH   4   7
ENDBRANCH   2   3
ENDBRANCH   1   2
BRANCH   1  23
ATOM     23  C   UNL A   1      38.312  22.017  25.765  1.00  0.00     0.023 C 
BRANCH  23  24
ATOM     24  C   UNL A   1      39.649  21.923  26.481  1.00  0.00     0.116 C 
BRANCH  24  25
ATOM     25  N   UNL A   1      40.514  20.840  26.027  1.00  0.00    -0.352 N 
ATOM     26  C   UNL A   1      41.897  20.732  26.065  1.00  0.00     0.251 C 
ATOM     27  H   UNL A   1      40.045  20.067  25.636  1.00  0.00     0.163 HD
ATOM     28  O   UNL A   1      42.446  19.772  25.551  1.00  0.00    -0.269 OA
BRANCH  26  29
ATOM     29  C   UNL A   1      42.694  21.700  26.868  1.00  0.00     0.039 A 
ATOM     30  C   UNL A   1      42.515  21.682  28.257  1.00  0.00     0.014 A 
ATOM     31  C   UNL A   1      43.373  22.757  26.273  1.00  0.00     0.014 A 
ATOM     32  C   UNL A   1      42.734  22.847  28.986  1.00  0.00     0.010 A 
ATOM     33  C   UNL A   1      43.469  23.948  26.962  1.00  0.00     0.010 A 
ATOM     34  C   UNL A   1      43.067  24.010  28.298  1.00  0.00    -0.014 A 
BRANCH  34  35
ATOM     35  C   UNL A   1      42.868  25.346  28.845  1.00  0.00     0.031 A 
ATOM     36  C   UNL A   1      41.702  26.153  28.439  1.00  0.00     0.074 A 
ATOM     37  C   UNL A   1      43.728  25.813  29.777  1.00  0.00     0.049 A 
ATOM     38  N   UNL A   1      41.629  27.433  28.587  1.00  0.00    -0.248 NA
ATOM     39  C   UNL A   1      40.552  25.589  27.738  1.00  0.00     0.031 C 
ATOM     40  C   UNL A   1      43.558  26.964  30.660  1.00  0.00     0.029 A 
ATOM     41  N   UNL A   1      45.059  25.442  29.958  1.00  0.00    -0.354 N 
ATOM     42  C   UNL A   1      40.343  27.809  28.284  1.00  0.00     0.074 A 
ATOM     43  C   UNL A   1      39.758  26.661  27.641  1.00  0.00     0.031 C 
ATOM     44  C   UNL A   1      44.762  27.351  31.112  1.00  0.00     0.029 A 
ATOM     45  C   UNL A   1      45.764  26.567  30.409  1.00  0.00     0.049 A 
ATOM     46  H   UNL A   1      45.437  24.546  29.798  1.00  0.00     0.167 HD
ATOM     47  C   UNL A   1      39.883  29.005  28.740  1.00  0.00     0.031 A 
ATOM     48  C   UNL A   1      46.773  27.103  29.661  1.00  0.00     0.031 A 
ATOM     49  C   UNL A   1      40.971  29.835  29.261  1.00  0.00     0.049 A 
ATOM     50  C   UNL A   1      46.497  28.512  29.179  1.00  0.00     0.074 A 
ATOM     51  C   UNL A   1      41.383  30.173  30.538  1.00  0.00     0.029 A 
ATOM     52  N   UNL A   1      41.994  30.216  28.399  1.00  0.00    -0.354 N 
ATOM     53  N   UNL A   1      45.318  29.070  29.176  1.00  0.00    -0.248 NA
ATOM     54  C   UNL A   1      47.527  29.387  28.621  1.00  0.00     0.031 C 
ATOM     55  C   UNL A   1      42.715  30.667  30.445  1.00  0.00     0.029 A 
ATOM     56  C   UNL A   1      43.085  30.675  29.111  1.00  0.00     0.049 A 
ATOM     57  H   UNL A   1      41.948  30.167  27.417  1.00  0.00     0.167 HD
ATOM     58  C   UNL A   1      45.398  30.313  28.607  1.00  0.00     0.074 A 
ATOM     59  C   UNL A   1      46.807  30.477  28.298  1.00  0.00     0.031 C 
ATOM     60  C   UNL A   1      44.295  31.092  28.410  1.00  0.00     0.031 A 
BRANCH  47  61
ATOM     61  C   UNL A   1      38.419  29.344  28.923  1.00  0.00    -0.014 A 
ATOM     62  C   UNL A   1      37.692  29.871  27.839  1.00  0.00     0.009 A 
ATOM     63  C   UNL A   1      37.725  29.284  30.146  1.00  0.00     0.009 A 
ATOM     64  C   UNL A   1      36.372  30.329  27.977  1.00  0.00     0.001 A 
ATOM     65  C   UNL A   1      36.399  29.718  30.288  1.00  0.00     0.001 A 
ATOM     66  C   UNL A   1      35.724  30.252  29.203  1.00  0.00     0.000 A 
ENDBRANCH  47  61
BRANCH  48  67
ATOM     67  C   UNL A   1      47.555  26.091  28.897  1.00  0.00    -0.014 A 
ATOM     68  C   UNL A   1      47.273  25.932  27.527  1.00  0.00     0.009 A 
ATOM     69  C   UNL A   1      48.765  25.588  29.394  1.00  0.00     0.009 A 
ATOM     70  C   UNL A   1      48.226  25.397  26.655  1.00  0.00     0.001 A 
ATOM     71  C   UNL A   1      49.714  25.043  28.517  1.00  0.00     0.001 A 
ATOM     72  C   UNL A   1      49.460  24.982  27.147  1.00  0.00     0.000 A 
ENDBRANCH  48  67
BRANCH  60  73
ATOM     73  C   UNL A   1      44.244  32.348  27.572  1.00  0.00    -0.014 A 
ATOM     74  C   UNL A   1      44.304  32.366  26.172  1.00  0.00     0.009 A 
ATOM     75  C   UNL A   1      43.981  33.581  28.209  1.00  0.00     0.009 A 
ATOM     76  C   UNL A   1      44.158  33.559  25.449  1.00  0.00     0.001 A 
ATOM     77  C   UNL A   1      43.786  34.764  27.491  1.00  0.00     0.001 A 
ATOM     78  C   UNL A   1      43.889  34.755  26.108  1.00  0.00     0.000 A 
ENDBRANCH  60  73
ENDBRANCH  34  35
ENDBRANCH  26  29
ENDBRANCH  24  25
ENDBRANCH  23  24
ENDBRANCH   1  23
TORSDOF 14
ENDMDL
MODEL 2
REMARK VINA RESULT:     -12.0      4.205      9.166
REMARK SMILES Cc1cccc(C(=O)NCCCCNC(=O)c2ccc(-c3c4nc(c(-c5ccccc5)c5ccc([nH]5)c(-c5ccccc5)c5nc(c(-c6ccccc6)c6ccc3[nH]6)C=C5)C=C4)cc2)c1OC[C@@H]1C[C@H]2CC[C@@H]1C2
REMARK SMILES IDX 11 1 10 2 9 3 7 4 8 5 6 7 1 8 2 9 3 10 65 11 4 12 5 13 66 14
REMARK SMILES IDX 67 15 68 16 69 17 73 18 70 19 72 20 74 21 71 22 12 23 13 24
REMARK SMILES IDX 14 25 15 26 16 28 17 29 18 30 64 31 19 32 63 33 20 34 21 35
REMARK SMILES IDX 22 36 57 37 23 38 62 39 56 40 58 41 24 42 61 43 55 44 54 45
REMARK SMILES IDX 25 47 47 48 32 49 46 50 33 51 36 52 45 53 59 54 34 55 35 56
REMARK SMILES IDX 44 58 60 59 37 60 26 61 27 62 31 63 28 64 30 65 29 66 48 67
REMARK SMILES IDX 49 68 53 69 50 70 52 71 51 72 38 73 39 74 43 75 40 76 42 77
REMARK SMILES IDX 41 78
REMARK H PARENT 9 6 14 27 58 46 36 57
REMARK Flexibility Score: inf
ROOT
ATOM      1  C   UNL A   1      31.746  31.238  26.657  1.00  0.00     0.023 C 
ENDROOT
BRANCH   1   2
ATOM      2  C   UNL A   1      32.290  29.998  25.931  1.00  0.00     0.116 C 
BRANCH   2   3
ATOM      3  N   UNL A   1      31.759  28.779  26.490  1.00  0.00    -0.352 N 
ATOM      4  C   UNL A   1      31.901  27.453  26.199  1.00  0.00     0.255 C 
ATOM      5  O   UNL A   1      31.258  26.709  26.954  1.00  0.00    -0.269 OA
ATOM      6  H   UNL A   1      31.157  28.941  27.252  1.00  0.00     0.163 HD
BRANCH   4   7
ATOM      7  C   UNL A   1      32.729  26.807  25.119  1.00  0.00     0.082 A 
ATOM      8  C   UNL A   1      32.814  25.652  21.468  1.00  0.00     0.048 C 
ATOM      9  C   UNL A   1      33.208  25.921  22.896  1.00  0.00    -0.008 A 
ATOM     10  C   UNL A   1      34.074  24.969  23.465  1.00  0.00     0.007 A 
ATOM     11  C   UNL A   1      32.624  26.921  23.712  1.00  0.00     0.134 A 
ATOM     12  C   UNL A   1      34.296  24.937  24.829  1.00  0.00     0.001 A 
ATOM     13  C   UNL A   1      33.603  25.823  25.644  1.00  0.00     0.018 A 
BRANCH  11  14
ATOM     14  O   UNL A   1      31.853  27.900  23.170  1.00  0.00    -0.492 OA
BRANCH  14  15
ATOM     15  C   UNL A   1      30.430  27.721  22.986  1.00  0.00     0.233 C 
BRANCH  15  16
ATOM     16  C   UNL A   1      29.466  28.799  23.529  1.00  0.00     0.030 C 
ATOM     17  C   UNL A   1      28.033  28.671  22.928  1.00  0.00     0.011 C 
ATOM     18  C   UNL A   1      29.859  30.220  23.035  1.00  0.00    -0.004 C 
ATOM     19  C   UNL A   1      27.795  30.029  22.239  1.00  0.00    -0.010 C 
ATOM     20  C   UNL A   1      29.079  31.267  23.848  1.00  0.00     0.004 C 
ATOM     21  C   UNL A   1      29.176  30.321  21.669  1.00  0.00     0.007 C 
ATOM     22  C   UNL A   1      27.651  31.124  23.308  1.00  0.00     0.004 C 
ENDBRANCH  15  16
ENDBRANCH  14  15
ENDBRANCH  11  14
ENDBRANCH   4   7
ENDBRANCH   2   3
ENDBRANCH   1   2
BRANCH   1  23
ATOM     23  C   UNL A   1      32.806  32.139  27.293  1.00  0.00     0.023 C 
BRANCH  23  24
ATOM     24  C   UNL A   1      33.979  31.364  27.869  1.00  0.00     0.116 C 
BRANCH  24  25
ATOM     25  N   UNL A   1      34.661  32.015  28.980  1.00  0.00    -0.352 N 
ATOM     26  C   UNL A   1      35.734  31.578  29.744  1.00  0.00     0.251 C 
ATOM     27  H   UNL A   1      34.308  32.902  29.225  1.00  0.00     0.163 HD
ATOM     28  O   UNL A   1      36.111  32.239  30.698  1.00  0.00    -0.269 OA
BRANCH  26  29
ATOM     29  C   UNL A   1      36.522  30.394  29.305  1.00  0.00     0.039 A 
ATOM     30  C   UNL A   1      36.677  29.349  30.225  1.00  0.00     0.014 A 
ATOM     31  C   UNL A   1      37.301  30.422  28.154  1.00  0.00     0.014 A 
ATOM     32  C   UNL A   1      37.802  28.534  30.145  1.00  0.00     0.010 A 
ATOM     33  C   UNL A   1      38.481  29.707  28.142  1.00  0.00     0.010 A 
ATOM     34  C   UNL A   1      38.767  28.825  29.186  1.00  0.00    -0.014 A 
BRANCH  34  35
ATOM     35  C   UNL A   1      40.152  28.380  29.286  1.00  0.00     0.031 A 
ATOM     36  C   UNL A   1      40.554  27.066  28.753  1.00  0.00     0.074 A 
ATOM     37  C   UNL A   1      41.077  29.212  29.816  1.00  0.00     0.049 A 
ATOM     38  N   UNL A   1      41.636  26.452  29.097  1.00  0.00    -0.248 NA
ATOM     39  C   UNL A   1      39.712  26.282  27.853  1.00  0.00     0.031 C 
ATOM     40  C   UNL A   1      42.531  29.103  29.741  1.00  0.00     0.029 A 
ATOM     41  N   UNL A   1      40.861  30.238  30.734  1.00  0.00    -0.354 N 
ATOM     42  C   UNL A   1      41.777  25.368  28.266  1.00  0.00     0.074 A 
ATOM     43  C   UNL A   1      40.502  25.232  27.608  1.00  0.00     0.031 C 
ATOM     44  C   UNL A   1      43.076  29.842  30.721  1.00  0.00     0.029 A 
ATOM     45  C   UNL A   1      41.991  30.323  31.560  1.00  0.00     0.049 A 
ATOM     46  H   UNL A   1      40.057  30.803  30.792  1.00  0.00     0.167 HD
ATOM     47  C   UNL A   1      43.004  24.797  28.131  1.00  0.00     0.031 A 
ATOM     48  C   UNL A   1      41.894  30.084  32.901  1.00  0.00     0.031 A 
ATOM     49  C   UNL A   1      43.938  25.287  29.146  1.00  0.00     0.049 A 
ATOM     50  C   UNL A   1      42.681  28.877  33.368  1.00  0.00     0.074 A 
ATOM     51  C   UNL A   1      44.998  26.177  29.114  1.00  0.00     0.029 A 
ATOM     52  N   UNL A   1      43.649  25.062  30.487  1.00  0.00    -0.354 N 
ATOM     53  N   UNL A   1      43.149  27.953  32.575  1.00  0.00    -0.248 NA
ATOM     54  C   UNL A   1      42.965  28.597  34.774  1.00  0.00     0.031 C 
ATOM     55  C   UNL A   1      45.275  26.567  30.454  1.00  0.00     0.029 A 
ATOM     56  C   UNL A   1      44.419  25.876  31.295  1.00  0.00     0.049 A 
ATOM     57  H   UNL A   1      42.987  24.412  30.817  1.00  0.00     0.167 HD
ATOM     58  C   UNL A   1      43.741  26.966  33.317  1.00  0.00     0.074 A 
ATOM     59  C   UNL A   1      43.623  27.427  34.688  1.00  0.00     0.031 C 
ATOM     60  C   UNL A   1      44.253  25.838  32.744  1.00  0.00     0.031 A 
BRANCH  47  61
ATOM     61  C   UNL A   1      43.430  23.959  26.945  1.00  0.00    -0.014 A 
ATOM     62  C   UNL A   1      44.425  22.977  27.115  1.00  0.00     0.009 A 
ATOM     63  C   UNL A   1      42.991  24.153  25.621  1.00  0.00     0.009 A 
ATOM     64  C   UNL A   1      44.959  22.259  26.032  1.00  0.00     0.001 A 
ATOM     65  C   UNL A   1      43.501  23.425  24.538  1.00  0.00     0.001 A 
ATOM     66  C   UNL A   1      44.496  22.483  24.741  1.00  0.00     0.000 A 
ENDBRANCH  47  61
BRANCH  48  67
ATOM     67  C   UNL A   1      40.601  30.525  33.496  1.00  0.00    -0.014 A 
ATOM     68  C   UNL A   1      40.398  31.905  33.692  1.00  0.00     0.009 A 
ATOM     69  C   UNL A   1      39.487  29.676  33.511  1.00  0.00     0.009 A 
ATOM     70  C   UNL A   1      39.107  32.435  33.776  1.00  0.00     0.001 A 
ATOM     71  C   UNL A   1      38.194  30.211  33.607  1.00  0.00     0.001 A 
ATOM     72  C   UNL A   1      38.004  31.590  33.701  1.00  0.00     0.000 A 
ENDBRANCH  48  67
BRANCH  60  73
ATOM     73  C   UNL A   1      44.689  24.596  33.486  1.00  0.00    -0.014 A 
ATOM     74  C   UNL A   1      43.848  23.510  33.768  1.00  0.00     0.009 A 
ATOM     75  C   UNL A   1      46.056  24.436  33.803  1.00  0.00     0.009 A 
ATOM     76  C   UNL A   1      44.339  22.346  34.379  1.00  0.00     0.001 A 
ATOM     77  C   UNL A   1      46.557  23.261  34.367  1.00  0.00     0.001 A 
ATOM     78  C   UNL A   1      45.695  22.218  34.669  1.00  0.00     0.000 A 
ENDBRANCH  60  73
ENDBRANCH  34  35
ENDBRANCH  26  29
ENDBRANCH  24  25
ENDBRANCH  23  24
ENDBRANCH   1  23
TORSDOF 14
ENDMDL
MODEL 3
REMARK VINA RESULT:     -12.0      2.331      3.753
REMARK SMILES Cc1cccc(C(=O)NCCCCNC(=O)c2ccc(-c3c4nc(c(-c5ccccc5)c5ccc([nH]5)c(-c5ccccc5)c5nc(c(-c6ccccc6)c6ccc3[nH]6)C=C5)C=C4)cc2)c1OC[C@@H]1C[C@H]2CC[C@@H]1C2
REMARK SMILES IDX 11 1 10 2 9 3 7 4 8 5 6 7 1 8 2 9 3 10 65 11 4 12 5 13 66 14
REMARK SMILES IDX 67 15 68 16 69 17 73 18 70 19 72 20 74 21 71 22 12 23 13 24
REMARK SMILES IDX 14 25 15 26 16 28 17 29 18 30 64 31 19 32 63 33 20 34 21 35
REMARK SMILES IDX 22 36 57 37 23 38 62 39 56 40 58 41 24 42 61 43 55 44 54 45
REMARK SMILES IDX 25 47 47 48 32 49 46 50 33 51 36 52 45 53 59 54 34 55 35 56
REMARK SMILES IDX 44 58 60 59 37 60 26 61 27 62 31 63 28 64 30 65 29 66 48 67
REMARK SMILES IDX 49 68 53 69 50 70 52 71 51 72 38 73 39 74 43 75 40 76 42 77
REMARK SMILES IDX 41 78
REMARK H PARENT 9 6 14 27 58 46 36 57
REMARK Flexibility Score: inf
ROOT
ATOM      1  C   UNL A   1      37.030  21.304  24.326  1.00  0.00     0.023 C 
ENDROOT
BRANCH   1   2
ATOM      2  C   UNL A   1      36.870  22.764  23.875  1.00  0.00     0.116 C 
BRANCH   2   3
ATOM      3  N   UNL A   1      35.745  22.925  22.988  1.00  0.00    -0.352 N 
ATOM      4  C   UNL A   1      34.459  23.357  23.145  1.00  0.00     0.255 C 
ATOM      5  O   UNL A   1      33.803  23.349  22.094  1.00  0.00    -0.269 OA
ATOM      6  H   UNL A   1      35.949  22.663  22.061  1.00  0.00     0.163 HD
BRANCH   4   7
ATOM      7  C   UNL A   1      33.772  23.842  24.395  1.00  0.00     0.082 A 
ATOM      8  C   UNL A   1      30.522  23.826  26.421  1.00  0.00     0.048 C 
ATOM      9  C   UNL A   1      31.931  24.113  25.973  1.00  0.00    -0.008 A 
ATOM     10  C   UNL A   1      32.422  25.383  26.325  1.00  0.00     0.007 A 
ATOM     11  C   UNL A   1      32.673  23.287  25.093  1.00  0.00     0.134 A 
ATOM     12  C   UNL A   1      33.578  25.881  25.752  1.00  0.00     0.001 A 
ATOM     13  C   UNL A   1      34.220  25.132  24.774  1.00  0.00     0.018 A 
BRANCH  11  14
ATOM     14  O   UNL A   1      32.260  22.024  24.807  1.00  0.00    -0.492 OA
BRANCH  14  15
ATOM     15  C   UNL A   1      32.925  20.871  25.369  1.00  0.00     0.233 C 
BRANCH  15  16
ATOM     16  C   UNL A   1      33.557  19.834  24.414  1.00  0.00     0.030 C 
ATOM     17  C   UNL A   1      32.550  19.332  23.334  1.00  0.00     0.011 C 
ATOM     18  C   UNL A   1      33.879  18.501  25.147  1.00  0.00    -0.004 C 
ATOM     19  C   UNL A   1      32.486  17.810  23.563  1.00  0.00    -0.010 C 
ATOM     20  C   UNL A   1      34.781  17.640  24.248  1.00  0.00     0.004 C 
ATOM     21  C   UNL A   1      32.556  17.732  25.082  1.00  0.00     0.007 C 
ATOM     22  C   UNL A   1      33.821  17.175  23.146  1.00  0.00     0.004 C 
ENDBRANCH  15  16
ENDBRANCH  14  15
ENDBRANCH  11  14
ENDBRANCH   4   7
ENDBRANCH   2   3
ENDBRANCH   1   2
BRANCH   1  23
ATOM     23  C   UNL A   1      38.159  21.049  25.326  1.00  0.00     0.023 C 
BRANCH  23  24
ATOM     24  C   UNL A   1      38.555  22.292  26.106  1.00  0.00     0.116 C 
BRANCH  24  25
ATOM     25  N   UNL A   1      39.980  22.410  26.393  1.00  0.00    -0.352 N 
ATOM     26  C   UNL A   1      40.738  23.535  26.684  1.00  0.00     0.251 C 
ATOM     27  H   UNL A   1      40.480  21.561  26.379  1.00  0.00     0.163 HD
ATOM     28  O   UNL A   1      41.947  23.437  26.812  1.00  0.00    -0.269 OA
BRANCH  26  29
ATOM     29  C   UNL A   1      40.061  24.823  27.000  1.00  0.00     0.039 A 
ATOM     30  C   UNL A   1      40.445  25.948  26.260  1.00  0.00     0.014 A 
ATOM     31  C   UNL A   1      39.290  24.980  28.147  1.00  0.00     0.014 A 
ATOM     32  C   UNL A   1      40.326  27.211  26.833  1.00  0.00     0.010 A 
ATOM     33  C   UNL A   1      39.287  26.209  28.773  1.00  0.00     0.010 A 
ATOM     34  C   UNL A   1      39.884  27.306  28.149  1.00  0.00    -0.014 A 
BRANCH  34  35
ATOM     35  C   UNL A   1      40.150  28.459  28.999  1.00  0.00     0.031 A 
ATOM     36  C   UNL A   1      39.135  29.516  29.163  1.00  0.00     0.074 A 
ATOM     37  C   UNL A   1      41.313  28.520  29.687  1.00  0.00     0.049 A 
ATOM     38  N   UNL A   1      39.398  30.704  29.592  1.00  0.00    -0.248 NA
ATOM     39  C   UNL A   1      37.741  29.347  28.761  1.00  0.00     0.031 C 
ATOM     40  C   UNL A   1      41.654  29.402  30.799  1.00  0.00     0.029 A 
ATOM     41  N   UNL A   1      42.521  27.912  29.354  1.00  0.00    -0.354 N 
ATOM     42  C   UNL A   1      38.200  31.342  29.799  1.00  0.00     0.074 A 
ATOM     43  C   UNL A   1      37.217  30.514  29.149  1.00  0.00     0.031 C 
ATOM     44  C   UNL A   1      42.990  29.462  30.916  1.00  0.00     0.029 A 
ATOM     45  C   UNL A   1      43.560  28.750  29.783  1.00  0.00     0.049 A 
ATOM     46  H   UNL A   1      42.627  27.045  28.898  1.00  0.00     0.167 HD
ATOM     47  C   UNL A   1      38.166  32.428  30.619  1.00  0.00     0.031 A 
ATOM     48  C   UNL A   1      44.425  29.305  28.885  1.00  0.00     0.031 A 
ATOM     49  C   UNL A   1      39.513  32.908  30.929  1.00  0.00     0.049 A 
ATOM     50  C   UNL A   1      44.359  30.818  28.823  1.00  0.00     0.074 A 
ATOM     51  C   UNL A   1      40.320  32.822  32.050  1.00  0.00     0.029 A 
ATOM     52  N   UNL A   1      40.326  33.344  29.888  1.00  0.00    -0.354 N 
ATOM     53  N   UNL A   1      43.383  31.531  29.311  1.00  0.00    -0.248 NA
ATOM     54  C   UNL A   1      45.372  31.640  28.164  1.00  0.00     0.031 C 
ATOM     55  C   UNL A   1      41.653  33.110  31.647  1.00  0.00     0.029 A 
ATOM     56  C   UNL A   1      41.643  33.420  30.297  1.00  0.00     0.049 A 
ATOM     57  H   UNL A   1      40.007  33.569  28.984  1.00  0.00     0.167 HD
ATOM     58  C   UNL A   1      43.589  32.853  29.021  1.00  0.00     0.074 A 
ATOM     59  C   UNL A   1      44.861  32.874  28.322  1.00  0.00     0.031 C 
ATOM     60  C   UNL A   1      42.681  33.818  29.353  1.00  0.00     0.031 A 
BRANCH  47  61
ATOM     61  C   UNL A   1      36.922  32.927  31.323  1.00  0.00    -0.014 A 
ATOM     62  C   UNL A   1      36.630  32.465  32.620  1.00  0.00     0.009 A 
ATOM     63  C   UNL A   1      35.941  33.750  30.738  1.00  0.00     0.009 A 
ATOM     64  C   UNL A   1      35.429  32.784  33.274  1.00  0.00     0.001 A 
ATOM     65  C   UNL A   1      34.750  34.093  31.392  1.00  0.00     0.001 A 
ATOM     66  C   UNL A   1      34.488  33.599  32.659  1.00  0.00     0.000 A 
ENDBRANCH  47  61
BRANCH  48  67
ATOM     67  C   UNL A   1      44.720  28.429  27.717  1.00  0.00    -0.014 A 
ATOM     68  C   UNL A   1      45.450  27.246  27.943  1.00  0.00     0.009 A 
ATOM     69  C   UNL A   1      43.997  28.551  26.523  1.00  0.00     0.009 A 
ATOM     70  C   UNL A   1      45.360  26.167  27.059  1.00  0.00     0.001 A 
ATOM     71  C   UNL A   1      43.919  27.470  25.632  1.00  0.00     0.001 A 
ATOM     72  C   UNL A   1      44.567  26.269  25.919  1.00  0.00     0.000 A 
ENDBRANCH  48  67
BRANCH  60  73
ATOM     73  C   UNL A   1      42.696  35.245  28.858  1.00  0.00    -0.014 A 
ATOM     74  C   UNL A   1      41.992  35.697  27.733  1.00  0.00     0.009 A 
ATOM     75  C   UNL A   1      43.338  36.230  29.640  1.00  0.00     0.009 A 
ATOM     76  C   UNL A   1      41.973  37.055  27.381  1.00  0.00     0.001 A 
ATOM     77  C   UNL A   1      43.281  37.589  29.321  1.00  0.00     0.001 A 
ATOM     78  C   UNL A   1      42.608  38.001  28.180  1.00  0.00     0.000 A 
ENDBRANCH  60  73
ENDBRANCH  34  35
ENDBRANCH  26  29
ENDBRANCH  24  25
ENDBRANCH  23  24
ENDBRANCH   1  23
TORSDOF 14
ENDMDL
