MODEL 1
REMARK VINA RESULT:      -8.7      0.000      0.000
REMARK SMILES O=C(CCc1cnc(C2CCCCC2)o1)NCCCCNC(=O)c1ccc(-c2c3nc(c(-c4ccccc4)c4ccc([nH]4)c(-c4ccccc4)c4nc(c(-c5ccccc5)c5ccc2[nH]5)C=C4)C=C3)cc1
REMARK SMILES IDX 18 1 17 2 16 3 1 4 2 5 3 7 4 8 5 9 6 10 15 11 7 12 8 13 9 14
REMARK SMILES IDX 10 15 14 16 11 17 13 18 12 19 19 20 20 21 21 22 22 23 23 25
REMARK SMILES IDX 24 26 25 27 71 28 26 29 70 30 27 31 28 32 29 33 64 34 30 35
REMARK SMILES IDX 69 36 63 37 65 38 31 39 68 40 62 41 61 42 32 44 54 45 39 46
REMARK SMILES IDX 53 47 40 48 43 49 52 50 66 51 41 52 42 53 51 55 67 56 44 57
REMARK SMILES IDX 33 58 34 59 38 60 35 61 37 62 36 63 55 64 56 65 60 66 57 67
REMARK SMILES IDX 59 68 58 69 45 70 46 71 50 72 47 73 49 74 48 75
REMARK H PARENT 16 6 21 24 65 43 43 54
REMARK Flexibility Score: inf
ROOT
ATOM      1  C   UNL A   1      33.637  36.594  31.937  1.00  0.00     0.023 C 
ENDROOT
BRANCH   1   2
ATOM      2  C   UNL A   1      33.782  35.483  32.989  1.00  0.00     0.116 C 
BRANCH   2   3
ATOM      3  N   UNL A   1      35.138  35.295  33.491  1.00  0.00    -0.356 N 
ATOM      4  O   UNL A   1      34.820  33.102  34.112  1.00  0.00    -0.275 OA
ATOM      5  C   UNL A   1      35.557  34.083  34.002  1.00  0.00     0.220 C 
ATOM      6  H   UNL A   1      35.768  36.050  33.466  1.00  0.00     0.163 HD
BRANCH   5   7
ATOM      7  C   UNL A   1      37.014  34.008  34.418  1.00  0.00     0.108 C 
BRANCH   7   8
ATOM      8  C   UNL A   1      37.173  33.762  35.920  1.00  0.00     0.087 C 
BRANCH   8   9
ATOM      9  C   UNL A   1      38.357  32.943  36.275  1.00  0.00     0.125 A 
ATOM     10  C   UNL A   1      39.068  32.709  37.430  1.00  0.00     0.157 A 
ATOM     11  O   UNL A   1      38.946  32.222  35.281  1.00  0.00    -0.445 OA
ATOM     12  N   UNL A   1      40.098  31.835  37.178  1.00  0.00    -0.222 NA
ATOM     13  C   UNL A   1      39.980  31.579  35.892  1.00  0.00     0.197 A 
BRANCH  13  14
ATOM     14  C   UNL A   1      40.633  30.545  35.060  1.00  0.00     0.076 C 
ATOM     15  C   UNL A   1      41.361  29.456  35.848  1.00  0.00     0.013 C 
ATOM     16  C   UNL A   1      39.597  29.931  34.130  1.00  0.00     0.013 C 
ATOM     17  C   UNL A   1      42.007  28.435  34.903  1.00  0.00     0.001 C 
ATOM     18  C   UNL A   1      40.326  29.028  33.160  1.00  0.00     0.001 C 
ATOM     19  C   UNL A   1      41.017  27.895  33.884  1.00  0.00     0.000 C 
ENDBRANCH  13  14
ENDBRANCH   8   9
ENDBRANCH   7   8
ENDBRANCH   5   7
ENDBRANCH   2   3
ENDBRANCH   1   2
BRANCH   1  20
ATOM     20  C   UNL A   1      32.518  36.406  30.896  1.00  0.00     0.023 C 
BRANCH  20  21
ATOM     21  C   UNL A   1      32.937  36.516  29.416  1.00  0.00     0.116 C 
BRANCH  21  22
ATOM     22  N   UNL A   1      32.503  35.407  28.579  1.00  0.00    -0.352 N 
ATOM     23  C   UNL A   1      33.070  34.183  28.281  1.00  0.00     0.251 C 
ATOM     24  H   UNL A   1      31.636  35.559  28.139  1.00  0.00     0.163 HD
ATOM     25  O   UNL A   1      32.439  33.413  27.555  1.00  0.00    -0.269 OA
BRANCH  23  26
ATOM     26  C   UNL A   1      34.431  33.758  28.723  1.00  0.00     0.039 A 
ATOM     27  C   UNL A   1      34.537  33.063  29.935  1.00  0.00     0.014 A 
ATOM     28  C   UNL A   1      35.610  34.082  28.058  1.00  0.00     0.014 A 
ATOM     29  C   UNL A   1      35.783  32.604  30.413  1.00  0.00     0.010 A 
ATOM     30  C   UNL A   1      36.848  33.536  28.499  1.00  0.00     0.010 A 
ATOM     31  C   UNL A   1      36.965  32.745  29.665  1.00  0.00    -0.014 A 
BRANCH  31  32
ATOM     32  C   UNL A   1      38.259  32.041  30.075  1.00  0.00     0.031 A 
ATOM     33  C   UNL A   1      39.270  32.684  31.020  1.00  0.00     0.074 A 
ATOM     34  C   UNL A   1      38.618  30.832  29.564  1.00  0.00     0.049 A 
ATOM     35  N   UNL A   1      40.448  32.242  31.408  1.00  0.00    -0.248 NA
ATOM     36  C   UNL A   1      38.932  33.999  31.577  1.00  0.00     0.031 C 
ATOM     37  C   UNL A   1      37.852  30.036  28.602  1.00  0.00     0.029 A 
ATOM     38  N   UNL A   1      39.752  30.060  29.767  1.00  0.00    -0.354 N 
ATOM     39  C   UNL A   1      40.990  33.232  32.223  1.00  0.00     0.074 A 
ATOM     40  C   UNL A   1      40.054  34.335  32.195  1.00  0.00     0.031 C 
ATOM     41  C   UNL A   1      38.526  28.915  28.296  1.00  0.00     0.029 A 
ATOM     42  C   UNL A   1      39.784  28.893  29.031  1.00  0.00     0.049 A 
ATOM     43  H   UNL A   1      40.473  30.322  30.384  1.00  0.00     0.167 HD
ATOM     44  C   UNL A   1      42.120  33.231  32.978  1.00  0.00     0.031 A 
ATOM     45  C   UNL A   1      40.694  27.899  28.937  1.00  0.00     0.031 A 
ATOM     46  C   UNL A   1      43.057  32.143  33.090  1.00  0.00     0.049 A 
ATOM     47  C   UNL A   1      41.944  27.910  29.775  1.00  0.00     0.074 A 
ATOM     48  C   UNL A   1      44.161  32.041  33.922  1.00  0.00     0.029 A 
ATOM     49  N   UNL A   1      43.009  30.972  32.356  1.00  0.00    -0.354 N 
ATOM     50  N   UNL A   1      42.358  28.812  30.628  1.00  0.00    -0.248 NA
ATOM     51  C   UNL A   1      42.835  26.742  29.662  1.00  0.00     0.031 C 
ATOM     52  C   UNL A   1      44.808  30.829  33.658  1.00  0.00     0.029 A 
ATOM     53  C   UNL A   1      44.074  30.153  32.701  1.00  0.00     0.049 A 
ATOM     54  H   UNL A   1      42.320  30.753  31.687  1.00  0.00     0.167 HD
ATOM     55  C   UNL A   1      43.523  28.297  31.187  1.00  0.00     0.074 A 
ATOM     56  C   UNL A   1      43.751  27.003  30.584  1.00  0.00     0.031 C 
ATOM     57  C   UNL A   1      44.318  28.856  32.129  1.00  0.00     0.031 A 
BRANCH  44  58
ATOM     58  C   UNL A   1      42.393  34.464  33.805  1.00  0.00    -0.014 A 
ATOM     59  C   UNL A   1      41.898  34.579  35.115  1.00  0.00     0.009 A 
ATOM     60  C   UNL A   1      43.184  35.502  33.288  1.00  0.00     0.009 A 
ATOM     61  C   UNL A   1      42.133  35.732  35.865  1.00  0.00     0.001 A 
ATOM     62  C   UNL A   1      43.451  36.639  34.055  1.00  0.00     0.001 A 
ATOM     63  C   UNL A   1      42.911  36.760  35.335  1.00  0.00     0.000 A 
ENDBRANCH  44  58
BRANCH  45  64
ATOM     64  C   UNL A   1      40.446  26.740  28.031  1.00  0.00    -0.014 A 
ATOM     65  C   UNL A   1      39.708  25.633  28.481  1.00  0.00     0.009 A 
ATOM     66  C   UNL A   1      40.988  26.710  26.737  1.00  0.00     0.009 A 
ATOM     67  C   UNL A   1      39.550  24.506  27.669  1.00  0.00     0.001 A 
ATOM     68  C   UNL A   1      40.802  25.593  25.917  1.00  0.00     0.001 A 
ATOM     69  C   UNL A   1      40.095  24.489  26.387  1.00  0.00     0.000 A 
ENDBRANCH  45  64
BRANCH  57  70
ATOM     70  C   UNL A   1      45.493  28.058  32.629  1.00  0.00    -0.014 A 
ATOM     71  C   UNL A   1      46.766  28.172  32.048  1.00  0.00     0.009 A 
ATOM     72  C   UNL A   1      45.333  27.209  33.737  1.00  0.00     0.009 A 
ATOM     73  C   UNL A   1      47.843  27.434  32.547  1.00  0.00     0.001 A 
ATOM     74  C   UNL A   1      46.416  26.494  34.252  1.00  0.00     0.001 A 
ATOM     75  C   UNL A   1      47.669  26.602  33.652  1.00  0.00     0.000 A 
ENDBRANCH  57  70
ENDBRANCH  31  32
ENDBRANCH  23  26
ENDBRANCH  21  22
ENDBRANCH  20  21
ENDBRANCH   1  20
TORSDOF 14
ENDMDL
MODEL 2
REMARK VINA RESULT:      -8.6      5.891     11.943
REMARK SMILES O=C(CCc1cnc(C2CCCCC2)o1)NCCCCNC(=O)c1ccc(-c2c3nc(c(-c4ccccc4)c4ccc([nH]4)c(-c4ccccc4)c4nc(c(-c5ccccc5)c5ccc2[nH]5)C=C4)C=C3)cc1
REMARK SMILES IDX 18 1 17 2 16 3 1 4 2 5 3 7 4 8 5 9 6 10 15 11 7 12 8 13 9 14
REMARK SMILES IDX 10 15 14 16 11 17 13 18 12 19 19 20 20 21 21 22 22 23 23 25
REMARK SMILES IDX 24 26 25 27 71 28 26 29 70 30 27 31 28 32 29 33 64 34 30 35
REMARK SMILES IDX 69 36 63 37 65 38 31 39 68 40 62 41 61 42 32 44 54 45 39 46
REMARK SMILES IDX 53 47 40 48 43 49 52 50 66 51 41 52 42 53 51 55 67 56 44 57
REMARK SMILES IDX 33 58 34 59 38 60 35 61 37 62 36 63 55 64 56 65 60 66 57 67
REMARK SMILES IDX 59 68 58 69 45 70 46 71 50 72 47 73 49 74 48 75
REMARK H PARENT 16 6 21 24 65 43 43 54
REMARK Flexibility Score: inf
ROOT
ATOM      1  C   UNL A   1      36.213  20.245  24.946  1.00  0.00     0.023 C 
ENDROOT
BRANCH   1   2
ATOM      2  C   UNL A   1      36.093  21.521  25.795  1.00  0.00     0.116 C 
BRANCH   2   3
ATOM      3  N   UNL A   1      34.819  21.673  26.486  1.00  0.00    -0.356 N 
ATOM      4  O   UNL A   1      34.571  23.899  25.961  1.00  0.00    -0.275 OA
ATOM      5  C   UNL A   1      34.139  22.874  26.490  1.00  0.00     0.220 C 
ATOM      6  H   UNL A   1      34.435  20.901  26.960  1.00  0.00     0.163 HD
BRANCH   5   7
ATOM      7  C   UNL A   1      32.789  22.868  27.184  1.00  0.00     0.108 C 
BRANCH   7   8
ATOM      8  C   UNL A   1      31.634  22.711  26.194  1.00  0.00     0.087 C 
BRANCH   8   9
ATOM      9  C   UNL A   1      31.920  21.779  25.077  1.00  0.00     0.125 A 
ATOM     10  C   UNL A   1      32.189  21.923  23.734  1.00  0.00     0.157 A 
ATOM     11  O   UNL A   1      31.935  20.446  25.355  1.00  0.00    -0.445 OA
ATOM     12  N   UNL A   1      32.388  20.689  23.161  1.00  0.00    -0.222 NA
ATOM     13  C   UNL A   1      32.225  19.852  24.164  1.00  0.00     0.197 A 
BRANCH  13  14
ATOM     14  C   UNL A   1      32.528  18.407  24.261  1.00  0.00     0.076 C 
ATOM     15  C   UNL A   1      33.695  17.939  23.391  1.00  0.00     0.013 C 
ATOM     16  C   UNL A   1      32.769  18.048  25.720  1.00  0.00     0.013 C 
ATOM     17  C   UNL A   1      33.931  16.432  23.556  1.00  0.00     0.001 C 
ATOM     18  C   UNL A   1      32.877  16.543  25.813  1.00  0.00     0.001 C 
ATOM     19  C   UNL A   1      34.056  16.031  25.016  1.00  0.00     0.000 C 
ENDBRANCH  13  14
ENDBRANCH   8   9
ENDBRANCH   7   8
ENDBRANCH   5   7
ENDBRANCH   2   3
ENDBRANCH   1   2
BRANCH   1  20
ATOM     20  C   UNL A   1      37.642  19.741  24.670  1.00  0.00     0.023 C 
BRANCH  20  21
ATOM     21  C   UNL A   1      38.681  19.994  25.782  1.00  0.00     0.116 C 
BRANCH  21  22
ATOM     22  N   UNL A   1      39.911  19.227  25.647  1.00  0.00    -0.352 N 
ATOM     23  C   UNL A   1      41.213  19.470  26.041  1.00  0.00     0.251 C 
ATOM     24  H   UNL A   1      39.792  18.367  25.184  1.00  0.00     0.163 HD
ATOM     25  O   UNL A   1      42.058  18.602  25.821  1.00  0.00    -0.269 OA
BRANCH  23  26
ATOM     26  C   UNL A   1      41.679  20.749  26.654  1.00  0.00     0.039 A 
ATOM     27  C   UNL A   1      42.183  21.738  25.799  1.00  0.00     0.014 A 
ATOM     28  C   UNL A   1      41.730  20.991  28.024  1.00  0.00     0.014 A 
ATOM     29  C   UNL A   1      42.621  22.985  26.295  1.00  0.00     0.010 A 
ATOM     30  C   UNL A   1      42.085  22.282  28.505  1.00  0.00     0.010 A 
ATOM     31  C   UNL A   1      42.501  23.331  27.652  1.00  0.00    -0.014 A 
BRANCH  31  32
ATOM     32  C   UNL A   1      42.754  24.758  28.138  1.00  0.00     0.031 A 
ATOM     33  C   UNL A   1      44.135  25.232  28.582  1.00  0.00     0.074 A 
ATOM     34  C   UNL A   1      41.748  25.666  28.272  1.00  0.00     0.049 A 
ATOM     35  N   UNL A   1      44.495  26.395  29.086  1.00  0.00    -0.248 NA
ATOM     36  C   UNL A   1      45.244  24.277  28.473  1.00  0.00     0.031 C 
ATOM     37  C   UNL A   1      40.333  25.443  27.968  1.00  0.00     0.029 A 
ATOM     38  N   UNL A   1      41.761  26.974  28.733  1.00  0.00    -0.354 N 
ATOM     39  C   UNL A   1      45.854  26.292  29.375  1.00  0.00     0.074 A 
ATOM     40  C   UNL A   1      46.228  24.926  29.078  1.00  0.00     0.031 C 
ATOM     41  C   UNL A   1      39.624  26.548  28.252  1.00  0.00     0.029 A 
ATOM     42  C   UNL A   1      40.520  27.576  28.766  1.00  0.00     0.049 A 
ATOM     43  H   UNL A   1      42.585  27.433  29.013  1.00  0.00     0.167 HD
ATOM     44  C   UNL A   1      46.740  27.235  29.789  1.00  0.00     0.031 A 
ATOM     45  C   UNL A   1      40.112  28.805  29.151  1.00  0.00     0.031 A 
ATOM     46  C   UNL A   1      46.438  28.620  30.044  1.00  0.00     0.049 A 
ATOM     47  C   UNL A   1      41.102  29.841  29.612  1.00  0.00     0.074 A 
ATOM     48  C   UNL A   1      47.314  29.647  30.360  1.00  0.00     0.029 A 
ATOM     49  N   UNL A   1      45.173  29.178  30.014  1.00  0.00    -0.354 N 
ATOM     50  N   UNL A   1      42.399  29.739  29.753  1.00  0.00    -0.248 NA
ATOM     51  C   UNL A   1      40.572  31.178  29.932  1.00  0.00     0.031 C 
ATOM     52  C   UNL A   1      46.574  30.816  30.569  1.00  0.00     0.029 A 
ATOM     53  C   UNL A   1      45.243  30.527  30.327  1.00  0.00     0.049 A 
ATOM     54  H   UNL A   1      44.345  28.689  29.803  1.00  0.00     0.167 HD
ATOM     55  C   UNL A   1      42.840  31.004  30.125  1.00  0.00     0.074 A 
ATOM     56  C   UNL A   1      41.679  31.862  30.184  1.00  0.00     0.031 C 
ATOM     57  C   UNL A   1      44.107  31.409  30.379  1.00  0.00     0.031 A 
BRANCH  44  58
ATOM     58  C   UNL A   1      48.176  26.801  29.956  1.00  0.00    -0.014 A 
ATOM     59  C   UNL A   1      49.089  26.904  28.892  1.00  0.00     0.009 A 
ATOM     60  C   UNL A   1      48.632  26.322  31.194  1.00  0.00     0.009 A 
ATOM     61  C   UNL A   1      50.409  26.477  29.046  1.00  0.00     0.001 A 
ATOM     62  C   UNL A   1      49.963  25.932  31.356  1.00  0.00     0.001 A 
ATOM     63  C   UNL A   1      50.845  25.993  30.278  1.00  0.00     0.000 A 
ENDBRANCH  44  58
BRANCH  45  64
ATOM     64  C   UNL A   1      38.669  29.175  29.073  1.00  0.00    -0.014 A 
ATOM     65  C   UNL A   1      38.141  29.730  27.896  1.00  0.00     0.009 A 
ATOM     66  C   UNL A   1      37.828  29.024  30.187  1.00  0.00     0.009 A 
ATOM     67  C   UNL A   1      36.812  30.162  27.849  1.00  0.00     0.001 A 
ATOM     68  C   UNL A   1      36.492  29.430  30.125  1.00  0.00     0.001 A 
ATOM     69  C   UNL A   1      35.989  30.009  28.962  1.00  0.00     0.000 A 
ENDBRANCH  45  64
BRANCH  57  70
ATOM     70  C   UNL A   1      44.337  32.863  30.693  1.00  0.00    -0.014 A 
ATOM     71  C   UNL A   1      44.352  33.341  32.013  1.00  0.00     0.009 A 
ATOM     72  C   UNL A   1      44.592  33.766  29.647  1.00  0.00     0.009 A 
ATOM     73  C   UNL A   1      44.589  34.694  32.275  1.00  0.00     0.001 A 
ATOM     74  C   UNL A   1      44.857  35.110  29.913  1.00  0.00     0.001 A 
ATOM     75  C   UNL A   1      44.848  35.575  31.226  1.00  0.00     0.000 A 
ENDBRANCH  57  70
ENDBRANCH  31  32
ENDBRANCH  23  26
ENDBRANCH  21  22
ENDBRANCH  20  21
ENDBRANCH   1  20
TORSDOF 14
ENDMDL
MODEL 3
REMARK VINA RESULT:      -8.5      6.594     12.330
REMARK SMILES O=C(CCc1cnc(C2CCCCC2)o1)NCCCCNC(=O)c1ccc(-c2c3nc(c(-c4ccccc4)c4ccc([nH]4)c(-c4ccccc4)c4nc(c(-c5ccccc5)c5ccc2[nH]5)C=C4)C=C3)cc1
REMARK SMILES IDX 18 1 17 2 16 3 1 4 2 5 3 7 4 8 5 9 6 10 15 11 7 12 8 13 9 14
REMARK SMILES IDX 10 15 14 16 11 17 13 18 12 19 19 20 20 21 21 22 22 23 23 25
REMARK SMILES IDX 24 26 25 27 71 28 26 29 70 30 27 31 28 32 29 33 64 34 30 35
REMARK SMILES IDX 69 36 63 37 65 38 31 39 68 40 62 41 61 42 32 44 54 45 39 46
REMARK SMILES IDX 53 47 40 48 43 49 52 50 66 51 41 52 42 53 51 55 67 56 44 57
REMARK SMILES IDX 33 58 34 59 38 60 35 61 37 62 36 63 55 64 56 65 60 66 57 67
REMARK SMILES IDX 59 68 58 69 45 70 46 71 50 72 47 73 49 74 48 75
REMARK H PARENT 16 6 21 24 65 43 43 54
REMARK Flexibility Score: inf
ROOT
ATOM      1  C   UNL A   1      36.667  20.163  24.987  1.00  0.00     0.023 C 
ENDROOT
BRANCH   1   2
ATOM      2  C   UNL A   1      36.411  21.447  25.793  1.00  0.00     0.116 C 
BRANCH   2   3
ATOM      3  N   UNL A   1      35.137  21.478  26.499  1.00  0.00    -0.356 N 
ATOM      4  O   UNL A   1      34.798  23.734  26.205  1.00  0.00    -0.275 OA
ATOM      5  C   UNL A   1      34.411  22.644  26.628  1.00  0.00     0.220 C 
ATOM      6  H   UNL A   1      34.787  20.647  26.894  1.00  0.00     0.163 HD
BRANCH   5   7
ATOM      7  C   UNL A   1      33.067  22.514  27.322  1.00  0.00     0.108 C 
BRANCH   7   8
ATOM      8  C   UNL A   1      31.903  22.528  26.330  1.00  0.00     0.087 C 
BRANCH   8   9
ATOM      9  C   UNL A   1      32.080  21.609  25.180  1.00  0.00     0.125 A 
ATOM     10  C   UNL A   1      32.204  21.766  23.817  1.00  0.00     0.157 A 
ATOM     11  O   UNL A   1      32.140  20.274  25.443  1.00  0.00    -0.445 OA
ATOM     12  N   UNL A   1      32.355  20.539  23.216  1.00  0.00    -0.222 NA
ATOM     13  C   UNL A   1      32.309  19.692  24.222  1.00  0.00     0.197 A 
BRANCH  13  14
ATOM     14  C   UNL A   1      32.638  18.251  24.274  1.00  0.00     0.076 C 
ATOM     15  C   UNL A   1      33.973  17.876  23.629  1.00  0.00     0.013 C 
ATOM     16  C   UNL A   1      32.592  17.783  25.721  1.00  0.00     0.013 C 
ATOM     17  C   UNL A   1      34.224  16.366  23.728  1.00  0.00     0.001 C 
ATOM     18  C   UNL A   1      32.733  16.278  25.724  1.00  0.00     0.001 C 
ATOM     19  C   UNL A   1      34.065  15.854  25.150  1.00  0.00     0.000 C 
ENDBRANCH  13  14
ENDBRANCH   8   9
ENDBRANCH   7   8
ENDBRANCH   5   7
ENDBRANCH   2   3
ENDBRANCH   1   2
BRANCH   1  20
ATOM     20  C   UNL A   1      38.141  19.815  24.708  1.00  0.00     0.023 C 
BRANCH  20  21
ATOM     21  C   UNL A   1      39.068  19.732  25.938  1.00  0.00     0.116 C 
BRANCH  21  22
ATOM     22  N   UNL A   1      40.214  18.849  25.775  1.00  0.00    -0.352 N 
ATOM     23  C   UNL A   1      41.561  19.008  26.036  1.00  0.00     0.251 C 
ATOM     24  H   UNL A   1      39.984  17.967  25.404  1.00  0.00     0.163 HD
ATOM     25  O   UNL A   1      42.309  18.051  25.829  1.00  0.00    -0.269 OA
BRANCH  23  26
ATOM     26  C   UNL A   1      42.184  20.287  26.488  1.00  0.00     0.039 A 
ATOM     27  C   UNL A   1      42.973  20.990  25.568  1.00  0.00     0.014 A 
ATOM     28  C   UNL A   1      42.107  20.784  27.786  1.00  0.00     0.014 A 
ATOM     29  C   UNL A   1      43.577  22.221  25.906  1.00  0.00     0.010 A 
ATOM     30  C   UNL A   1      42.640  22.068  28.089  1.00  0.00     0.010 A 
ATOM     31  C   UNL A   1      43.355  22.843  27.147  1.00  0.00    -0.014 A 
BRANCH  31  32
ATOM     32  C   UNL A   1      43.814  24.277  27.415  1.00  0.00     0.031 A 
ATOM     33  C   UNL A   1      42.836  25.385  27.794  1.00  0.00     0.074 A 
ATOM     34  C   UNL A   1      45.110  24.663  27.260  1.00  0.00     0.049 A 
ATOM     35  N   UNL A   1      43.063  26.669  27.985  1.00  0.00    -0.248 NA
ATOM     36  C   UNL A   1      41.424  25.016  27.950  1.00  0.00     0.031 C 
ATOM     37  C   UNL A   1      46.226  23.807  26.851  1.00  0.00     0.029 A 
ATOM     38  N   UNL A   1      45.712  25.903  27.404  1.00  0.00    -0.354 N 
ATOM     39  C   UNL A   1      41.826  27.250  28.253  1.00  0.00     0.074 A 
ATOM     40  C   UNL A   1      40.845  26.197  28.106  1.00  0.00     0.031 C 
ATOM     41  C   UNL A   1      47.353  24.532  26.771  1.00  0.00     0.029 A 
ATOM     42  C   UNL A   1      47.061  25.917  27.117  1.00  0.00     0.049 A 
ATOM     43  H   UNL A   1      45.218  26.707  27.688  1.00  0.00     0.167 HD
ATOM     44  C   UNL A   1      41.513  28.513  28.643  1.00  0.00     0.031 A 
ATOM     45  C   UNL A   1      47.985  26.903  27.123  1.00  0.00     0.031 A 
ATOM     46  C   UNL A   1      42.450  29.584  28.862  1.00  0.00     0.049 A 
ATOM     47  C   UNL A   1      47.626  28.300  27.553  1.00  0.00     0.074 A 
ATOM     48  C   UNL A   1      42.205  30.854  29.362  1.00  0.00     0.029 A 
ATOM     49  N   UNL A   1      43.807  29.521  28.598  1.00  0.00    -0.354 N 
ATOM     50  N   UNL A   1      46.464  28.778  27.919  1.00  0.00    -0.248 NA
ATOM     51  C   UNL A   1      48.720  29.285  27.607  1.00  0.00     0.031 C 
ATOM     52  C   UNL A   1      43.404  31.575  29.356  1.00  0.00     0.029 A 
ATOM     53  C   UNL A   1      44.405  30.734  28.905  1.00  0.00     0.049 A 
ATOM     54  H   UNL A   1      44.277  28.732  28.244  1.00  0.00     0.167 HD
ATOM     55  C   UNL A   1      46.699  30.097  28.293  1.00  0.00     0.074 A 
ATOM     56  C   UNL A   1      48.111  30.347  28.117  1.00  0.00     0.031 C 
ATOM     57  C   UNL A   1      45.810  31.008  28.754  1.00  0.00     0.031 A 
BRANCH  44  58
ATOM     58  C   UNL A   1      40.057  28.806  28.912  1.00  0.00    -0.014 A 
ATOM     59  C   UNL A   1      39.222  29.307  27.898  1.00  0.00     0.009 A 
ATOM     60  C   UNL A   1      39.502  28.543  30.174  1.00  0.00     0.009 A 
ATOM     61  C   UNL A   1      37.883  29.600  28.160  1.00  0.00     0.001 A 
ATOM     62  C   UNL A   1      38.152  28.800  30.423  1.00  0.00     0.001 A 
ATOM     63  C   UNL A   1      37.349  29.344  29.422  1.00  0.00     0.000 A 
ENDBRANCH  44  58
BRANCH  45  64
ATOM     64  C   UNL A   1      49.399  26.607  26.753  1.00  0.00    -0.014 A 
ATOM     65  C   UNL A   1      49.838  26.782  25.430  1.00  0.00     0.009 A 
ATOM     66  C   UNL A   1      50.300  26.099  27.702  1.00  0.00     0.009 A 
ATOM     67  C   UNL A   1      51.136  26.420  25.058  1.00  0.00     0.001 A 
ATOM     68  C   UNL A   1      51.606  25.767  27.332  1.00  0.00     0.001 A 
ATOM     69  C   UNL A   1      52.019  25.916  26.010  1.00  0.00     0.000 A 
ENDBRANCH  45  64
BRANCH  57  70
ATOM     70  C   UNL A   1      46.329  32.359  29.166  1.00  0.00    -0.014 A 
ATOM     71  C   UNL A   1      46.798  32.607  30.465  1.00  0.00     0.009 A 
ATOM     72  C   UNL A   1      46.395  33.394  28.218  1.00  0.00     0.009 A 
ATOM     73  C   UNL A   1      47.295  33.867  30.813  1.00  0.00     0.001 A 
ATOM     74  C   UNL A   1      46.919  34.643  28.559  1.00  0.00     0.001 A 
ATOM     75  C   UNL A   1      47.361  34.880  29.859  1.00  0.00     0.000 A 
ENDBRANCH  57  70
ENDBRANCH  31  32
ENDBRANCH  23  26
ENDBRANCH  21  22
ENDBRANCH  20  21
ENDBRANCH   1  20
TORSDOF 14
ENDMDL
