MODEL 1
REMARK VINA RESULT:     -11.3      0.000      0.000
REMARK SMILES COCC[C@@H](C)NC(=O)N1Cc2nc[nH]c2C[C@@H]1C(=O)NCCCCNC(=O)c1ccc(-c2c3nc(c(-c4ccccc4)c4ccc([nH]4)c(-c4ccccc4)c4nc(c(-c5ccccc5)c5ccc2[nH]5)C=C4)C=C3)cc1
REMARK SMILES IDX 22 1 21 2 19 3 20 4 18 6 10 7 11 8 12 9 17 10 13 11 16 12
REMARK SMILES IDX 14 13 15 14 8 16 7 17 9 19 5 20 6 21 4 22 3 23 2 24 1 25
REMARK SMILES IDX 23 26 24 27 25 28 26 29 27 30 28 32 29 33 30 34 76 35 31 36
REMARK SMILES IDX 75 37 32 38 33 39 34 40 69 41 35 42 74 43 68 44 70 45 36 46
REMARK SMILES IDX 73 47 67 48 66 49 37 51 59 52 44 53 58 54 45 55 48 56 57 57
REMARK SMILES IDX 71 58 46 59 47 60 56 62 72 63 49 64 38 65 39 66 43 67 40 68
REMARK SMILES IDX 42 69 41 70 60 71 61 72 65 73 62 74 64 75 63 76 50 77 51 78
REMARK SMILES IDX 55 79 52 80 54 81 53 82
REMARK H PARENT 21 5 15 15 7 18 26 31 70 50 48 61
REMARK Flexibility Score: inf
ROOT
ATOM      1  C   UNL A   1      37.137  21.875  25.575  1.00  0.00     0.116 C 
ENDROOT
BRANCH   1   2
ATOM      2  N   UNL A   1      36.069  22.167  26.520  1.00  0.00    -0.354 N 
ATOM      3  C   UNL A   1      34.744  21.821  26.534  1.00  0.00     0.243 C 
ATOM      4  O   UNL A   1      34.163  21.909  27.619  1.00  0.00    -0.273 OA
ATOM      5  H   UNL A   1      36.352  22.714  27.290  1.00  0.00     0.163 HD
BRANCH   3   6
ATOM      6  C   UNL A   1      34.013  21.366  25.260  1.00  0.00     0.182 C 
ATOM      7  N   UNL A   1      32.944  22.208  24.601  1.00  0.00    -0.306 N 
ATOM      8  C   UNL A   1      32.521  21.691  23.261  1.00  0.00     0.180 C 
ATOM      9  C   UNL A   1      32.455  20.191  23.271  1.00  0.00     0.081 A 
ATOM     10  C   UNL A   1      33.492  19.925  25.558  1.00  0.00     0.091 C 
ATOM     11  N   UNL A   1      32.054  19.403  22.222  1.00  0.00    -0.240 NA
ATOM     12  C   UNL A   1      32.904  19.403  24.305  1.00  0.00     0.042 A 
ATOM     13  C   UNL A   1      32.217  18.163  22.639  1.00  0.00     0.197 A 
ATOM     14  N   UNL A   1      32.729  18.113  23.909  1.00  0.00    -0.348 N 
ATOM     15  H   UNL A   1      32.931  17.303  24.432  1.00  0.00     0.167 HD
BRANCH   7  16
ATOM     16  C   UNL A   1      31.933  22.832  25.299  1.00  0.00     0.318 C 
ATOM     17  N   UNL A   1      31.887  24.188  25.355  1.00  0.00    -0.335 N 
ATOM     18  H   UNL A   1      31.224  24.539  25.992  1.00  0.00     0.165 HD
ATOM     19  O   UNL A   1      30.965  22.230  25.763  1.00  0.00    -0.249 OA
BRANCH  17  20
ATOM     20  C   UNL A   1      32.635  25.220  24.649  1.00  0.00     0.083 C 
ATOM     21  C   UNL A   1      34.008  25.408  25.298  1.00  0.00     0.031 C 
BRANCH  20  22
ATOM     22  C   UNL A   1      31.854  26.551  24.591  1.00  0.00     0.053 C 
BRANCH  22  23
ATOM     23  C   UNL A   1      30.932  26.724  25.802  1.00  0.00     0.162 C 
BRANCH  23  24
ATOM     24  O   UNL A   1      31.579  26.850  27.071  1.00  0.00    -0.385 OA
ATOM     25  C   UNL A   1      31.599  28.141  27.652  1.00  0.00     0.194 C 
ENDBRANCH  23  24
ENDBRANCH  22  23
ENDBRANCH  20  22
ENDBRANCH  17  20
ENDBRANCH   7  16
ENDBRANCH   3   6
ENDBRANCH   1   2
BRANCH   1  26
ATOM     26  C   UNL A   1      37.091  20.500  24.885  1.00  0.00     0.023 C 
BRANCH  26  27
ATOM     27  C   UNL A   1      38.297  19.560  25.049  1.00  0.00     0.023 C 
BRANCH  27  28
ATOM     28  C   UNL A   1      39.400  20.000  26.007  1.00  0.00     0.116 C 
BRANCH  28  29
ATOM     29  N   UNL A   1      40.624  19.190  25.884  1.00  0.00    -0.352 N 
ATOM     30  C   UNL A   1      41.964  19.560  25.819  1.00  0.00     0.251 C 
ATOM     31  H   UNL A   1      40.467  18.218  25.839  1.00  0.00     0.163 HD
ATOM     32  O   UNL A   1      42.803  18.815  25.352  1.00  0.00    -0.269 OA
BRANCH  30  33
ATOM     33  C   UNL A   1      42.360  20.873  26.363  1.00  0.00     0.039 A 
ATOM     34  C   UNL A   1      42.767  21.962  25.580  1.00  0.00     0.014 A 
ATOM     35  C   UNL A   1      42.201  21.018  27.723  1.00  0.00     0.014 A 
ATOM     36  C   UNL A   1      42.984  23.187  26.216  1.00  0.00     0.010 A 
ATOM     37  C   UNL A   1      41.935  22.267  28.167  1.00  0.00     0.010 A 
ATOM     38  C   UNL A   1      42.574  23.312  27.545  1.00  0.00    -0.014 A 
BRANCH  38  39
ATOM     39  C   UNL A   1      42.614  24.526  28.335  1.00  0.00     0.031 A 
ATOM     40  C   UNL A   1      41.472  25.420  28.065  1.00  0.00     0.074 A 
ATOM     41  C   UNL A   1      43.396  24.653  29.434  1.00  0.00     0.049 A 
ATOM     42  N   UNL A   1      41.457  26.426  27.261  1.00  0.00    -0.248 NA
ATOM     43  C   UNL A   1      40.139  25.012  28.545  1.00  0.00     0.031 C 
ATOM     44  C   UNL A   1      44.282  23.665  30.071  1.00  0.00     0.029 A 
ATOM     45  N   UNL A   1      43.477  25.702  30.291  1.00  0.00    -0.354 N 
ATOM     46  C   UNL A   1      40.174  26.947  27.359  1.00  0.00     0.074 A 
ATOM     47  C   UNL A   1      39.365  25.884  27.893  1.00  0.00     0.031 C 
ATOM     48  C   UNL A   1      44.634  24.096  31.307  1.00  0.00     0.029 A 
ATOM     49  C   UNL A   1      44.135  25.447  31.489  1.00  0.00     0.049 A 
ATOM     50  H   UNL A   1      43.096  26.585  30.078  1.00  0.00     0.167 HD
ATOM     51  C   UNL A   1      39.970  28.295  27.349  1.00  0.00     0.031 A 
ATOM     52  C   UNL A   1      44.224  26.292  32.550  1.00  0.00     0.031 A 
ATOM     53  C   UNL A   1      41.191  28.993  27.002  1.00  0.00     0.049 A 
ATOM     54  C   UNL A   1      43.900  27.653  32.048  1.00  0.00     0.074 A 
ATOM     55  C   UNL A   1      42.066  28.964  25.934  1.00  0.00     0.029 A 
ATOM     56  N   UNL A   1      41.893  29.549  28.049  1.00  0.00    -0.354 N 
ATOM     57  N   UNL A   1      44.658  28.303  31.211  1.00  0.00    -0.248 NA
ATOM     58  C   UNL A   1      42.507  28.072  32.082  1.00  0.00     0.031 C 
ATOM     59  C   UNL A   1      43.366  29.055  26.520  1.00  0.00     0.029 A 
ATOM     60  C   UNL A   1      43.217  29.235  27.897  1.00  0.00     0.049 A 
ATOM     61  H   UNL A   1      41.508  30.082  28.782  1.00  0.00     0.167 HD
ATOM     62  C   UNL A   1      43.774  28.871  30.304  1.00  0.00     0.074 A 
ATOM     63  C   UNL A   1      42.461  28.778  30.947  1.00  0.00     0.031 C 
ATOM     64  C   UNL A   1      44.139  29.075  29.002  1.00  0.00     0.031 A 
BRANCH  51  65
ATOM     65  C   UNL A   1      38.868  28.994  28.117  1.00  0.00    -0.014 A 
ATOM     66  C   UNL A   1      38.815  28.795  29.510  1.00  0.00     0.009 A 
ATOM     67  C   UNL A   1      37.738  29.593  27.531  1.00  0.00     0.009 A 
ATOM     68  C   UNL A   1      37.653  29.054  30.243  1.00  0.00     0.001 A 
ATOM     69  C   UNL A   1      36.588  29.890  28.266  1.00  0.00     0.001 A 
ATOM     70  C   UNL A   1      36.532  29.585  29.617  1.00  0.00     0.000 A 
ENDBRANCH  51  65
BRANCH  52  71
ATOM     71  C   UNL A   1      44.300  26.000  34.000  1.00  0.00    -0.014 A 
ATOM     72  C   UNL A   1      44.835  26.941  34.897  1.00  0.00     0.009 A 
ATOM     73  C   UNL A   1      43.576  24.924  34.543  1.00  0.00     0.009 A 
ATOM     74  C   UNL A   1      44.611  26.836  36.278  1.00  0.00     0.001 A 
ATOM     75  C   UNL A   1      43.351  24.819  35.921  1.00  0.00     0.001 A 
ATOM     76  C   UNL A   1      43.854  25.784  36.788  1.00  0.00     0.000 A 
ENDBRANCH  52  71
BRANCH  64  77
ATOM     77  C   UNL A   1      45.595  28.903  28.638  1.00  0.00    -0.014 A 
ATOM     78  C   UNL A   1      46.173  27.668  28.294  1.00  0.00     0.009 A 
ATOM     79  C   UNL A   1      46.373  30.061  28.499  1.00  0.00     0.009 A 
ATOM     80  C   UNL A   1      47.501  27.597  27.853  1.00  0.00     0.001 A 
ATOM     81  C   UNL A   1      47.689  29.992  28.039  1.00  0.00     0.001 A 
ATOM     82  C   UNL A   1      48.256  28.760  27.722  1.00  0.00     0.000 A 
ENDBRANCH  64  77
ENDBRANCH  38  39
ENDBRANCH  30  33
ENDBRANCH  28  29
ENDBRANCH  27  28
ENDBRANCH  26  27
ENDBRANCH   1  26
TORSDOF 16
ENDMDL
MODEL 2
REMARK VINA RESULT:     -11.1      3.698      8.675
REMARK SMILES COCC[C@@H](C)NC(=O)N1Cc2nc[nH]c2C[C@@H]1C(=O)NCCCCNC(=O)c1ccc(-c2c3nc(c(-c4ccccc4)c4ccc([nH]4)c(-c4ccccc4)c4nc(c(-c5ccccc5)c5ccc2[nH]5)C=C4)C=C3)cc1
REMARK SMILES IDX 22 1 21 2 19 3 20 4 18 6 10 7 11 8 12 9 17 10 13 11 16 12
REMARK SMILES IDX 14 13 15 14 8 16 7 17 9 19 5 20 6 21 4 22 3 23 2 24 1 25
REMARK SMILES IDX 23 26 24 27 25 28 26 29 27 30 28 32 29 33 30 34 76 35 31 36
REMARK SMILES IDX 75 37 32 38 33 39 34 40 69 41 35 42 74 43 68 44 70 45 36 46
REMARK SMILES IDX 73 47 67 48 66 49 37 51 59 52 44 53 58 54 45 55 48 56 57 57
REMARK SMILES IDX 71 58 46 59 47 60 56 62 72 63 49 64 38 65 39 66 43 67 40 68
REMARK SMILES IDX 42 69 41 70 60 71 61 72 65 73 62 74 64 75 63 76 50 77 51 78
REMARK SMILES IDX 55 79 52 80 54 81 53 82
REMARK H PARENT 21 5 15 15 7 18 26 31 70 50 48 61
REMARK Flexibility Score: inf
ROOT
ATOM      1  C   UNL A   1      33.385  26.245  25.724  1.00  0.00     0.116 C 
ENDROOT
BRANCH   1   2
ATOM      2  N   UNL A   1      33.785  26.116  24.330  1.00  0.00    -0.354 N 
ATOM      3  C   UNL A   1      33.857  25.028  23.500  1.00  0.00     0.243 C 
ATOM      4  O   UNL A   1      33.890  25.262  22.289  1.00  0.00    -0.273 OA
ATOM      5  H   UNL A   1      34.052  26.964  23.908  1.00  0.00     0.163 HD
BRANCH   3   6
ATOM      6  C   UNL A   1      33.913  23.593  24.049  1.00  0.00     0.182 C 
ATOM      7  N   UNL A   1      35.206  22.958  24.512  1.00  0.00    -0.306 N 
ATOM      8  C   UNL A   1      35.008  21.650  25.212  1.00  0.00     0.180 C 
ATOM      9  C   UNL A   1      33.927  20.850  24.543  1.00  0.00     0.081 A 
ATOM     10  C   UNL A   1      33.195  22.701  22.988  1.00  0.00     0.091 C 
ATOM     11  N   UNL A   1      33.531  19.587  24.901  1.00  0.00    -0.240 NA
ATOM     12  C   UNL A   1      33.108  21.336  23.550  1.00  0.00     0.042 A 
ATOM     13  C   UNL A   1      32.521  19.302  24.103  1.00  0.00     0.197 A 
ATOM     14  N   UNL A   1      32.229  20.339  23.256  1.00  0.00    -0.348 N 
ATOM     15  H   UNL A   1      31.523  20.359  22.569  1.00  0.00     0.167 HD
BRANCH   7  16
ATOM     16  C   UNL A   1      36.385  23.036  23.802  1.00  0.00     0.318 C 
ATOM     17  N   UNL A   1      37.568  23.096  24.464  1.00  0.00    -0.335 N 
ATOM     18  H   UNL A   1      38.339  23.298  23.886  1.00  0.00     0.165 HD
ATOM     19  O   UNL A   1      36.444  22.904  22.580  1.00  0.00    -0.249 OA
BRANCH  17  20
ATOM     20  C   UNL A   1      37.912  22.918  25.868  1.00  0.00     0.083 C 
ATOM     21  C   UNL A   1      38.438  24.233  26.449  1.00  0.00     0.031 C 
BRANCH  20  22
ATOM     22  C   UNL A   1      38.927  21.771  26.066  1.00  0.00     0.053 C 
BRANCH  22  23
ATOM     23  C   UNL A   1      40.033  22.152  27.056  1.00  0.00     0.162 C 
BRANCH  23  24
ATOM     24  O   UNL A   1      40.674  21.067  27.730  1.00  0.00    -0.385 OA
ATOM     25  C   UNL A   1      41.142  20.002  26.923  1.00  0.00     0.194 C 
ENDBRANCH  23  24
ENDBRANCH  22  23
ENDBRANCH  20  22
ENDBRANCH  17  20
ENDBRANCH   7  16
ENDBRANCH   3   6
ENDBRANCH   1   2
BRANCH   1  26
ATOM     26  C   UNL A   1      31.890  26.491  25.995  1.00  0.00     0.023 C 
BRANCH  26  27
ATOM     27  C   UNL A   1      31.495  27.235  27.281  1.00  0.00     0.023 C 
BRANCH  27  28
ATOM     28  C   UNL A   1      32.243  28.526  27.600  1.00  0.00     0.116 C 
BRANCH  28  29
ATOM     29  N   UNL A   1      31.747  29.682  26.835  1.00  0.00    -0.352 N 
ATOM     30  C   UNL A   1      32.152  31.014  26.823  1.00  0.00     0.251 C 
ATOM     31  H   UNL A   1      30.998  29.478  26.228  1.00  0.00     0.163 HD
ATOM     32  O   UNL A   1      31.413  31.894  26.427  1.00  0.00    -0.269 OA
BRANCH  30  33
ATOM     33  C   UNL A   1      33.518  31.339  27.273  1.00  0.00     0.039 A 
ATOM     34  C   UNL A   1      33.895  32.569  27.828  1.00  0.00     0.014 A 
ATOM     35  C   UNL A   1      34.419  30.298  27.217  1.00  0.00     0.014 A 
ATOM     36  C   UNL A   1      35.191  32.695  28.335  1.00  0.00     0.010 A 
ATOM     37  C   UNL A   1      35.413  30.316  28.134  1.00  0.00     0.010 A 
ATOM     38  C   UNL A   1      35.957  31.534  28.459  1.00  0.00    -0.014 A 
BRANCH  38  39
ATOM     39  C   UNL A   1      37.273  31.445  29.058  1.00  0.00     0.031 A 
ATOM     40  C   UNL A   1      37.917  30.138  28.827  1.00  0.00     0.074 A 
ATOM     41  C   UNL A   1      37.965  32.537  29.461  1.00  0.00     0.049 A 
ATOM     42  N   UNL A   1      37.927  29.132  29.632  1.00  0.00    -0.248 NA
ATOM     43  C   UNL A   1      38.386  29.824  27.465  1.00  0.00     0.031 C 
ATOM     44  C   UNL A   1      37.608  33.962  29.357  1.00  0.00     0.029 A 
ATOM     45  N   UNL A   1      39.221  32.596  29.973  1.00  0.00    -0.354 N 
ATOM     46  C   UNL A   1      38.659  28.152  28.976  1.00  0.00     0.074 A 
ATOM     47  C   UNL A   1      38.633  28.517  27.584  1.00  0.00     0.031 C 
ATOM     48  C   UNL A   1      38.702  34.726  29.597  1.00  0.00     0.029 A 
ATOM     49  C   UNL A   1      39.789  33.864  30.022  1.00  0.00     0.049 A 
ATOM     50  H   UNL A   1      39.697  31.794  30.288  1.00  0.00     0.167 HD
ATOM     51  C   UNL A   1      39.521  27.353  29.665  1.00  0.00     0.031 A 
ATOM     52  C   UNL A   1      41.072  34.154  30.364  1.00  0.00     0.031 A 
ATOM     53  C   UNL A   1      39.357  27.536  31.093  1.00  0.00     0.049 A 
ATOM     54  C   UNL A   1      41.605  32.971  31.088  1.00  0.00     0.074 A 
ATOM     55  C   UNL A   1      38.304  27.424  31.979  1.00  0.00     0.029 A 
ATOM     56  N   UNL A   1      40.291  28.335  31.715  1.00  0.00    -0.354 N 
ATOM     57  N   UNL A   1      41.168  32.594  32.256  1.00  0.00    -0.248 NA
ATOM     58  C   UNL A   1      42.257  31.935  30.302  1.00  0.00     0.031 C 
ATOM     59  C   UNL A   1      38.451  28.534  32.867  1.00  0.00     0.029 A 
ATOM     60  C   UNL A   1      39.632  29.204  32.543  1.00  0.00     0.049 A 
ATOM     61  H   UNL A   1      41.266  28.289  31.587  1.00  0.00     0.167 HD
ATOM     62  C   UNL A   1      41.068  31.212  32.164  1.00  0.00     0.074 A 
ATOM     63  C   UNL A   1      41.845  30.855  30.975  1.00  0.00     0.031 C 
ATOM     64  C   UNL A   1      40.118  30.528  32.871  1.00  0.00     0.031 A 
BRANCH  51  65
ATOM     65  C   UNL A   1      40.815  26.808  29.096  1.00  0.00    -0.014 A 
ATOM     66  C   UNL A   1      41.854  27.724  28.844  1.00  0.00     0.009 A 
ATOM     67  C   UNL A   1      40.970  25.524  28.543  1.00  0.00     0.009 A 
ATOM     68  C   UNL A   1      42.910  27.415  27.980  1.00  0.00     0.001 A 
ATOM     69  C   UNL A   1      42.043  25.196  27.711  1.00  0.00     0.001 A 
ATOM     70  C   UNL A   1      42.994  26.155  27.399  1.00  0.00     0.000 A 
ENDBRANCH  51  65
BRANCH  52  71
ATOM     71  C   UNL A   1      41.962  35.242  29.897  1.00  0.00    -0.014 A 
ATOM     72  C   UNL A   1      43.147  35.551  30.588  1.00  0.00     0.009 A 
ATOM     73  C   UNL A   1      41.806  35.778  28.606  1.00  0.00     0.009 A 
ATOM     74  C   UNL A   1      44.155  36.323  29.992  1.00  0.00     0.001 A 
ATOM     75  C   UNL A   1      42.812  36.547  28.010  1.00  0.00     0.001 A 
ATOM     76  C   UNL A   1      43.994  36.807  28.696  1.00  0.00     0.000 A 
ENDBRANCH  52  71
BRANCH  64  77
ATOM     77  C   UNL A   1      39.351  31.277  33.936  1.00  0.00    -0.014 A 
ATOM     78  C   UNL A   1      38.186  32.023  33.681  1.00  0.00     0.009 A 
ATOM     79  C   UNL A   1      39.745  31.097  35.269  1.00  0.00     0.009 A 
ATOM     80  C   UNL A   1      37.458  32.596  34.732  1.00  0.00     0.001 A 
ATOM     81  C   UNL A   1      39.007  31.649  36.318  1.00  0.00     0.001 A 
ATOM     82  C   UNL A   1      37.867  32.404  36.050  1.00  0.00     0.000 A 
ENDBRANCH  64  77
ENDBRANCH  38  39
ENDBRANCH  30  33
ENDBRANCH  28  29
ENDBRANCH  27  28
ENDBRANCH  26  27
ENDBRANCH   1  26
TORSDOF 16
ENDMDL
MODEL 3
REMARK VINA RESULT:     -10.8      4.192      9.189
REMARK SMILES COCC[C@@H](C)NC(=O)N1Cc2nc[nH]c2C[C@@H]1C(=O)NCCCCNC(=O)c1ccc(-c2c3nc(c(-c4ccccc4)c4ccc([nH]4)c(-c4ccccc4)c4nc(c(-c5ccccc5)c5ccc2[nH]5)C=C4)C=C3)cc1
REMARK SMILES IDX 22 1 21 2 19 3 20 4 18 6 10 7 11 8 12 9 17 10 13 11 16 12
REMARK SMILES IDX 14 13 15 14 8 16 7 17 9 19 5 20 6 21 4 22 3 23 2 24 1 25
REMARK SMILES IDX 23 26 24 27 25 28 26 29 27 30 28 32 29 33 30 34 76 35 31 36
REMARK SMILES IDX 75 37 32 38 33 39 34 40 69 41 35 42 74 43 68 44 70 45 36 46
REMARK SMILES IDX 73 47 67 48 66 49 37 51 59 52 44 53 58 54 45 55 48 56 57 57
REMARK SMILES IDX 71 58 46 59 47 60 56 62 72 63 49 64 38 65 39 66 43 67 40 68
REMARK SMILES IDX 42 69 41 70 60 71 61 72 65 73 62 74 64 75 63 76 50 77 51 78
REMARK SMILES IDX 55 79 52 80 54 81 53 82
REMARK H PARENT 21 5 15 15 7 18 26 31 70 50 48 61
REMARK Flexibility Score: inf
ROOT
ATOM      1  C   UNL A   1      33.218  29.689  26.443  1.00  0.00     0.116 C 
ENDROOT
BRANCH   1   2
ATOM      2  N   UNL A   1      33.874  28.931  25.387  1.00  0.00    -0.354 N 
ATOM      3  C   UNL A   1      33.454  28.557  24.138  1.00  0.00     0.243 C 
ATOM      4  O   UNL A   1      34.332  28.229  23.337  1.00  0.00    -0.273 OA
ATOM      5  H   UNL A   1      34.786  28.633  25.612  1.00  0.00     0.163 HD
BRANCH   3   6
ATOM      6  C   UNL A   1      31.963  28.530  23.761  1.00  0.00     0.182 C 
ATOM      7  N   UNL A   1      31.213  27.235  23.538  1.00  0.00    -0.306 N 
ATOM      8  C   UNL A   1      29.734  27.422  23.401  1.00  0.00     0.180 C 
ATOM      9  C   UNL A   1      29.429  28.660  22.609  1.00  0.00     0.081 A 
ATOM     10  C   UNL A   1      31.815  29.485  22.534  1.00  0.00     0.091 C 
ATOM     11  N   UNL A   1      28.177  29.095  22.257  1.00  0.00    -0.240 NA
ATOM     12  C   UNL A   1      30.371  29.589  22.233  1.00  0.00     0.042 A 
ATOM     13  C   UNL A   1      28.369  30.242  21.638  1.00  0.00     0.197 A 
ATOM     14  N   UNL A   1      29.696  30.584  21.594  1.00  0.00    -0.348 N 
ATOM     15  H   UNL A   1      30.084  31.389  21.182  1.00  0.00     0.167 HD
BRANCH   7  16
ATOM     16  C   UNL A   1      31.712  26.187  22.796  1.00  0.00     0.318 C 
ATOM     17  N   UNL A   1      32.513  25.263  23.385  1.00  0.00    -0.335 N 
ATOM     18  H   UNL A   1      32.939  24.642  22.751  1.00  0.00     0.165 HD
ATOM     19  O   UNL A   1      31.353  25.949  21.643  1.00  0.00    -0.249 OA
BRANCH  17  20
ATOM     20  C   UNL A   1      32.860  25.018  24.778  1.00  0.00     0.083 C 
ATOM     21  C   UNL A   1      34.371  24.808  24.911  1.00  0.00     0.031 C 
BRANCH  20  22
ATOM     22  C   UNL A   1      32.073  23.824  25.361  1.00  0.00     0.053 C 
BRANCH  22  23
ATOM     23  C   UNL A   1      31.756  24.023  26.847  1.00  0.00     0.162 C 
BRANCH  23  24
ATOM     24  O   UNL A   1      31.900  22.869  27.679  1.00  0.00    -0.385 OA
ATOM     25  C   UNL A   1      33.211  22.361  27.843  1.00  0.00     0.194 C 
ENDBRANCH  23  24
ENDBRANCH  22  23
ENDBRANCH  20  22
ENDBRANCH  17  20
ENDBRANCH   7  16
ENDBRANCH   3   6
ENDBRANCH   1   2
BRANCH   1  26
ATOM     26  C   UNL A   1      34.122  30.568  27.326  1.00  0.00     0.023 C 
BRANCH  26  27
ATOM     27  C   UNL A   1      33.919  32.092  27.288  1.00  0.00     0.023 C 
BRANCH  27  28
ATOM     28  C   UNL A   1      32.508  32.616  27.539  1.00  0.00     0.116 C 
BRANCH  28  29
ATOM     29  N   UNL A   1      32.484  34.030  27.947  1.00  0.00    -0.352 N 
ATOM     30  C   UNL A   1      33.165  34.703  28.958  1.00  0.00     0.251 C 
ATOM     31  H   UNL A   1      31.882  34.599  27.413  1.00  0.00     0.163 HD
ATOM     32  O   UNL A   1      32.761  35.763  29.393  1.00  0.00    -0.269 OA
BRANCH  30  33
ATOM     33  C   UNL A   1      34.416  34.118  29.475  1.00  0.00     0.039 A 
ATOM     34  C   UNL A   1      34.479  33.173  30.508  1.00  0.00     0.014 A 
ATOM     35  C   UNL A   1      35.558  34.478  28.795  1.00  0.00     0.014 A 
ATOM     36  C   UNL A   1      35.719  32.603  30.807  1.00  0.00     0.010 A 
ATOM     37  C   UNL A   1      36.559  33.568  28.779  1.00  0.00     0.010 A 
ATOM     38  C   UNL A   1      36.773  32.838  29.923  1.00  0.00    -0.014 A 
BRANCH  38  39
ATOM     39  C   UNL A   1      38.095  32.251  30.002  1.00  0.00     0.031 A 
ATOM     40  C   UNL A   1      38.125  30.850  29.540  1.00  0.00     0.074 A 
ATOM     41  C   UNL A   1      39.217  32.998  30.136  1.00  0.00     0.049 A 
ATOM     42  N   UNL A   1      38.054  29.796  30.277  1.00  0.00    -0.248 NA
ATOM     43  C   UNL A   1      37.966  30.588  28.098  1.00  0.00     0.031 C 
ATOM     44  C   UNL A   1      39.366  34.462  30.182  1.00  0.00     0.029 A 
ATOM     45  N   UNL A   1      40.508  32.580  30.157  1.00  0.00    -0.354 N 
ATOM     46  C   UNL A   1      38.131  28.730  29.391  1.00  0.00     0.074 A 
ATOM     47  C   UNL A   1      37.766  29.268  28.107  1.00  0.00     0.031 C 
ATOM     48  C   UNL A   1      40.670  34.794  30.015  1.00  0.00     0.029 A 
ATOM     49  C   UNL A   1      41.464  33.579  30.008  1.00  0.00     0.049 A 
ATOM     50  H   UNL A   1      40.751  31.633  30.270  1.00  0.00     0.167 HD
ATOM     51  C   UNL A   1      38.839  27.611  29.713  1.00  0.00     0.031 A 
ATOM     52  C   UNL A   1      42.802  33.392  29.864  1.00  0.00     0.031 A 
ATOM     53  C   UNL A   1      39.241  27.643  31.104  1.00  0.00     0.049 A 
ATOM     54  C   UNL A   1      43.100  32.014  30.334  1.00  0.00     0.074 A 
ATOM     55  C   UNL A   1      38.581  27.757  32.312  1.00  0.00     0.029 A 
ATOM     56  N   UNL A   1      40.546  28.007  31.352  1.00  0.00    -0.354 N 
ATOM     57  N   UNL A   1      42.981  31.644  31.577  1.00  0.00    -0.248 NA
ATOM     58  C   UNL A   1      43.043  30.940  29.355  1.00  0.00     0.031 C 
ATOM     59  C   UNL A   1      39.396  28.630  33.096  1.00  0.00     0.029 A 
ATOM     60  C   UNL A   1      40.553  28.922  32.371  1.00  0.00     0.049 A 
ATOM     61  H   UNL A   1      41.340  27.668  30.878  1.00  0.00     0.167 HD
ATOM     62  C   UNL A   1      42.381  30.394  31.515  1.00  0.00     0.074 A 
ATOM     63  C   UNL A   1      42.534  29.969  30.121  1.00  0.00     0.031 C 
ATOM     64  C   UNL A   1      41.550  29.963  32.512  1.00  0.00     0.031 A 
BRANCH  51  65
ATOM     65  C   UNL A   1      39.589  26.761  28.707  1.00  0.00    -0.014 A 
ATOM     66  C   UNL A   1      40.492  27.412  27.846  1.00  0.00     0.009 A 
ATOM     67  C   UNL A   1      39.260  25.434  28.376  1.00  0.00     0.009 A 
ATOM     68  C   UNL A   1      40.927  26.819  26.656  1.00  0.00     0.001 A 
ATOM     69  C   UNL A   1      39.724  24.822  27.209  1.00  0.00     0.001 A 
ATOM     70  C   UNL A   1      40.527  25.530  26.329  1.00  0.00     0.000 A 
ENDBRANCH  51  65
BRANCH  52  71
ATOM     71  C   UNL A   1      43.802  34.189  29.115  1.00  0.00    -0.014 A 
ATOM     72  C   UNL A   1      45.151  34.207  29.511  1.00  0.00     0.009 A 
ATOM     73  C   UNL A   1      43.493  34.690  27.838  1.00  0.00     0.009 A 
ATOM     74  C   UNL A   1      46.155  34.662  28.644  1.00  0.00     0.001 A 
ATOM     75  C   UNL A   1      44.495  35.144  26.972  1.00  0.00     0.001 A 
ATOM     76  C   UNL A   1      45.829  35.115  27.368  1.00  0.00     0.000 A 
ENDBRANCH  52  71
BRANCH  64  77
ATOM     77  C   UNL A   1      41.500  30.768  33.790  1.00  0.00    -0.014 A 
ATOM     78  C   UNL A   1      40.675  31.892  33.973  1.00  0.00     0.009 A 
ATOM     79  C   UNL A   1      42.208  30.278  34.896  1.00  0.00     0.009 A 
ATOM     80  C   UNL A   1      40.590  32.522  35.222  1.00  0.00     0.001 A 
ATOM     81  C   UNL A   1      42.106  30.892  36.145  1.00  0.00     0.001 A 
ATOM     82  C   UNL A   1      41.302  32.018  36.307  1.00  0.00     0.000 A 
ENDBRANCH  64  77
ENDBRANCH  38  39
ENDBRANCH  30  33
ENDBRANCH  28  29
ENDBRANCH  27  28
ENDBRANCH  26  27
ENDBRANCH   1  26
TORSDOF 16
ENDMDL
