MODEL 1
REMARK VINA RESULT:     -10.3      0.000      0.000
REMARK SMILES COc1cc(Br)c(N)c(C(=O)NCCCCNC(=O)c2ccc(-c3c4nc(c(-c5ccccc5)c5ccc([nH]5)c(-c5ccccc5)c5nc(c(-c6ccccc6)c6ccc3[nH]6)C=C5)C=C4)cc2)c1
REMARK SMILES IDX 15 1 14 2 13 3 12 4 10 5 11 6 9 8 3 9 4 10 68 11 5 12 6 13
REMARK SMILES IDX 7 14 2 15 1 16 8 17 16 20 17 21 18 22 19 24 20 25 21 26
REMARK SMILES IDX 67 27 22 28 66 29 23 30 24 31 25 32 60 33 26 34 65 35 59 36
REMARK SMILES IDX 61 37 27 38 64 39 58 40 57 41 28 43 50 44 35 45 49 46 36 47
REMARK SMILES IDX 39 48 48 49 62 50 37 51 38 52 47 54 63 55 40 56 29 57 30 58
REMARK SMILES IDX 34 59 31 60 33 61 32 62 51 63 52 64 56 65 53 66 55 67 54 68
REMARK SMILES IDX 41 69 42 70 46 71 43 72 45 73 44 74
REMARK H PARENT 12 7 8 18 8 19 17 23 61 42 39 53
REMARK Flexibility Score: inf
ROOT
ATOM      1  C   UNL A   1      33.692  28.713  25.856  1.00  0.00     0.023 C 
ENDROOT
BRANCH   1   2
ATOM      2  C   UNL A   1      32.942  29.647  24.906  1.00  0.00     0.023 C 
BRANCH   2   3
ATOM      3  C   UNL A   1      31.426  29.713  25.066  1.00  0.00     0.116 C 
BRANCH   3   4
ATOM      4  N   UNL A   1      30.675  29.546  23.834  1.00  0.00    -0.352 N 
ATOM      5  C   UNL A   1      30.336  28.393  23.160  1.00  0.00     0.253 C 
ATOM      6  O   UNL A   1      29.657  28.495  22.137  1.00  0.00    -0.269 OA
ATOM      7  H   UNL A   1      30.362  30.382  23.419  1.00  0.00     0.163 HD
BRANCH   5   8
ATOM      8  C   UNL A   1      30.824  27.046  23.570  1.00  0.00     0.067 A 
ATOM      9  C   UNL A   1      30.659  25.305  25.272  1.00  0.00     0.120 A 
ATOM     10  C   UNL A   1      31.474  24.490  24.494  1.00  0.00     0.064 A 
ATOM     11  C   UNL A   1      30.315  26.570  24.800  1.00  0.00     0.062 A 
ATOM     12  C   UNL A   1      32.003  24.966  23.293  1.00  0.00     0.045 A 
ATOM     13  Br  UNL A   1      33.089  23.775  22.279  1.00  0.00    -0.048 Br
ATOM     14  C   UNL A   1      31.773  26.286  22.859  1.00  0.00     0.059 A 
BRANCH   9  15
ATOM     15  O   UNL A   1      30.301  24.762  26.473  1.00  0.00    -0.497 OA
ATOM     16  C   UNL A   1      30.429  23.354  26.612  1.00  0.00     0.278 C 
ENDBRANCH   9  15
BRANCH  14  17
ATOM     17  N   UNL A   1      32.434  26.766  21.725  1.00  0.00    -0.397 N 
ATOM     18  H   UNL A   1      31.919  27.165  20.987  1.00  0.00     0.156 HD
ATOM     19  H   UNL A   1      33.416  26.706  21.665  1.00  0.00     0.156 HD
ENDBRANCH  14  17
ENDBRANCH   5   8
ENDBRANCH   3   4
ENDBRANCH   2   3
ENDBRANCH   1   2
BRANCH   1  20
ATOM     20  C   UNL A   1      33.413  28.884  27.347  1.00  0.00     0.116 C 
BRANCH  20  21
ATOM     21  N   UNL A   1      33.542  30.255  27.818  1.00  0.00    -0.352 N 
ATOM     22  C   UNL A   1      34.610  30.912  28.385  1.00  0.00     0.251 C 
ATOM     23  H   UNL A   1      32.731  30.804  27.713  1.00  0.00     0.163 HD
ATOM     24  O   UNL A   1      34.472  32.063  28.790  1.00  0.00    -0.269 OA
BRANCH  22  25
ATOM     25  C   UNL A   1      35.913  30.232  28.556  1.00  0.00     0.039 A 
ATOM     26  C   UNL A   1      36.801  30.203  27.477  1.00  0.00     0.014 A 
ATOM     27  C   UNL A   1      36.270  29.632  29.764  1.00  0.00     0.014 A 
ATOM     28  C   UNL A   1      38.082  29.666  27.642  1.00  0.00     0.010 A 
ATOM     29  C   UNL A   1      37.574  29.179  29.954  1.00  0.00     0.010 A 
ATOM     30  C   UNL A   1      38.497  29.199  28.899  1.00  0.00    -0.014 A 
BRANCH  30  31
ATOM     31  C   UNL A   1      39.896  28.752  29.136  1.00  0.00     0.031 A 
ATOM     32  C   UNL A   1      40.911  29.696  29.717  1.00  0.00     0.074 A 
ATOM     33  C   UNL A   1      40.277  27.519  28.746  1.00  0.00     0.049 A 
ATOM     34  N   UNL A   1      42.192  29.510  29.920  1.00  0.00    -0.248 NA
ATOM     35  C   UNL A   1      40.432  31.036  30.089  1.00  0.00     0.031 C 
ATOM     36  C   UNL A   1      39.409  26.520  28.120  1.00  0.00     0.029 A 
ATOM     37  N   UNL A   1      41.502  26.901  28.808  1.00  0.00    -0.354 N 
ATOM     38  C   UNL A   1      42.673  30.713  30.422  1.00  0.00     0.074 A 
ATOM     39  C   UNL A   1      41.559  31.636  30.440  1.00  0.00     0.031 C 
ATOM     40  C   UNL A   1      40.121  25.408  27.879  1.00  0.00     0.029 A 
ATOM     41  C   UNL A   1      41.502  25.627  28.294  1.00  0.00     0.049 A 
ATOM     42  H   UNL A   1      42.304  27.330  29.187  1.00  0.00     0.167 HD
ATOM     43  C   UNL A   1      43.922  31.019  30.849  1.00  0.00     0.031 A 
ATOM     44  C   UNL A   1      42.502  24.735  28.161  1.00  0.00     0.031 A 
ATOM     45  C   UNL A   1      45.029  30.103  30.838  1.00  0.00     0.049 A 
ATOM     46  C   UNL A   1      43.881  25.094  28.638  1.00  0.00     0.074 A 
ATOM     47  C   UNL A   1      46.318  30.299  31.306  1.00  0.00     0.029 A 
ATOM     48  N   UNL A   1      44.982  28.815  30.326  1.00  0.00    -0.354 N 
ATOM     49  N   UNL A   1      44.302  26.211  29.179  1.00  0.00    -0.248 NA
ATOM     50  C   UNL A   1      44.919  24.062  28.499  1.00  0.00     0.031 C 
ATOM     51  C   UNL A   1      47.063  29.148  31.032  1.00  0.00     0.029 A 
ATOM     52  C   UNL A   1      46.225  28.213  30.445  1.00  0.00     0.049 A 
ATOM     53  H   UNL A   1      44.184  28.390  29.937  1.00  0.00     0.167 HD
ATOM     54  C   UNL A   1      45.646  26.012  29.465  1.00  0.00     0.074 A 
ATOM     55  C   UNL A   1      45.965  24.660  29.052  1.00  0.00     0.031 C 
ATOM     56  C   UNL A   1      46.534  26.871  30.021  1.00  0.00     0.031 A 
BRANCH  43  57
ATOM     57  C   UNL A   1      44.149  32.420  31.352  1.00  0.00    -0.014 A 
ATOM     58  C   UNL A   1      44.547  33.449  30.483  1.00  0.00     0.009 A 
ATOM     59  C   UNL A   1      43.957  32.714  32.710  1.00  0.00     0.009 A 
ATOM     60  C   UNL A   1      44.801  34.732  30.975  1.00  0.00     0.001 A 
ATOM     61  C   UNL A   1      44.180  34.005  33.193  1.00  0.00     0.001 A 
ATOM     62  C   UNL A   1      44.614  35.009  32.328  1.00  0.00     0.000 A 
ENDBRANCH  43  57
BRANCH  44  63
ATOM     63  C   UNL A   1      42.225  23.403  27.565  1.00  0.00    -0.014 A 
ATOM     64  C   UNL A   1      41.649  22.384  28.338  1.00  0.00     0.009 A 
ATOM     65  C   UNL A   1      42.513  23.150  26.215  1.00  0.00     0.009 A 
ATOM     66  C   UNL A   1      41.382  21.133  27.776  1.00  0.00     0.001 A 
ATOM     67  C   UNL A   1      42.221  21.908  25.648  1.00  0.00     0.001 A 
ATOM     68  C   UNL A   1      41.662  20.899  26.430  1.00  0.00     0.000 A 
ENDBRANCH  44  63
BRANCH  56  69
ATOM     69  C   UNL A   1      47.933  26.367  30.241  1.00  0.00    -0.014 A 
ATOM     70  C   UNL A   1      48.318  25.788  31.459  1.00  0.00     0.009 A 
ATOM     71  C   UNL A   1      48.866  26.435  29.195  1.00  0.00     0.009 A 
ATOM     72  C   UNL A   1      49.621  25.317  31.636  1.00  0.00     0.001 A 
ATOM     73  C   UNL A   1      50.159  25.938  29.364  1.00  0.00     0.001 A 
ATOM     74  C   UNL A   1      50.537  25.387  30.589  1.00  0.00     0.000 A 
ENDBRANCH  56  69
ENDBRANCH  30  31
ENDBRANCH  22  25
ENDBRANCH  20  21
ENDBRANCH   1  20
TORSDOF 13
ENDMDL
MODEL 2
REMARK VINA RESULT:     -10.3      1.856      2.626
REMARK SMILES COc1cc(Br)c(N)c(C(=O)NCCCCNC(=O)c2ccc(-c3c4nc(c(-c5ccccc5)c5ccc([nH]5)c(-c5ccccc5)c5nc(c(-c6ccccc6)c6ccc3[nH]6)C=C5)C=C4)cc2)c1
REMARK SMILES IDX 15 1 14 2 13 3 12 4 10 5 11 6 9 8 3 9 4 10 68 11 5 12 6 13
REMARK SMILES IDX 7 14 2 15 1 16 8 17 16 20 17 21 18 22 19 24 20 25 21 26
REMARK SMILES IDX 67 27 22 28 66 29 23 30 24 31 25 32 60 33 26 34 65 35 59 36
REMARK SMILES IDX 61 37 27 38 64 39 58 40 57 41 28 43 50 44 35 45 49 46 36 47
REMARK SMILES IDX 39 48 48 49 62 50 37 51 38 52 47 54 63 55 40 56 29 57 30 58
REMARK SMILES IDX 34 59 31 60 33 61 32 62 51 63 52 64 56 65 53 66 55 67 54 68
REMARK SMILES IDX 41 69 42 70 46 71 43 72 45 73 44 74
REMARK H PARENT 12 7 8 18 8 19 17 23 61 42 39 53
REMARK Flexibility Score: inf
ROOT
ATOM      1  C   UNL A   1      32.119  28.814  26.469  1.00  0.00     0.023 C 
ENDROOT
BRANCH   1   2
ATOM      2  C   UNL A   1      31.465  27.570  27.070  1.00  0.00     0.023 C 
BRANCH   2   3
ATOM      3  C   UNL A   1      31.384  26.338  26.171  1.00  0.00     0.116 C 
BRANCH   3   4
ATOM      4  N   UNL A   1      31.306  25.072  26.879  1.00  0.00    -0.352 N 
ATOM      5  C   UNL A   1      32.174  24.002  26.866  1.00  0.00     0.253 C 
ATOM      6  O   UNL A   1      31.915  23.034  27.581  1.00  0.00    -0.269 OA
ATOM      7  H   UNL A   1      30.515  24.963  27.455  1.00  0.00     0.163 HD
BRANCH   5   8
ATOM      8  C   UNL A   1      33.359  23.937  25.964  1.00  0.00     0.067 A 
ATOM      9  C   UNL A   1      34.185  24.447  23.725  1.00  0.00     0.120 A 
ATOM     10  C   UNL A   1      35.457  24.052  24.122  1.00  0.00     0.064 A 
ATOM     11  C   UNL A   1      33.144  24.412  24.650  1.00  0.00     0.062 A 
ATOM     12  C   UNL A   1      35.670  23.554  25.409  1.00  0.00     0.045 A 
ATOM     13  Br  UNL A   1      37.449  23.060  25.876  1.00  0.00    -0.048 Br
ATOM     14  C   UNL A   1      34.608  23.390  26.319  1.00  0.00     0.059 A 
BRANCH   9  15
ATOM     15  O   UNL A   1      34.091  24.807  22.411  1.00  0.00    -0.497 OA
ATOM     16  C   UNL A   1      32.787  24.880  21.851  1.00  0.00     0.278 C 
ENDBRANCH   9  15
BRANCH  14  17
ATOM     17  N   UNL A   1      34.839  22.758  27.544  1.00  0.00    -0.397 N 
ATOM     18  H   UNL A   1      35.630  22.998  28.081  1.00  0.00     0.156 HD
ATOM     19  H   UNL A   1      34.211  22.073  27.872  1.00  0.00     0.156 HD
ENDBRANCH  14  17
ENDBRANCH   5   8
ENDBRANCH   3   4
ENDBRANCH   2   3
ENDBRANCH   1   2
BRANCH   1  20
ATOM     20  C   UNL A   1      33.517  29.165  26.972  1.00  0.00     0.116 C 
BRANCH  20  21
ATOM     21  N   UNL A   1      33.587  30.432  27.685  1.00  0.00    -0.352 N 
ATOM     22  C   UNL A   1      34.596  30.981  28.442  1.00  0.00     0.251 C 
ATOM     23  H   UNL A   1      32.777  30.989  27.613  1.00  0.00     0.163 HD
ATOM     24  O   UNL A   1      34.409  32.043  29.030  1.00  0.00    -0.269 OA
BRANCH  22  25
ATOM     25  C   UNL A   1      35.892  30.284  28.594  1.00  0.00     0.039 A 
ATOM     26  C   UNL A   1      36.797  30.310  27.529  1.00  0.00     0.014 A 
ATOM     27  C   UNL A   1      36.227  29.615  29.772  1.00  0.00     0.014 A 
ATOM     28  C   UNL A   1      38.073  29.756  27.684  1.00  0.00     0.010 A 
ATOM     29  C   UNL A   1      37.525  29.143  29.957  1.00  0.00     0.010 A 
ATOM     30  C   UNL A   1      38.465  29.216  28.919  1.00  0.00    -0.014 A 
BRANCH  30  31
ATOM     31  C   UNL A   1      39.857  28.748  29.152  1.00  0.00     0.031 A 
ATOM     32  C   UNL A   1      40.888  29.676  29.732  1.00  0.00     0.074 A 
ATOM     33  C   UNL A   1      40.218  27.510  28.759  1.00  0.00     0.049 A 
ATOM     34  N   UNL A   1      42.166  29.470  29.933  1.00  0.00    -0.248 NA
ATOM     35  C   UNL A   1      40.430  31.022  30.107  1.00  0.00     0.031 C 
ATOM     36  C   UNL A   1      39.334  26.525  28.133  1.00  0.00     0.029 A 
ATOM     37  N   UNL A   1      41.434  26.873  28.818  1.00  0.00    -0.354 N 
ATOM     38  C   UNL A   1      42.667  30.664  30.435  1.00  0.00     0.074 A 
ATOM     39  C   UNL A   1      41.567  31.605  30.457  1.00  0.00     0.031 C 
ATOM     40  C   UNL A   1      40.029  25.403  27.889  1.00  0.00     0.029 A 
ATOM     41  C   UNL A   1      41.414  25.600  28.301  1.00  0.00     0.049 A 
ATOM     42  H   UNL A   1      42.243  27.289  29.195  1.00  0.00     0.167 HD
ATOM     43  C   UNL A   1      43.921  30.951  30.859  1.00  0.00     0.031 A 
ATOM     44  C   UNL A   1      42.399  24.693  28.165  1.00  0.00     0.031 A 
ATOM     45  C   UNL A   1      45.014  30.017  30.844  1.00  0.00     0.049 A 
ATOM     46  C   UNL A   1      43.785  25.030  28.640  1.00  0.00     0.074 A 
ATOM     47  C   UNL A   1      46.307  30.194  31.310  1.00  0.00     0.029 A 
ATOM     48  N   UNL A   1      44.947  28.731  30.331  1.00  0.00    -0.354 N 
ATOM     49  N   UNL A   1      44.224  26.140  29.181  1.00  0.00    -0.248 NA
ATOM     50  C   UNL A   1      44.806  23.983  28.496  1.00  0.00     0.031 C 
ATOM     51  C   UNL A   1      47.033  29.031  31.033  1.00  0.00     0.029 A 
ATOM     52  C   UNL A   1      46.180  28.110  30.446  1.00  0.00     0.049 A 
ATOM     53  H   UNL A   1      44.141  28.319  29.943  1.00  0.00     0.167 HD
ATOM     54  C   UNL A   1      45.565  25.920  29.464  1.00  0.00     0.074 A 
ATOM     55  C   UNL A   1      45.863  24.563  29.048  1.00  0.00     0.031 C 
ATOM     56  C   UNL A   1      46.467  26.764  30.020  1.00  0.00     0.031 A 
BRANCH  43  57
ATOM     57  C   UNL A   1      44.171  32.347  31.364  1.00  0.00    -0.014 A 
ATOM     58  C   UNL A   1      43.997  32.672  32.719  1.00  0.00     0.009 A 
ATOM     59  C   UNL A   1      44.589  33.347  30.474  1.00  0.00     0.009 A 
ATOM     60  C   UNL A   1      44.186  33.984  33.162  1.00  0.00     0.001 A 
ATOM     61  C   UNL A   1      44.809  34.650  30.926  1.00  0.00     0.001 A 
ATOM     62  C   UNL A   1      44.594  34.970  32.266  1.00  0.00     0.000 A 
ENDBRANCH  43  57
BRANCH  44  63
ATOM     63  C   UNL A   1      42.100  23.366  27.568  1.00  0.00    -0.014 A 
ATOM     64  C   UNL A   1      41.513  22.354  28.341  1.00  0.00     0.009 A 
ATOM     65  C   UNL A   1      42.380  23.112  26.216  1.00  0.00     0.009 A 
ATOM     66  C   UNL A   1      41.225  21.109  27.777  1.00  0.00     0.001 A 
ATOM     67  C   UNL A   1      42.068  21.875  25.648  1.00  0.00     0.001 A 
ATOM     68  C   UNL A   1      41.497  20.873  26.430  1.00  0.00     0.000 A 
ENDBRANCH  44  63
BRANCH  56  69
ATOM     69  C   UNL A   1      47.859  26.239  30.235  1.00  0.00    -0.014 A 
ATOM     70  C   UNL A   1      48.818  26.271  29.212  1.00  0.00     0.009 A 
ATOM     71  C   UNL A   1      48.225  25.743  31.496  1.00  0.00     0.009 A 
ATOM     72  C   UNL A   1      50.109  25.787  29.439  1.00  0.00     0.001 A 
ATOM     73  C   UNL A   1      49.524  25.286  31.729  1.00  0.00     0.001 A 
ATOM     74  C   UNL A   1      50.461  25.301  30.697  1.00  0.00     0.000 A 
ENDBRANCH  56  69
ENDBRANCH  30  31
ENDBRANCH  22  25
ENDBRANCH  20  21
ENDBRANCH   1  20
TORSDOF 13
ENDMDL
MODEL 3
REMARK VINA RESULT:     -10.2      3.638      5.184
REMARK SMILES COc1cc(Br)c(N)c(C(=O)NCCCCNC(=O)c2ccc(-c3c4nc(c(-c5ccccc5)c5ccc([nH]5)c(-c5ccccc5)c5nc(c(-c6ccccc6)c6ccc3[nH]6)C=C5)C=C4)cc2)c1
REMARK SMILES IDX 15 1 14 2 13 3 12 4 10 5 11 6 9 8 3 9 4 10 68 11 5 12 6 13
REMARK SMILES IDX 7 14 2 15 1 16 8 17 16 20 17 21 18 22 19 24 20 25 21 26
REMARK SMILES IDX 67 27 22 28 66 29 23 30 24 31 25 32 60 33 26 34 65 35 59 36
REMARK SMILES IDX 61 37 27 38 64 39 58 40 57 41 28 43 50 44 35 45 49 46 36 47
REMARK SMILES IDX 39 48 48 49 62 50 37 51 38 52 47 54 63 55 40 56 29 57 30 58
REMARK SMILES IDX 34 59 31 60 33 61 32 62 51 63 52 64 56 65 53 66 55 67 54 68
REMARK SMILES IDX 41 69 42 70 46 71 43 72 45 73 44 74
REMARK H PARENT 12 7 8 18 8 19 17 23 61 42 39 53
REMARK Flexibility Score: inf
ROOT
ATOM      1  C   UNL A   1      31.382  31.982  26.904  1.00  0.00     0.023 C 
ENDROOT
BRANCH   1   2
ATOM      2  C   UNL A   1      31.477  30.920  25.808  1.00  0.00     0.023 C 
BRANCH   2   3
ATOM      3  C   UNL A   1      32.635  29.931  25.913  1.00  0.00     0.116 C 
BRANCH   3   4
ATOM      4  N   UNL A   1      33.313  29.652  24.659  1.00  0.00    -0.352 N 
ATOM      5  C   UNL A   1      32.855  28.989  23.541  1.00  0.00     0.253 C 
ATOM      6  O   UNL A   1      33.607  28.899  22.569  1.00  0.00    -0.269 OA
ATOM      7  H   UNL A   1      34.237  29.986  24.600  1.00  0.00     0.163 HD
BRANCH   5   8
ATOM      8  C   UNL A   1      31.529  28.310  23.492  1.00  0.00     0.067 A 
ATOM      9  C   UNL A   1      30.339  26.234  23.970  1.00  0.00     0.120 A 
ATOM     10  C   UNL A   1      29.145  26.860  23.630  1.00  0.00     0.064 A 
ATOM     11  C   UNL A   1      31.525  26.964  23.925  1.00  0.00     0.062 A 
ATOM     12  C   UNL A   1      29.147  28.180  23.173  1.00  0.00     0.045 A 
ATOM     13  Br  UNL A   1      27.464  28.965  22.754  1.00  0.00    -0.048 Br
ATOM     14  C   UNL A   1      30.346  28.896  22.998  1.00  0.00     0.059 A 
BRANCH   9  15
ATOM     15  O   UNL A   1      30.212  24.913  24.291  1.00  0.00    -0.497 OA
ATOM     16  C   UNL A   1      30.931  23.981  23.497  1.00  0.00     0.278 C 
ENDBRANCH   9  15
BRANCH  14  17
ATOM     17  N   UNL A   1      30.316  30.162  22.407  1.00  0.00    -0.397 N 
ATOM     18  H   UNL A   1      29.482  30.686  22.409  1.00  0.00     0.156 HD
ATOM     19  H   UNL A   1      31.128  30.531  21.989  1.00  0.00     0.156 HD
ENDBRANCH  14  17
ENDBRANCH   5   8
ENDBRANCH   3   4
ENDBRANCH   2   3
ENDBRANCH   1   2
BRANCH   1  20
ATOM     20  C   UNL A   1      32.634  32.816  27.161  1.00  0.00     0.116 C 
BRANCH  20  21
ATOM     21  N   UNL A   1      32.358  34.169  27.623  1.00  0.00    -0.352 N 
ATOM     22  C   UNL A   1      32.989  34.939  28.572  1.00  0.00     0.251 C 
ATOM     23  H   UNL A   1      31.593  34.605  27.181  1.00  0.00     0.163 HD
ATOM     24  O   UNL A   1      32.532  36.040  28.866  1.00  0.00    -0.269 OA
BRANCH  22  25
ATOM     25  C   UNL A   1      34.188  34.436  29.279  1.00  0.00     0.039 A 
ATOM     26  C   UNL A   1      34.028  33.851  30.539  1.00  0.00     0.014 A 
ATOM     27  C   UNL A   1      35.460  34.528  28.714  1.00  0.00     0.014 A 
ATOM     28  C   UNL A   1      35.125  33.267  31.181  1.00  0.00     0.010 A 
ATOM     29  C   UNL A   1      36.533  33.870  29.311  1.00  0.00     0.010 A 
ATOM     30  C   UNL A   1      36.376  33.224  30.547  1.00  0.00    -0.014 A 
BRANCH  30  31
ATOM     31  C   UNL A   1      37.523  32.491  31.144  1.00  0.00     0.031 A 
ATOM     32  C   UNL A   1      38.153  32.969  32.423  1.00  0.00     0.074 A 
ATOM     33  C   UNL A   1      38.058  31.441  30.488  1.00  0.00     0.049 A 
ATOM     34  N   UNL A   1      39.207  32.506  33.049  1.00  0.00    -0.248 NA
ATOM     35  C   UNL A   1      37.538  34.139  33.066  1.00  0.00     0.031 C 
ATOM     36  C   UNL A   1      37.581  30.905  29.212  1.00  0.00     0.029 A 
ATOM     37  N   UNL A   1      39.132  30.644  30.802  1.00  0.00    -0.354 N 
ATOM     38  C   UNL A   1      39.391  33.341  34.144  1.00  0.00     0.074 A 
ATOM     39  C   UNL A   1      38.376  34.368  34.066  1.00  0.00     0.031 C 
ATOM     40  C   UNL A   1      38.342  29.855  28.865  1.00  0.00     0.029 A 
ATOM     41  C   UNL A   1      39.383  29.668  29.869  1.00  0.00     0.049 A 
ATOM     42  H   UNL A   1      39.670  30.762  31.618  1.00  0.00     0.167 HD
ATOM     43  C   UNL A   1      40.309  33.252  35.137  1.00  0.00     0.031 A 
ATOM     44  C   UNL A   1      40.349  28.731  29.819  1.00  0.00     0.031 A 
ATOM     45  C   UNL A   1      41.316  32.229  35.221  1.00  0.00     0.049 A 
ATOM     46  C   UNL A   1      41.358  28.649  30.929  1.00  0.00     0.074 A 
ATOM     47  C   UNL A   1      42.251  32.018  36.221  1.00  0.00     0.029 A 
ATOM     48  N   UNL A   1      41.524  31.246  34.266  1.00  0.00    -0.354 N 
ATOM     49  N   UNL A   1      41.473  29.402  31.996  1.00  0.00    -0.248 NA
ATOM     50  C   UNL A   1      42.363  27.580  30.833  1.00  0.00     0.031 C 
ATOM     51  C   UNL A   1      43.056  30.938  35.844  1.00  0.00     0.029 A 
ATOM     52  C   UNL A   1      42.588  30.441  34.639  1.00  0.00     0.049 A 
ATOM     53  H   UNL A   1      40.994  31.137  33.443  1.00  0.00     0.167 HD
ATOM     54  C   UNL A   1      42.546  28.885  32.710  1.00  0.00     0.074 A 
ATOM     55  C   UNL A   1      43.038  27.746  31.961  1.00  0.00     0.031 C 
ATOM     56  C   UNL A   1      43.075  29.316  33.881  1.00  0.00     0.031 A 
BRANCH  43  57
ATOM     57  C   UNL A   1      40.263  34.310  36.207  1.00  0.00    -0.014 A 
ATOM     58  C   UNL A   1      41.000  35.500  36.086  1.00  0.00     0.009 A 
ATOM     59  C   UNL A   1      39.471  34.116  37.348  1.00  0.00     0.009 A 
ATOM     60  C   UNL A   1      40.985  36.450  37.110  1.00  0.00     0.001 A 
ATOM     61  C   UNL A   1      39.432  35.083  38.356  1.00  0.00     0.001 A 
ATOM     62  C   UNL A   1      40.199  36.241  38.242  1.00  0.00     0.000 A 
ENDBRANCH  43  57
BRANCH  44  63
ATOM     63  C   UNL A   1      40.390  27.778  28.680  1.00  0.00    -0.014 A 
ATOM     64  C   UNL A   1      41.111  28.088  27.518  1.00  0.00     0.009 A 
ATOM     65  C   UNL A   1      39.727  26.543  28.757  1.00  0.00     0.009 A 
ATOM     66  C   UNL A   1      41.156  27.188  26.450  1.00  0.00     0.001 A 
ATOM     67  C   UNL A   1      39.794  25.634  27.700  1.00  0.00     0.001 A 
ATOM     68  C   UNL A   1      40.503  25.960  26.545  1.00  0.00     0.000 A 
ENDBRANCH  44  63
BRANCH  56  69
ATOM     69  C   UNL A   1      44.231  28.537  34.441  1.00  0.00    -0.014 A 
ATOM     70  C   UNL A   1      44.028  27.430  35.279  1.00  0.00     0.009 A 
ATOM     71  C   UNL A   1      45.543  28.893  34.089  1.00  0.00     0.009 A 
ATOM     72  C   UNL A   1      45.119  26.714  35.779  1.00  0.00     0.001 A 
ATOM     73  C   UNL A   1      46.629  28.159  34.567  1.00  0.00     0.001 A 
ATOM     74  C   UNL A   1      46.416  27.075  35.419  1.00  0.00     0.000 A 
ENDBRANCH  56  69
ENDBRANCH  30  31
ENDBRANCH  22  25
ENDBRANCH  20  21
ENDBRANCH   1  20
TORSDOF 13
ENDMDL
