MODEL 1
REMARK VINA RESULT:     -10.9      0.000      0.000
REMARK SMILES Cn1ccc(S(=O)(=O)N2CCO[C@H](CC(=O)NCCCCNC(=O)c3ccc(-c4c5nc(c(-c6ccccc6)c6ccc([nH]6)c(-c6ccccc6)c6nc(c(-c7ccccc7)c7ccc4[nH]7)C=C6)C=C5)cc3)C2)c1
REMARK SMILES IDX 19 1 18 2 17 3 15 4 16 5 14 7 13 8 9 9 10 10 73 11 11 12
REMARK SMILES IDX 12 13 6 14 7 15 8 16 5 17 1 18 2 19 3 20 74 21 4 22 20 23
REMARK SMILES IDX 21 24 22 25 23 26 24 28 25 29 26 30 72 31 27 32 71 33 28 34
REMARK SMILES IDX 29 35 30 36 65 37 31 38 70 39 64 40 66 41 32 42 69 43 63 44
REMARK SMILES IDX 62 45 33 47 55 48 40 49 54 50 41 51 44 52 53 53 67 54 42 55
REMARK SMILES IDX 43 56 52 58 68 59 45 60 34 61 35 62 39 63 36 64 38 65 37 66
REMARK SMILES IDX 56 67 57 68 61 69 58 70 60 71 59 72 46 73 47 74 51 75 48 76
REMARK SMILES IDX 50 77 49 78
REMARK H PARENT 17 6 22 27 66 46 44 57
REMARK Flexibility Score: inf
ROOT
ATOM      1  C   UNL A   1      36.670  21.083  24.644  1.00  0.00     0.023 C 
ENDROOT
BRANCH   1   2
ATOM      2  C   UNL A   1      36.716  22.276  25.597  1.00  0.00     0.116 C 
BRANCH   2   3
ATOM      3  N   UNL A   1      35.607  22.265  26.533  1.00  0.00    -0.356 N 
ATOM      4  C   UNL A   1      34.427  22.941  26.470  1.00  0.00     0.222 C 
ATOM      5  O   UNL A   1      33.640  22.854  27.410  1.00  0.00    -0.275 OA
ATOM      6  H   UNL A   1      35.724  21.690  27.323  1.00  0.00     0.163 HD
BRANCH   4   7
ATOM      7  C   UNL A   1      34.124  23.786  25.261  1.00  0.00     0.133 C 
BRANCH   7   8
ATOM      8  C   UNL A   1      33.452  22.945  24.168  1.00  0.00     0.142 C 
ATOM      9  N   UNL A   1      32.344  24.770  23.010  1.00  0.00    -0.193 NA
ATOM     10  C   UNL A   1      31.013  24.246  23.360  1.00  0.00     0.131 C 
ATOM     11  C   UNL A   1      33.347  23.710  22.831  1.00  0.00     0.135 C 
ATOM     12  C   UNL A   1      31.155  23.481  24.681  1.00  0.00     0.177 C 
ATOM     13  O   UNL A   1      32.161  22.453  24.607  1.00  0.00    -0.375 OA
BRANCH   9  14
ATOM     14  S   UNL A   1      32.496  26.244  22.250  1.00  0.00     0.244 S 
ATOM     15  O   UNL A   1      31.237  26.575  21.623  1.00  0.00    -0.207 OA
ATOM     16  O   UNL A   1      33.760  26.302  21.553  1.00  0.00    -0.207 OA
BRANCH  14  17
ATOM     17  C   UNL A   1      32.675  27.409  23.520  1.00  0.00     0.100 A 
ATOM     18  C   UNL A   1      31.649  30.227  25.547  1.00  0.00     0.149 C 
ATOM     19  N   UNL A   1      32.289  29.100  24.907  1.00  0.00    -0.356 N 
ATOM     20  C   UNL A   1      33.553  28.647  25.178  1.00  0.00     0.086 A 
ATOM     21  C   UNL A   1      31.732  28.339  23.918  1.00  0.00     0.106 A 
ATOM     22  C   UNL A   1      33.821  27.590  24.331  1.00  0.00     0.041 A 
ENDBRANCH  14  17
ENDBRANCH   9  14
ENDBRANCH   7   8
ENDBRANCH   4   7
ENDBRANCH   2   3
ENDBRANCH   1   2
BRANCH   1  23
ATOM     23  C   UNL A   1      37.693  19.984  24.940  1.00  0.00     0.023 C 
BRANCH  23  24
ATOM     24  C   UNL A   1      38.900  20.426  25.758  1.00  0.00     0.116 C 
BRANCH  24  25
ATOM     25  N   UNL A   1      39.964  19.436  25.779  1.00  0.00    -0.352 N 
ATOM     26  C   UNL A   1      41.287  19.599  26.108  1.00  0.00     0.251 C 
ATOM     27  H   UNL A   1      39.700  18.523  25.520  1.00  0.00     0.163 HD
ATOM     28  O   UNL A   1      42.083  18.678  25.955  1.00  0.00    -0.269 OA
BRANCH  26  29
ATOM     29  C   UNL A   1      41.756  20.904  26.616  1.00  0.00     0.039 A 
ATOM     30  C   UNL A   1      42.253  21.841  25.706  1.00  0.00     0.014 A 
ATOM     31  C   UNL A   1      41.682  21.211  27.976  1.00  0.00     0.014 A 
ATOM     32  C   UNL A   1      42.612  23.114  26.152  1.00  0.00     0.010 A 
ATOM     33  C   UNL A   1      41.982  22.499  28.410  1.00  0.00     0.010 A 
ATOM     34  C   UNL A   1      42.445  23.462  27.501  1.00  0.00    -0.014 A 
BRANCH  34  35
ATOM     35  C   UNL A   1      42.737  24.833  27.988  1.00  0.00     0.031 A 
ATOM     36  C   UNL A   1      44.126  25.196  28.430  1.00  0.00     0.074 A 
ATOM     37  C   UNL A   1      41.733  25.720  28.122  1.00  0.00     0.049 A 
ATOM     38  N   UNL A   1      44.553  26.304  28.980  1.00  0.00    -0.248 NA
ATOM     39  C   UNL A   1      45.164  24.168  28.257  1.00  0.00     0.031 C 
ATOM     40  C   UNL A   1      40.331  25.475  27.776  1.00  0.00     0.029 A 
ATOM     41  N   UNL A   1      41.736  27.003  28.606  1.00  0.00    -0.354 N 
ATOM     42  C   UNL A   1      45.899  26.093  29.249  1.00  0.00     0.074 A 
ATOM     43  C   UNL A   1      46.210  24.743  28.831  1.00  0.00     0.031 C 
ATOM     44  C   UNL A   1      39.612  26.575  28.052  1.00  0.00     0.029 A 
ATOM     45  C   UNL A   1      40.494  27.588  28.624  1.00  0.00     0.049 A 
ATOM     46  H   UNL A   1      42.552  27.462  28.912  1.00  0.00     0.167 HD
ATOM     47  C   UNL A   1      46.798  26.951  29.786  1.00  0.00     0.031 A 
ATOM     48  C   UNL A   1      40.103  28.798  29.063  1.00  0.00     0.031 A 
ATOM     49  C   UNL A   1      46.498  28.302  30.177  1.00  0.00     0.049 A 
ATOM     50  C   UNL A   1      41.123  29.741  29.633  1.00  0.00     0.074 A 
ATOM     51  C   UNL A   1      47.361  29.275  30.650  1.00  0.00     0.029 A 
ATOM     52  N   UNL A   1      45.234  28.869  30.142  1.00  0.00    -0.354 N 
ATOM     53  N   UNL A   1      42.409  29.557  29.809  1.00  0.00    -0.248 NA
ATOM     54  C   UNL A   1      40.640  31.063  30.058  1.00  0.00     0.031 C 
ATOM     55  C   UNL A   1      46.611  30.420  30.940  1.00  0.00     0.029 A 
ATOM     56  C   UNL A   1      45.289  30.172  30.607  1.00  0.00     0.049 A 
ATOM     57  H   UNL A   1      44.418  28.413  29.832  1.00  0.00     0.167 HD
ATOM     58  C   UNL A   1      42.892  30.742  30.345  1.00  0.00     0.074 A 
ATOM     59  C   UNL A   1      41.764  31.645  30.455  1.00  0.00     0.031 C 
ATOM     60  C   UNL A   1      44.158  31.055  30.712  1.00  0.00     0.031 A 
BRANCH  47  61
ATOM     61  C   UNL A   1      48.196  26.443  29.992  1.00  0.00    -0.014 A 
ATOM     62  C   UNL A   1      49.177  26.585  28.997  1.00  0.00     0.009 A 
ATOM     63  C   UNL A   1      48.543  25.832  31.207  1.00  0.00     0.009 A 
ATOM     64  C   UNL A   1      50.466  26.091  29.201  1.00  0.00     0.001 A 
ATOM     65  C   UNL A   1      49.840  25.362  31.418  1.00  0.00     0.001 A 
ATOM     66  C   UNL A   1      50.797  25.482  30.411  1.00  0.00     0.000 A 
ENDBRANCH  47  61
BRANCH  48  67
ATOM     67  C   UNL A   1      38.674  29.191  28.970  1.00  0.00    -0.014 A 
ATOM     68  C   UNL A   1      38.144  29.656  27.757  1.00  0.00     0.009 A 
ATOM     69  C   UNL A   1      37.832  29.088  30.087  1.00  0.00     0.009 A 
ATOM     70  C   UNL A   1      36.800  30.027  27.671  1.00  0.00     0.001 A 
ATOM     71  C   UNL A   1      36.484  29.438  29.992  1.00  0.00     0.001 A 
ATOM     72  C   UNL A   1      35.971  29.914  28.786  1.00  0.00     0.000 A 
ENDBRANCH  48  67
BRANCH  60  73
ATOM     73  C   UNL A   1      44.396  32.438  31.243  1.00  0.00    -0.014 A 
ATOM     74  C   UNL A   1      44.329  32.708  32.617  1.00  0.00     0.009 A 
ATOM     75  C   UNL A   1      44.744  33.472  30.359  1.00  0.00     0.009 A 
ATOM     76  C   UNL A   1      44.583  33.995  33.096  1.00  0.00     0.001 A 
ATOM     77  C   UNL A   1      45.019  34.752  30.842  1.00  0.00     0.001 A 
ATOM     78  C   UNL A   1      44.932  35.014  32.209  1.00  0.00     0.000 A 
ENDBRANCH  60  73
ENDBRANCH  34  35
ENDBRANCH  26  29
ENDBRANCH  24  25
ENDBRANCH  23  24
ENDBRANCH   1  23
TORSDOF 14
ENDMDL
MODEL 2
REMARK VINA RESULT:     -10.8      1.716      6.155
REMARK SMILES Cn1ccc(S(=O)(=O)N2CCO[C@H](CC(=O)NCCCCNC(=O)c3ccc(-c4c5nc(c(-c6ccccc6)c6ccc([nH]6)c(-c6ccccc6)c6nc(c(-c7ccccc7)c7ccc4[nH]7)C=C6)C=C5)cc3)C2)c1
REMARK SMILES IDX 19 1 18 2 17 3 15 4 16 5 14 7 13 8 9 9 10 10 73 11 11 12
REMARK SMILES IDX 12 13 6 14 7 15 8 16 5 17 1 18 2 19 3 20 74 21 4 22 20 23
REMARK SMILES IDX 21 24 22 25 23 26 24 28 25 29 26 30 72 31 27 32 71 33 28 34
REMARK SMILES IDX 29 35 30 36 65 37 31 38 70 39 64 40 66 41 32 42 69 43 63 44
REMARK SMILES IDX 62 45 33 47 55 48 40 49 54 50 41 51 44 52 53 53 67 54 42 55
REMARK SMILES IDX 43 56 52 58 68 59 45 60 34 61 35 62 39 63 36 64 38 65 37 66
REMARK SMILES IDX 56 67 57 68 61 69 58 70 60 71 59 72 46 73 47 74 51 75 48 76
REMARK SMILES IDX 50 77 49 78
REMARK H PARENT 17 6 22 27 66 46 44 57
REMARK Flexibility Score: inf
ROOT
ATOM      1  C   UNL A   1      37.108  21.226  24.581  1.00  0.00     0.023 C 
ENDROOT
BRANCH   1   2
ATOM      2  C   UNL A   1      37.181  22.407  25.549  1.00  0.00     0.116 C 
BRANCH   2   3
ATOM      3  N   UNL A   1      36.080  22.400  26.495  1.00  0.00    -0.356 N 
ATOM      4  C   UNL A   1      34.856  22.987  26.389  1.00  0.00     0.222 C 
ATOM      5  O   UNL A   1      34.083  22.928  27.341  1.00  0.00    -0.275 OA
ATOM      6  H   UNL A   1      36.240  21.904  27.330  1.00  0.00     0.163 HD
BRANCH   4   7
ATOM      7  C   UNL A   1      34.490  23.704  25.115  1.00  0.00     0.133 C 
BRANCH   7   8
ATOM      8  C   UNL A   1      33.694  22.781  24.186  1.00  0.00     0.142 C 
ATOM      9  N   UNL A   1      32.529  24.517  22.948  1.00  0.00    -0.193 NA
ATOM     10  C   UNL A   1      31.224  24.082  23.475  1.00  0.00     0.131 C 
ATOM     11  C   UNL A   1      33.480  23.408  22.791  1.00  0.00     0.135 C 
ATOM     12  C   UNL A   1      31.472  23.452  24.850  1.00  0.00     0.177 C 
ATOM     13  O   UNL A   1      32.437  22.386  24.792  1.00  0.00    -0.375 OA
BRANCH   9  14
ATOM     14  S   UNL A   1      32.647  25.899  22.025  1.00  0.00     0.244 S 
ATOM     15  O   UNL A   1      31.814  25.748  20.855  1.00  0.00    -0.207 OA
ATOM     16  O   UNL A   1      34.028  26.320  21.959  1.00  0.00    -0.207 OA
BRANCH  14  17
ATOM     17  C   UNL A   1      31.883  27.147  22.952  1.00  0.00     0.100 A 
ATOM     18  C   UNL A   1      29.546  29.858  23.494  1.00  0.00     0.149 C 
ATOM     19  N   UNL A   1      30.554  28.823  23.550  1.00  0.00    -0.356 N 
ATOM     20  C   UNL A   1      31.413  28.609  24.594  1.00  0.00     0.086 A 
ATOM     21  C   UNL A   1      30.809  27.923  22.553  1.00  0.00     0.106 A 
ATOM     22  C   UNL A   1      32.253  27.567  24.252  1.00  0.00     0.041 A 
ENDBRANCH  14  17
ENDBRANCH   9  14
ENDBRANCH   7   8
ENDBRANCH   4   7
ENDBRANCH   2   3
ENDBRANCH   1   2
BRANCH   1  23
ATOM     23  C   UNL A   1      37.921  20.000  25.001  1.00  0.00     0.023 C 
BRANCH  23  24
ATOM     24  C   UNL A   1      39.165  20.299  25.828  1.00  0.00     0.116 C 
BRANCH  24  25
ATOM     25  N   UNL A   1      40.120  19.203  25.833  1.00  0.00    -0.352 N 
ATOM     26  C   UNL A   1      41.478  19.244  26.032  1.00  0.00     0.251 C 
ATOM     27  H   UNL A   1      39.741  18.309  25.670  1.00  0.00     0.163 HD
ATOM     28  O   UNL A   1      42.157  18.234  25.882  1.00  0.00    -0.269 OA
BRANCH  26  29
ATOM     29  C   UNL A   1      42.123  20.522  26.392  1.00  0.00     0.039 A 
ATOM     30  C   UNL A   1      42.657  21.318  25.375  1.00  0.00     0.014 A 
ATOM     31  C   UNL A   1      42.179  20.944  27.723  1.00  0.00     0.014 A 
ATOM     32  C   UNL A   1      43.186  22.572  25.685  1.00  0.00     0.010 A 
ATOM     33  C   UNL A   1      42.650  22.219  28.022  1.00  0.00     0.010 A 
ATOM     34  C   UNL A   1      43.153  23.045  27.006  1.00  0.00    -0.014 A 
BRANCH  34  35
ATOM     35  C   UNL A   1      43.629  24.408  27.351  1.00  0.00     0.031 A 
ATOM     36  C   UNL A   1      42.648  25.463  27.775  1.00  0.00     0.074 A 
ATOM     37  C   UNL A   1      44.929  24.719  27.189  1.00  0.00     0.049 A 
ATOM     38  N   UNL A   1      42.857  26.733  28.014  1.00  0.00    -0.248 NA
ATOM     39  C   UNL A   1      41.246  25.043  27.920  1.00  0.00     0.031 C 
ATOM     40  C   UNL A   1      45.973  23.797  26.735  1.00  0.00     0.029 A 
ATOM     41  N   UNL A   1      45.589  25.907  27.369  1.00  0.00    -0.354 N 
ATOM     42  C   UNL A   1      41.609  27.269  28.304  1.00  0.00     0.074 A 
ATOM     43  C   UNL A   1      40.647  26.195  28.181  1.00  0.00     0.031 C 
ATOM     44  C   UNL A   1      47.144  24.454  26.682  1.00  0.00     0.029 A 
ATOM     45  C   UNL A   1      46.927  25.846  27.063  1.00  0.00     0.049 A 
ATOM     46  H   UNL A   1      45.147  26.727  27.689  1.00  0.00     0.167 HD
ATOM     47  C   UNL A   1      41.294  28.539  28.654  1.00  0.00     0.031 A 
ATOM     48  C   UNL A   1      47.871  26.804  27.073  1.00  0.00     0.031 A 
ATOM     49  C   UNL A   1      42.252  29.600  28.803  1.00  0.00     0.049 A 
ATOM     50  C   UNL A   1      47.502  28.200  27.487  1.00  0.00     0.074 A 
ATOM     51  C   UNL A   1      42.041  30.898  29.237  1.00  0.00     0.029 A 
ATOM     52  N   UNL A   1      43.604  29.487  28.520  1.00  0.00    -0.354 N 
ATOM     53  N   UNL A   1      46.331  28.674  27.835  1.00  0.00    -0.248 NA
ATOM     54  C   UNL A   1      48.587  29.191  27.516  1.00  0.00     0.031 C 
ATOM     55  C   UNL A   1      43.260  31.581  29.177  1.00  0.00     0.029 A 
ATOM     56  C   UNL A   1      44.236  30.697  28.747  1.00  0.00     0.049 A 
ATOM     57  H   UNL A   1      44.048  28.666  28.205  1.00  0.00     0.167 HD
ATOM     58  C   UNL A   1      46.540  30.010  28.145  1.00  0.00     0.074 A 
ATOM     59  C   UNL A   1      47.952  30.270  27.955  1.00  0.00     0.031 C 
ATOM     60  C   UNL A   1      45.641  30.939  28.551  1.00  0.00     0.031 A 
BRANCH  47  61
ATOM     61  C   UNL A   1      39.843  28.848  28.887  1.00  0.00    -0.014 A 
ATOM     62  C   UNL A   1      39.257  28.680  30.152  1.00  0.00     0.009 A 
ATOM     63  C   UNL A   1      39.057  29.336  27.832  1.00  0.00     0.009 A 
ATOM     64  C   UNL A   1      37.903  28.957  30.345  1.00  0.00     0.001 A 
ATOM     65  C   UNL A   1      37.709  29.637  28.034  1.00  0.00     0.001 A 
ATOM     66  C   UNL A   1      37.131  29.438  29.287  1.00  0.00     0.000 A 
ENDBRANCH  47  61
BRANCH  48  67
ATOM     67  C   UNL A   1      49.265  26.470  26.687  1.00  0.00    -0.014 A 
ATOM     68  C   UNL A   1      50.164  25.969  27.641  1.00  0.00     0.009 A 
ATOM     69  C   UNL A   1      49.697  26.635  25.363  1.00  0.00     0.009 A 
ATOM     70  C   UNL A   1      51.477  25.657  27.277  1.00  0.00     0.001 A 
ATOM     71  C   UNL A   1      51.003  26.302  24.998  1.00  0.00     0.001 A 
ATOM     72  C   UNL A   1      51.893  25.819  25.956  1.00  0.00     0.000 A 
ENDBRANCH  48  67
BRANCH  60  73
ATOM     73  C   UNL A   1      46.162  32.316  28.843  1.00  0.00    -0.014 A 
ATOM     74  C   UNL A   1      46.649  32.653  30.114  1.00  0.00     0.009 A 
ATOM     75  C   UNL A   1      46.211  33.272  27.816  1.00  0.00     0.009 A 
ATOM     76  C   UNL A   1      47.156  33.930  30.359  1.00  0.00     0.001 A 
ATOM     77  C   UNL A   1      46.739  34.542  28.058  1.00  0.00     0.001 A 
ATOM     78  C   UNL A   1      47.204  34.871  29.330  1.00  0.00     0.000 A 
ENDBRANCH  60  73
ENDBRANCH  34  35
ENDBRANCH  26  29
ENDBRANCH  24  25
ENDBRANCH  23  24
ENDBRANCH   1  23
TORSDOF 14
ENDMDL
MODEL 3
REMARK VINA RESULT:     -10.8      3.020      8.756
REMARK SMILES Cn1ccc(S(=O)(=O)N2CCO[C@H](CC(=O)NCCCCNC(=O)c3ccc(-c4c5nc(c(-c6ccccc6)c6ccc([nH]6)c(-c6ccccc6)c6nc(c(-c7ccccc7)c7ccc4[nH]7)C=C6)C=C5)cc3)C2)c1
REMARK SMILES IDX 19 1 18 2 17 3 15 4 16 5 14 7 13 8 9 9 10 10 73 11 11 12
REMARK SMILES IDX 12 13 6 14 7 15 8 16 5 17 1 18 2 19 3 20 74 21 4 22 20 23
REMARK SMILES IDX 21 24 22 25 23 26 24 28 25 29 26 30 72 31 27 32 71 33 28 34
REMARK SMILES IDX 29 35 30 36 65 37 31 38 70 39 64 40 66 41 32 42 69 43 63 44
REMARK SMILES IDX 62 45 33 47 55 48 40 49 54 50 41 51 44 52 53 53 67 54 42 55
REMARK SMILES IDX 43 56 52 58 68 59 45 60 34 61 35 62 39 63 36 64 38 65 37 66
REMARK SMILES IDX 56 67 57 68 61 69 58 70 60 71 59 72 46 73 47 74 51 75 48 76
REMARK SMILES IDX 50 77 49 78
REMARK H PARENT 17 6 22 27 66 46 44 57
REMARK Flexibility Score: inf
ROOT
ATOM      1  C   UNL A   1      31.589  30.329  26.259  1.00  0.00     0.023 C 
ENDROOT
BRANCH   1   2
ATOM      2  C   UNL A   1      33.021  29.852  26.024  1.00  0.00     0.116 C 
BRANCH   2   3
ATOM      3  N   UNL A   1      33.322  29.715  24.611  1.00  0.00    -0.356 N 
ATOM      4  C   UNL A   1      33.285  28.598  23.832  1.00  0.00     0.222 C 
ATOM      5  O   UNL A   1      33.652  28.676  22.662  1.00  0.00    -0.275 OA
ATOM      6  H   UNL A   1      33.589  30.543  24.151  1.00  0.00     0.163 HD
BRANCH   4   7
ATOM      7  C   UNL A   1      32.814  27.298  24.428  1.00  0.00     0.133 C 
BRANCH   7   8
ATOM      8  C   UNL A   1      31.305  27.122  24.216  1.00  0.00     0.142 C 
ATOM      9  N   UNL A   1      31.175  24.779  24.845  1.00  0.00    -0.193 NA
ATOM     10  C   UNL A   1      30.782  24.387  23.482  1.00  0.00     0.131 C 
ATOM     11  C   UNL A   1      30.693  26.117  25.216  1.00  0.00     0.135 C 
ATOM     12  C   UNL A   1      31.392  25.409  22.516  1.00  0.00     0.177 C 
ATOM     13  O   UNL A   1      31.009  26.758  22.844  1.00  0.00    -0.375 OA
BRANCH   9  14
ATOM     14  S   UNL A   1      31.487  23.620  26.000  1.00  0.00     0.244 S 
ATOM     15  O   UNL A   1      30.819  22.396  25.621  1.00  0.00    -0.207 OA
ATOM     16  O   UNL A   1      31.372  24.203  27.317  1.00  0.00    -0.207 OA
BRANCH  14  17
ATOM     17  C   UNL A   1      33.176  23.261  25.857  1.00  0.00     0.100 A 
ATOM     18  C   UNL A   1      36.031  21.099  25.328  1.00  0.00     0.149 C 
ATOM     19  N   UNL A   1      35.088  22.168  25.565  1.00  0.00    -0.356 N 
ATOM     20  C   UNL A   1      35.415  23.452  25.912  1.00  0.00     0.086 A 
ATOM     21  C   UNL A   1      33.728  22.043  25.501  1.00  0.00     0.106 A 
ATOM     22  C   UNL A   1      34.243  24.159  26.098  1.00  0.00     0.041 A 
ENDBRANCH  14  17
ENDBRANCH   9  14
ENDBRANCH   7   8
ENDBRANCH   4   7
ENDBRANCH   2   3
ENDBRANCH   1   2
BRANCH   1  23
ATOM     23  C   UNL A   1      31.454  31.818  26.588  1.00  0.00     0.023 C 
BRANCH  23  24
ATOM     24  C   UNL A   1      32.683  32.456  27.221  1.00  0.00     0.116 C 
BRANCH  24  25
ATOM     25  N   UNL A   1      32.444  33.814  27.680  1.00  0.00    -0.352 N 
ATOM     26  C   UNL A   1      33.173  34.565  28.568  1.00  0.00     0.251 C 
ATOM     27  H   UNL A   1      31.649  34.257  27.302  1.00  0.00     0.163 HD
ATOM     28  O   UNL A   1      32.762  35.660  28.939  1.00  0.00    -0.269 OA
BRANCH  26  29
ATOM     29  C   UNL A   1      34.442  34.032  29.104  1.00  0.00     0.039 A 
ATOM     30  C   UNL A   1      34.418  33.319  30.306  1.00  0.00     0.014 A 
ATOM     31  C   UNL A   1      35.642  34.212  28.413  1.00  0.00     0.014 A 
ATOM     32  C   UNL A   1      35.589  32.725  30.780  1.00  0.00     0.010 A 
ATOM     33  C   UNL A   1      36.795  33.569  28.854  1.00  0.00     0.010 A 
ATOM     34  C   UNL A   1      36.777  32.817  30.038  1.00  0.00    -0.014 A 
BRANCH  34  35
ATOM     35  C   UNL A   1      38.015  32.125  30.474  1.00  0.00     0.031 A 
ATOM     36  C   UNL A   1      38.951  32.793  31.441  1.00  0.00     0.074 A 
ATOM     37  C   UNL A   1      38.343  30.940  29.925  1.00  0.00     0.049 A 
ATOM     38  N   UNL A   1      40.126  32.396  31.857  1.00  0.00    -0.248 NA
ATOM     39  C   UNL A   1      38.521  34.089  31.988  1.00  0.00     0.031 C 
ATOM     40  C   UNL A   1      37.545  30.211  28.937  1.00  0.00     0.029 A 
ATOM     41  N   UNL A   1      39.450  30.150  30.108  1.00  0.00    -0.354 N 
ATOM     42  C   UNL A   1      40.590  33.408  32.687  1.00  0.00     0.074 A 
ATOM     43  C   UNL A   1      39.585  34.449  32.691  1.00  0.00     0.031 C 
ATOM     44  C   UNL A   1      38.185  29.077  28.608  1.00  0.00     0.029 A 
ATOM     45  C   UNL A   1      39.450  29.015  29.334  1.00  0.00     0.049 A 
ATOM     46  H   UNL A   1      40.175  30.374  30.735  1.00  0.00     0.167 HD
ATOM     47  C   UNL A   1      41.745  33.461  33.393  1.00  0.00     0.031 A 
ATOM     48  C   UNL A   1      40.370  28.041  29.209  1.00  0.00     0.031 A 
ATOM     49  C   UNL A   1      42.732  32.416  33.412  1.00  0.00     0.049 A 
ATOM     50  C   UNL A   1      41.632  28.111  30.020  1.00  0.00     0.074 A 
ATOM     51  C   UNL A   1      43.893  32.341  34.162  1.00  0.00     0.029 A 
ATOM     52  N   UNL A   1      42.676  31.265  32.643  1.00  0.00    -0.354 N 
ATOM     53  N   UNL A   1      42.021  29.037  30.861  1.00  0.00    -0.248 NA
ATOM     54  C   UNL A   1      42.578  26.996  29.870  1.00  0.00     0.031 C 
ATOM     55  C   UNL A   1      44.560  31.160  33.816  1.00  0.00     0.029 A 
ATOM     56  C   UNL A   1      43.792  30.483  32.883  1.00  0.00     0.049 A 
ATOM     57  H   UNL A   1      41.949  31.037  32.019  1.00  0.00     0.167 HD
ATOM     58  C   UNL A   1      43.245  28.609  31.356  1.00  0.00     0.074 A 
ATOM     59  C   UNL A   1      43.530  27.334  30.730  1.00  0.00     0.031 C 
ATOM     60  C   UNL A   1      44.060  29.218  32.250  1.00  0.00     0.031 A 
BRANCH  47  61
ATOM     61  C   UNL A   1      42.004  34.704  34.195  1.00  0.00    -0.014 A 
ATOM     62  C   UNL A   1      42.695  35.796  33.644  1.00  0.00     0.009 A 
ATOM     63  C   UNL A   1      41.534  34.792  35.514  1.00  0.00     0.009 A 
ATOM     64  C   UNL A   1      42.941  36.935  34.412  1.00  0.00     0.001 A 
ATOM     65  C   UNL A   1      41.759  35.942  36.271  1.00  0.00     0.001 A 
ATOM     66  C   UNL A   1      42.471  37.009  35.723  1.00  0.00     0.000 A 
ENDBRANCH  47  61
BRANCH  48  67
ATOM     67  C   UNL A   1      40.122  26.908  28.284  1.00  0.00    -0.014 A 
ATOM     68  C   UNL A   1      40.577  26.962  26.958  1.00  0.00     0.009 A 
ATOM     69  C   UNL A   1      39.444  25.762  28.725  1.00  0.00     0.009 A 
ATOM     70  C   UNL A   1      40.342  25.896  26.086  1.00  0.00     0.001 A 
ATOM     71  C   UNL A   1      39.230  24.689  27.859  1.00  0.00     0.001 A 
ATOM     72  C   UNL A   1      39.673  24.759  26.539  1.00  0.00     0.000 A 
ENDBRANCH  48  67
BRANCH  60  73
ATOM     73  C   UNL A   1      45.325  28.503  32.625  1.00  0.00    -0.014 A 
ATOM     74  C   UNL A   1      45.341  27.550  33.653  1.00  0.00     0.009 A 
ATOM     75  C   UNL A   1      46.503  28.749  31.903  1.00  0.00     0.009 A 
ATOM     76  C   UNL A   1      46.521  26.873  33.969  1.00  0.00     0.001 A 
ATOM     77  C   UNL A   1      47.676  28.055  32.205  1.00  0.00     0.001 A 
ATOM     78  C   UNL A   1      47.685  27.123  33.242  1.00  0.00     0.000 A 
ENDBRANCH  60  73
ENDBRANCH  34  35
ENDBRANCH  26  29
ENDBRANCH  24  25
ENDBRANCH  23  24
ENDBRANCH   1  23
TORSDOF 14
ENDMDL
