MODEL 1
REMARK VINA RESULT:     -10.9      0.000      0.000
REMARK SMILES CO[C@@H]1C[C@H](C(=O)NCCCCNC(=O)c2ccc(-c3c4nc(c(-c5ccccc5)c5ccc([nH]5)c(-c5ccccc5)c5nc(c(-c6ccccc6)c6ccc3[nH]6)C=C5)C=C4)cc2)N(C(=O)c2ccn(C)c(=O)c2)C1
REMARK SMILES IDX 10 1 9 2 8 3 6 4 7 5 5 7 3 8 4 9 75 10 64 11 2 12 1 13 65 14
REMARK SMILES IDX 66 15 67 16 68 17 74 18 69 19 72 20 70 21 73 22 71 23 11 24
REMARK SMILES IDX 12 25 13 26 14 27 15 29 16 30 17 31 63 32 18 33 62 34 19 35
REMARK SMILES IDX 20 36 21 37 56 38 22 39 61 40 55 41 57 42 23 43 60 44 54 45
REMARK SMILES IDX 53 46 24 48 46 49 31 50 45 51 32 52 35 53 44 54 58 55 33 56
REMARK SMILES IDX 34 57 43 59 59 60 36 61 25 62 26 63 30 64 27 65 29 66 28 67
REMARK SMILES IDX 47 68 48 69 52 70 49 71 51 72 50 73 37 74 38 75 42 76 39 77
REMARK SMILES IDX 41 78 40 79
REMARK H PARENT 8 6 13 28 57 47 35 58
REMARK Flexibility Score: inf
ROOT
ATOM      1  C   UNL A   1      38.415  22.836  26.041  1.00  0.00     0.023 C 
ENDROOT
BRANCH   1   2
ATOM      2  C   UNL A   1      37.006  23.392  25.836  1.00  0.00     0.116 C 
BRANCH   2   3
ATOM      3  N   UNL A   1      36.032  22.678  26.635  1.00  0.00    -0.354 N 
ATOM      4  C   UNL A   1      35.072  21.782  26.288  1.00  0.00     0.242 C 
ATOM      5  O   UNL A   1      34.284  21.460  27.188  1.00  0.00    -0.273 OA
ATOM      6  H   UNL A   1      36.074  22.877  27.599  1.00  0.00     0.163 HD
BRANCH   4   7
ATOM      7  C   UNL A   1      34.832  21.257  24.850  1.00  0.00     0.177 C 
ATOM      8  C   UNL A   1      33.124  19.609  24.185  1.00  0.00     0.139 C 
ATOM      9  C   UNL A   1      34.522  19.761  24.795  1.00  0.00     0.069 C 
ATOM     10  C   UNL A   1      32.732  20.998  23.678  1.00  0.00     0.152 C 
ATOM     11  N   UNL A   1      33.789  21.912  24.068  1.00  0.00    -0.324 N 
BRANCH   8  12
ATOM     12  O   UNL A   1      32.181  19.161  25.154  1.00  0.00    -0.380 OA
ATOM     13  C   UNL A   1      32.583  17.973  25.826  1.00  0.00     0.195 C 
ENDBRANCH   8  12
BRANCH  11  14
ATOM     14  C   UNL A   1      33.818  23.172  23.509  1.00  0.00     0.254 C 
ATOM     15  O   UNL A   1      34.259  23.387  22.381  1.00  0.00    -0.269 OA
BRANCH  14  16
ATOM     16  C   UNL A   1      33.380  24.320  24.350  1.00  0.00     0.046 A 
ATOM     17  C   UNL A   1      34.109  25.565  24.369  1.00  0.00     0.032 A 
ATOM     18  C   UNL A   1      32.387  24.098  25.224  1.00  0.00     0.085 A 
ATOM     19  C   UNL A   1      33.745  26.532  25.222  1.00  0.00     0.089 A 
ATOM     20  C   UNL A   1      31.946  25.176  26.141  1.00  0.00     0.251 A 
ATOM     21  N   UNL A   1      32.676  26.362  26.086  1.00  0.00    -0.319 N 
ATOM     22  O   UNL A   1      30.993  24.962  26.884  1.00  0.00    -0.269 OA
ATOM     23  C   UNL A   1      32.319  27.449  26.983  1.00  0.00     0.153 C 
ENDBRANCH  14  16
ENDBRANCH  11  14
ENDBRANCH   4   7
ENDBRANCH   2   3
ENDBRANCH   1   2
BRANCH   1  24
ATOM     24  C   UNL A   1      38.661  21.445  25.465  1.00  0.00     0.023 C 
BRANCH  24  25
ATOM     25  C   UNL A   1      39.248  20.441  26.448  1.00  0.00     0.116 C 
BRANCH  25  26
ATOM     26  N   UNL A   1      40.293  19.591  25.889  1.00  0.00    -0.352 N 
ATOM     27  C   UNL A   1      41.646  19.827  25.814  1.00  0.00     0.251 C 
ATOM     28  H   UNL A   1      39.988  18.732  25.516  1.00  0.00     0.163 HD
ATOM     29  O   UNL A   1      42.393  19.036  25.252  1.00  0.00    -0.269 OA
BRANCH  27  30
ATOM     30  C   UNL A   1      42.184  21.085  26.374  1.00  0.00     0.039 A 
ATOM     31  C   UNL A   1      42.536  22.116  25.500  1.00  0.00     0.014 A 
ATOM     32  C   UNL A   1      42.259  21.269  27.756  1.00  0.00     0.014 A 
ATOM     33  C   UNL A   1      42.869  23.369  26.017  1.00  0.00     0.010 A 
ATOM     34  C   UNL A   1      42.504  22.537  28.264  1.00  0.00     0.010 A 
ATOM     35  C   UNL A   1      42.802  23.602  27.400  1.00  0.00    -0.014 A 
BRANCH  35  36
ATOM     36  C   UNL A   1      43.023  24.954  27.970  1.00  0.00     0.031 A 
ATOM     37  C   UNL A   1      44.394  25.358  28.434  1.00  0.00     0.074 A 
ATOM     38  C   UNL A   1      41.974  25.777  28.162  1.00  0.00     0.049 A 
ATOM     39  N   UNL A   1      44.768  26.449  29.053  1.00  0.00    -0.248 NA
ATOM     40  C   UNL A   1      45.482  24.392  28.207  1.00  0.00     0.031 C 
ATOM     41  C   UNL A   1      40.582  25.481  27.812  1.00  0.00     0.029 A 
ATOM     42  N   UNL A   1      41.917  27.034  28.709  1.00  0.00    -0.354 N 
ATOM     43  C   UNL A   1      46.120  26.282  29.323  1.00  0.00     0.074 A 
ATOM     44  C   UNL A   1      46.491  24.971  28.839  1.00  0.00     0.031 C 
ATOM     45  C   UNL A   1      39.817  26.541  28.122  1.00  0.00     0.029 A 
ATOM     46  C   UNL A   1      40.653  27.572  28.724  1.00  0.00     0.049 A 
ATOM     47  H   UNL A   1      42.707  27.506  29.060  1.00  0.00     0.167 HD
ATOM     48  C   UNL A   1      46.981  27.149  29.904  1.00  0.00     0.031 A 
ATOM     49  C   UNL A   1      40.218  28.764  29.172  1.00  0.00     0.031 A 
ATOM     50  C   UNL A   1      46.625  28.469  30.345  1.00  0.00     0.049 A 
ATOM     51  C   UNL A   1      41.202  29.727  29.773  1.00  0.00     0.074 A 
ATOM     52  C   UNL A   1      47.442  29.455  30.869  1.00  0.00     0.029 A 
ATOM     53  N   UNL A   1      45.342  28.991  30.303  1.00  0.00    -0.354 N 
ATOM     54  N   UNL A   1      42.491  29.581  29.958  1.00  0.00    -0.248 NA
ATOM     55  C   UNL A   1      40.670  31.025  30.216  1.00  0.00     0.031 C 
ATOM     56  C   UNL A   1      46.647  30.565  31.173  1.00  0.00     0.029 A 
ATOM     57  C   UNL A   1      45.342  30.281  30.803  1.00  0.00     0.049 A 
ATOM     58  H   UNL A   1      44.547  28.515  29.967  1.00  0.00     0.167 HD
ATOM     59  C   UNL A   1      42.930  30.775  30.515  1.00  0.00     0.074 A 
ATOM     60  C   UNL A   1      41.771  31.638  30.626  1.00  0.00     0.031 C 
ATOM     61  C   UNL A   1      44.180  31.125  30.900  1.00  0.00     0.031 A 
BRANCH  48  62
ATOM     62  C   UNL A   1      48.398  26.687  30.092  1.00  0.00    -0.014 A 
ATOM     63  C   UNL A   1      48.789  25.992  31.248  1.00  0.00     0.009 A 
ATOM     64  C   UNL A   1      49.352  26.941  29.095  1.00  0.00     0.009 A 
ATOM     65  C   UNL A   1      50.117  25.598  31.420  1.00  0.00     0.001 A 
ATOM     66  C   UNL A   1      50.674  26.521  29.257  1.00  0.00     0.001 A 
ATOM     67  C   UNL A   1      51.057  25.860  30.424  1.00  0.00     0.000 A 
ENDBRANCH  48  62
BRANCH  49  68
ATOM     68  C   UNL A   1      38.786  29.134  29.035  1.00  0.00    -0.014 A 
ATOM     69  C   UNL A   1      38.301  29.630  27.816  1.00  0.00     0.009 A 
ATOM     70  C   UNL A   1      37.902  28.999  30.115  1.00  0.00     0.009 A 
ATOM     71  C   UNL A   1      36.963  30.008  27.687  1.00  0.00     0.001 A 
ATOM     72  C   UNL A   1      36.559  29.358  29.977  1.00  0.00     0.001 A 
ATOM     73  C   UNL A   1      36.093  29.868  28.767  1.00  0.00     0.000 A 
ENDBRANCH  49  68
BRANCH  61  74
ATOM     74  C   UNL A   1      44.365  32.511  31.443  1.00  0.00    -0.014 A 
ATOM     75  C   UNL A   1      44.262  32.771  32.817  1.00  0.00     0.009 A 
ATOM     76  C   UNL A   1      44.684  33.562  30.569  1.00  0.00     0.009 A 
ATOM     77  C   UNL A   1      44.450  34.066  33.304  1.00  0.00     0.001 A 
ATOM     78  C   UNL A   1      44.895  34.850  31.061  1.00  0.00     0.001 A 
ATOM     79  C   UNL A   1      44.771  35.102  32.427  1.00  0.00     0.000 A 
ENDBRANCH  61  74
ENDBRANCH  35  36
ENDBRANCH  27  30
ENDBRANCH  25  26
ENDBRANCH  24  25
ENDBRANCH   1  24
TORSDOF 14
ENDMDL
MODEL 2
REMARK VINA RESULT:     -10.8      4.050      9.290
REMARK SMILES CO[C@@H]1C[C@H](C(=O)NCCCCNC(=O)c2ccc(-c3c4nc(c(-c5ccccc5)c5ccc([nH]5)c(-c5ccccc5)c5nc(c(-c6ccccc6)c6ccc3[nH]6)C=C5)C=C4)cc2)N(C(=O)c2ccn(C)c(=O)c2)C1
REMARK SMILES IDX 10 1 9 2 8 3 6 4 7 5 5 7 3 8 4 9 75 10 64 11 2 12 1 13 65 14
REMARK SMILES IDX 66 15 67 16 68 17 74 18 69 19 72 20 70 21 73 22 71 23 11 24
REMARK SMILES IDX 12 25 13 26 14 27 15 29 16 30 17 31 63 32 18 33 62 34 19 35
REMARK SMILES IDX 20 36 21 37 56 38 22 39 61 40 55 41 57 42 23 43 60 44 54 45
REMARK SMILES IDX 53 46 24 48 46 49 31 50 45 51 32 52 35 53 44 54 58 55 33 56
REMARK SMILES IDX 34 57 43 59 59 60 36 61 25 62 26 63 30 64 27 65 29 66 28 67
REMARK SMILES IDX 47 68 48 69 52 70 49 71 51 72 50 73 37 74 38 75 42 76 39 77
REMARK SMILES IDX 41 78 40 79
REMARK H PARENT 8 6 13 28 57 47 35 58
REMARK Flexibility Score: inf
ROOT
ATOM      1  C   UNL A   1      31.889  30.158  27.005  1.00  0.00     0.023 C 
ENDROOT
BRANCH   1   2
ATOM      2  C   UNL A   1      33.250  29.542  26.683  1.00  0.00     0.116 C 
BRANCH   2   3
ATOM      3  N   UNL A   1      33.584  29.696  25.283  1.00  0.00    -0.354 N 
ATOM      4  C   UNL A   1      33.149  29.035  24.179  1.00  0.00     0.242 C 
ATOM      5  O   UNL A   1      33.744  29.295  23.125  1.00  0.00    -0.273 OA
ATOM      6  H   UNL A   1      34.243  30.405  25.099  1.00  0.00     0.163 HD
BRANCH   4   7
ATOM      7  C   UNL A   1      32.077  27.916  24.185  1.00  0.00     0.177 C 
ATOM      8  C   UNL A   1      30.073  27.834  22.753  1.00  0.00     0.139 C 
ATOM      9  C   UNL A   1      30.650  28.443  24.035  1.00  0.00     0.069 C 
ATOM     10  C   UNL A   1      31.083  26.779  22.295  1.00  0.00     0.152 C 
ATOM     11  N   UNL A   1      32.218  26.853  23.196  1.00  0.00    -0.324 N 
BRANCH   8  12
ATOM     12  O   UNL A   1      29.907  28.820  21.738  1.00  0.00    -0.380 OA
ATOM     13  C   UNL A   1      29.365  30.043  22.223  1.00  0.00     0.195 C 
ENDBRANCH   8  12
BRANCH  11  14
ATOM     14  C   UNL A   1      33.151  25.838  23.173  1.00  0.00     0.254 C 
ATOM     15  O   UNL A   1      33.830  25.584  22.179  1.00  0.00    -0.269 OA
BRANCH  14  16
ATOM     16  C   UNL A   1      33.268  24.968  24.375  1.00  0.00     0.046 A 
ATOM     17  C   UNL A   1      34.542  24.711  25.002  1.00  0.00     0.032 A 
ATOM     18  C   UNL A   1      32.175  24.288  24.750  1.00  0.00     0.085 A 
ATOM     19  C   UNL A   1      34.618  23.835  26.012  1.00  0.00     0.089 A 
ATOM     20  C   UNL A   1      32.237  23.350  25.896  1.00  0.00     0.251 A 
ATOM     21  N   UNL A   1      33.493  23.172  26.473  1.00  0.00    -0.319 N 
ATOM     22  O   UNL A   1      31.205  22.792  26.256  1.00  0.00    -0.269 OA
ATOM     23  C   UNL A   1      33.633  22.239  27.580  1.00  0.00     0.153 C 
ENDBRANCH  14  16
ENDBRANCH  11  14
ENDBRANCH   4   7
ENDBRANCH   2   3
ENDBRANCH   1   2
BRANCH   1  24
ATOM     24  C   UNL A   1      31.753  31.646  26.700  1.00  0.00     0.023 C 
BRANCH  24  25
ATOM     25  C   UNL A   1      32.877  32.516  27.248  1.00  0.00     0.116 C 
BRANCH  25  26
ATOM     26  N   UNL A   1      32.471  33.870  27.606  1.00  0.00    -0.352 N 
ATOM     27  C   UNL A   1      33.029  34.719  28.534  1.00  0.00     0.251 C 
ATOM     28  H   UNL A   1      31.692  34.223  27.119  1.00  0.00     0.163 HD
ATOM     29  O   UNL A   1      32.529  35.812  28.768  1.00  0.00    -0.269 OA
BRANCH  27  30
ATOM     30  C   UNL A   1      34.216  34.269  29.291  1.00  0.00     0.039 A 
ATOM     31  C   UNL A   1      34.029  33.541  30.469  1.00  0.00     0.014 A 
ATOM     32  C   UNL A   1      35.501  34.495  28.793  1.00  0.00     0.014 A 
ATOM     33  C   UNL A   1      35.129  32.953  31.094  1.00  0.00     0.010 A 
ATOM     34  C   UNL A   1      36.581  33.838  29.366  1.00  0.00     0.010 A 
ATOM     35  C   UNL A   1      36.405  33.053  30.516  1.00  0.00    -0.014 A 
BRANCH  35  36
ATOM     36  C   UNL A   1      37.572  32.333  31.084  1.00  0.00     0.031 A 
ATOM     37  C   UNL A   1      38.222  32.833  32.343  1.00  0.00     0.074 A 
ATOM     38  C   UNL A   1      38.105  31.293  30.413  1.00  0.00     0.049 A 
ATOM     39  N   UNL A   1      39.309  32.407  32.935  1.00  0.00    -0.248 NA
ATOM     40  C   UNL A   1      37.590  33.987  33.001  1.00  0.00     0.031 C 
ATOM     41  C   UNL A   1      37.606  30.747  29.148  1.00  0.00     0.029 A 
ATOM     42  N   UNL A   1      39.195  30.511  30.703  1.00  0.00    -0.354 N 
ATOM     43  C   UNL A   1      39.511  33.264  34.009  1.00  0.00     0.074 A 
ATOM     44  C   UNL A   1      38.460  34.257  33.963  1.00  0.00     0.031 C 
ATOM     45  C   UNL A   1      38.367  29.699  28.791  1.00  0.00     0.029 A 
ATOM     46  C   UNL A   1      39.426  29.523  29.777  1.00  0.00     0.049 A 
ATOM     47  H   UNL A   1      39.760  30.647  31.498  1.00  0.00     0.167 HD
ATOM     48  C   UNL A   1      40.472  33.219  34.960  1.00  0.00     0.031 A 
ATOM     49  C   UNL A   1      40.385  28.580  29.730  1.00  0.00     0.031 A 
ATOM     50  C   UNL A   1      41.490  32.208  35.033  1.00  0.00     0.049 A 
ATOM     51  C   UNL A   1      41.415  28.524  30.822  1.00  0.00     0.074 A 
ATOM     52  C   UNL A   1      42.459  32.026  36.005  1.00  0.00     0.029 A 
ATOM     53  N   UNL A   1      41.664  31.200  34.098  1.00  0.00    -0.354 N 
ATOM     54  N   UNL A   1      41.550  29.300  31.868  1.00  0.00    -0.248 NA
ATOM     55  C   UNL A   1      42.417  27.452  30.730  1.00  0.00     0.031 C 
ATOM     56  C   UNL A   1      43.239  30.923  35.641  1.00  0.00     0.029 A 
ATOM     57  C   UNL A   1      42.731  30.398  34.463  1.00  0.00     0.049 A 
ATOM     58  H   UNL A   1      41.110  31.072  33.294  1.00  0.00     0.167 HD
ATOM     59  C   UNL A   1      42.636  28.797  32.574  1.00  0.00     0.074 A 
ATOM     60  C   UNL A   1      43.114  27.642  31.841  1.00  0.00     0.031 C 
ATOM     61  C   UNL A   1      43.187  29.251  33.724  1.00  0.00     0.031 A 
BRANCH  48  62
ATOM     62  C   UNL A   1      40.460  34.302  36.000  1.00  0.00    -0.014 A 
ATOM     63  C   UNL A   1      41.224  35.470  35.844  1.00  0.00     0.009 A 
ATOM     64  C   UNL A   1      39.665  34.159  37.148  1.00  0.00     0.009 A 
ATOM     65  C   UNL A   1      41.225  36.453  36.835  1.00  0.00     0.001 A 
ATOM     66  C   UNL A   1      39.646  35.156  38.125  1.00  0.00     0.001 A 
ATOM     67  C   UNL A   1      40.435  36.296  37.973  1.00  0.00     0.000 A 
ENDBRANCH  48  62
BRANCH  49  68
ATOM     68  C   UNL A   1      40.396  27.583  28.628  1.00  0.00    -0.014 A 
ATOM     69  C   UNL A   1      41.114  27.844  27.452  1.00  0.00     0.009 A 
ATOM     70  C   UNL A   1      39.692  26.376  28.744  1.00  0.00     0.009 A 
ATOM     71  C   UNL A   1      41.107  26.926  26.399  1.00  0.00     0.001 A 
ATOM     72  C   UNL A   1      39.704  25.450  27.698  1.00  0.00     0.001 A 
ATOM     73  C   UNL A   1      40.405  25.728  26.525  1.00  0.00     0.000 A 
ENDBRANCH  49  68
BRANCH  61  74
ATOM     74  C   UNL A   1      44.346  28.476  34.279  1.00  0.00    -0.014 A 
ATOM     75  C   UNL A   1      45.667  28.810  33.948  1.00  0.00     0.009 A 
ATOM     76  C   UNL A   1      44.110  27.423  35.176  1.00  0.00     0.009 A 
ATOM     77  C   UNL A   1      46.731  28.085  34.485  1.00  0.00     0.001 A 
ATOM     78  C   UNL A   1      45.177  26.714  35.729  1.00  0.00     0.001 A 
ATOM     79  C   UNL A   1      46.486  27.042  35.378  1.00  0.00     0.000 A 
ENDBRANCH  61  74
ENDBRANCH  35  36
ENDBRANCH  27  30
ENDBRANCH  25  26
ENDBRANCH  24  25
ENDBRANCH   1  24
TORSDOF 14
ENDMDL
MODEL 3
REMARK VINA RESULT:     -10.7      3.224      8.808
REMARK SMILES CO[C@@H]1C[C@H](C(=O)NCCCCNC(=O)c2ccc(-c3c4nc(c(-c5ccccc5)c5ccc([nH]5)c(-c5ccccc5)c5nc(c(-c6ccccc6)c6ccc3[nH]6)C=C5)C=C4)cc2)N(C(=O)c2ccn(C)c(=O)c2)C1
REMARK SMILES IDX 10 1 9 2 8 3 6 4 7 5 5 7 3 8 4 9 75 10 64 11 2 12 1 13 65 14
REMARK SMILES IDX 66 15 67 16 68 17 74 18 69 19 72 20 70 21 73 22 71 23 11 24
REMARK SMILES IDX 12 25 13 26 14 27 15 29 16 30 17 31 63 32 18 33 62 34 19 35
REMARK SMILES IDX 20 36 21 37 56 38 22 39 61 40 55 41 57 42 23 43 60 44 54 45
REMARK SMILES IDX 53 46 24 48 46 49 31 50 45 51 32 52 35 53 44 54 58 55 33 56
REMARK SMILES IDX 34 57 43 59 59 60 36 61 25 62 26 63 30 64 27 65 29 66 28 67
REMARK SMILES IDX 47 68 48 69 52 70 49 71 51 72 50 73 37 74 38 75 42 76 39 77
REMARK SMILES IDX 41 78 40 79
REMARK H PARENT 8 6 13 28 57 47 35 58
REMARK Flexibility Score: inf
ROOT
ATOM      1  C   UNL A   1      34.356  30.248  27.644  1.00  0.00     0.023 C 
ENDROOT
BRANCH   1   2
ATOM      2  C   UNL A   1      34.222  28.908  26.923  1.00  0.00     0.116 C 
BRANCH   2   3
ATOM      3  N   UNL A   1      34.175  29.081  25.486  1.00  0.00    -0.354 N 
ATOM      4  C   UNL A   1      33.154  28.946  24.600  1.00  0.00     0.242 C 
ATOM      5  O   UNL A   1      33.466  29.010  23.404  1.00  0.00    -0.273 OA
ATOM      6  H   UNL A   1      35.033  29.342  25.081  1.00  0.00     0.163 HD
BRANCH   4   7
ATOM      7  C   UNL A   1      31.693  28.596  24.983  1.00  0.00     0.177 C 
ATOM      8  C   UNL A   1      29.775  28.537  23.437  1.00  0.00     0.139 C 
ATOM      9  C   UNL A   1      30.657  29.469  24.276  1.00  0.00     0.069 C 
ATOM     10  C   UNL A   1      30.158  27.113  23.845  1.00  0.00     0.152 C 
ATOM     11  N   UNL A   1      31.264  27.217  24.779  1.00  0.00    -0.324 N 
BRANCH   8  12
ATOM     12  O   UNL A   1      30.004  28.721  22.043  1.00  0.00    -0.380 OA
ATOM     13  C   UNL A   1      29.814  30.064  21.612  1.00  0.00     0.195 C 
ENDBRANCH   8  12
BRANCH  11  14
ATOM     14  C   UNL A   1      31.628  26.103  25.504  1.00  0.00     0.254 C 
ATOM     15  O   UNL A   1      31.082  25.793  26.562  1.00  0.00    -0.269 OA
BRANCH  14  16
ATOM     16  C   UNL A   1      32.787  25.303  25.023  1.00  0.00     0.046 A 
ATOM     17  C   UNL A   1      34.000  25.188  25.796  1.00  0.00     0.032 A 
ATOM     18  C   UNL A   1      32.735  24.839  23.766  1.00  0.00     0.085 A 
ATOM     19  C   UNL A   1      35.058  24.553  25.276  1.00  0.00     0.089 A 
ATOM     20  C   UNL A   1      33.883  24.094  23.197  1.00  0.00     0.251 A 
ATOM     21  N   UNL A   1      35.010  23.996  24.009  1.00  0.00    -0.319 N 
ATOM     22  O   UNL A   1      33.778  23.626  22.067  1.00  0.00    -0.269 OA
ATOM     23  C   UNL A   1      36.186  23.308  23.500  1.00  0.00     0.153 C 
ENDBRANCH  14  16
ENDBRANCH  11  14
ENDBRANCH   4   7
ENDBRANCH   2   3
ENDBRANCH   1   2
BRANCH   1  24
ATOM     24  C   UNL A   1      33.116  31.135  27.619  1.00  0.00     0.023 C 
BRANCH  24  25
ATOM     25  C   UNL A   1      33.311  32.488  26.947  1.00  0.00     0.116 C 
BRANCH  25  26
ATOM     26  N   UNL A   1      32.726  33.610  27.672  1.00  0.00    -0.352 N 
ATOM     27  C   UNL A   1      33.226  34.284  28.762  1.00  0.00     0.251 C 
ATOM     28  H   UNL A   1      31.857  33.927  27.335  1.00  0.00     0.163 HD
ATOM     29  O   UNL A   1      32.579  35.173  29.303  1.00  0.00    -0.269 OA
BRANCH  27  30
ATOM     30  C   UNL A   1      34.537  33.882  29.312  1.00  0.00     0.039 A 
ATOM     31  C   UNL A   1      34.571  33.067  30.446  1.00  0.00     0.014 A 
ATOM     32  C   UNL A   1      35.718  34.240  28.660  1.00  0.00     0.014 A 
ATOM     33  C   UNL A   1      35.788  32.529  30.867  1.00  0.00     0.010 A 
ATOM     34  C   UNL A   1      36.912  33.635  29.027  1.00  0.00     0.010 A 
ATOM     35  C   UNL A   1      36.958  32.766  30.128  1.00  0.00    -0.014 A 
BRANCH  35  36
ATOM     36  C   UNL A   1      38.241  32.106  30.472  1.00  0.00     0.031 A 
ATOM     37  C   UNL A   1      39.207  32.783  31.403  1.00  0.00     0.074 A 
ATOM     38  C   UNL A   1      38.579  30.949  29.871  1.00  0.00     0.049 A 
ATOM     39  N   UNL A   1      40.418  32.420  31.743  1.00  0.00    -0.248 NA
ATOM     40  C   UNL A   1      38.770  34.055  32.001  1.00  0.00     0.031 C 
ATOM     41  C   UNL A   1      37.757  30.219  28.901  1.00  0.00     0.029 A 
ATOM     42  N   UNL A   1      39.713  30.184  29.983  1.00  0.00    -0.354 N 
ATOM     43  C   UNL A   1      40.898  33.435  32.560  1.00  0.00     0.074 A 
ATOM     44  C   UNL A   1      39.868  34.446  32.631  1.00  0.00     0.031 C 
ATOM     45  C   UNL A   1      38.401  29.098  28.535  1.00  0.00     0.029 A 
ATOM     46  C   UNL A   1      39.691  29.047  29.213  1.00  0.00     0.049 A 
ATOM     47  H   UNL A   1      40.473  30.429  30.561  1.00  0.00     0.167 HD
ATOM     48  C   UNL A   1      42.084  33.512  33.208  1.00  0.00     0.031 A 
ATOM     49  C   UNL A   1      40.607  28.073  29.070  1.00  0.00     0.031 A 
ATOM     50  C   UNL A   1      43.091  32.488  33.175  1.00  0.00     0.049 A 
ATOM     51  C   UNL A   1      41.897  28.159  29.835  1.00  0.00     0.074 A 
ATOM     52  C   UNL A   1      44.289  32.432  33.864  1.00  0.00     0.029 A 
ATOM     53  N   UNL A   1      43.010  31.332  32.415  1.00  0.00    -0.354 N 
ATOM     54  N   UNL A   1      42.307  29.093  30.657  1.00  0.00    -0.248 NA
ATOM     55  C   UNL A   1      42.844  27.048  29.660  1.00  0.00     0.031 C 
ATOM     56  C   UNL A   1      44.949  31.254  33.497  1.00  0.00     0.029 A 
ATOM     57  C   UNL A   1      44.143  30.561  32.608  1.00  0.00     0.049 A 
ATOM     58  H   UNL A   1      42.258  31.093  31.824  1.00  0.00     0.167 HD
ATOM     59  C   UNL A   1      43.548  28.672  31.118  1.00  0.00     0.074 A 
ATOM     60  C   UNL A   1      43.817  27.393  30.492  1.00  0.00     0.031 C 
ATOM     61  C   UNL A   1      44.389  29.290  31.980  1.00  0.00     0.031 A 
BRANCH  48  62
ATOM     62  C   UNL A   1      42.347  34.752  34.012  1.00  0.00    -0.014 A 
ATOM     63  C   UNL A   1      42.921  35.892  33.424  1.00  0.00     0.009 A 
ATOM     64  C   UNL A   1      42.008  34.788  35.373  1.00  0.00     0.009 A 
ATOM     65  C   UNL A   1      43.188  37.026  34.192  1.00  0.00     0.001 A 
ATOM     66  C   UNL A   1      42.251  35.933  36.133  1.00  0.00     0.001 A 
ATOM     67  C   UNL A   1      42.851  37.046  35.545  1.00  0.00     0.000 A 
ENDBRANCH  48  62
BRANCH  49  68
ATOM     68  C   UNL A   1      40.325  26.907  28.194  1.00  0.00    -0.014 A 
ATOM     69  C   UNL A   1      39.540  25.845  28.668  1.00  0.00     0.009 A 
ATOM     70  C   UNL A   1      40.838  26.846  26.891  1.00  0.00     0.009 A 
ATOM     71  C   UNL A   1      39.293  24.731  27.861  1.00  0.00     0.001 A 
ATOM     72  C   UNL A   1      40.572  25.740  26.078  1.00  0.00     0.001 A 
ATOM     73  C   UNL A   1      39.807  24.682  26.567  1.00  0.00     0.000 A 
ENDBRANCH  49  68
BRANCH  61  74
ATOM     74  C   UNL A   1      45.662  28.573  32.325  1.00  0.00    -0.014 A 
ATOM     75  C   UNL A   1      46.837  28.791  31.593  1.00  0.00     0.009 A 
ATOM     76  C   UNL A   1      45.690  27.699  33.422  1.00  0.00     0.009 A 
ATOM     77  C   UNL A   1      48.014  28.125  31.938  1.00  0.00     0.001 A 
ATOM     78  C   UNL A   1      46.874  27.051  33.779  1.00  0.00     0.001 A 
ATOM     79  C   UNL A   1      48.032  27.260  33.032  1.00  0.00     0.000 A 
ENDBRANCH  61  74
ENDBRANCH  35  36
ENDBRANCH  27  30
ENDBRANCH  25  26
ENDBRANCH  24  25
ENDBRANCH   1  24
TORSDOF 14
ENDMDL
