MODEL 1
REMARK VINA RESULT:     -12.0      0.000      0.000
REMARK SMILES C[NH+](C)CCc1nc(Nc2ccc(O)c(C(=O)NCCCCNC(=O)c3ccc(-c4c5nc(c(-c6ccccc6)c6ccc([nH]6)c(-c6ccccc6)c6nc(c(-c7ccccc7)c7ccc4[nH]7)C=C6)C=C5)cc3)c2)c2ccccc2n1
REMARK SMILES IDX 19 1 18 2 16 3 17 4 15 6 10 7 11 8 74 9 12 10 13 11 9 12
REMARK SMILES IDX 8 14 6 15 7 16 81 17 80 18 75 19 79 20 76 21 78 22 77 23
REMARK SMILES IDX 5 24 4 25 2 26 1 27 3 28 14 30 20 32 21 33 22 34 23 35 24 36
REMARK SMILES IDX 25 38 26 39 27 40 73 41 28 42 72 43 29 44 30 45 31 46 66 47
REMARK SMILES IDX 32 48 71 49 65 50 67 51 33 52 70 53 64 54 63 55 34 57 56 58
REMARK SMILES IDX 41 59 55 60 42 61 45 62 54 63 68 64 43 65 44 66 53 68 69 69
REMARK SMILES IDX 46 70 35 71 36 72 40 73 37 74 39 75 38 76 57 77 58 78 62 79
REMARK SMILES IDX 59 80 61 81 60 82 47 83 48 84 52 85 49 86 51 87 50 88
REMARK H PARENT 18 5 9 13 2 29 14 31 23 37 67 56 45 67
REMARK Flexibility Score: inf
ROOT
ATOM      1  C   UNL A   1      31.696  28.876  24.318  1.00  0.00     0.116 C 
ENDROOT
BRANCH   1   2
ATOM      2  N   UNL A   1      30.508  28.066  24.194  1.00  0.00    -0.352 N 
ATOM      3  C   UNL A   1      30.293  26.832  23.641  1.00  0.00     0.255 C 
ATOM      4  O   UNL A   1      29.110  26.479  23.580  1.00  0.00    -0.269 OA
ATOM      5  H   UNL A   1      29.700  28.478  24.578  1.00  0.00     0.163 HD
BRANCH   3   6
ATOM      6  C   UNL A   1      31.349  25.863  23.201  1.00  0.00     0.083 A 
ATOM      7  C   UNL A   1      32.763  24.029  24.049  1.00  0.00     0.041 A 
ATOM      8  C   UNL A   1      33.361  23.919  22.797  1.00  0.00     0.030 A 
ATOM      9  C   UNL A   1      31.779  25.006  24.237  1.00  0.00     0.043 A 
ATOM     10  C   UNL A   1      32.938  24.722  21.745  1.00  0.00     0.049 A 
ATOM     11  C   UNL A   1      31.925  25.671  21.939  1.00  0.00     0.128 A 
BRANCH   7  12
ATOM     12  N   UNL A   1      33.178  23.245  25.136  1.00  0.00    -0.340 N 
ATOM     13  H   UNL A   1      32.786  23.463  26.012  1.00  0.00     0.168 HD
BRANCH  12  14
ATOM     14  C   UNL A   1      34.097  22.176  25.103  1.00  0.00     0.142 A 
ATOM     15  C   UNL A   1      34.526  19.962  24.648  1.00  0.00     0.137 A 
ATOM     16  N   UNL A   1      33.635  20.951  24.786  1.00  0.00    -0.215 NA
ATOM     17  N   UNL A   1      35.849  20.131  24.745  1.00  0.00    -0.233 NA
ATOM     18  C   UNL A   1      36.295  21.320  25.159  1.00  0.00     0.076 A 
ATOM     19  C   UNL A   1      35.449  22.408  25.390  1.00  0.00     0.043 A 
ATOM     20  C   UNL A   1      37.653  21.473  25.402  1.00  0.00     0.029 A 
ATOM     21  C   UNL A   1      35.986  23.621  25.894  1.00  0.00     0.014 A 
ATOM     22  C   UNL A   1      38.185  22.663  25.902  1.00  0.00     0.002 A 
ATOM     23  C   UNL A   1      37.347  23.739  26.158  1.00  0.00     0.001 A 
BRANCH  15  24
ATOM     24  C   UNL A   1      33.962  18.599  24.356  1.00  0.00     0.138 C 
BRANCH  24  25
ATOM     25  C   UNL A   1      33.128  17.925  25.460  1.00  0.00     0.269 C 
BRANCH  25  26
ATOM     26  N   UNL A   1      33.476  16.583  25.963  1.00  0.00    -0.339 N 
ATOM     27  C   UNL A   1      32.381  15.625  25.863  1.00  0.00     0.332 C 
ATOM     28  C   UNL A   1      34.698  16.035  25.385  1.00  0.00     0.332 C 
ATOM     29  H   UNL A   1      33.662  16.734  26.955  1.00  0.00     0.347 HD
ENDBRANCH  25  26
ENDBRANCH  24  25
ENDBRANCH  15  24
ENDBRANCH  12  14
ENDBRANCH   7  12
BRANCH  11  30
ATOM     30  O   UNL A   1      31.516  26.340  20.825  1.00  0.00    -0.507 OA
ATOM     31  H   UNL A   1      30.669  26.170  20.462  1.00  0.00     0.293 HD
ENDBRANCH  11  30
ENDBRANCH   3   6
ENDBRANCH   1   2
BRANCH   1  32
ATOM     32  C   UNL A   1      31.732  29.536  25.700  1.00  0.00     0.023 C 
BRANCH  32  33
ATOM     33  C   UNL A   1      32.292  28.652  26.812  1.00  0.00     0.023 C 
BRANCH  33  34
ATOM     34  C   UNL A   1      33.661  29.079  27.313  1.00  0.00     0.116 C 
BRANCH  34  35
ATOM     35  N   UNL A   1      33.666  30.393  27.939  1.00  0.00    -0.352 N 
ATOM     36  C   UNL A   1      34.701  30.993  28.617  1.00  0.00     0.251 C 
ATOM     37  H   UNL A   1      32.832  30.912  27.870  1.00  0.00     0.163 HD
ATOM     38  O   UNL A   1      34.564  32.075  29.168  1.00  0.00    -0.269 OA
BRANCH  36  39
ATOM     39  C   UNL A   1      35.978  30.261  28.705  1.00  0.00     0.039 A 
ATOM     40  C   UNL A   1      36.852  30.298  27.617  1.00  0.00     0.014 A 
ATOM     41  C   UNL A   1      36.344  29.643  29.904  1.00  0.00     0.014 A 
ATOM     42  C   UNL A   1      38.136  29.773  27.755  1.00  0.00     0.010 A 
ATOM     43  C   UNL A   1      37.644  29.183  30.060  1.00  0.00     0.010 A 
ATOM     44  C   UNL A   1      38.552  29.248  28.990  1.00  0.00    -0.014 A 
BRANCH  44  45
ATOM     45  C   UNL A   1      39.926  28.737  29.197  1.00  0.00     0.031 A 
ATOM     46  C   UNL A   1      40.982  29.669  29.720  1.00  0.00     0.074 A 
ATOM     47  C   UNL A   1      40.245  27.481  28.831  1.00  0.00     0.049 A 
ATOM     48  N   UNL A   1      42.274  29.486  29.810  1.00  0.00    -0.248 NA
ATOM     49  C   UNL A   1      40.524  30.993  30.173  1.00  0.00     0.031 C 
ATOM     50  C   UNL A   1      39.315  26.488  28.287  1.00  0.00     0.029 A 
ATOM     51  N   UNL A   1      41.454  26.833  28.842  1.00  0.00    -0.354 N 
ATOM     52  C   UNL A   1      42.784  30.680  30.302  1.00  0.00     0.074 A 
ATOM     53  C   UNL A   1      41.672  31.592  30.454  1.00  0.00     0.031 C 
ATOM     54  C   UNL A   1      39.987  25.354  28.026  1.00  0.00     0.029 A 
ATOM     55  C   UNL A   1      41.397  25.554  28.342  1.00  0.00     0.049 A 
ATOM     56  H   UNL A   1      42.283  27.243  29.178  1.00  0.00     0.167 HD
ATOM     57  C   UNL A   1      44.064  30.985  30.616  1.00  0.00     0.031 A 
ATOM     58  C   UNL A   1      42.378  24.653  28.144  1.00  0.00     0.031 A 
ATOM     59  C   UNL A   1      45.166  30.073  30.485  1.00  0.00     0.049 A 
ATOM     60  C   UNL A   1      43.793  25.017  28.502  1.00  0.00     0.074 A 
ATOM     61  C   UNL A   1      46.499  30.280  30.794  1.00  0.00     0.029 A 
ATOM     62  N   UNL A   1      45.057  28.773  30.019  1.00  0.00    -0.354 N 
ATOM     63  N   UNL A   1      44.258  26.144  28.986  1.00  0.00    -0.248 NA
ATOM     64  C   UNL A   1      44.817  23.983  28.292  1.00  0.00     0.031 C 
ATOM     65  C   UNL A   1      47.202  29.108  30.494  1.00  0.00     0.029 A 
ATOM     66  C   UNL A   1      46.298  28.163  30.036  1.00  0.00     0.049 A 
ATOM     67  H   UNL A   1      44.222  28.347  29.719  1.00  0.00     0.167 HD
ATOM     68  C   UNL A   1      45.620  25.942  29.171  1.00  0.00     0.074 A 
ATOM     69  C   UNL A   1      45.905  24.584  28.753  1.00  0.00     0.031 C 
ATOM     70  C   UNL A   1      46.551  26.803  29.642  1.00  0.00     0.031 A 
BRANCH  57  71
ATOM     71  C   UNL A   1      44.333  32.365  31.139  1.00  0.00    -0.014 A 
ATOM     72  C   UNL A   1      44.598  33.429  30.261  1.00  0.00     0.009 A 
ATOM     73  C   UNL A   1      44.296  32.614  32.519  1.00  0.00     0.009 A 
ATOM     74  C   UNL A   1      44.851  34.708  30.757  1.00  0.00     0.001 A 
ATOM     75  C   UNL A   1      44.524  33.900  33.011  1.00  0.00     0.001 A 
ATOM     76  C   UNL A   1      44.809  34.943  32.132  1.00  0.00     0.000 A 
ENDBRANCH  57  71
BRANCH  58  77
ATOM     77  C   UNL A   1      42.067  23.315  27.579  1.00  0.00    -0.014 A 
ATOM     78  C   UNL A   1      42.258  23.058  26.212  1.00  0.00     0.009 A 
ATOM     79  C   UNL A   1      41.550  22.297  28.395  1.00  0.00     0.009 A 
ATOM     80  C   UNL A   1      41.905  21.821  25.668  1.00  0.00     0.001 A 
ATOM     81  C   UNL A   1      41.223  21.052  27.853  1.00  0.00     0.001 A 
ATOM     82  C   UNL A   1      41.390  20.819  26.488  1.00  0.00     0.000 A 
ENDBRANCH  58  77
BRANCH  70  83
ATOM     83  C   UNL A   1      47.952  26.288  29.792  1.00  0.00    -0.014 A 
ATOM     84  C   UNL A   1      48.420  25.795  31.018  1.00  0.00     0.009 A 
ATOM     85  C   UNL A   1      48.793  26.241  28.669  1.00  0.00     0.009 A 
ATOM     86  C   UNL A   1      49.715  25.283  31.122  1.00  0.00     0.001 A 
ATOM     87  C   UNL A   1      50.078  25.709  28.770  1.00  0.00     0.001 A 
ATOM     88  C   UNL A   1      50.540  25.235  29.997  1.00  0.00     0.000 A 
ENDBRANCH  70  83
ENDBRANCH  44  45
ENDBRANCH  36  39
ENDBRANCH  34  35
ENDBRANCH  33  34
ENDBRANCH  32  33
ENDBRANCH   1  32
TORSDOF 17
ENDMDL
MODEL 2
REMARK VINA RESULT:     -11.5      2.433      8.180
REMARK SMILES C[NH+](C)CCc1nc(Nc2ccc(O)c(C(=O)NCCCCNC(=O)c3ccc(-c4c5nc(c(-c6ccccc6)c6ccc([nH]6)c(-c6ccccc6)c6nc(c(-c7ccccc7)c7ccc4[nH]7)C=C6)C=C5)cc3)c2)c2ccccc2n1
REMARK SMILES IDX 19 1 18 2 16 3 17 4 15 6 10 7 11 8 74 9 12 10 13 11 9 12
REMARK SMILES IDX 8 14 6 15 7 16 81 17 80 18 75 19 79 20 76 21 78 22 77 23
REMARK SMILES IDX 5 24 4 25 2 26 1 27 3 28 14 30 20 32 21 33 22 34 23 35 24 36
REMARK SMILES IDX 25 38 26 39 27 40 73 41 28 42 72 43 29 44 30 45 31 46 66 47
REMARK SMILES IDX 32 48 71 49 65 50 67 51 33 52 70 53 64 54 63 55 34 57 56 58
REMARK SMILES IDX 41 59 55 60 42 61 45 62 54 63 68 64 43 65 44 66 53 68 69 69
REMARK SMILES IDX 46 70 35 71 36 72 40 73 37 74 39 75 38 76 57 77 58 78 62 79
REMARK SMILES IDX 59 80 61 81 60 82 47 83 48 84 52 85 49 86 51 87 50 88
REMARK H PARENT 18 5 9 13 2 29 14 31 23 37 67 56 45 67
REMARK Flexibility Score: inf
ROOT
ATOM      1  C   UNL A   1      36.254  23.249  25.451  1.00  0.00     0.116 C 
ENDROOT
BRANCH   1   2
ATOM      2  N   UNL A   1      35.731  23.561  24.143  1.00  0.00    -0.352 N 
ATOM      3  C   UNL A   1      34.474  23.460  23.611  1.00  0.00     0.255 C 
ATOM      4  O   UNL A   1      34.393  23.687  22.399  1.00  0.00    -0.269 OA
ATOM      5  H   UNL A   1      36.403  23.912  23.516  1.00  0.00     0.163 HD
BRANCH   3   6
ATOM      6  C   UNL A   1      33.209  23.194  24.371  1.00  0.00     0.083 A 
ATOM      7  C   UNL A   1      31.377  24.358  25.543  1.00  0.00     0.041 A 
ATOM      8  C   UNL A   1      30.818  23.128  25.879  1.00  0.00     0.030 A 
ATOM      9  C   UNL A   1      32.568  24.373  24.810  1.00  0.00     0.043 A 
ATOM     10  C   UNL A   1      31.403  21.948  25.435  1.00  0.00     0.049 A 
ATOM     11  C   UNL A   1      32.576  21.980  24.669  1.00  0.00     0.128 A 
BRANCH   7  12
ATOM     12  N   UNL A   1      30.822  25.566  25.989  1.00  0.00    -0.340 N 
ATOM     13  H   UNL A   1      30.313  25.533  26.830  1.00  0.00     0.168 HD
BRANCH  12  14
ATOM     14  C   UNL A   1      30.920  26.823  25.357  1.00  0.00     0.142 A 
ATOM     15  C   UNL A   1      30.148  28.292  23.765  1.00  0.00     0.137 A 
ATOM     16  N   UNL A   1      30.131  27.062  24.293  1.00  0.00    -0.215 NA
ATOM     17  N   UNL A   1      30.852  29.311  24.269  1.00  0.00    -0.233 NA
ATOM     18  C   UNL A   1      31.709  29.044  25.259  1.00  0.00     0.076 A 
ATOM     19  C   UNL A   1      31.818  27.781  25.847  1.00  0.00     0.043 A 
ATOM     20  C   UNL A   1      32.550  30.057  25.700  1.00  0.00     0.029 A 
ATOM     21  C   UNL A   1      32.798  27.555  26.848  1.00  0.00     0.014 A 
ATOM     22  C   UNL A   1      33.520  29.837  26.681  1.00  0.00     0.002 A 
ATOM     23  C   UNL A   1      33.651  28.579  27.251  1.00  0.00     0.001 A 
BRANCH  15  24
ATOM     24  C   UNL A   1      29.300  28.498  22.540  1.00  0.00     0.138 C 
BRANCH  24  25
ATOM     25  C   UNL A   1      27.851  28.973  22.751  1.00  0.00     0.269 C 
BRANCH  25  26
ATOM     26  N   UNL A   1      27.445  30.349  22.410  1.00  0.00    -0.339 N 
ATOM     27  C   UNL A   1      27.652  31.300  23.496  1.00  0.00     0.332 C 
ATOM     28  C   UNL A   1      28.029  30.846  21.169  1.00  0.00     0.332 C 
ATOM     29  H   UNL A   1      26.440  30.275  22.253  1.00  0.00     0.347 HD
ENDBRANCH  25  26
ENDBRANCH  24  25
ENDBRANCH  15  24
ENDBRANCH  12  14
ENDBRANCH   7  12
BRANCH  11  30
ATOM     30  O   UNL A   1      33.015  20.778  24.203  1.00  0.00    -0.507 OA
ATOM     31  H   UNL A   1      32.590  20.376  23.471  1.00  0.00     0.293 HD
ENDBRANCH  11  30
ENDBRANCH   3   6
ENDBRANCH   1   2
BRANCH   1  32
ATOM     32  C   UNL A   1      36.342  21.729  25.626  1.00  0.00     0.023 C 
BRANCH  32  33
ATOM     33  C   UNL A   1      37.557  21.082  24.967  1.00  0.00     0.023 C 
BRANCH  33  34
ATOM     34  C   UNL A   1      38.839  21.204  25.772  1.00  0.00     0.116 C 
BRANCH  34  35
ATOM     35  N   UNL A   1      39.656  20.000  25.747  1.00  0.00    -0.352 N 
ATOM     36  C   UNL A   1      40.977  19.876  26.111  1.00  0.00     0.251 C 
ATOM     37  H   UNL A   1      39.213  19.179  25.432  1.00  0.00     0.163 HD
ATOM     38  O   UNL A   1      41.582  18.825  25.976  1.00  0.00    -0.269 OA
BRANCH  36  39
ATOM     39  C   UNL A   1      41.660  21.078  26.626  1.00  0.00     0.039 A 
ATOM     40  C   UNL A   1      42.150  22.016  25.715  1.00  0.00     0.014 A 
ATOM     41  C   UNL A   1      41.704  21.316  28.002  1.00  0.00     0.014 A 
ATOM     42  C   UNL A   1      42.624  23.239  26.186  1.00  0.00     0.010 A 
ATOM     43  C   UNL A   1      42.114  22.560  28.462  1.00  0.00     0.010 A 
ATOM     44  C   UNL A   1      42.573  23.533  27.558  1.00  0.00    -0.014 A 
BRANCH  44  45
ATOM     45  C   UNL A   1      43.010  24.843  28.093  1.00  0.00     0.031 A 
ATOM     46  C   UNL A   1      41.976  25.889  28.399  1.00  0.00     0.074 A 
ATOM     47  C   UNL A   1      44.321  25.124  28.212  1.00  0.00     0.049 A 
ATOM     48  N   UNL A   1      42.142  27.150  28.703  1.00  0.00    -0.248 NA
ATOM     49  C   UNL A   1      40.568  25.466  28.320  1.00  0.00     0.031 C 
ATOM     50  C   UNL A   1      45.421  24.201  27.923  1.00  0.00     0.029 A 
ATOM     51  N   UNL A   1      44.950  26.283  28.589  1.00  0.00    -0.354 N 
ATOM     52  C   UNL A   1      40.862  27.675  28.824  1.00  0.00     0.074 A 
ATOM     53  C   UNL A   1      39.932  26.610  28.523  1.00  0.00     0.031 C 
ATOM     54  C   UNL A   1      46.589  24.828  28.143  1.00  0.00     0.029 A 
ATOM     55  C   UNL A   1      46.321  26.204  28.545  1.00  0.00     0.049 A 
ATOM     56  H   UNL A   1      44.466  27.094  28.867  1.00  0.00     0.167 HD
ATOM     57  C   UNL A   1      40.494  28.929  29.173  1.00  0.00     0.031 A 
ATOM     58  C   UNL A   1      47.255  27.145  28.783  1.00  0.00     0.031 A 
ATOM     59  C   UNL A   1      41.417  29.982  29.493  1.00  0.00     0.049 A 
ATOM     60  C   UNL A   1      46.818  28.532  29.170  1.00  0.00     0.074 A 
ATOM     61  C   UNL A   1      41.143  31.283  29.876  1.00  0.00     0.029 A 
ATOM     62  N   UNL A   1      42.796  29.846  29.481  1.00  0.00    -0.354 N 
ATOM     63  N   UNL A   1      45.603  29.008  29.301  1.00  0.00    -0.248 NA
ATOM     64  C   UNL A   1      47.882  29.508  29.447  1.00  0.00     0.031 C 
ATOM     65  C   UNL A   1      42.361  31.942  30.076  1.00  0.00     0.029 A 
ATOM     66  C   UNL A   1      43.388  31.039  29.855  1.00  0.00     0.049 A 
ATOM     67  H   UNL A   1      43.281  29.025  29.241  1.00  0.00     0.167 HD
ATOM     68  C   UNL A   1      45.757  30.327  29.708  1.00  0.00     0.074 A 
ATOM     69  C   UNL A   1      47.181  30.574  29.810  1.00  0.00     0.031 C 
ATOM     70  C   UNL A   1      44.805  31.252  29.975  1.00  0.00     0.031 A 
BRANCH  57  71
ATOM     71  C   UNL A   1      39.023  29.222  29.231  1.00  0.00    -0.014 A 
ATOM     72  C   UNL A   1      38.303  29.059  30.425  1.00  0.00     0.009 A 
ATOM     73  C   UNL A   1      38.355  29.689  28.090  1.00  0.00     0.009 A 
ATOM     74  C   UNL A   1      36.935  29.329  30.468  1.00  0.00     0.001 A 
ATOM     75  C   UNL A   1      36.991  29.983  28.142  1.00  0.00     0.001 A 
ATOM     76  C   UNL A   1      36.281  29.795  29.327  1.00  0.00     0.000 A 
ENDBRANCH  57  71
BRANCH  58  77
ATOM     77  C   UNL A   1      48.699  26.818  28.667  1.00  0.00    -0.014 A 
ATOM     78  C   UNL A   1      49.359  26.941  27.434  1.00  0.00     0.009 A 
ATOM     79  C   UNL A   1      49.419  26.352  29.778  1.00  0.00     0.009 A 
ATOM     80  C   UNL A   1      50.700  26.572  27.309  1.00  0.00     0.001 A 
ATOM     81  C   UNL A   1      50.767  26.009  29.655  1.00  0.00     0.001 A 
ATOM     82  C   UNL A   1      51.403  26.109  28.419  1.00  0.00     0.000 A 
ENDBRANCH  58  77
BRANCH  70  83
ATOM     83  C   UNL A   1      45.265  32.594  30.460  1.00  0.00    -0.014 A 
ATOM     84  C   UNL A   1      45.475  32.844  31.824  1.00  0.00     0.009 A 
ATOM     85  C   UNL A   1      45.552  33.603  29.527  1.00  0.00     0.009 A 
ATOM     86  C   UNL A   1      45.942  34.089  32.247  1.00  0.00     0.001 A 
ATOM     87  C   UNL A   1      46.041  34.839  29.951  1.00  0.00     0.001 A 
ATOM     88  C   UNL A   1      46.230  35.082  31.310  1.00  0.00     0.000 A 
ENDBRANCH  70  83
ENDBRANCH  44  45
ENDBRANCH  36  39
ENDBRANCH  34  35
ENDBRANCH  33  34
ENDBRANCH  32  33
ENDBRANCH   1  32
TORSDOF 17
ENDMDL
MODEL 3
REMARK VINA RESULT:     -11.5      2.417      8.307
REMARK SMILES C[NH+](C)CCc1nc(Nc2ccc(O)c(C(=O)NCCCCNC(=O)c3ccc(-c4c5nc(c(-c6ccccc6)c6ccc([nH]6)c(-c6ccccc6)c6nc(c(-c7ccccc7)c7ccc4[nH]7)C=C6)C=C5)cc3)c2)c2ccccc2n1
REMARK SMILES IDX 19 1 18 2 16 3 17 4 15 6 10 7 11 8 74 9 12 10 13 11 9 12
REMARK SMILES IDX 8 14 6 15 7 16 81 17 80 18 75 19 79 20 76 21 78 22 77 23
REMARK SMILES IDX 5 24 4 25 2 26 1 27 3 28 14 30 20 32 21 33 22 34 23 35 24 36
REMARK SMILES IDX 25 38 26 39 27 40 73 41 28 42 72 43 29 44 30 45 31 46 66 47
REMARK SMILES IDX 32 48 71 49 65 50 67 51 33 52 70 53 64 54 63 55 34 57 56 58
REMARK SMILES IDX 41 59 55 60 42 61 45 62 54 63 68 64 43 65 44 66 53 68 69 69
REMARK SMILES IDX 46 70 35 71 36 72 40 73 37 74 39 75 38 76 57 77 58 78 62 79
REMARK SMILES IDX 59 80 61 81 60 82 47 83 48 84 52 85 49 86 51 87 50 88
REMARK H PARENT 18 5 9 13 2 29 14 31 23 37 67 56 45 67
REMARK Flexibility Score: inf
ROOT
ATOM      1  C   UNL A   1      36.693  22.637  25.331  1.00  0.00     0.116 C 
ENDROOT
BRANCH   1   2
ATOM      2  N   UNL A   1      35.925  22.055  26.405  1.00  0.00    -0.352 N 
ATOM      3  C   UNL A   1      34.582  22.043  26.670  1.00  0.00     0.255 C 
ATOM      4  O   UNL A   1      34.263  21.564  27.764  1.00  0.00    -0.269 OA
ATOM      5  H   UNL A   1      36.468  21.578  27.073  1.00  0.00     0.163 HD
BRANCH   3   6
ATOM      6  C   UNL A   1      33.490  22.466  25.733  1.00  0.00     0.083 A 
ATOM      7  C   UNL A   1      31.776  24.213  25.424  1.00  0.00     0.041 A 
ATOM      8  C   UNL A   1      31.342  23.573  24.267  1.00  0.00     0.030 A 
ATOM      9  C   UNL A   1      32.831  23.644  26.147  1.00  0.00     0.043 A 
ATOM     10  C   UNL A   1      31.990  22.431  23.811  1.00  0.00     0.049 A 
ATOM     11  C   UNL A   1      33.069  21.894  24.526  1.00  0.00     0.128 A 
BRANCH   7  12
ATOM     12  N   UNL A   1      31.135  25.356  25.920  1.00  0.00    -0.340 N 
ATOM     13  H   UNL A   1      30.667  25.261  26.781  1.00  0.00     0.168 HD
BRANCH  12  14
ATOM     14  C   UNL A   1      31.092  26.629  25.315  1.00  0.00     0.142 A 
ATOM     15  C   UNL A   1      30.121  28.054  23.792  1.00  0.00     0.137 A 
ATOM     16  N   UNL A   1      30.238  26.817  24.291  1.00  0.00    -0.215 NA
ATOM     17  N   UNL A   1      30.754  29.122  24.289  1.00  0.00    -0.233 NA
ATOM     18  C   UNL A   1      31.675  28.914  25.234  1.00  0.00     0.076 A 
ATOM     19  C   UNL A   1      31.922  27.655  25.788  1.00  0.00     0.043 A 
ATOM     20  C   UNL A   1      32.442  29.989  25.662  1.00  0.00     0.029 A 
ATOM     21  C   UNL A   1      32.962  27.498  26.740  1.00  0.00     0.014 A 
ATOM     22  C   UNL A   1      33.470  29.838  26.596  1.00  0.00     0.002 A 
ATOM     23  C   UNL A   1      33.738  28.586  27.130  1.00  0.00     0.001 A 
BRANCH  15  24
ATOM     24  C   UNL A   1      29.204  28.207  22.609  1.00  0.00     0.138 C 
BRANCH  24  25
ATOM     25  C   UNL A   1      27.810  28.807  22.866  1.00  0.00     0.269 C 
BRANCH  25  26
ATOM     26  N   UNL A   1      27.485  30.181  22.440  1.00  0.00    -0.339 N 
ATOM     27  C   UNL A   1      27.775  31.186  23.457  1.00  0.00     0.332 C 
ATOM     28  C   UNL A   1      28.074  30.557  21.159  1.00  0.00     0.332 C 
ATOM     29  H   UNL A   1      26.474  30.162  22.305  1.00  0.00     0.347 HD
ENDBRANCH  25  26
ENDBRANCH  24  25
ENDBRANCH  15  24
ENDBRANCH  12  14
ENDBRANCH   7  12
BRANCH  11  30
ATOM     30  O   UNL A   1      33.696  20.832  23.947  1.00  0.00    -0.507 OA
ATOM     31  H   UNL A   1      33.981  20.886  23.055  1.00  0.00     0.293 HD
ENDBRANCH  11  30
ENDBRANCH   3   6
ENDBRANCH   1   2
BRANCH   1  32
ATOM     32  C   UNL A   1      37.161  21.536  24.373  1.00  0.00     0.023 C 
BRANCH  32  33
ATOM     33  C   UNL A   1      37.783  20.321  25.055  1.00  0.00     0.023 C 
BRANCH  33  34
ATOM     34  C   UNL A   1      39.062  20.623  25.816  1.00  0.00     0.116 C 
BRANCH  34  35
ATOM     35  N   UNL A   1      40.022  19.529  25.793  1.00  0.00    -0.352 N 
ATOM     36  C   UNL A   1      41.356  19.579  26.125  1.00  0.00     0.251 C 
ATOM     37  H   UNL A   1      39.678  18.652  25.506  1.00  0.00     0.163 HD
ATOM     38  O   UNL A   1      42.084  18.607  25.995  1.00  0.00    -0.269 OA
BRANCH  36  39
ATOM     39  C   UNL A   1      41.896  20.867  26.598  1.00  0.00     0.039 A 
ATOM     40  C   UNL A   1      42.369  21.785  25.658  1.00  0.00     0.014 A 
ATOM     41  C   UNL A   1      41.821  21.196  27.954  1.00  0.00     0.014 A 
ATOM     42  C   UNL A   1      42.703  23.073  26.072  1.00  0.00     0.010 A 
ATOM     43  C   UNL A   1      42.090  22.498  28.352  1.00  0.00     0.010 A 
ATOM     44  C   UNL A   1      42.528  23.448  27.414  1.00  0.00    -0.014 A 
BRANCH  44  45
ATOM     45  C   UNL A   1      42.813  24.824  27.884  1.00  0.00     0.031 A 
ATOM     46  C   UNL A   1      44.219  25.190  28.265  1.00  0.00     0.074 A 
ATOM     47  C   UNL A   1      41.808  25.703  28.055  1.00  0.00     0.049 A 
ATOM     48  N   UNL A   1      44.659  26.268  28.861  1.00  0.00    -0.248 NA
ATOM     49  C   UNL A   1      45.262  24.196  27.964  1.00  0.00     0.031 C 
ATOM     50  C   UNL A   1      40.397  25.459  27.745  1.00  0.00     0.029 A 
ATOM     51  N   UNL A   1      41.821  26.980  28.558  1.00  0.00    -0.354 N 
ATOM     52  C   UNL A   1      46.022  26.069  29.029  1.00  0.00     0.074 A 
ATOM     53  C   UNL A   1      46.331  24.755  28.511  1.00  0.00     0.031 C 
ATOM     54  C   UNL A   1      39.683  26.554  28.056  1.00  0.00     0.029 A 
ATOM     55  C   UNL A   1      40.576  27.558  28.626  1.00  0.00     0.049 A 
ATOM     56  H   UNL A   1      42.644  27.439  28.843  1.00  0.00     0.167 HD
ATOM     57  C   UNL A   1      46.940  26.914  29.554  1.00  0.00     0.031 A 
ATOM     58  C   UNL A   1      40.198  28.755  29.112  1.00  0.00     0.031 A 
ATOM     59  C   UNL A   1      46.637  28.227  30.049  1.00  0.00     0.049 A 
ATOM     60  C   UNL A   1      41.238  29.675  29.689  1.00  0.00     0.074 A 
ATOM     61  C   UNL A   1      47.500  29.168  30.583  1.00  0.00     0.029 A 
ATOM     62  N   UNL A   1      45.372  28.791  30.056  1.00  0.00    -0.354 N 
ATOM     63  N   UNL A   1      42.529  29.482  29.823  1.00  0.00    -0.248 NA
ATOM     64  C   UNL A   1      40.771  30.982  30.176  1.00  0.00     0.031 C 
ATOM     65  C   UNL A   1      46.751  30.296  30.933  1.00  0.00     0.029 A 
ATOM     66  C   UNL A   1      45.431  30.069  30.580  1.00  0.00     0.049 A 
ATOM     67  H   UNL A   1      44.554  28.347  29.736  1.00  0.00     0.167 HD
ATOM     68  C   UNL A   1      43.031  30.652  30.376  1.00  0.00     0.074 A 
ATOM     69  C   UNL A   1      41.909  31.553  30.547  1.00  0.00     0.031 C 
ATOM     70  C   UNL A   1      44.306  30.955  30.714  1.00  0.00     0.031 A 
BRANCH  57  71
ATOM     71  C   UNL A   1      48.361  26.435  29.608  1.00  0.00    -0.014 A 
ATOM     72  C   UNL A   1      49.241  26.669  28.540  1.00  0.00     0.009 A 
ATOM     73  C   UNL A   1      48.835  25.768  30.748  1.00  0.00     0.009 A 
ATOM     74  C   UNL A   1      50.560  26.215  28.598  1.00  0.00     0.001 A 
ATOM     75  C   UNL A   1      50.161  25.338  30.814  1.00  0.00     0.001 A 
ATOM     76  C   UNL A   1      51.019  25.555  29.737  1.00  0.00     0.000 A 
ENDBRANCH  57  71
BRANCH  58  77
ATOM     77  C   UNL A   1      38.770  29.164  29.077  1.00  0.00    -0.014 A 
ATOM     78  C   UNL A   1      38.245  29.815  27.950  1.00  0.00     0.009 A 
ATOM     79  C   UNL A   1      37.932  28.933  30.180  1.00  0.00     0.009 A 
ATOM     80  C   UNL A   1      36.919  30.257  27.941  1.00  0.00     0.001 A 
ATOM     81  C   UNL A   1      36.601  29.353  30.157  1.00  0.00     0.001 A 
ATOM     82  C   UNL A   1      36.099  30.024  29.043  1.00  0.00     0.000 A 
ENDBRANCH  58  77
BRANCH  70  83
ATOM     83  C   UNL A   1      44.570  32.334  31.243  1.00  0.00    -0.014 A 
ATOM     84  C   UNL A   1      44.547  32.602  32.620  1.00  0.00     0.009 A 
ATOM     85  C   UNL A   1      44.907  33.362  30.350  1.00  0.00     0.009 A 
ATOM     86  C   UNL A   1      44.837  33.884  33.090  1.00  0.00     0.001 A 
ATOM     87  C   UNL A   1      45.218  34.636  30.825  1.00  0.00     0.001 A 
ATOM     88  C   UNL A   1      45.177  34.898  32.193  1.00  0.00     0.000 A 
ENDBRANCH  70  83
ENDBRANCH  44  45
ENDBRANCH  36  39
ENDBRANCH  34  35
ENDBRANCH  33  34
ENDBRANCH  32  33
ENDBRANCH   1  32
TORSDOF 17
ENDMDL
