MODEL 1
REMARK VINA RESULT:     -13.8      0.000      0.000
REMARK SMILES O=C1C[C@H](c2cn[nH]c2C(=O)NCCCCNC(=O)c2ccc(-c3c4nc(c(-c5ccccc5)c5ccc([nH]5)c(-c5ccccc5)c5nc(c(-c6ccccc6)c6ccc3[nH]6)C=C5)C=C4)cc2)c2c(-c3cccs3)n[nH]c2N1
REMARK SMILES IDX 14 1 13 2 12 3 10 4 11 5 9 7 5 8 6 9 7 10 8 11 4 13 1 14
REMARK SMILES IDX 2 15 3 16 78 17 77 18 68 20 76 21 69 22 75 23 70 25 71 26
REMARK SMILES IDX 74 27 72 28 73 29 15 30 16 31 17 32 18 33 19 35 20 36 21 37
REMARK SMILES IDX 67 38 22 39 66 40 23 41 24 42 25 43 60 44 26 45 65 46 59 47
REMARK SMILES IDX 61 48 27 49 64 50 58 51 57 52 28 54 50 55 35 56 49 57 36 58
REMARK SMILES IDX 39 59 48 60 62 61 37 62 38 63 47 65 63 66 40 67 29 68 30 69
REMARK SMILES IDX 34 70 31 71 33 72 32 73 51 74 52 75 56 76 53 77 55 78 54 79
REMARK SMILES IDX 41 80 42 81 46 82 43 83 45 84 44 85
REMARK H PARENT 12 6 8 12 78 19 76 24 17 34 61 53 39 64
REMARK Flexibility Score: inf
ROOT
ATOM      1  C   UNL A   1      34.813  30.302  27.275  1.00  0.00     0.023 C 
ENDROOT
BRANCH   1   2
ATOM      2  C   UNL A   1      34.117  28.731  26.818  1.00  0.00     0.116 C 
BRANCH   2   3
ATOM      3  N   UNL A   1      32.932  28.269  25.065  1.00  0.00    -0.351 N 
ATOM      4  C   UNL A   1      32.513  27.541  23.916  1.00  0.00     0.269 C 
ATOM      5  O   UNL A   1      31.576  28.037  23.285  1.00  0.00    -0.268 OA
ATOM      6  H   UNL A   1      32.294  29.020  25.059  1.00  0.00     0.163 HD
BRANCH   4   7
ATOM      7  C   UNL A   1      33.062  26.264  23.521  1.00  0.00     0.126 A 
ATOM      8  C   UNL A   1      33.335  25.110  24.238  1.00  0.00     0.011 A 
ATOM      9  C   UNL A   1      33.755  24.175  23.274  1.00  0.00     0.140 A 
ATOM     10  N   UNL A   1      33.785  24.694  22.045  1.00  0.00    -0.183 NA
ATOM     11  N   UNL A   1      33.362  25.959  22.222  1.00  0.00    -0.273 N 
ATOM     12  H   UNL A   1      33.276  26.605  21.485  1.00  0.00     0.190 HD
BRANCH   8  13
ATOM     13  C   UNL A   1      33.156  24.959  25.705  1.00  0.00     0.069 C 
ATOM     14  O   UNL A   1      29.435  25.296  26.506  1.00  0.00    -0.275 OA
ATOM     15  C   UNL A   1      30.476  24.778  26.086  1.00  0.00     0.226 C 
ATOM     16  C   UNL A   1      31.817  25.557  26.201  1.00  0.00     0.114 C 
ATOM     17  N   UNL A   1      30.400  23.490  25.612  1.00  0.00    -0.311 N 
ATOM     18  C   UNL A   1      31.549  22.759  25.616  1.00  0.00     0.132 A 
ATOM     19  H   UNL A   1      29.552  23.112  25.285  1.00  0.00     0.171 HD
ATOM     20  C   UNL A   1      33.111  23.512  25.926  1.00  0.00     0.031 A 
ATOM     21  N   UNL A   1      31.811  20.928  25.499  1.00  0.00    -0.262 N 
ATOM     22  C   UNL A   1      34.451  22.100  25.991  1.00  0.00     0.108 A 
ATOM     23  N   UNL A   1      33.644  20.547  25.739  1.00  0.00    -0.173 NA
ATOM     24  H   UNL A   1      31.107  20.260  25.338  1.00  0.00     0.192 HD
BRANCH  22  25
ATOM     25  C   UNL A   1      35.900  22.399  25.783  1.00  0.00     0.055 A 
ATOM     26  C   UNL A   1      36.494  23.590  26.134  1.00  0.00     0.022 A 
ATOM     27  S   UNL A   1      37.027  21.231  25.272  1.00  0.00    -0.142 S 
ATOM     28  C   UNL A   1      37.918  23.514  26.035  1.00  0.00     0.012 A 
ATOM     29  C   UNL A   1      38.337  22.305  25.521  1.00  0.00     0.065 A 
ENDBRANCH  22  25
ENDBRANCH   8  13
ENDBRANCH   4   7
ENDBRANCH   2   3
ENDBRANCH   1   2
BRANCH   1  30
ATOM     30  C   UNL A   1      33.855  31.391  27.766  1.00  0.00     0.023 C 
BRANCH  30  31
ATOM     31  C   UNL A   1      34.522  32.703  28.093  1.00  0.00     0.116 C 
BRANCH  31  32
ATOM     32  N   UNL A   1      34.400  33.011  29.514  1.00  0.00    -0.352 N 
ATOM     33  C   UNL A   1      34.979  32.288  30.532  1.00  0.00     0.251 C 
ATOM     34  H   UNL A   1      33.862  33.797  29.764  1.00  0.00     0.163 HD
ATOM     35  O   UNL A   1      34.478  32.215  31.643  1.00  0.00    -0.269 OA
BRANCH  33  36
ATOM     36  C   UNL A   1      36.298  31.707  30.238  1.00  0.00     0.039 A 
ATOM     37  C   UNL A   1      37.461  32.461  30.098  1.00  0.00     0.014 A 
ATOM     38  C   UNL A   1      36.337  30.314  30.208  1.00  0.00     0.014 A 
ATOM     39  C   UNL A   1      38.656  31.781  29.836  1.00  0.00     0.010 A 
ATOM     40  C   UNL A   1      37.544  29.680  30.229  1.00  0.00     0.010 A 
ATOM     41  C   UNL A   1      38.676  30.369  29.846  1.00  0.00    -0.014 A 
BRANCH  41  42
ATOM     42  C   UNL A   1      39.898  29.562  29.855  1.00  0.00     0.031 A 
ATOM     43  C   UNL A   1      40.317  29.383  31.274  1.00  0.00     0.074 A 
ATOM     44  C   UNL A   1      40.438  28.946  28.759  1.00  0.00     0.049 A 
ATOM     45  N   UNL A   1      41.201  30.121  31.857  1.00  0.00    -0.248 NA
ATOM     46  C   UNL A   1      39.501  28.613  32.242  1.00  0.00     0.031 C 
ATOM     47  C   UNL A   1      39.997  28.963  27.353  1.00  0.00     0.029 A 
ATOM     48  N   UNL A   1      41.539  28.119  28.672  1.00  0.00    -0.354 N 
ATOM     49  C   UNL A   1      41.317  29.626  33.146  1.00  0.00     0.074 A 
ATOM     50  C   UNL A   1      40.092  28.921  33.404  1.00  0.00     0.031 C 
ATOM     51  C   UNL A   1      40.658  28.020  26.628  1.00  0.00     0.029 A 
ATOM     52  C   UNL A   1      41.680  27.404  27.456  1.00  0.00     0.049 A 
ATOM     53  H   UNL A   1      42.186  28.031  29.409  1.00  0.00     0.167 HD
ATOM     54  C   UNL A   1      42.560  29.517  33.691  1.00  0.00     0.031 A 
ATOM     55  C   UNL A   1      42.604  26.430  27.154  1.00  0.00     0.031 A 
ATOM     56  C   UNL A   1      43.512  30.243  32.878  1.00  0.00     0.049 A 
ATOM     57  C   UNL A   1      43.743  26.615  28.088  1.00  0.00     0.074 A 
ATOM     58  C   UNL A   1      43.634  31.555  32.470  1.00  0.00     0.029 A 
ATOM     59  N   UNL A   1      44.189  29.473  31.963  1.00  0.00    -0.354 N 
ATOM     60  N   UNL A   1      44.525  27.652  28.012  1.00  0.00    -0.248 NA
ATOM     61  C   UNL A   1      43.599  26.011  29.405  1.00  0.00     0.031 C 
ATOM     62  C   UNL A   1      44.015  31.479  31.099  1.00  0.00     0.029 A 
ATOM     63  C   UNL A   1      44.292  30.149  30.780  1.00  0.00     0.049 A 
ATOM     64  H   UNL A   1      44.544  28.571  32.134  1.00  0.00     0.167 HD
ATOM     65  C   UNL A   1      44.523  28.154  29.303  1.00  0.00     0.074 A 
ATOM     66  C   UNL A   1      43.963  27.074  30.132  1.00  0.00     0.031 C 
ATOM     67  C   UNL A   1      44.610  29.499  29.530  1.00  0.00     0.031 A 
BRANCH  54  68
ATOM     68  C   UNL A   1      43.012  28.369  34.559  1.00  0.00    -0.014 A 
ATOM     69  C   UNL A   1      42.986  27.079  33.994  1.00  0.00     0.009 A 
ATOM     70  C   UNL A   1      43.159  28.443  35.956  1.00  0.00     0.009 A 
ATOM     71  C   UNL A   1      43.024  25.929  34.787  1.00  0.00     0.001 A 
ATOM     72  C   UNL A   1      43.233  27.294  36.751  1.00  0.00     0.001 A 
ATOM     73  C   UNL A   1      43.142  26.036  36.168  1.00  0.00     0.000 A 
ENDBRANCH  54  68
BRANCH  55  74
ATOM     74  C   UNL A   1      42.515  25.172  26.339  1.00  0.00    -0.014 A 
ATOM     75  C   UNL A   1      43.410  24.871  25.281  1.00  0.00     0.009 A 
ATOM     76  C   UNL A   1      41.745  24.104  26.823  1.00  0.00     0.009 A 
ATOM     77  C   UNL A   1      43.544  23.560  24.771  1.00  0.00     0.001 A 
ATOM     78  C   UNL A   1      41.889  22.797  26.326  1.00  0.00     0.001 A 
ATOM     79  C   UNL A   1      42.795  22.520  25.310  1.00  0.00     0.000 A 
ENDBRANCH  55  74
BRANCH  67  80
ATOM     80  C   UNL A   1      44.944  30.411  28.374  1.00  0.00    -0.014 A 
ATOM     81  C   UNL A   1      44.003  31.021  27.523  1.00  0.00     0.009 A 
ATOM     82  C   UNL A   1      46.289  30.789  28.253  1.00  0.00     0.009 A 
ATOM     83  C   UNL A   1      44.418  31.941  26.548  1.00  0.00     0.001 A 
ATOM     84  C   UNL A   1      46.696  31.721  27.302  1.00  0.00     0.001 A 
ATOM     85  C   UNL A   1      45.764  32.285  26.437  1.00  0.00     0.000 A 
ENDBRANCH  67  80
ENDBRANCH  41  42
ENDBRANCH  33  36
ENDBRANCH  31  32
ENDBRANCH  30  31
ENDBRANCH   1  30
TORSDOF 13
ENDMDL
MODEL 2
REMARK VINA RESULT:     -13.7      2.079      5.855
REMARK SMILES O=C1C[C@H](c2cn[nH]c2C(=O)NCCCCNC(=O)c2ccc(-c3c4nc(c(-c5ccccc5)c5ccc([nH]5)c(-c5ccccc5)c5nc(c(-c6ccccc6)c6ccc3[nH]6)C=C5)C=C4)cc2)c2c(-c3cccs3)n[nH]c2N1
REMARK SMILES IDX 14 1 13 2 12 3 10 4 11 5 9 7 5 8 6 9 7 10 8 11 4 13 1 14
REMARK SMILES IDX 2 15 3 16 78 17 77 18 68 20 76 21 69 22 75 23 70 25 71 26
REMARK SMILES IDX 74 27 72 28 73 29 15 30 16 31 17 32 18 33 19 35 20 36 21 37
REMARK SMILES IDX 67 38 22 39 66 40 23 41 24 42 25 43 60 44 26 45 65 46 59 47
REMARK SMILES IDX 61 48 27 49 64 50 58 51 57 52 28 54 50 55 35 56 49 57 36 58
REMARK SMILES IDX 39 59 48 60 62 61 37 62 38 63 47 65 63 66 40 67 29 68 30 69
REMARK SMILES IDX 34 70 31 71 33 72 32 73 51 74 52 75 56 76 53 77 55 78 54 79
REMARK SMILES IDX 41 80 42 81 46 82 43 83 45 84 44 85
REMARK H PARENT 12 6 8 12 78 19 76 24 17 34 61 53 39 64
REMARK Flexibility Score: inf
ROOT
ATOM      1  C   UNL A   1      33.242  29.842  26.998  1.00  0.00     0.023 C 
ENDROOT
BRANCH   1   2
ATOM      2  C   UNL A   1      32.710  29.745  25.303  1.00  0.00     0.116 C 
BRANCH   2   3
ATOM      3  N   UNL A   1      31.598  28.148  24.355  1.00  0.00    -0.351 N 
ATOM      4  C   UNL A   1      31.389  26.912  23.682  1.00  0.00     0.269 C 
ATOM      5  O   UNL A   1      30.216  26.650  23.403  1.00  0.00    -0.268 OA
ATOM      6  H   UNL A   1      30.674  28.476  24.444  1.00  0.00     0.163 HD
BRANCH   4   7
ATOM      7  C   UNL A   1      32.435  25.957  23.396  1.00  0.00     0.126 A 
ATOM      8  C   UNL A   1      33.147  25.089  24.209  1.00  0.00     0.011 A 
ATOM      9  C   UNL A   1      33.950  24.341  23.328  1.00  0.00     0.140 A 
ATOM     10  N   UNL A   1      33.796  24.722  22.058  1.00  0.00    -0.183 NA
ATOM     11  N   UNL A   1      32.875  25.700  22.127  1.00  0.00    -0.273 N 
ATOM     12  H   UNL A   1      32.548  26.187  21.337  1.00  0.00     0.190 HD
BRANCH   8  13
ATOM     13  C   UNL A   1      33.004  24.999  25.685  1.00  0.00     0.069 C 
ATOM     14  O   UNL A   1      29.289  25.222  26.552  1.00  0.00    -0.275 OA
ATOM     15  C   UNL A   1      30.341  24.727  26.133  1.00  0.00     0.226 C 
ATOM     16  C   UNL A   1      31.651  25.565  26.183  1.00  0.00     0.114 C 
ATOM     17  N   UNL A   1      30.309  23.417  25.720  1.00  0.00    -0.311 N 
ATOM     18  C   UNL A   1      31.488  22.734  25.731  1.00  0.00     0.132 A 
ATOM     19  H   UNL A   1      29.471  22.990  25.428  1.00  0.00     0.171 HD
ATOM     20  C   UNL A   1      33.023  23.563  25.972  1.00  0.00     0.031 A 
ATOM     21  N   UNL A   1      31.823  20.912  25.692  1.00  0.00    -0.262 N 
ATOM     22  C   UNL A   1      34.421  22.210  26.073  1.00  0.00     0.108 A 
ATOM     23  N   UNL A   1      33.674  20.616  25.908  1.00  0.00    -0.173 NA
ATOM     24  H   UNL A   1      31.143  20.209  25.577  1.00  0.00     0.192 HD
BRANCH  22  25
ATOM     25  C   UNL A   1      35.852  22.558  25.820  1.00  0.00     0.055 A 
ATOM     26  C   UNL A   1      36.422  23.760  26.172  1.00  0.00     0.022 A 
ATOM     27  S   UNL A   1      36.995  21.435  25.246  1.00  0.00    -0.142 S 
ATOM     28  C   UNL A   1      37.843  23.730  26.021  1.00  0.00     0.012 A 
ATOM     29  C   UNL A   1      38.280  22.544  25.470  1.00  0.00     0.065 A 
ENDBRANCH  22  25
ENDBRANCH   8  13
ENDBRANCH   4   7
ENDBRANCH   2   3
ENDBRANCH   1   2
BRANCH   1  30
ATOM     30  C   UNL A   1      34.681  30.290  27.268  1.00  0.00     0.023 C 
BRANCH  30  31
ATOM     31  C   UNL A   1      35.504  29.300  28.054  1.00  0.00     0.116 C 
BRANCH  31  32
ATOM     32  N   UNL A   1      35.767  29.790  29.401  1.00  0.00    -0.352 N 
ATOM     33  C   UNL A   1      36.772  29.337  30.225  1.00  0.00     0.251 C 
ATOM     34  H   UNL A   1      35.181  30.501  29.750  1.00  0.00     0.163 HD
ATOM     35  O   UNL A   1      36.668  29.345  31.442  1.00  0.00    -0.269 OA
BRANCH  33  36
ATOM     36  C   UNL A   1      38.026  28.953  29.558  1.00  0.00     0.039 A 
ATOM     37  C   UNL A   1      38.513  29.575  28.410  1.00  0.00     0.014 A 
ATOM     38  C   UNL A   1      38.770  27.975  30.216  1.00  0.00     0.014 A 
ATOM     39  C   UNL A   1      39.729  29.124  27.886  1.00  0.00     0.010 A 
ATOM     40  C   UNL A   1      40.063  27.757  29.841  1.00  0.00     0.010 A 
ATOM     41  C   UNL A   1      40.481  28.158  28.589  1.00  0.00    -0.014 A 
BRANCH  41  42
ATOM     42  C   UNL A   1      41.871  27.813  28.285  1.00  0.00     0.031 A 
ATOM     43  C   UNL A   1      41.871  26.513  27.556  1.00  0.00     0.074 A 
ATOM     44  C   UNL A   1      42.945  28.638  28.487  1.00  0.00     0.049 A 
ATOM     45  N   UNL A   1      42.066  25.373  28.128  1.00  0.00    -0.248 NA
ATOM     46  C   UNL A   1      41.278  26.370  26.206  1.00  0.00     0.031 C 
ATOM     47  C   UNL A   1      42.999  29.990  29.071  1.00  0.00     0.029 A 
ATOM     48  N   UNL A   1      44.274  28.437  28.180  1.00  0.00    -0.354 N 
ATOM     49  C   UNL A   1      42.009  24.427  27.117  1.00  0.00     0.074 A 
ATOM     50  C   UNL A   1      41.264  25.039  26.053  1.00  0.00     0.031 C 
ATOM     51  C   UNL A   1      44.218  30.558  28.857  1.00  0.00     0.029 A 
ATOM     52  C   UNL A   1      45.103  29.585  28.243  1.00  0.00     0.049 A 
ATOM     53  H   UNL A   1      44.625  27.551  27.931  1.00  0.00     0.167 HD
ATOM     54  C   UNL A   1      42.918  23.414  27.123  1.00  0.00     0.031 A 
ATOM     55  C   UNL A   1      46.423  29.692  27.871  1.00  0.00     0.031 A 
ATOM     56  C   UNL A   1      43.598  23.378  28.400  1.00  0.00     0.049 A 
ATOM     57  C   UNL A   1      46.987  28.319  27.892  1.00  0.00     0.074 A 
ATOM     58  C   UNL A   1      43.191  23.231  29.710  1.00  0.00     0.029 A 
ATOM     59  N   UNL A   1      44.803  24.039  28.426  1.00  0.00    -0.354 N 
ATOM     60  N   UNL A   1      47.155  27.667  29.006  1.00  0.00    -0.248 NA
ATOM     61  C   UNL A   1      46.761  27.512  26.702  1.00  0.00     0.031 C 
ATOM     62  C   UNL A   1      43.956  24.184  30.442  1.00  0.00     0.029 A 
ATOM     63  C   UNL A   1      44.921  24.733  29.597  1.00  0.00     0.049 A 
ATOM     64  H   UNL A   1      45.478  24.015  27.710  1.00  0.00     0.167 HD
ATOM     65  C   UNL A   1      46.519  26.459  28.772  1.00  0.00     0.074 A 
ATOM     66  C   UNL A   1      46.328  26.404  27.314  1.00  0.00     0.031 C 
ATOM     67  C   UNL A   1      45.874  25.802  29.782  1.00  0.00     0.031 A 
BRANCH  54  68
ATOM     68  C   UNL A   1      43.579  22.855  25.887  1.00  0.00    -0.014 A 
ATOM     69  C   UNL A   1      43.696  21.455  25.791  1.00  0.00     0.009 A 
ATOM     70  C   UNL A   1      44.349  23.616  24.989  1.00  0.00     0.009 A 
ATOM     71  C   UNL A   1      44.590  20.852  24.902  1.00  0.00     0.001 A 
ATOM     72  C   UNL A   1      45.220  23.015  24.073  1.00  0.00     0.001 A 
ATOM     73  C   UNL A   1      45.357  21.633  24.046  1.00  0.00     0.000 A 
ENDBRANCH  54  68
BRANCH  55  74
ATOM     74  C   UNL A   1      47.204  30.800  27.223  1.00  0.00    -0.014 A 
ATOM     75  C   UNL A   1      46.608  32.009  26.781  1.00  0.00     0.009 A 
ATOM     76  C   UNL A   1      48.601  30.804  27.341  1.00  0.00     0.009 A 
ATOM     77  C   UNL A   1      47.378  33.163  26.513  1.00  0.00     0.001 A 
ATOM     78  C   UNL A   1      49.366  31.955  27.088  1.00  0.00     0.001 A 
ATOM     79  C   UNL A   1      48.758  33.138  26.686  1.00  0.00     0.000 A 
ENDBRANCH  55  74
BRANCH  67  80
ATOM     80  C   UNL A   1      46.060  26.287  31.200  1.00  0.00    -0.014 A 
ATOM     81  C   UNL A   1      45.203  27.179  31.872  1.00  0.00     0.009 A 
ATOM     82  C   UNL A   1      47.083  25.670  31.936  1.00  0.00     0.009 A 
ATOM     83  C   UNL A   1      45.409  27.477  33.229  1.00  0.00     0.001 A 
ATOM     84  C   UNL A   1      47.270  25.947  33.288  1.00  0.00     0.001 A 
ATOM     85  C   UNL A   1      46.444  26.862  33.931  1.00  0.00     0.000 A 
ENDBRANCH  67  80
ENDBRANCH  41  42
ENDBRANCH  33  36
ENDBRANCH  31  32
ENDBRANCH  30  31
ENDBRANCH   1  30
TORSDOF 13
ENDMDL
MODEL 3
REMARK VINA RESULT:     -13.6      2.646      7.756
REMARK SMILES O=C1C[C@H](c2cn[nH]c2C(=O)NCCCCNC(=O)c2ccc(-c3c4nc(c(-c5ccccc5)c5ccc([nH]5)c(-c5ccccc5)c5nc(c(-c6ccccc6)c6ccc3[nH]6)C=C5)C=C4)cc2)c2c(-c3cccs3)n[nH]c2N1
REMARK SMILES IDX 14 1 13 2 12 3 10 4 11 5 9 7 5 8 6 9 7 10 8 11 4 13 1 14
REMARK SMILES IDX 2 15 3 16 78 17 77 18 68 20 76 21 69 22 75 23 70 25 71 26
REMARK SMILES IDX 74 27 72 28 73 29 15 30 16 31 17 32 18 33 19 35 20 36 21 37
REMARK SMILES IDX 67 38 22 39 66 40 23 41 24 42 25 43 60 44 26 45 65 46 59 47
REMARK SMILES IDX 61 48 27 49 64 50 58 51 57 52 28 54 50 55 35 56 49 57 36 58
REMARK SMILES IDX 39 59 48 60 62 61 37 62 38 63 47 65 63 66 40 67 29 68 30 69
REMARK SMILES IDX 34 70 31 71 33 72 32 73 51 74 52 75 56 76 53 77 55 78 54 79
REMARK SMILES IDX 41 80 42 81 46 82 43 83 45 84 44 85
REMARK H PARENT 12 6 8 12 78 19 76 24 17 34 61 53 39 64
REMARK Flexibility Score: inf
ROOT
ATOM      1  C   UNL A   1      38.557  23.826  26.618  1.00  0.00     0.023 C 
ENDROOT
BRANCH   1   2
ATOM      2  C   UNL A   1      37.006  24.039  25.774  1.00  0.00     0.116 C 
BRANCH   2   3
ATOM      3  N   UNL A   1      35.167  22.941  26.089  1.00  0.00    -0.351 N 
ATOM      4  C   UNL A   1      33.771  22.743  26.280  1.00  0.00     0.269 C 
ATOM      5  O   UNL A   1      33.417  21.571  26.442  1.00  0.00    -0.268 OA
ATOM      6  H   UNL A   1      35.498  22.014  26.116  1.00  0.00     0.163 HD
BRANCH   4   7
ATOM      7  C   UNL A   1      32.786  23.798  26.216  1.00  0.00     0.126 A 
ATOM      8  C   UNL A   1      32.696  24.936  25.431  1.00  0.00     0.011 A 
ATOM      9  C   UNL A   1      31.451  25.506  25.758  1.00  0.00     0.140 A 
ATOM     10  N   UNL A   1      30.810  24.812  26.701  1.00  0.00    -0.183 NA
ATOM     11  N   UNL A   1      31.639  23.785  26.961  1.00  0.00    -0.273 N 
ATOM     12  H   UNL A   1      31.439  23.088  27.626  1.00  0.00     0.190 HD
BRANCH   8  13
ATOM     13  C   UNL A   1      33.720  25.373  24.446  1.00  0.00     0.069 C 
ATOM     14  O   UNL A   1      33.441  23.146  21.353  1.00  0.00    -0.275 OA
ATOM     15  C   UNL A   1      33.135  24.029  22.162  1.00  0.00     0.226 C 
ATOM     16  C   UNL A   1      34.040  24.274  23.403  1.00  0.00     0.114 C 
ATOM     17  N   UNL A   1      32.044  24.811  21.869  1.00  0.00    -0.311 N 
ATOM     18  C   UNL A   1      31.990  26.043  22.449  1.00  0.00     0.132 A 
ATOM     19  H   UNL A   1      31.333  24.496  21.266  1.00  0.00     0.171 HD
ATOM     20  C   UNL A   1      33.100  26.495  23.740  1.00  0.00     0.031 A 
ATOM     21  N   UNL A   1      30.987  27.537  22.008  1.00  0.00    -0.262 N 
ATOM     22  C   UNL A   1      32.782  28.369  24.168  1.00  0.00     0.108 A 
ATOM     23  N   UNL A   1      31.508  28.981  23.106  1.00  0.00    -0.173 NA
ATOM     24  H   UNL A   1      30.293  27.573  21.311  1.00  0.00     0.192 HD
BRANCH  22  25
ATOM     25  C   UNL A   1      33.205  28.944  25.481  1.00  0.00     0.055 A 
ATOM     26  C   UNL A   1      34.391  28.633  26.106  1.00  0.00     0.022 A 
ATOM     27  S   UNL A   1      32.363  30.199  26.261  1.00  0.00    -0.142 S 
ATOM     28  C   UNL A   1      34.636  29.495  27.221  1.00  0.00     0.012 A 
ATOM     29  C   UNL A   1      33.584  30.354  27.452  1.00  0.00     0.065 A 
ENDBRANCH  22  25
ENDBRANCH   8  13
ENDBRANCH   4   7
ENDBRANCH   2   3
ENDBRANCH   1   2
BRANCH   1  30
ATOM     30  C   UNL A   1      39.267  22.477  26.474  1.00  0.00     0.023 C 
BRANCH  30  31
ATOM     31  C   UNL A   1      40.436  22.286  27.407  1.00  0.00     0.116 C 
BRANCH  31  32
ATOM     32  N   UNL A   1      41.678  22.116  26.662  1.00  0.00    -0.352 N 
ATOM     33  C   UNL A   1      42.286  23.092  25.905  1.00  0.00     0.251 C 
ATOM     34  H   UNL A   1      42.116  21.234  26.702  1.00  0.00     0.163 HD
ATOM     35  O   UNL A   1      42.962  22.826  24.924  1.00  0.00    -0.269 OA
BRANCH  33  36
ATOM     36  C   UNL A   1      42.173  24.467  26.418  1.00  0.00     0.039 A 
ATOM     37  C   UNL A   1      41.428  25.465  25.793  1.00  0.00     0.014 A 
ATOM     38  C   UNL A   1      42.783  24.690  27.650  1.00  0.00     0.014 A 
ATOM     39  C   UNL A   1      41.389  26.727  26.396  1.00  0.00     0.010 A 
ATOM     40  C   UNL A   1      42.498  25.832  28.338  1.00  0.00     0.010 A 
ATOM     41  C   UNL A   1      41.986  26.920  27.661  1.00  0.00    -0.014 A 
BRANCH  41  42
ATOM     42  C   UNL A   1      41.779  28.102  28.500  1.00  0.00     0.031 A 
ATOM     43  C   UNL A   1      42.857  29.082  28.182  1.00  0.00     0.074 A 
ATOM     44  C   UNL A   1      40.686  28.317  29.294  1.00  0.00     0.049 A 
ATOM     45  N   UNL A   1      43.942  29.198  28.870  1.00  0.00    -0.248 NA
ATOM     46  C   UNL A   1      42.960  29.732  26.855  1.00  0.00     0.031 C 
ATOM     47  C   UNL A   1      39.517  27.455  29.544  1.00  0.00     0.029 A 
ATOM     48  N   UNL A   1      40.366  29.414  30.067  1.00  0.00    -0.354 N 
ATOM     49  C   UNL A   1      44.663  30.219  28.270  1.00  0.00     0.074 A 
ATOM     50  C   UNL A   1      44.169  30.305  26.924  1.00  0.00     0.031 C 
ATOM     51  C   UNL A   1      38.540  28.145  30.195  1.00  0.00     0.029 A 
ATOM     52  C   UNL A   1      39.033  29.464  30.547  1.00  0.00     0.049 A 
ATOM     53  H   UNL A   1      41.024  30.118  30.272  1.00  0.00     0.167 HD
ATOM     54  C   UNL A   1      45.291  31.126  29.067  1.00  0.00     0.031 A 
ATOM     55  C   UNL A   1      38.421  30.493  31.226  1.00  0.00     0.031 A 
ATOM     56  C   UNL A   1      45.311  30.643  30.431  1.00  0.00     0.049 A 
ATOM     57  C   UNL A   1      39.502  31.308  31.835  1.00  0.00     0.074 A 
ATOM     58  C   UNL A   1      45.810  29.517  31.053  1.00  0.00     0.029 A 
ATOM     59  N   UNL A   1      44.295  31.121  31.223  1.00  0.00    -0.354 N 
ATOM     60  N   UNL A   1      40.238  30.848  32.805  1.00  0.00    -0.248 NA
ATOM     61  C   UNL A   1      40.122  32.303  30.972  1.00  0.00     0.031 C 
ATOM     62  C   UNL A   1      44.793  29.123  31.970  1.00  0.00     0.029 A 
ATOM     63  C   UNL A   1      43.812  30.114  32.011  1.00  0.00     0.049 A 
ATOM     64  H   UNL A   1      43.964  32.049  31.222  1.00  0.00     0.167 HD
ATOM     65  C   UNL A   1      41.531  31.058  32.357  1.00  0.00     0.074 A 
ATOM     66  C   UNL A   1      41.398  31.998  31.232  1.00  0.00     0.031 C 
ATOM     67  C   UNL A   1      42.531  30.182  32.674  1.00  0.00     0.031 A 
BRANCH  54  68
ATOM     68  C   UNL A   1      45.371  32.604  28.776  1.00  0.00    -0.014 A 
ATOM     69  C   UNL A   1      44.157  33.308  28.653  1.00  0.00     0.009 A 
ATOM     70  C   UNL A   1      46.529  33.260  28.322  1.00  0.00     0.009 A 
ATOM     71  C   UNL A   1      44.093  34.560  28.037  1.00  0.00     0.001 A 
ATOM     72  C   UNL A   1      46.475  34.530  27.736  1.00  0.00     0.001 A 
ATOM     73  C   UNL A   1      45.253  35.170  27.573  1.00  0.00     0.000 A 
ENDBRANCH  54  68
BRANCH  55  74
ATOM     74  C   UNL A   1      37.020  31.033  31.191  1.00  0.00    -0.014 A 
ATOM     75  C   UNL A   1      36.310  31.418  32.357  1.00  0.00     0.009 A 
ATOM     76  C   UNL A   1      36.498  31.484  29.969  1.00  0.00     0.009 A 
ATOM     77  C   UNL A   1      35.164  32.242  32.291  1.00  0.00     0.001 A 
ATOM     78  C   UNL A   1      35.365  32.314  29.905  1.00  0.00     0.001 A 
ATOM     79  C   UNL A   1      34.705  32.705  31.063  1.00  0.00     0.000 A 
ENDBRANCH  55  74
BRANCH  67  80
ATOM     80  C   UNL A   1      42.262  29.115  33.707  1.00  0.00    -0.014 A 
ATOM     81  C   UNL A   1      41.747  27.833  33.436  1.00  0.00     0.009 A 
ATOM     82  C   UNL A   1      42.711  29.386  35.008  1.00  0.00     0.009 A 
ATOM     83  C   UNL A   1      41.641  26.878  34.459  1.00  0.00     0.001 A 
ATOM     84  C   UNL A   1      42.628  28.429  36.016  1.00  0.00     0.001 A 
ATOM     85  C   UNL A   1      42.078  27.180  35.747  1.00  0.00     0.000 A 
ENDBRANCH  67  80
ENDBRANCH  41  42
ENDBRANCH  33  36
ENDBRANCH  31  32
ENDBRANCH  30  31
ENDBRANCH   1  30
TORSDOF 13
ENDMDL
