MODEL 1
REMARK VINA RESULT:     -11.2      0.000      0.000
REMARK SMILES O=C(/C=C/C(=O)NCc1ccc(-c2cccs2)s1)NCCCCNC(=O)c1ccc(-c2c3nc(c(-c4ccccc4)c4ccc([nH]4)c(-c4ccccc4)c4nc(c(-c5ccccc5)c5ccc2[nH]5)C=C4)C=C3)cc1
REMARK SMILES IDX 20 1 19 2 1 3 2 4 3 6 4 7 5 8 6 9 7 10 8 12 9 13 10 14 18 15
REMARK SMILES IDX 11 16 12 17 13 18 14 19 17 20 15 21 16 22 21 23 22 24 23 25
REMARK SMILES IDX 24 26 25 27 26 29 27 30 28 31 74 32 29 33 73 34 30 35 31 36
REMARK SMILES IDX 32 37 67 38 33 39 72 40 66 41 68 42 34 43 71 44 65 45 64 46
REMARK SMILES IDX 35 48 57 49 42 50 56 51 43 52 46 53 55 54 69 55 44 56 45 57
REMARK SMILES IDX 54 59 70 60 47 61 36 62 37 63 41 64 38 65 40 66 39 67 58 68
REMARK SMILES IDX 59 69 63 70 60 71 62 72 61 73 48 74 49 75 53 76 50 77 52 78
REMARK SMILES IDX 51 79
REMARK H PARENT 19 5 7 11 24 28 68 47 46 58
REMARK Flexibility Score: inf
ROOT
ATOM      1  C   UNL A   1      30.955  29.675  24.545  1.00  0.00     0.116 C 
ENDROOT
BRANCH   1   2
ATOM      2  N   UNL A   1      31.227  28.375  23.961  1.00  0.00    -0.353 N 
ATOM      3  O   UNL A   1      29.938  28.709  22.086  1.00  0.00    -0.270 OA
ATOM      4  C   UNL A   1      30.676  28.004  22.764  1.00  0.00     0.244 C 
ATOM      5  H   UNL A   1      31.819  27.747  24.434  1.00  0.00     0.163 HD
BRANCH   4   6
ATOM      6  C   UNL A   1      31.095  26.691  22.232  1.00  0.00     0.077 C 
ATOM      7  C   UNL A   1      32.356  26.301  22.030  1.00  0.00     0.077 C 
BRANCH   7   8
ATOM      8  C   UNL A   1      32.794  24.991  21.495  1.00  0.00     0.244 C 
ATOM      9  O   UNL A   1      33.182  24.959  20.326  1.00  0.00    -0.270 OA
ATOM     10  N   UNL A   1      32.844  23.858  22.229  1.00  0.00    -0.348 N 
ATOM     11  H   UNL A   1      33.140  23.076  21.710  1.00  0.00     0.164 HD
BRANCH  10  12
ATOM     12  C   UNL A   1      32.557  23.541  23.616  1.00  0.00     0.163 C 
BRANCH  12  13
ATOM     13  C   UNL A   1      33.327  22.304  23.973  1.00  0.00     0.024 A 
ATOM     14  C   UNL A   1      34.649  22.168  24.352  1.00  0.00     0.018 A 
ATOM     15  S   UNL A   1      32.537  20.778  23.951  1.00  0.00    -0.138 S 
ATOM     16  C   UNL A   1      34.990  20.824  24.678  1.00  0.00     0.022 A 
ATOM     17  C   UNL A   1      33.935  19.955  24.493  1.00  0.00     0.045 A 
BRANCH  17  18
ATOM     18  C   UNL A   1      33.940  18.540  24.742  1.00  0.00     0.044 A 
ATOM     19  C   UNL A   1      34.946  17.649  24.419  1.00  0.00     0.021 A 
ATOM     20  S   UNL A   1      32.608  17.742  25.469  1.00  0.00    -0.143 S 
ATOM     21  C   UNL A   1      34.629  16.311  24.795  1.00  0.00     0.012 A 
ATOM     22  C   UNL A   1      33.382  16.220  25.371  1.00  0.00     0.065 A 
ENDBRANCH  17  18
ENDBRANCH  12  13
ENDBRANCH  10  12
ENDBRANCH   7   8
ENDBRANCH   4   6
ENDBRANCH   1   2
BRANCH   1  23
ATOM     23  C   UNL A   1      31.578  29.828  25.929  1.00  0.00     0.023 C 
BRANCH  23  24
ATOM     24  C   UNL A   1      32.405  28.631  26.399  1.00  0.00     0.023 C 
BRANCH  24  25
ATOM     25  C   UNL A   1      33.707  28.973  27.114  1.00  0.00     0.116 C 
BRANCH  25  26
ATOM     26  N   UNL A   1      33.695  30.294  27.722  1.00  0.00    -0.352 N 
ATOM     27  C   UNL A   1      34.670  30.922  28.460  1.00  0.00     0.251 C 
ATOM     28  H   UNL A   1      32.870  30.813  27.583  1.00  0.00     0.163 HD
ATOM     29  O   UNL A   1      34.436  31.989  29.011  1.00  0.00    -0.269 OA
BRANCH  27  30
ATOM     30  C   UNL A   1      35.998  30.286  28.620  1.00  0.00     0.039 A 
ATOM     31  C   UNL A   1      36.890  30.314  27.545  1.00  0.00     0.014 A 
ATOM     32  C   UNL A   1      36.367  29.677  29.821  1.00  0.00     0.014 A 
ATOM     33  C   UNL A   1      38.177  29.794  27.699  1.00  0.00     0.010 A 
ATOM     34  C   UNL A   1      37.674  29.230  29.999  1.00  0.00     0.010 A 
ATOM     35  C   UNL A   1      38.594  29.285  28.941  1.00  0.00    -0.014 A 
BRANCH  35  36
ATOM     36  C   UNL A   1      39.987  28.815  29.151  1.00  0.00     0.031 A 
ATOM     37  C   UNL A   1      41.023  29.738  29.731  1.00  0.00     0.074 A 
ATOM     38  C   UNL A   1      40.338  27.573  28.762  1.00  0.00     0.049 A 
ATOM     39  N   UNL A   1      42.299  29.522  29.939  1.00  0.00    -0.248 NA
ATOM     40  C   UNL A   1      40.573  31.088  30.106  1.00  0.00     0.031 C 
ATOM     41  C   UNL A   1      39.441  26.590  28.149  1.00  0.00     0.029 A 
ATOM     42  N   UNL A   1      41.549  26.927  28.817  1.00  0.00    -0.354 N 
ATOM     43  C   UNL A   1      42.802  30.710  30.454  1.00  0.00     0.074 A 
ATOM     44  C   UNL A   1      41.710  31.659  30.476  1.00  0.00     0.031 C 
ATOM     45  C   UNL A   1      40.125  25.459  27.913  1.00  0.00     0.029 A 
ATOM     46  C   UNL A   1      41.516  25.650  28.313  1.00  0.00     0.049 A 
ATOM     47  H   UNL A   1      42.364  27.340  29.185  1.00  0.00     0.167 HD
ATOM     48  C   UNL A   1      44.056  30.983  30.889  1.00  0.00     0.031 A 
ATOM     49  C   UNL A   1      42.494  24.735  28.177  1.00  0.00     0.031 A 
ATOM     50  C   UNL A   1      45.145  30.042  30.867  1.00  0.00     0.049 A 
ATOM     51  C   UNL A   1      43.885  25.071  28.640  1.00  0.00     0.074 A 
ATOM     52  C   UNL A   1      46.438  30.208  31.331  1.00  0.00     0.029 A 
ATOM     53  N   UNL A   1      45.068  28.758  30.346  1.00  0.00    -0.354 N 
ATOM     54  N   UNL A   1      44.329  26.176  29.189  1.00  0.00    -0.248 NA
ATOM     55  C   UNL A   1      44.907  24.029  28.474  1.00  0.00     0.031 C 
ATOM     56  C   UNL A   1      47.161  29.048  31.036  1.00  0.00     0.029 A 
ATOM     57  C   UNL A   1      46.299  28.133  30.451  1.00  0.00     0.049 A 
ATOM     58  H   UNL A   1      44.259  28.353  29.959  1.00  0.00     0.167 HD
ATOM     59  C   UNL A   1      45.672  25.951  29.461  1.00  0.00     0.074 A 
ATOM     60  C   UNL A   1      45.966  24.598  29.032  1.00  0.00     0.031 C 
ATOM     61  C   UNL A   1      46.581  26.789  30.017  1.00  0.00     0.031 A 
BRANCH  48  62
ATOM     62  C   UNL A   1      44.318  32.367  31.419  1.00  0.00    -0.014 A 
ATOM     63  C   UNL A   1      44.156  32.669  32.782  1.00  0.00     0.009 A 
ATOM     64  C   UNL A   1      44.761  33.377  30.551  1.00  0.00     0.009 A 
ATOM     65  C   UNL A   1      44.391  33.962  33.254  1.00  0.00     0.001 A 
ATOM     66  C   UNL A   1      45.028  34.660  31.031  1.00  0.00     0.001 A 
ATOM     67  C   UNL A   1      44.831  34.955  32.379  1.00  0.00     0.000 A 
ENDBRANCH  48  62
BRANCH  49  68
ATOM     68  C   UNL A   1      42.194  23.406  27.580  1.00  0.00    -0.014 A 
ATOM     69  C   UNL A   1      42.463  23.154  26.226  1.00  0.00     0.009 A 
ATOM     70  C   UNL A   1      41.631  22.384  28.360  1.00  0.00     0.009 A 
ATOM     71  C   UNL A   1      42.150  21.916  25.661  1.00  0.00     0.001 A 
ATOM     72  C   UNL A   1      41.349  21.137  27.800  1.00  0.00     0.001 A 
ATOM     73  C   UNL A   1      41.599  20.907  26.448  1.00  0.00     0.000 A 
ENDBRANCH  49  68
BRANCH  61  74
ATOM     74  C   UNL A   1      47.971  26.255  30.230  1.00  0.00    -0.014 A 
ATOM     75  C   UNL A   1      48.376  25.740  31.471  1.00  0.00     0.009 A 
ATOM     76  C   UNL A   1      48.875  26.232  29.157  1.00  0.00     0.009 A 
ATOM     77  C   UNL A   1      49.671  25.245  31.641  1.00  0.00     0.001 A 
ATOM     78  C   UNL A   1      50.158  25.707  29.320  1.00  0.00     0.001 A 
ATOM     79  C   UNL A   1      50.558  25.224  30.564  1.00  0.00     0.000 A 
ENDBRANCH  61  74
ENDBRANCH  35  36
ENDBRANCH  27  30
ENDBRANCH  25  26
ENDBRANCH  24  25
ENDBRANCH  23  24
ENDBRANCH   1  23
TORSDOF 15
ENDMDL
MODEL 2
REMARK VINA RESULT:     -11.0      2.442      3.681
REMARK SMILES O=C(/C=C/C(=O)NCc1ccc(-c2cccs2)s1)NCCCCNC(=O)c1ccc(-c2c3nc(c(-c4ccccc4)c4ccc([nH]4)c(-c4ccccc4)c4nc(c(-c5ccccc5)c5ccc2[nH]5)C=C4)C=C3)cc1
REMARK SMILES IDX 20 1 19 2 1 3 2 4 3 6 4 7 5 8 6 9 7 10 8 12 9 13 10 14 18 15
REMARK SMILES IDX 11 16 12 17 13 18 14 19 17 20 15 21 16 22 21 23 22 24 23 25
REMARK SMILES IDX 24 26 25 27 26 29 27 30 28 31 74 32 29 33 73 34 30 35 31 36
REMARK SMILES IDX 32 37 67 38 33 39 72 40 66 41 68 42 34 43 71 44 65 45 64 46
REMARK SMILES IDX 35 48 57 49 42 50 56 51 43 52 46 53 55 54 69 55 44 56 45 57
REMARK SMILES IDX 54 59 70 60 47 61 36 62 37 63 41 64 38 65 40 66 39 67 58 68
REMARK SMILES IDX 59 69 63 70 60 71 62 72 61 73 48 74 49 75 53 76 50 77 52 78
REMARK SMILES IDX 51 79
REMARK H PARENT 19 5 7 11 24 28 68 47 46 58
REMARK Flexibility Score: inf
ROOT
ATOM      1  C   UNL A   1      33.240  29.591  26.091  1.00  0.00     0.116 C 
ENDROOT
BRANCH   1   2
ATOM      2  N   UNL A   1      33.344  28.344  25.356  1.00  0.00    -0.353 N 
ATOM      3  O   UNL A   1      33.348  29.323  23.275  1.00  0.00    -0.270 OA
ATOM      4  C   UNL A   1      33.383  28.327  23.988  1.00  0.00     0.244 C 
ATOM      5  H   UNL A   1      33.388  27.495  25.850  1.00  0.00     0.163 HD
BRANCH   4   6
ATOM      6  C   UNL A   1      33.576  27.005  23.358  1.00  0.00     0.077 C 
ATOM      7  C   UNL A   1      32.713  26.403  22.534  1.00  0.00     0.077 C 
BRANCH   7   8
ATOM      8  C   UNL A   1      32.887  25.079  21.896  1.00  0.00     0.244 C 
ATOM      9  O   UNL A   1      33.173  25.062  20.698  1.00  0.00    -0.270 OA
ATOM     10  N   UNL A   1      32.806  23.907  22.562  1.00  0.00    -0.348 N 
ATOM     11  H   UNL A   1      32.929  23.123  21.979  1.00  0.00     0.164 HD
BRANCH  10  12
ATOM     12  C   UNL A   1      32.578  23.548  23.950  1.00  0.00     0.163 C 
BRANCH  12  13
ATOM     13  C   UNL A   1      33.340  22.287  24.230  1.00  0.00     0.024 A 
ATOM     14  C   UNL A   1      34.657  22.122  24.615  1.00  0.00     0.018 A 
ATOM     15  S   UNL A   1      32.548  20.769  24.093  1.00  0.00    -0.138 S 
ATOM     16  C   UNL A   1      34.992  20.757  24.852  1.00  0.00     0.022 A 
ATOM     17  C   UNL A   1      33.937  19.907  24.594  1.00  0.00     0.045 A 
BRANCH  17  18
ATOM     18  C   UNL A   1      33.936  18.477  24.746  1.00  0.00     0.044 A 
ATOM     19  C   UNL A   1      34.912  17.601  24.309  1.00  0.00     0.021 A 
ATOM     20  S   UNL A   1      32.634  17.644  25.486  1.00  0.00    -0.143 S 
ATOM     21  C   UNL A   1      34.597  16.244  24.609  1.00  0.00     0.012 A 
ATOM     22  C   UNL A   1      33.380  16.126  25.243  1.00  0.00     0.065 A 
ENDBRANCH  17  18
ENDBRANCH  12  13
ENDBRANCH  10  12
ENDBRANCH   7   8
ENDBRANCH   4   6
ENDBRANCH   1   2
BRANCH   1  23
ATOM     23  C   UNL A   1      31.792  29.963  26.397  1.00  0.00     0.023 C 
BRANCH  23  24
ATOM     24  C   UNL A   1      31.546  31.455  26.627  1.00  0.00     0.023 C 
BRANCH  24  25
ATOM     25  C   UNL A   1      32.789  32.284  26.930  1.00  0.00     0.116 C 
BRANCH  25  26
ATOM     26  N   UNL A   1      32.480  33.600  27.465  1.00  0.00    -0.352 N 
ATOM     27  C   UNL A   1      33.148  34.331  28.420  1.00  0.00     0.251 C 
ATOM     28  H   UNL A   1      31.678  34.030  27.088  1.00  0.00     0.163 HD
ATOM     29  O   UNL A   1      32.667  35.372  28.847  1.00  0.00    -0.269 OA
BRANCH  27  30
ATOM     30  C   UNL A   1      34.436  33.839  28.958  1.00  0.00     0.039 A 
ATOM     31  C   UNL A   1      34.428  33.080  30.131  1.00  0.00     0.014 A 
ATOM     32  C   UNL A   1      35.642  34.111  28.308  1.00  0.00     0.014 A 
ATOM     33  C   UNL A   1      35.621  32.535  30.612  1.00  0.00     0.010 A 
ATOM     34  C   UNL A   1      36.817  33.504  28.744  1.00  0.00     0.010 A 
ATOM     35  C   UNL A   1      36.819  32.709  29.900  1.00  0.00    -0.014 A 
BRANCH  35  36
ATOM     36  C   UNL A   1      38.079  32.059  30.344  1.00  0.00     0.031 A 
ATOM     37  C   UNL A   1      38.961  32.723  31.365  1.00  0.00     0.074 A 
ATOM     38  C   UNL A   1      38.462  30.894  29.783  1.00  0.00     0.049 A 
ATOM     39  N   UNL A   1      40.120  32.333  31.835  1.00  0.00    -0.248 NA
ATOM     40  C   UNL A   1      38.491  34.006  31.912  1.00  0.00     0.031 C 
ATOM     41  C   UNL A   1      37.720  30.163  28.754  1.00  0.00     0.029 A 
ATOM     42  N   UNL A   1      39.579  30.125  29.995  1.00  0.00    -0.354 N 
ATOM     43  C   UNL A   1      40.520  33.326  32.720  1.00  0.00     0.074 A 
ATOM     44  C   UNL A   1      39.510  34.361  32.681  1.00  0.00     0.031 C 
ATOM     45  C   UNL A   1      38.387  29.039  28.446  1.00  0.00     0.029 A 
ATOM     46  C   UNL A   1      39.624  28.992  29.219  1.00  0.00     0.049 A 
ATOM     47  H   UNL A   1      40.283  30.362  30.643  1.00  0.00     0.167 HD
ATOM     48  C   UNL A   1      41.620  33.366  33.510  1.00  0.00     0.031 A 
ATOM     49  C   UNL A   1      40.557  28.026  29.131  1.00  0.00     0.031 A 
ATOM     50  C   UNL A   1      42.627  32.339  33.551  1.00  0.00     0.049 A 
ATOM     51  C   UNL A   1      41.784  28.106  29.997  1.00  0.00     0.074 A 
ATOM     52  C   UNL A   1      43.752  32.265  34.354  1.00  0.00     0.029 A 
ATOM     53  N   UNL A   1      42.634  31.208  32.748  1.00  0.00    -0.354 N 
ATOM     54  N   UNL A   1      42.114  29.018  30.880  1.00  0.00    -0.248 NA
ATOM     55  C   UNL A   1      42.761  27.017  29.862  1.00  0.00     0.031 C 
ATOM     56  C   UNL A   1      44.471  31.121  33.995  1.00  0.00     0.029 A 
ATOM     57  C   UNL A   1      43.759  30.445  33.016  1.00  0.00     0.049 A 
ATOM     58  H   UNL A   1      41.942  30.981  32.085  1.00  0.00     0.167 HD
ATOM     59  C   UNL A   1      43.320  28.598  31.425  1.00  0.00     0.074 A 
ATOM     60  C   UNL A   1      43.654  27.341  30.786  1.00  0.00     0.031 C 
ATOM     61  C   UNL A   1      44.083  29.199  32.371  1.00  0.00     0.031 A 
BRANCH  48  62
ATOM     62  C   UNL A   1      41.794  34.573  34.393  1.00  0.00    -0.014 A 
ATOM     63  C   UNL A   1      41.265  34.607  35.694  1.00  0.00     0.009 A 
ATOM     64  C   UNL A   1      42.522  35.679  33.929  1.00  0.00     0.009 A 
ATOM     65  C   UNL A   1      41.424  35.741  36.494  1.00  0.00     0.001 A 
ATOM     66  C   UNL A   1      42.710  36.797  34.743  1.00  0.00     0.001 A 
ATOM     67  C   UNL A   1      42.151  36.833  36.020  1.00  0.00     0.000 A 
ENDBRANCH  48  62
BRANCH  49  68
ATOM     68  C   UNL A   1      40.367  26.890  28.189  1.00  0.00    -0.014 A 
ATOM     69  C   UNL A   1      40.885  26.949  26.886  1.00  0.00     0.009 A 
ATOM     70  C   UNL A   1      39.661  25.744  28.586  1.00  0.00     0.009 A 
ATOM     71  C   UNL A   1      40.677  25.895  25.993  1.00  0.00     0.001 A 
ATOM     72  C   UNL A   1      39.482  24.678  27.702  1.00  0.00     0.001 A 
ATOM     73  C   UNL A   1      39.981  24.759  26.403  1.00  0.00     0.000 A 
ENDBRANCH  49  68
BRANCH  61  74
ATOM     74  C   UNL A   1      45.335  28.486  32.803  1.00  0.00    -0.014 A 
ATOM     75  C   UNL A   1      46.584  28.794  32.241  1.00  0.00     0.009 A 
ATOM     76  C   UNL A   1      45.266  27.519  33.817  1.00  0.00     0.009 A 
ATOM     77  C   UNL A   1      47.733  28.121  32.663  1.00  0.00     0.001 A 
ATOM     78  C   UNL A   1      46.421  26.872  34.261  1.00  0.00     0.001 A 
ATOM     79  C   UNL A   1      47.651  27.165  33.676  1.00  0.00     0.000 A 
ENDBRANCH  61  74
ENDBRANCH  35  36
ENDBRANCH  27  30
ENDBRANCH  25  26
ENDBRANCH  24  25
ENDBRANCH  23  24
ENDBRANCH   1  23
TORSDOF 15
ENDMDL
MODEL 3
REMARK VINA RESULT:     -10.8      4.036      7.925
REMARK SMILES O=C(/C=C/C(=O)NCc1ccc(-c2cccs2)s1)NCCCCNC(=O)c1ccc(-c2c3nc(c(-c4ccccc4)c4ccc([nH]4)c(-c4ccccc4)c4nc(c(-c5ccccc5)c5ccc2[nH]5)C=C4)C=C3)cc1
REMARK SMILES IDX 20 1 19 2 1 3 2 4 3 6 4 7 5 8 6 9 7 10 8 12 9 13 10 14 18 15
REMARK SMILES IDX 11 16 12 17 13 18 14 19 17 20 15 21 16 22 21 23 22 24 23 25
REMARK SMILES IDX 24 26 25 27 26 29 27 30 28 31 74 32 29 33 73 34 30 35 31 36
REMARK SMILES IDX 32 37 67 38 33 39 72 40 66 41 68 42 34 43 71 44 65 45 64 46
REMARK SMILES IDX 35 48 57 49 42 50 56 51 43 52 46 53 55 54 69 55 44 56 45 57
REMARK SMILES IDX 54 59 70 60 47 61 36 62 37 63 41 64 38 65 40 66 39 67 58 68
REMARK SMILES IDX 59 69 63 70 60 71 62 72 61 73 48 74 49 75 53 76 50 77 52 78
REMARK SMILES IDX 51 79
REMARK H PARENT 19 5 7 11 24 28 68 47 46 58
REMARK Flexibility Score: inf
ROOT
ATOM      1  C   UNL A   1      32.045  29.848  25.518  1.00  0.00     0.116 C 
ENDROOT
BRANCH   1   2
ATOM      2  N   UNL A   1      31.397  28.557  25.381  1.00  0.00    -0.353 N 
ATOM      3  O   UNL A   1      33.186  27.337  26.153  1.00  0.00    -0.270 OA
ATOM      4  C   UNL A   1      32.044  27.398  25.713  1.00  0.00     0.244 C 
ATOM      5  H   UNL A   1      30.473  28.514  25.044  1.00  0.00     0.163 HD
BRANCH   4   6
ATOM      6  C   UNL A   1      31.251  26.156  25.611  1.00  0.00     0.077 C 
ATOM      7  C   UNL A   1      31.294  25.134  26.472  1.00  0.00     0.077 C 
BRANCH   7   8
ATOM      8  C   UNL A   1      30.510  23.882  26.385  1.00  0.00     0.244 C 
ATOM      9  O   UNL A   1      29.650  23.691  27.247  1.00  0.00    -0.270 OA
ATOM     10  N   UNL A   1      30.647  22.976  25.392  1.00  0.00    -0.348 N 
ATOM     11  H   UNL A   1      30.060  22.193  25.501  1.00  0.00     0.164 HD
BRANCH  10  12
ATOM     12  C   UNL A   1      31.469  22.905  24.198  1.00  0.00     0.163 C 
BRANCH  12  13
ATOM     13  C   UNL A   1      32.772  22.265  24.576  1.00  0.00     0.024 A 
ATOM     14  C   UNL A   1      33.095  20.926  24.691  1.00  0.00     0.018 A 
ATOM     15  S   UNL A   1      34.133  23.254  24.925  1.00  0.00    -0.138 S 
ATOM     16  C   UNL A   1      34.469  20.718  25.006  1.00  0.00     0.022 A 
ATOM     17  C   UNL A   1      35.153  21.904  25.175  1.00  0.00     0.045 A 
BRANCH  17  18
ATOM     18  C   UNL A   1      36.549  22.048  25.483  1.00  0.00     0.044 A 
ATOM     19  C   UNL A   1      37.164  23.162  26.023  1.00  0.00     0.021 A 
ATOM     20  S   UNL A   1      37.683  20.804  25.160  1.00  0.00    -0.143 S 
ATOM     21  C   UNL A   1      38.567  22.980  26.194  1.00  0.00     0.012 A 
ATOM     22  C   UNL A   1      38.982  21.742  25.758  1.00  0.00     0.065 A 
ENDBRANCH  17  18
ENDBRANCH  12  13
ENDBRANCH  10  12
ENDBRANCH   7   8
ENDBRANCH   4   6
ENDBRANCH   1   2
BRANCH   1  23
ATOM     23  C   UNL A   1      31.778  30.488  26.877  1.00  0.00     0.023 C 
BRANCH  23  24
ATOM     24  C   UNL A   1      31.583  32.005  26.846  1.00  0.00     0.023 C 
BRANCH  24  25
ATOM     25  C   UNL A   1      32.799  32.830  27.252  1.00  0.00     0.116 C 
BRANCH  25  26
ATOM     26  N   UNL A   1      32.465  34.196  27.621  1.00  0.00    -0.352 N 
ATOM     27  C   UNL A   1      33.015  34.994  28.597  1.00  0.00     0.251 C 
ATOM     28  H   UNL A   1      31.742  34.609  27.095  1.00  0.00     0.163 HD
ATOM     29  O   UNL A   1      32.516  36.080  28.858  1.00  0.00    -0.269 OA
BRANCH  27  30
ATOM     30  C   UNL A   1      34.193  34.521  29.358  1.00  0.00     0.039 A 
ATOM     31  C   UNL A   1      33.990  33.901  30.593  1.00  0.00     0.014 A 
ATOM     32  C   UNL A   1      35.487  34.678  28.857  1.00  0.00     0.014 A 
ATOM     33  C   UNL A   1      35.079  33.373  31.290  1.00  0.00     0.010 A 
ATOM     34  C   UNL A   1      36.562  34.085  29.514  1.00  0.00     0.010 A 
ATOM     35  C   UNL A   1      36.370  33.424  30.737  1.00  0.00    -0.014 A 
BRANCH  35  36
ATOM     36  C   UNL A   1      37.525  32.786  31.419  1.00  0.00     0.031 A 
ATOM     37  C   UNL A   1      38.201  31.587  30.812  1.00  0.00     0.074 A 
ATOM     38  C   UNL A   1      37.930  33.248  32.618  1.00  0.00     0.049 A 
ATOM     39  N   UNL A   1      39.187  30.867  31.285  1.00  0.00    -0.248 NA
ATOM     40  C   UNL A   1      37.685  31.122  29.514  1.00  0.00     0.031 C 
ATOM     41  C   UNL A   1      37.338  34.379  33.336  1.00  0.00     0.029 A 
ATOM     42  N   UNL A   1      38.934  32.818  33.450  1.00  0.00    -0.354 N 
ATOM     43  C   UNL A   1      39.400  29.860  30.353  1.00  0.00     0.074 A 
ATOM     44  C   UNL A   1      38.406  30.028  29.314  1.00  0.00     0.031 C 
ATOM     45  C   UNL A   1      38.007  34.569  34.485  1.00  0.00     0.029 A 
ATOM     46  C   UNL A   1      39.043  33.549  34.608  1.00  0.00     0.049 A 
ATOM     47  H   UNL A   1      39.522  32.057  33.237  1.00  0.00     0.167 HD
ATOM     48  C   UNL A   1      40.349  28.893  30.348  1.00  0.00     0.031 A 
ATOM     49  C   UNL A   1      39.876  33.412  35.657  1.00  0.00     0.031 A 
ATOM     50  C   UNL A   1      41.338  28.722  31.379  1.00  0.00     0.049 A 
ATOM     51  C   UNL A   1      40.902  32.313  35.643  1.00  0.00     0.074 A 
ATOM     52  C   UNL A   1      42.371  27.804  31.440  1.00  0.00     0.029 A 
ATOM     53  N   UNL A   1      41.411  29.485  32.536  1.00  0.00    -0.354 N 
ATOM     54  N   UNL A   1      41.135  31.411  34.719  1.00  0.00    -0.248 NA
ATOM     55  C   UNL A   1      41.788  32.220  36.811  1.00  0.00     0.031 C 
ATOM     56  C   UNL A   1      43.033  27.970  32.660  1.00  0.00     0.029 A 
ATOM     57  C   UNL A   1      42.455  29.038  33.329  1.00  0.00     0.049 A 
ATOM     58  H   UNL A   1      40.811  30.232  32.759  1.00  0.00     0.167 HD
ATOM     59  C   UNL A   1      42.210  30.665  35.182  1.00  0.00     0.074 A 
ATOM     60  C   UNL A   1      42.595  31.230  36.459  1.00  0.00     0.031 C 
ATOM     61  C   UNL A   1      42.826  29.606  34.600  1.00  0.00     0.031 A 
BRANCH  48  62
ATOM     62  C   UNL A   1      40.353  27.935  29.187  1.00  0.00    -0.014 A 
ATOM     63  C   UNL A   1      39.626  26.733  29.231  1.00  0.00     0.009 A 
ATOM     64  C   UNL A   1      41.069  28.250  28.022  1.00  0.00     0.009 A 
ATOM     65  C   UNL A   1      39.653  25.849  28.150  1.00  0.00     0.001 A 
ATOM     66  C   UNL A   1      41.066  27.381  26.929  1.00  0.00     0.001 A 
ATOM     67  C   UNL A   1      40.368  26.176  26.999  1.00  0.00     0.000 A 
ENDBRANCH  48  62
BRANCH  49  68
ATOM     68  C   UNL A   1      39.780  34.346  36.811  1.00  0.00    -0.014 A 
ATOM     69  C   UNL A   1      40.487  35.558  36.808  1.00  0.00     0.009 A 
ATOM     70  C   UNL A   1      38.987  34.027  37.924  1.00  0.00     0.009 A 
ATOM     71  C   UNL A   1      40.422  36.418  37.906  1.00  0.00     0.001 A 
ATOM     72  C   UNL A   1      38.898  34.904  39.007  1.00  0.00     0.001 A 
ATOM     73  C   UNL A   1      39.624  36.094  39.002  1.00  0.00     0.000 A 
ENDBRANCH  49  68
BRANCH  61  74
ATOM     74  C   UNL A   1      44.005  29.012  35.320  1.00  0.00    -0.014 A 
ATOM     75  C   UNL A   1      45.309  29.489  35.110  1.00  0.00     0.009 A 
ATOM     76  C   UNL A   1      43.800  27.985  36.255  1.00  0.00     0.009 A 
ATOM     77  C   UNL A   1      46.386  28.924  35.797  1.00  0.00     0.001 A 
ATOM     78  C   UNL A   1      44.874  27.445  36.964  1.00  0.00     0.001 A 
ATOM     79  C   UNL A   1      46.167  27.908  36.726  1.00  0.00     0.000 A 
ENDBRANCH  61  74
ENDBRANCH  35  36
ENDBRANCH  27  30
ENDBRANCH  25  26
ENDBRANCH  24  25
ENDBRANCH  23  24
ENDBRANCH   1  23
TORSDOF 15
ENDMDL
