MODEL 1
REMARK VINA RESULT:     -12.6      0.000      0.000
REMARK SMILES COc1ccc2c(c1)c(CC(=O)NCCCCNC(=O)c1ccc(-c3c4nc(c(-c5ccccc5)c5ccc([nH]5)c(-c5ccccc5)c5nc(c(-c6ccccc6)c6ccc3[nH]6)C=C5)C=C4)cc1)c(C)n2C(=O)c1ccc(Cl)cc1
REMARK SMILES IDX 15 1 14 2 13 3 11 4 12 5 10 7 9 8 3 9 4 10 8 11 5 12 7 13
REMARK SMILES IDX 6 14 71 15 69 16 70 17 2 18 1 19 72 20 73 21 74 22 75 23
REMARK SMILES IDX 80 24 76 25 79 26 77 27 78 28 16 29 17 30 18 31 19 32 20 34
REMARK SMILES IDX 21 35 22 36 68 37 23 38 67 39 24 40 25 41 26 42 61 43 27 44
REMARK SMILES IDX 66 45 60 46 62 47 28 48 65 49 59 50 58 51 29 53 51 54 36 55
REMARK SMILES IDX 50 56 37 57 40 58 49 59 63 60 38 61 39 62 48 64 64 65 41 66
REMARK SMILES IDX 30 67 31 68 35 69 32 70 34 71 33 72 52 73 53 74 57 75 54 76
REMARK SMILES IDX 56 77 55 78 42 79 43 80 47 81 44 82 46 83 45 84
REMARK H PARENT 13 6 18 33 62 52 40 63
REMARK Flexibility Score: inf
ROOT
ATOM      1  C   UNL A   1      31.719  27.670  25.543  1.00  0.00     0.023 C 
ENDROOT
BRANCH   1   2
ATOM      2  C   UNL A   1      30.646  26.586  25.620  1.00  0.00     0.116 C 
BRANCH   2   3
ATOM      3  N   UNL A   1      30.918  25.626  26.668  1.00  0.00    -0.356 N 
ATOM      4  C   UNL A   1      31.344  24.335  26.537  1.00  0.00     0.224 C 
ATOM      5  O   UNL A   1      31.547  23.680  27.562  1.00  0.00    -0.275 OA
ATOM      6  H   UNL A   1      30.780  25.943  27.589  1.00  0.00     0.163 HD
BRANCH   4   7
ATOM      7  C   UNL A   1      31.612  23.757  25.155  1.00  0.00     0.138 C 
BRANCH   7   8
ATOM      8  C   UNL A   1      32.962  23.106  25.027  1.00  0.00    -0.009 A 
ATOM      9  C   UNL A   1      32.879  19.299  24.781  1.00  0.00     0.119 A 
ATOM     10  C   UNL A   1      34.252  19.118  24.800  1.00  0.00     0.048 A 
ATOM     11  C   UNL A   1      32.351  20.590  24.818  1.00  0.00     0.057 A 
ATOM     12  C   UNL A   1      35.119  20.214  24.859  1.00  0.00     0.031 A 
ATOM     13  C   UNL A   1      33.206  21.713  24.887  1.00  0.00     0.008 A 
ATOM     14  C   UNL A   1      34.590  21.522  24.860  1.00  0.00     0.057 A 
ATOM     15  N   UNL A   1      35.194  22.788  24.799  1.00  0.00    -0.280 N 
ATOM     16  C   UNL A   1      34.201  23.734  25.097  1.00  0.00     0.028 A 
ATOM     17  C   UNL A   1      34.474  25.178  25.384  1.00  0.00     0.065 C 
BRANCH   9  18
ATOM     18  O   UNL A   1      31.960  18.288  24.703  1.00  0.00    -0.497 OA
ATOM     19  C   UNL A   1      32.369  17.058  25.291  1.00  0.00     0.278 C 
ENDBRANCH   9  18
BRANCH  15  20
ATOM     20  C   UNL A   1      36.556  23.076  24.482  1.00  0.00     0.262 C 
ATOM     21  O   UNL A   1      36.855  23.360  23.331  1.00  0.00    -0.268 OA
BRANCH  20  22
ATOM     22  C   UNL A   1      37.670  23.043  25.447  1.00  0.00     0.040 A 
ATOM     23  C   UNL A   1      37.989  24.172  26.210  1.00  0.00     0.015 A 
ATOM     24  C   UNL A   1      38.415  21.864  25.558  1.00  0.00     0.015 A 
ATOM     25  C   UNL A   1      39.118  24.140  27.033  1.00  0.00     0.021 A 
ATOM     26  C   UNL A   1      39.537  21.838  26.388  1.00  0.00     0.021 A 
ATOM     27  C   UNL A   1      39.893  22.980  27.107  1.00  0.00     0.041 A 
ATOM     28  Cl  UNL A   1      41.314  22.964  28.077  1.00  0.00    -0.084 Cl
ENDBRANCH  20  22
ENDBRANCH  15  20
ENDBRANCH   7   8
ENDBRANCH   4   7
ENDBRANCH   2   3
ENDBRANCH   1   2
BRANCH   1  29
ATOM     29  C   UNL A   1      31.805  28.569  26.784  1.00  0.00     0.023 C 
BRANCH  29  30
ATOM     30  C   UNL A   1      33.232  28.895  27.234  1.00  0.00     0.116 C 
BRANCH  30  31
ATOM     31  N   UNL A   1      33.380  30.251  27.725  1.00  0.00    -0.352 N 
ATOM     32  C   UNL A   1      34.435  31.045  28.070  1.00  0.00     0.251 C 
ATOM     33  H   UNL A   1      32.514  30.708  27.835  1.00  0.00     0.163 HD
ATOM     34  O   UNL A   1      34.158  32.205  28.387  1.00  0.00    -0.269 OA
BRANCH  32  35
ATOM     35  C   UNL A   1      35.856  30.608  28.135  1.00  0.00     0.039 A 
ATOM     36  C   UNL A   1      36.349  29.382  27.691  1.00  0.00     0.014 A 
ATOM     37  C   UNL A   1      36.746  31.503  28.758  1.00  0.00     0.014 A 
ATOM     38  C   UNL A   1      37.670  29.020  27.932  1.00  0.00     0.010 A 
ATOM     39  C   UNL A   1      38.070  31.152  28.995  1.00  0.00     0.010 A 
ATOM     40  C   UNL A   1      38.514  29.886  28.626  1.00  0.00    -0.014 A 
BRANCH  40  41
ATOM     41  C   UNL A   1      39.851  29.402  28.950  1.00  0.00     0.031 A 
ATOM     42  C   UNL A   1      40.158  29.161  30.390  1.00  0.00     0.074 A 
ATOM     43  C   UNL A   1      40.751  29.100  27.994  1.00  0.00     0.049 A 
ATOM     44  N   UNL A   1      41.136  29.626  31.101  1.00  0.00    -0.248 NA
ATOM     45  C   UNL A   1      39.222  28.310  31.140  1.00  0.00     0.031 C 
ATOM     46  C   UNL A   1      40.534  28.982  26.548  1.00  0.00     0.029 A 
ATOM     47  N   UNL A   1      42.049  28.720  28.148  1.00  0.00    -0.354 N 
ATOM     48  C   UNL A   1      41.016  29.040  32.361  1.00  0.00     0.074 A 
ATOM     49  C   UNL A   1      39.782  28.295  32.350  1.00  0.00     0.031 C 
ATOM     50  C   UNL A   1      41.583  28.332  25.997  1.00  0.00     0.029 A 
ATOM     51  C   UNL A   1      42.597  28.137  27.019  1.00  0.00     0.049 A 
ATOM     52  H   UNL A   1      42.551  28.848  28.985  1.00  0.00     0.167 HD
ATOM     53  C   UNL A   1      41.992  29.096  33.309  1.00  0.00     0.031 A 
ATOM     54  C   UNL A   1      43.771  27.469  26.949  1.00  0.00     0.031 A 
ATOM     55  C   UNL A   1      42.939  30.144  33.065  1.00  0.00     0.049 A 
ATOM     56  C   UNL A   1      44.589  27.851  28.119  1.00  0.00     0.074 A 
ATOM     57  C   UNL A   1      42.883  31.523  33.060  1.00  0.00     0.029 A 
ATOM     58  N   UNL A   1      44.130  29.816  32.469  1.00  0.00    -0.354 N 
ATOM     59  N   UNL A   1      45.088  29.039  28.301  1.00  0.00    -0.248 NA
ATOM     60  C   UNL A   1      44.549  27.004  29.299  1.00  0.00     0.031 C 
ATOM     61  C   UNL A   1      43.799  31.926  32.047  1.00  0.00     0.029 A 
ATOM     62  C   UNL A   1      44.375  30.769  31.515  1.00  0.00     0.049 A 
ATOM     63  H   UNL A   1      44.700  29.043  32.687  1.00  0.00     0.167 HD
ATOM     64  C   UNL A   1      45.049  29.238  29.673  1.00  0.00     0.074 A 
ATOM     65  C   UNL A   1      44.825  27.911  30.239  1.00  0.00     0.031 C 
ATOM     66  C   UNL A   1      44.928  30.490  30.205  1.00  0.00     0.031 A 
BRANCH  53  67
ATOM     67  C   UNL A   1      42.228  28.031  34.349  1.00  0.00    -0.014 A 
ATOM     68  C   UNL A   1      41.674  28.091  35.641  1.00  0.00     0.009 A 
ATOM     69  C   UNL A   1      42.816  26.809  33.971  1.00  0.00     0.009 A 
ATOM     70  C   UNL A   1      41.713  27.002  36.518  1.00  0.00     0.001 A 
ATOM     71  C   UNL A   1      42.819  25.702  34.831  1.00  0.00     0.001 A 
ATOM     72  C   UNL A   1      42.268  25.800  36.104  1.00  0.00     0.000 A 
ENDBRANCH  53  67
BRANCH  54  73
ATOM     73  C   UNL A   1      44.061  26.273  26.136  1.00  0.00    -0.014 A 
ATOM     74  C   UNL A   1      43.007  25.430  25.734  1.00  0.00     0.009 A 
ATOM     75  C   UNL A   1      45.374  25.809  25.979  1.00  0.00     0.009 A 
ATOM     76  C   UNL A   1      43.254  24.155  25.221  1.00  0.00     0.001 A 
ATOM     77  C   UNL A   1      45.621  24.529  25.465  1.00  0.00     0.001 A 
ATOM     78  C   UNL A   1      44.562  23.699  25.100  1.00  0.00     0.000 A 
ENDBRANCH  54  73
BRANCH  66  79
ATOM     79  C   UNL A   1      45.060  31.677  29.277  1.00  0.00    -0.014 A 
ATOM     80  C   UNL A   1      43.932  32.104  28.559  1.00  0.00     0.009 A 
ATOM     81  C   UNL A   1      46.306  32.244  28.953  1.00  0.00     0.009 A 
ATOM     82  C   UNL A   1      44.048  33.055  27.541  1.00  0.00     0.001 A 
ATOM     83  C   UNL A   1      46.418  33.214  27.952  1.00  0.00     0.001 A 
ATOM     84  C   UNL A   1      45.290  33.610  27.239  1.00  0.00     0.000 A 
ENDBRANCH  66  79
ENDBRANCH  40  41
ENDBRANCH  32  35
ENDBRANCH  30  31
ENDBRANCH  29  30
ENDBRANCH   1  29
TORSDOF 15
ENDMDL
MODEL 2
REMARK VINA RESULT:     -12.4      2.817      8.157
REMARK SMILES COc1ccc2c(c1)c(CC(=O)NCCCCNC(=O)c1ccc(-c3c4nc(c(-c5ccccc5)c5ccc([nH]5)c(-c5ccccc5)c5nc(c(-c6ccccc6)c6ccc3[nH]6)C=C5)C=C4)cc1)c(C)n2C(=O)c1ccc(Cl)cc1
REMARK SMILES IDX 15 1 14 2 13 3 11 4 12 5 10 7 9 8 3 9 4 10 8 11 5 12 7 13
REMARK SMILES IDX 6 14 71 15 69 16 70 17 2 18 1 19 72 20 73 21 74 22 75 23
REMARK SMILES IDX 80 24 76 25 79 26 77 27 78 28 16 29 17 30 18 31 19 32 20 34
REMARK SMILES IDX 21 35 22 36 68 37 23 38 67 39 24 40 25 41 26 42 61 43 27 44
REMARK SMILES IDX 66 45 60 46 62 47 28 48 65 49 59 50 58 51 29 53 51 54 36 55
REMARK SMILES IDX 50 56 37 57 40 58 49 59 63 60 38 61 39 62 48 64 64 65 41 66
REMARK SMILES IDX 30 67 31 68 35 69 32 70 34 71 33 72 52 73 53 74 57 75 54 76
REMARK SMILES IDX 56 77 55 78 42 79 43 80 47 81 44 82 46 83 45 84
REMARK H PARENT 13 6 18 33 62 52 40 63
REMARK Flexibility Score: inf
ROOT
ATOM      1  C   UNL A   1      35.257  22.352  23.955  1.00  0.00     0.023 C 
ENDROOT
BRANCH   1   2
ATOM      2  C   UNL A   1      34.031  23.253  23.829  1.00  0.00     0.116 C 
BRANCH   2   3
ATOM      3  N   UNL A   1      34.202  24.265  22.809  1.00  0.00    -0.356 N 
ATOM      4  C   UNL A   1      33.335  25.260  22.456  1.00  0.00     0.224 C 
ATOM      5  O   UNL A   1      33.679  26.048  21.572  1.00  0.00    -0.275 OA
ATOM      6  H   UNL A   1      35.048  24.234  22.309  1.00  0.00     0.163 HD
BRANCH   4   7
ATOM      7  C   UNL A   1      32.009  25.411  23.188  1.00  0.00     0.138 C 
BRANCH   7   8
ATOM      8  C   UNL A   1      31.919  26.664  24.015  1.00  0.00    -0.009 A 
ATOM      9  C   UNL A   1      29.528  29.306  22.647  1.00  0.00     0.119 A 
ATOM     10  C   UNL A   1      29.826  30.279  23.587  1.00  0.00     0.048 A 
ATOM     11  C   UNL A   1      30.147  28.058  22.723  1.00  0.00     0.057 A 
ATOM     12  C   UNL A   1      30.743  30.026  24.613  1.00  0.00     0.031 A 
ATOM     13  C   UNL A   1      31.082  27.781  23.746  1.00  0.00     0.008 A 
ATOM     14  C   UNL A   1      31.342  28.754  24.716  1.00  0.00     0.057 A 
ATOM     15  N   UNL A   1      32.190  28.180  25.678  1.00  0.00    -0.280 N 
ATOM     16  C   UNL A   1      32.680  26.983  25.134  1.00  0.00     0.028 A 
ATOM     17  C   UNL A   1      33.804  26.190  25.725  1.00  0.00     0.065 C 
BRANCH   9  18
ATOM     18  O   UNL A   1      28.631  29.458  21.625  1.00  0.00    -0.497 OA
ATOM     19  C   UNL A   1      28.252  30.803  21.355  1.00  0.00     0.278 C 
ENDBRANCH   9  18
BRANCH  15  20
ATOM     20  C   UNL A   1      32.493  28.698  26.973  1.00  0.00     0.262 C 
ATOM     21  O   UNL A   1      31.830  28.334  27.933  1.00  0.00    -0.268 OA
BRANCH  20  22
ATOM     22  C   UNL A   1      33.559  29.675  27.260  1.00  0.00     0.040 A 
ATOM     23  C   UNL A   1      34.869  29.253  27.511  1.00  0.00     0.015 A 
ATOM     24  C   UNL A   1      33.219  31.031  27.303  1.00  0.00     0.015 A 
ATOM     25  C   UNL A   1      35.828  30.196  27.888  1.00  0.00     0.021 A 
ATOM     26  C   UNL A   1      34.185  31.969  27.672  1.00  0.00     0.021 A 
ATOM     27  C   UNL A   1      35.479  31.545  27.980  1.00  0.00     0.041 A 
ATOM     28  Cl  UNL A   1      36.647  32.696  28.499  1.00  0.00    -0.084 Cl
ENDBRANCH  20  22
ENDBRANCH  15  20
ENDBRANCH   7   8
ENDBRANCH   4   7
ENDBRANCH   2   3
ENDBRANCH   1   2
BRANCH   1  29
ATOM     29  C   UNL A   1      36.064  22.553  25.246  1.00  0.00     0.023 C 
BRANCH  29  30
ATOM     30  C   UNL A   1      37.500  23.039  25.027  1.00  0.00     0.116 C 
BRANCH  30  31
ATOM     31  N   UNL A   1      38.490  22.199  25.670  1.00  0.00    -0.352 N 
ATOM     32  C   UNL A   1      39.488  22.401  26.578  1.00  0.00     0.251 C 
ATOM     33  H   UNL A   1      38.429  21.258  25.383  1.00  0.00     0.163 HD
ATOM     34  O   UNL A   1      40.095  21.393  26.950  1.00  0.00    -0.269 OA
BRANCH  32  35
ATOM     35  C   UNL A   1      39.916  23.725  27.106  1.00  0.00     0.039 A 
ATOM     36  C   UNL A   1      41.084  23.974  27.825  1.00  0.00     0.014 A 
ATOM     37  C   UNL A   1      39.016  24.788  26.901  1.00  0.00     0.014 A 
ATOM     38  C   UNL A   1      41.313  25.220  28.395  1.00  0.00     0.010 A 
ATOM     39  C   UNL A   1      39.242  26.040  27.461  1.00  0.00     0.010 A 
ATOM     40  C   UNL A   1      40.369  26.237  28.252  1.00  0.00    -0.014 A 
BRANCH  40  41
ATOM     41  C   UNL A   1      40.612  27.482  28.970  1.00  0.00     0.031 A 
ATOM     42  C   UNL A   1      41.611  28.423  28.384  1.00  0.00     0.074 A 
ATOM     43  C   UNL A   1      39.912  27.820  30.070  1.00  0.00     0.049 A 
ATOM     44  N   UNL A   1      42.655  28.951  28.942  1.00  0.00    -0.248 NA
ATOM     45  C   UNL A   1      41.433  28.794  26.972  1.00  0.00     0.031 C 
ATOM     46  C   UNL A   1      38.706  27.182  30.609  1.00  0.00     0.029 A 
ATOM     47  N   UNL A   1      40.084  28.900  30.881  1.00  0.00    -0.354 N 
ATOM     48  C   UNL A   1      43.208  29.815  27.996  1.00  0.00     0.074 A 
ATOM     49  C   UNL A   1      42.456  29.625  26.780  1.00  0.00     0.031 C 
ATOM     50  C   UNL A   1      38.125  28.019  31.497  1.00  0.00     0.029 A 
ATOM     51  C   UNL A   1      38.998  29.161  31.699  1.00  0.00     0.049 A 
ATOM     52  H   UNL A   1      40.904  29.444  30.886  1.00  0.00     0.167 HD
ATOM     53  C   UNL A   1      44.174  30.729  28.291  1.00  0.00     0.031 A 
ATOM     54  C   UNL A   1      38.796  30.280  32.431  1.00  0.00     0.031 A 
ATOM     55  C   UNL A   1      44.856  30.434  29.517  1.00  0.00     0.049 A 
ATOM     56  C   UNL A   1      40.095  30.964  32.598  1.00  0.00     0.074 A 
ATOM     57  C   UNL A   1      45.698  29.426  29.942  1.00  0.00     0.029 A 
ATOM     58  N   UNL A   1      44.475  31.106  30.650  1.00  0.00    -0.354 N 
ATOM     59  N   UNL A   1      41.084  30.488  33.297  1.00  0.00    -0.248 NA
ATOM     60  C   UNL A   1      40.444  32.026  31.667  1.00  0.00     0.031 C 
ATOM     61  C   UNL A   1      45.396  29.252  31.323  1.00  0.00     0.029 A 
ATOM     62  C   UNL A   1      44.408  30.181  31.659  1.00  0.00     0.049 A 
ATOM     63  H   UNL A   1      44.286  32.070  30.722  1.00  0.00     0.167 HD
ATOM     64  C   UNL A   1      42.227  30.891  32.623  1.00  0.00     0.074 A 
ATOM     65  C   UNL A   1      41.775  31.931  31.705  1.00  0.00     0.031 C 
ATOM     66  C   UNL A   1      43.378  30.157  32.677  1.00  0.00     0.031 A 
BRANCH  53  67
ATOM     67  C   UNL A   1      44.344  32.044  27.577  1.00  0.00    -0.014 A 
ATOM     68  C   UNL A   1      44.921  32.148  26.298  1.00  0.00     0.009 A 
ATOM     69  C   UNL A   1      43.698  33.193  28.073  1.00  0.00     0.009 A 
ATOM     70  C   UNL A   1      44.873  33.333  25.555  1.00  0.00     0.001 A 
ATOM     71  C   UNL A   1      43.611  34.369  27.314  1.00  0.00     0.001 A 
ATOM     72  C   UNL A   1      44.199  34.438  26.056  1.00  0.00     0.000 A 
ENDBRANCH  53  67
BRANCH  54  73
ATOM     73  C   UNL A   1      37.508  30.957  32.675  1.00  0.00    -0.014 A 
ATOM     74  C   UNL A   1      36.541  31.007  31.652  1.00  0.00     0.009 A 
ATOM     75  C   UNL A   1      37.325  31.777  33.796  1.00  0.00     0.009 A 
ATOM     76  C   UNL A   1      35.445  31.868  31.731  1.00  0.00     0.001 A 
ATOM     77  C   UNL A   1      36.225  32.642  33.875  1.00  0.00     0.001 A 
ATOM     78  C   UNL A   1      35.295  32.696  32.838  1.00  0.00     0.000 A 
ENDBRANCH  54  73
BRANCH  66  79
ATOM     79  C   UNL A   1      43.450  29.012  33.663  1.00  0.00    -0.014 A 
ATOM     80  C   UNL A   1      44.269  29.144  34.796  1.00  0.00     0.009 A 
ATOM     81  C   UNL A   1      42.891  27.750  33.393  1.00  0.00     0.009 A 
ATOM     82  C   UNL A   1      44.532  28.048  35.622  1.00  0.00     0.001 A 
ATOM     83  C   UNL A   1      43.133  26.659  34.234  1.00  0.00     0.001 A 
ATOM     84  C   UNL A   1      43.963  26.807  35.342  1.00  0.00     0.000 A 
ENDBRANCH  66  79
ENDBRANCH  40  41
ENDBRANCH  32  35
ENDBRANCH  30  31
ENDBRANCH  29  30
ENDBRANCH   1  29
TORSDOF 15
ENDMDL
MODEL 3
REMARK VINA RESULT:     -12.0      2.610      7.871
REMARK SMILES COc1ccc2c(c1)c(CC(=O)NCCCCNC(=O)c1ccc(-c3c4nc(c(-c5ccccc5)c5ccc([nH]5)c(-c5ccccc5)c5nc(c(-c6ccccc6)c6ccc3[nH]6)C=C5)C=C4)cc1)c(C)n2C(=O)c1ccc(Cl)cc1
REMARK SMILES IDX 15 1 14 2 13 3 11 4 12 5 10 7 9 8 3 9 4 10 8 11 5 12 7 13
REMARK SMILES IDX 6 14 71 15 69 16 70 17 2 18 1 19 72 20 73 21 74 22 75 23
REMARK SMILES IDX 80 24 76 25 79 26 77 27 78 28 16 29 17 30 18 31 19 32 20 34
REMARK SMILES IDX 21 35 22 36 68 37 23 38 67 39 24 40 25 41 26 42 61 43 27 44
REMARK SMILES IDX 66 45 60 46 62 47 28 48 65 49 59 50 58 51 29 53 51 54 36 55
REMARK SMILES IDX 50 56 37 57 40 58 49 59 63 60 38 61 39 62 48 64 64 65 41 66
REMARK SMILES IDX 30 67 31 68 35 69 32 70 34 71 33 72 52 73 53 74 57 75 54 76
REMARK SMILES IDX 56 77 55 78 42 79 43 80 47 81 44 82 46 83 45 84
REMARK H PARENT 13 6 18 33 62 52 40 63
REMARK Flexibility Score: inf
ROOT
ATOM      1  C   UNL A   1      39.781  23.691  27.704  1.00  0.00     0.023 C 
ENDROOT
BRANCH   1   2
ATOM      2  C   UNL A   1      38.917  24.537  26.771  1.00  0.00     0.116 C 
BRANCH   2   3
ATOM      3  N   UNL A   1      38.496  23.798  25.600  1.00  0.00    -0.356 N 
ATOM      4  C   UNL A   1      37.237  23.683  25.084  1.00  0.00     0.224 C 
ATOM      5  O   UNL A   1      37.086  23.024  24.054  1.00  0.00    -0.275 OA
ATOM      6  H   UNL A   1      39.206  23.319  25.115  1.00  0.00     0.163 HD
BRANCH   4   7
ATOM      7  C   UNL A   1      36.073  24.408  25.746  1.00  0.00     0.138 C 
BRANCH   7   8
ATOM      8  C   UNL A   1      34.725  23.905  25.308  1.00  0.00    -0.009 A 
ATOM      9  C   UNL A   1      33.168  25.836  22.408  1.00  0.00     0.119 A 
ATOM     10  C   UNL A   1      31.959  25.160  22.410  1.00  0.00     0.048 A 
ATOM     11  C   UNL A   1      34.167  25.471  23.312  1.00  0.00     0.057 A 
ATOM     12  C   UNL A   1      31.725  24.114  23.310  1.00  0.00     0.031 A 
ATOM     13  C   UNL A   1      33.950  24.423  24.236  1.00  0.00     0.008 A 
ATOM     14  C   UNL A   1      32.745  23.717  24.199  1.00  0.00     0.057 A 
ATOM     15  N   UNL A   1      32.844  22.656  25.114  1.00  0.00    -0.280 N 
ATOM     16  C   UNL A   1      33.972  22.903  25.911  1.00  0.00     0.028 A 
ATOM     17  C   UNL A   1      34.295  22.153  27.166  1.00  0.00     0.065 C 
BRANCH   9  18
ATOM     18  O   UNL A   1      33.491  26.854  21.553  1.00  0.00    -0.497 OA
ATOM     19  C   UNL A   1      33.827  28.085  22.186  1.00  0.00     0.278 C 
ENDBRANCH   9  18
BRANCH  15  20
ATOM     20  C   UNL A   1      31.978  21.526  25.216  1.00  0.00     0.262 C 
ATOM     21  O   UNL A   1      30.862  21.668  25.694  1.00  0.00    -0.268 OA
BRANCH  20  22
ATOM     22  C   UNL A   1      32.329  20.157  24.797  1.00  0.00     0.040 A 
ATOM     23  C   UNL A   1      32.743  19.205  25.735  1.00  0.00     0.015 A 
ATOM     24  C   UNL A   1      32.264  19.844  23.435  1.00  0.00     0.015 A 
ATOM     25  C   UNL A   1      33.173  17.952  25.290  1.00  0.00     0.021 A 
ATOM     26  C   UNL A   1      32.688  18.589  22.998  1.00  0.00     0.021 A 
ATOM     27  C   UNL A   1      33.156  17.656  23.925  1.00  0.00     0.041 A 
ATOM     28  Cl  UNL A   1      33.740  16.134  23.375  1.00  0.00    -0.084 Cl
ENDBRANCH  20  22
ENDBRANCH  15  20
ENDBRANCH   7   8
ENDBRANCH   4   7
ENDBRANCH   2   3
ENDBRANCH   1   2
BRANCH   1  29
ATOM     29  C   UNL A   1      40.130  22.299  27.158  1.00  0.00     0.023 C 
BRANCH  29  30
ATOM     30  C   UNL A   1      41.624  21.962  27.191  1.00  0.00     0.116 C 
BRANCH  30  31
ATOM     31  N   UNL A   1      42.323  22.349  25.981  1.00  0.00    -0.352 N 
ATOM     32  C   UNL A   1      42.863  23.508  25.505  1.00  0.00     0.251 C 
ATOM     33  H   UNL A   1      42.434  21.597  25.354  1.00  0.00     0.163 HD
ATOM     34  O   UNL A   1      43.459  23.425  24.427  1.00  0.00    -0.269 OA
BRANCH  32  35
ATOM     35  C   UNL A   1      42.750  24.842  26.156  1.00  0.00     0.039 A 
ATOM     36  C   UNL A   1      43.297  25.192  27.389  1.00  0.00     0.014 A 
ATOM     37  C   UNL A   1      41.967  25.793  25.475  1.00  0.00     0.014 A 
ATOM     38  C   UNL A   1      43.006  26.421  27.969  1.00  0.00     0.010 A 
ATOM     39  C   UNL A   1      41.679  27.027  26.044  1.00  0.00     0.010 A 
ATOM     40  C   UNL A   1      42.159  27.317  27.317  1.00  0.00    -0.014 A 
BRANCH  40  41
ATOM     41  C   UNL A   1      41.801  28.538  28.029  1.00  0.00     0.031 A 
ATOM     42  C   UNL A   1      42.775  29.667  27.979  1.00  0.00     0.074 A 
ATOM     43  C   UNL A   1      40.609  28.685  28.638  1.00  0.00     0.049 A 
ATOM     44  N   UNL A   1      43.306  30.326  28.960  1.00  0.00    -0.248 NA
ATOM     45  C   UNL A   1      43.240  30.091  26.650  1.00  0.00     0.031 C 
ATOM     46  C   UNL A   1      39.426  27.823  28.538  1.00  0.00     0.029 A 
ATOM     47  N   UNL A   1      40.173  29.725  29.401  1.00  0.00    -0.354 N 
ATOM     48  C   UNL A   1      44.086  31.327  28.381  1.00  0.00     0.074 A 
ATOM     49  C   UNL A   1      44.064  31.092  26.958  1.00  0.00     0.031 C 
ATOM     50  C   UNL A   1      38.351  28.493  29.008  1.00  0.00     0.029 A 
ATOM     51  C   UNL A   1      38.801  29.750  29.579  1.00  0.00     0.049 A 
ATOM     52  H   UNL A   1      40.778  30.397  29.790  1.00  0.00     0.167 HD
ATOM     53  C   UNL A   1      44.610  32.369  29.085  1.00  0.00     0.031 A 
ATOM     54  C   UNL A   1      38.076  30.771  30.089  1.00  0.00     0.031 A 
ATOM     55  C   UNL A   1      44.654  32.116  30.495  1.00  0.00     0.049 A 
ATOM     56  C   UNL A   1      38.988  31.651  30.849  1.00  0.00     0.074 A 
ATOM     57  C   UNL A   1      45.347  31.238  31.304  1.00  0.00     0.029 A 
ATOM     58  N   UNL A   1      43.660  32.643  31.279  1.00  0.00    -0.354 N 
ATOM     59  N   UNL A   1      39.581  31.303  31.955  1.00  0.00    -0.248 NA
ATOM     60  C   UNL A   1      39.551  32.812  30.179  1.00  0.00     0.031 C 
ATOM     61  C   UNL A   1      44.451  30.930  32.366  1.00  0.00     0.029 A 
ATOM     62  C   UNL A   1      43.278  31.658  32.153  1.00  0.00     0.049 A 
ATOM     63  H   UNL A   1      43.293  33.555  31.225  1.00  0.00     0.167 HD
ATOM     64  C   UNL A   1      40.816  31.932  31.912  1.00  0.00     0.074 A 
ATOM     65  C   UNL A   1      40.690  32.938  30.862  1.00  0.00     0.031 C 
ATOM     66  C   UNL A   1      41.906  31.398  32.540  1.00  0.00     0.031 A 
BRANCH  53  67
ATOM     67  C   UNL A   1      44.870  33.737  28.509  1.00  0.00    -0.014 A 
ATOM     68  C   UNL A   1      46.166  34.258  28.336  1.00  0.00     0.009 A 
ATOM     69  C   UNL A   1      43.819  34.443  27.892  1.00  0.00     0.009 A 
ATOM     70  C   UNL A   1      46.406  35.424  27.602  1.00  0.00     0.001 A 
ATOM     71  C   UNL A   1      44.061  35.588  27.121  1.00  0.00     0.001 A 
ATOM     72  C   UNL A   1      45.354  36.079  26.977  1.00  0.00     0.000 A 
ENDBRANCH  53  67
BRANCH  54  73
ATOM     73  C   UNL A   1      36.735  31.207  29.655  1.00  0.00    -0.014 A 
ATOM     74  C   UNL A   1      36.452  31.334  28.282  1.00  0.00     0.009 A 
ATOM     75  C   UNL A   1      35.823  31.751  30.570  1.00  0.00     0.009 A 
ATOM     76  C   UNL A   1      35.314  32.008  27.835  1.00  0.00     0.001 A 
ATOM     77  C   UNL A   1      34.681  32.428  30.121  1.00  0.00     0.001 A 
ATOM     78  C   UNL A   1      34.435  32.567  28.756  1.00  0.00     0.000 A 
ENDBRANCH  54  73
BRANCH  66  79
ATOM     79  C   UNL A   1      41.692  30.222  33.467  1.00  0.00    -0.014 A 
ATOM     80  C   UNL A   1      41.737  30.435  34.853  1.00  0.00     0.009 A 
ATOM     81  C   UNL A   1      41.649  28.896  33.001  1.00  0.00     0.009 A 
ATOM     82  C   UNL A   1      41.754  29.358  35.744  1.00  0.00     0.001 A 
ATOM     83  C   UNL A   1      41.640  27.819  33.893  1.00  0.00     0.001 A 
ATOM     84  C   UNL A   1      41.704  28.051  35.264  1.00  0.00     0.000 A 
ENDBRANCH  66  79
ENDBRANCH  40  41
ENDBRANCH  32  35
ENDBRANCH  30  31
ENDBRANCH  29  30
ENDBRANCH   1  29
TORSDOF 15
ENDMDL
