MODEL 1
REMARK VINA RESULT:     -12.2      0.000      0.000
REMARK SMILES Cc1c(-c2ccc(O)cc2)nc(N)c(C#N)c1-c1ccccc1OCC(=O)NCCCCNC(=O)c1ccc(-c2c3nc(c(-c4ccccc4)c4ccc([nH]4)c(-c4ccccc4)c4nc(c(-c5ccccc5)c5ccc2[nH]5)C=C4)C=C3)cc1
REMARK SMILES IDX 29 1 28 2 26 3 27 4 25 6 24 7 23 8 18 9 19 10 20 11 22 12
REMARK SMILES IDX 21 13 17 14 1 15 2 16 3 17 11 18 14 19 12 20 4 21 5 22 10 23
REMARK SMILES IDX 6 24 9 25 7 26 8 27 15 29 16 30 13 31 30 34 31 35 32 36
REMARK SMILES IDX 33 37 34 38 35 40 36 41 37 42 83 43 38 44 82 45 39 46 40 47
REMARK SMILES IDX 41 48 76 49 42 50 81 51 75 52 77 53 43 54 80 55 74 56 73 57
REMARK SMILES IDX 44 59 66 60 51 61 65 62 52 63 55 64 64 65 78 66 53 67 54 68
REMARK SMILES IDX 63 70 79 71 56 72 45 73 46 74 50 75 47 76 49 77 48 78 67 79
REMARK SMILES IDX 68 80 72 81 69 82 71 83 70 84 57 85 58 86 62 87 59 88 61 89
REMARK SMILES IDX 60 90
REMARK H PARENT 28 5 8 28 13 32 13 33 33 39 77 58 55 69
REMARK Flexibility Score: inf
ROOT
ATOM      1  C   UNL A   1      37.058  22.218  25.401  1.00  0.00     0.116 C 
ENDROOT
BRANCH   1   2
ATOM      2  N   UNL A   1      36.150  22.706  26.420  1.00  0.00    -0.353 N 
ATOM      3  C   UNL A   1      35.202  23.687  26.266  1.00  0.00     0.257 C 
ATOM      4  O   UNL A   1      34.169  23.617  26.933  1.00  0.00    -0.271 OA
ATOM      5  H   UNL A   1      36.219  22.293  27.311  1.00  0.00     0.163 HD
BRANCH   3   6
ATOM      6  C   UNL A   1      35.393  24.820  25.258  1.00  0.00     0.329 C 
BRANCH   6   7
ATOM      7  O   UNL A   1      34.277  25.666  25.098  1.00  0.00    -0.483 OA
BRANCH   7   8
ATOM      8  C   UNL A   1      33.503  25.659  23.973  1.00  0.00     0.127 A 
ATOM      9  C   UNL A   1      32.506  24.742  23.560  1.00  0.00     0.026 A 
ATOM     10  C   UNL A   1      31.755  25.075  22.408  1.00  0.00     0.012 A 
ATOM     11  C   UNL A   1      31.965  26.263  21.702  1.00  0.00     0.001 A 
ATOM     12  C   UNL A   1      33.698  26.849  23.249  1.00  0.00     0.047 A 
ATOM     13  C   UNL A   1      32.939  27.153  22.125  1.00  0.00     0.004 A 
BRANCH   9  14
ATOM     14  C   UNL A   1      32.100  23.512  24.291  1.00  0.00     0.012 A 
ATOM     15  C   UNL A   1      34.050  22.303  23.263  1.00  0.00     0.047 C 
ATOM     16  C   UNL A   1      32.797  22.291  24.090  1.00  0.00    -0.015 A 
ATOM     17  C   UNL A   1      32.296  21.123  24.695  1.00  0.00     0.076 A 
ATOM     18  N   UNL A   1      31.264  21.164  25.577  1.00  0.00    -0.230 NA
ATOM     19  C   UNL A   1      31.043  23.529  25.224  1.00  0.00     0.102 A 
ATOM     20  C   UNL A   1      30.680  22.342  25.860  1.00  0.00     0.142 A 
BRANCH  17  21
ATOM     21  C   UNL A   1      32.673  19.747  24.284  1.00  0.00     0.001 A 
ATOM     22  C   UNL A   1      32.174  19.235  23.069  1.00  0.00     0.014 A 
ATOM     23  C   UNL A   1      33.577  18.940  24.994  1.00  0.00     0.014 A 
ATOM     24  C   UNL A   1      32.633  18.029  22.532  1.00  0.00     0.047 A 
ATOM     25  C   UNL A   1      34.049  17.733  24.460  1.00  0.00     0.047 A 
ATOM     26  C   UNL A   1      33.584  17.298  23.223  1.00  0.00     0.115 A 
BRANCH  26  27
ATOM     27  O   UNL A   1      34.046  16.152  22.648  1.00  0.00    -0.508 OA
ATOM     28  H   UNL A   1      33.530  15.370  22.681  1.00  0.00     0.293 HD
ENDBRANCH  26  27
ENDBRANCH  17  21
BRANCH  19  29
ATOM     29  C   UNL A   1      30.362  24.744  25.554  1.00  0.00     0.104 C 
ATOM     30  N   UNL A   1      29.845  25.756  25.801  1.00  0.00    -0.192 NA
ENDBRANCH  19  29
BRANCH  20  31
ATOM     31  N   UNL A   1      29.637  22.256  26.763  1.00  0.00    -0.383 N 
ATOM     32  H   UNL A   1      29.587  21.496  27.385  1.00  0.00     0.158 HD
ATOM     33  H   UNL A   1      28.945  22.956  26.783  1.00  0.00     0.158 HD
ENDBRANCH  20  31
ENDBRANCH   9  14
ENDBRANCH   7   8
ENDBRANCH   6   7
ENDBRANCH   3   6
ENDBRANCH   1   2
BRANCH   1  34
ATOM     34  C   UNL A   1      36.807  20.799  24.887  1.00  0.00     0.023 C 
BRANCH  34  35
ATOM     35  C   UNL A   1      37.959  19.798  24.982  1.00  0.00     0.023 C 
BRANCH  35  36
ATOM     36  C   UNL A   1      39.100  20.170  25.912  1.00  0.00     0.116 C 
BRANCH  36  37
ATOM     37  N   UNL A   1      40.173  19.192  25.895  1.00  0.00    -0.352 N 
ATOM     38  C   UNL A   1      41.522  19.365  26.076  1.00  0.00     0.251 C 
ATOM     39  H   UNL A   1      39.890  18.264  25.729  1.00  0.00     0.163 HD
ATOM     40  O   UNL A   1      42.291  18.430  25.875  1.00  0.00    -0.269 OA
BRANCH  38  41
ATOM     41  C   UNL A   1      42.057  20.683  26.479  1.00  0.00     0.039 A 
ATOM     42  C   UNL A   1      42.451  21.577  25.481  1.00  0.00     0.014 A 
ATOM     43  C   UNL A   1      42.181  21.038  27.826  1.00  0.00     0.014 A 
ATOM     44  C   UNL A   1      42.914  22.846  25.830  1.00  0.00     0.010 A 
ATOM     45  C   UNL A   1      42.557  22.333  28.169  1.00  0.00     0.010 A 
ATOM     46  C   UNL A   1      42.939  23.246  27.176  1.00  0.00    -0.014 A 
BRANCH  46  47
ATOM     47  C   UNL A   1      43.386  24.609  27.556  1.00  0.00     0.031 A 
ATOM     48  C   UNL A   1      42.377  25.657  27.934  1.00  0.00     0.074 A 
ATOM     49  C   UNL A   1      44.697  24.915  27.526  1.00  0.00     0.049 A 
ATOM     50  N   UNL A   1      42.576  26.901  28.285  1.00  0.00    -0.248 NA
ATOM     51  C   UNL A   1      40.961  25.263  27.891  1.00  0.00     0.031 C 
ATOM     52  C   UNL A   1      45.771  23.996  27.150  1.00  0.00     0.029 A 
ATOM     53  N   UNL A   1      45.349  26.086  27.824  1.00  0.00    -0.354 N 
ATOM     54  C   UNL A   1      41.312  27.439  28.493  1.00  0.00     0.074 A 
ATOM     55  C   UNL A   1      40.354  26.407  28.169  1.00  0.00     0.031 C 
ATOM     56  C   UNL A   1      46.949  24.623  27.276  1.00  0.00     0.029 A 
ATOM     57  C   UNL A   1      46.714  26.002  27.696  1.00  0.00     0.049 A 
ATOM     58  H   UNL A   1      44.883  26.907  28.103  1.00  0.00     0.167 HD
ATOM     59  C   UNL A   1      40.981  28.675  28.934  1.00  0.00     0.031 A 
ATOM     60  C   UNL A   1      47.673  26.929  27.889  1.00  0.00     0.031 A 
ATOM     61  C   UNL A   1      41.939  29.699  29.257  1.00  0.00     0.049 A 
ATOM     62  C   UNL A   1      47.283  28.306  28.346  1.00  0.00     0.074 A 
ATOM     63  C   UNL A   1      41.704  30.963  29.768  1.00  0.00     0.029 A 
ATOM     64  N   UNL A   1      43.310  29.582  29.091  1.00  0.00    -0.354 N 
ATOM     65  N   UNL A   1      46.088  28.777  28.612  1.00  0.00    -0.248 NA
ATOM     66  C   UNL A   1      48.370  29.276  28.539  1.00  0.00     0.031 C 
ATOM     67  C   UNL A   1      42.924  31.640  29.832  1.00  0.00     0.029 A 
ATOM     68  C   UNL A   1      43.930  30.770  29.439  1.00  0.00     0.049 A 
ATOM     69  H   UNL A   1      43.774  28.775  28.772  1.00  0.00     0.167 HD
ATOM     70  C   UNL A   1      46.278  30.092  29.017  1.00  0.00     0.074 A 
ATOM     71  C   UNL A   1      47.707  30.336  28.982  1.00  0.00     0.031 C 
ATOM     72  C   UNL A   1      45.351  31.011  29.383  1.00  0.00     0.031 A 
BRANCH  59  73
ATOM     73  C   UNL A   1      39.516  28.995  29.072  1.00  0.00    -0.014 A 
ATOM     74  C   UNL A   1      38.786  29.563  28.016  1.00  0.00     0.009 A 
ATOM     75  C   UNL A   1      38.848  28.688  30.268  1.00  0.00     0.009 A 
ATOM     76  C   UNL A   1      37.428  29.854  28.169  1.00  0.00     0.001 A 
ATOM     77  C   UNL A   1      37.483  28.946  30.406  1.00  0.00     0.001 A 
ATOM     78  C   UNL A   1      36.777  29.540  29.361  1.00  0.00     0.000 A 
ENDBRANCH  59  73
BRANCH  60  79
ATOM     79  C   UNL A   1      49.095  26.556  27.666  1.00  0.00    -0.014 A 
ATOM     80  C   UNL A   1      49.855  25.990  28.699  1.00  0.00     0.009 A 
ATOM     81  C   UNL A   1      49.676  26.697  26.395  1.00  0.00     0.009 A 
ATOM     82  C   UNL A   1      51.166  25.568  28.463  1.00  0.00     0.001 A 
ATOM     83  C   UNL A   1      50.976  26.247  26.154  1.00  0.00     0.001 A 
ATOM     84  C   UNL A   1      51.720  25.685  27.189  1.00  0.00     0.000 A 
ENDBRANCH  60  79
BRANCH  72  85
ATOM     85  C   UNL A   1      45.839  32.378  29.778  1.00  0.00    -0.014 A 
ATOM     86  C   UNL A   1      45.921  33.419  28.839  1.00  0.00     0.009 A 
ATOM     87  C   UNL A   1      46.129  32.656  31.124  1.00  0.00     0.009 A 
ATOM     88  C   UNL A   1      46.303  34.702  29.237  1.00  0.00     0.001 A 
ATOM     89  C   UNL A   1      46.476  33.947  31.525  1.00  0.00     0.001 A 
ATOM     90  C   UNL A   1      46.570  34.967  30.580  1.00  0.00     0.000 A 
ENDBRANCH  72  85
ENDBRANCH  46  47
ENDBRANCH  38  41
ENDBRANCH  36  37
ENDBRANCH  35  36
ENDBRANCH  34  35
ENDBRANCH   1  34
TORSDOF 18
ENDMDL
MODEL 2
REMARK VINA RESULT:     -12.1      2.396      7.232
REMARK SMILES Cc1c(-c2ccc(O)cc2)nc(N)c(C#N)c1-c1ccccc1OCC(=O)NCCCCNC(=O)c1ccc(-c2c3nc(c(-c4ccccc4)c4ccc([nH]4)c(-c4ccccc4)c4nc(c(-c5ccccc5)c5ccc2[nH]5)C=C4)C=C3)cc1
REMARK SMILES IDX 29 1 28 2 26 3 27 4 25 6 24 7 23 8 18 9 19 10 20 11 22 12
REMARK SMILES IDX 21 13 17 14 1 15 2 16 3 17 11 18 14 19 12 20 4 21 5 22 10 23
REMARK SMILES IDX 6 24 9 25 7 26 8 27 15 29 16 30 13 31 30 34 31 35 32 36
REMARK SMILES IDX 33 37 34 38 35 40 36 41 37 42 83 43 38 44 82 45 39 46 40 47
REMARK SMILES IDX 41 48 76 49 42 50 81 51 75 52 77 53 43 54 80 55 74 56 73 57
REMARK SMILES IDX 44 59 66 60 51 61 65 62 52 63 55 64 64 65 78 66 53 67 54 68
REMARK SMILES IDX 63 70 79 71 56 72 45 73 46 74 50 75 47 76 49 77 48 78 67 79
REMARK SMILES IDX 68 80 72 81 69 82 71 83 70 84 57 85 58 86 62 87 59 88 61 89
REMARK SMILES IDX 60 90
REMARK H PARENT 28 5 8 28 13 32 13 33 33 39 77 58 55 69
REMARK Flexibility Score: inf
ROOT
ATOM      1  C   UNL A   1      35.497  20.991  25.071  1.00  0.00     0.116 C 
ENDROOT
BRANCH   1   2
ATOM      2  N   UNL A   1      35.616  21.932  23.974  1.00  0.00    -0.353 N 
ATOM      3  C   UNL A   1      35.983  23.251  24.068  1.00  0.00     0.257 C 
ATOM      4  O   UNL A   1      36.593  23.761  23.127  1.00  0.00    -0.271 OA
ATOM      5  H   UNL A   1      35.414  21.592  23.073  1.00  0.00     0.163 HD
BRANCH   3   6
ATOM      6  C   UNL A   1      35.689  24.066  25.327  1.00  0.00     0.329 C 
BRANCH   6   7
ATOM      7  O   UNL A   1      34.528  24.863  25.261  1.00  0.00    -0.483 OA
BRANCH   7   8
ATOM      8  C   UNL A   1      33.305  24.419  25.676  1.00  0.00     0.127 A 
ATOM      9  C   UNL A   1      32.017  24.671  25.146  1.00  0.00     0.026 A 
ATOM     10  C   UNL A   1      30.934  23.948  25.698  1.00  0.00     0.012 A 
ATOM     11  C   UNL A   1      31.112  23.008  26.717  1.00  0.00     0.001 A 
ATOM     12  C   UNL A   1      33.463  23.469  26.701  1.00  0.00     0.047 A 
ATOM     13  C   UNL A   1      32.381  22.767  27.219  1.00  0.00     0.004 A 
BRANCH   9  14
ATOM     14  C   UNL A   1      31.713  25.549  23.983  1.00  0.00     0.012 A 
ATOM     15  C   UNL A   1      30.976  27.345  25.580  1.00  0.00     0.047 C 
ATOM     16  C   UNL A   1      31.125  26.826  24.179  1.00  0.00    -0.015 A 
ATOM     17  C   UNL A   1      30.727  27.564  23.048  1.00  0.00     0.076 A 
ATOM     18  N   UNL A   1      31.028  27.155  21.789  1.00  0.00    -0.230 NA
ATOM     19  C   UNL A   1      32.027  25.156  22.666  1.00  0.00     0.102 A 
ATOM     20  C   UNL A   1      31.692  25.999  21.608  1.00  0.00     0.142 A 
BRANCH  17  21
ATOM     21  C   UNL A   1      29.781  28.707  23.093  1.00  0.00     0.001 A 
ATOM     22  C   UNL A   1      28.406  28.465  22.892  1.00  0.00     0.014 A 
ATOM     23  C   UNL A   1      30.158  30.022  23.411  1.00  0.00     0.014 A 
ATOM     24  C   UNL A   1      27.444  29.456  23.103  1.00  0.00     0.047 A 
ATOM     25  C   UNL A   1      29.199  31.020  23.633  1.00  0.00     0.047 A 
ATOM     26  C   UNL A   1      27.848  30.722  23.494  1.00  0.00     0.115 A 
BRANCH  26  27
ATOM     27  O   UNL A   1      26.881  31.650  23.740  1.00  0.00    -0.508 OA
ATOM     28  H   UNL A   1      26.363  31.985  23.034  1.00  0.00     0.293 HD
ENDBRANCH  26  27
ENDBRANCH  17  21
BRANCH  19  29
ATOM     29  C   UNL A   1      32.713  23.927  22.400  1.00  0.00     0.104 C 
ATOM     30  N   UNL A   1      33.243  22.924  22.143  1.00  0.00    -0.192 NA
ENDBRANCH  19  29
BRANCH  20  31
ATOM     31  N   UNL A   1      31.932  25.683  20.284  1.00  0.00    -0.383 N 
ATOM     32  H   UNL A   1      31.763  24.770  19.958  1.00  0.00     0.158 HD
ATOM     33  H   UNL A   1      32.271  26.371  19.668  1.00  0.00     0.158 HD
ENDBRANCH  20  31
ENDBRANCH   9  14
ENDBRANCH   7   8
ENDBRANCH   6   7
ENDBRANCH   3   6
ENDBRANCH   1   2
BRANCH   1  34
ATOM     34  C   UNL A   1      36.397  19.755  25.009  1.00  0.00     0.023 C 
BRANCH  34  35
ATOM     35  C   UNL A   1      37.860  19.966  24.620  1.00  0.00     0.023 C 
BRANCH  35  36
ATOM     36  C   UNL A   1      38.827  20.249  25.756  1.00  0.00     0.116 C 
BRANCH  36  37
ATOM     37  N   UNL A   1      39.962  19.345  25.762  1.00  0.00    -0.352 N 
ATOM     38  C   UNL A   1      41.274  19.584  26.081  1.00  0.00     0.251 C 
ATOM     39  H   UNL A   1      39.759  18.419  25.496  1.00  0.00     0.163 HD
ATOM     40  O   UNL A   1      42.120  18.720  25.878  1.00  0.00    -0.269 OA
BRANCH  38  41
ATOM     41  C   UNL A   1      41.680  20.893  26.636  1.00  0.00     0.039 A 
ATOM     42  C   UNL A   1      42.148  21.874  25.759  1.00  0.00     0.014 A 
ATOM     43  C   UNL A   1      41.611  21.155  28.008  1.00  0.00     0.014 A 
ATOM     44  C   UNL A   1      42.491  23.135  26.249  1.00  0.00     0.010 A 
ATOM     45  C   UNL A   1      41.867  22.438  28.482  1.00  0.00     0.010 A 
ATOM     46  C   UNL A   1      42.322  23.437  27.610  1.00  0.00    -0.014 A 
BRANCH  46  47
ATOM     47  C   UNL A   1      42.640  24.788  28.134  1.00  0.00     0.031 A 
ATOM     48  C   UNL A   1      44.048  25.135  28.527  1.00  0.00     0.074 A 
ATOM     49  C   UNL A   1      41.654  25.693  28.291  1.00  0.00     0.049 A 
ATOM     50  N   UNL A   1      44.515  26.257  29.011  1.00  0.00    -0.248 NA
ATOM     51  C   UNL A   1      45.060  24.078  28.378  1.00  0.00     0.031 C 
ATOM     52  C   UNL A   1      40.244  25.469  27.974  1.00  0.00     0.029 A 
ATOM     53  N   UNL A   1      41.691  26.985  28.753  1.00  0.00    -0.354 N 
ATOM     54  C   UNL A   1      45.868  26.036  29.233  1.00  0.00     0.074 A 
ATOM     55  C   UNL A   1      46.134  24.658  28.890  1.00  0.00     0.031 C 
ATOM     56  C   UNL A   1      39.557  26.595  28.213  1.00  0.00     0.029 A 
ATOM     57  C   UNL A   1      40.467  27.607  28.744  1.00  0.00     0.049 A 
ATOM     58  H   UNL A   1      42.517  27.424  29.060  1.00  0.00     0.167 HD
ATOM     59  C   UNL A   1      46.808  26.910  29.663  1.00  0.00     0.031 A 
ATOM     60  C   UNL A   1      40.110  28.849  29.124  1.00  0.00     0.031 A 
ATOM     61  C   UNL A   1      46.539  28.282  30.001  1.00  0.00     0.049 A 
ATOM     62  C   UNL A   1      41.162  29.794  29.631  1.00  0.00     0.074 A 
ATOM     63  C   UNL A   1      47.435  29.261  30.390  1.00  0.00     0.029 A 
ATOM     64  N   UNL A   1      45.281  28.866  30.001  1.00  0.00    -0.354 N 
ATOM     65  N   UNL A   1      42.452  29.595  29.764  1.00  0.00    -0.248 NA
ATOM     66  C   UNL A   1      40.715  31.134  30.033  1.00  0.00     0.031 C 
ATOM     67  C   UNL A   1      46.710  30.413  30.706  1.00  0.00     0.029 A 
ATOM     68  C   UNL A   1      45.371  30.178  30.435  1.00  0.00     0.049 A 
ATOM     69  H   UNL A   1      44.449  28.414  29.734  1.00  0.00     0.167 HD
ATOM     70  C   UNL A   1      42.974  30.786  30.249  1.00  0.00     0.074 A 
ATOM     71  C   UNL A   1      41.863  31.711  30.367  1.00  0.00     0.031 C 
ATOM     72  C   UNL A   1      44.257  31.085  30.568  1.00  0.00     0.031 A 
BRANCH  59  73
ATOM     73  C   UNL A   1      48.216  26.398  29.814  1.00  0.00    -0.014 A 
ATOM     74  C   UNL A   1      49.142  26.470  28.761  1.00  0.00     0.009 A 
ATOM     75  C   UNL A   1      48.633  25.866  31.045  1.00  0.00     0.009 A 
ATOM     76  C   UNL A   1      50.441  25.985  28.924  1.00  0.00     0.001 A 
ATOM     77  C   UNL A   1      49.943  25.415  31.217  1.00  0.00     0.001 A 
ATOM     78  C   UNL A   1      50.843  25.463  30.152  1.00  0.00     0.000 A 
ENDBRANCH  59  73
BRANCH  60  79
ATOM     79  C   UNL A   1      38.686  29.260  29.009  1.00  0.00    -0.014 A 
ATOM     80  C   UNL A   1      38.171  29.718  27.788  1.00  0.00     0.009 A 
ATOM     81  C   UNL A   1      37.815  29.124  30.103  1.00  0.00     0.009 A 
ATOM     82  C   UNL A   1      36.814  30.027  27.664  1.00  0.00     0.001 A 
ATOM     83  C   UNL A   1      36.454  29.405  29.968  1.00  0.00     0.001 A 
ATOM     84  C   UNL A   1      35.956  29.858  28.749  1.00  0.00     0.000 A 
ENDBRANCH  60  79
BRANCH  72  85
ATOM     85  C   UNL A   1      44.548  32.469  31.081  1.00  0.00    -0.014 A 
ATOM     86  C   UNL A   1      44.884  33.512  30.205  1.00  0.00     0.009 A 
ATOM     87  C   UNL A   1      44.390  32.756  32.448  1.00  0.00     0.009 A 
ATOM     88  C   UNL A   1      45.076  34.808  30.690  1.00  0.00     0.001 A 
ATOM     89  C   UNL A   1      44.548  34.058  32.924  1.00  0.00     0.001 A 
ATOM     90  C   UNL A   1      44.898  35.082  32.046  1.00  0.00     0.000 A 
ENDBRANCH  72  85
ENDBRANCH  46  47
ENDBRANCH  38  41
ENDBRANCH  36  37
ENDBRANCH  35  36
ENDBRANCH  34  35
ENDBRANCH   1  34
TORSDOF 18
ENDMDL
MODEL 3
REMARK VINA RESULT:     -12.1      2.159      4.509
REMARK SMILES Cc1c(-c2ccc(O)cc2)nc(N)c(C#N)c1-c1ccccc1OCC(=O)NCCCCNC(=O)c1ccc(-c2c3nc(c(-c4ccccc4)c4ccc([nH]4)c(-c4ccccc4)c4nc(c(-c5ccccc5)c5ccc2[nH]5)C=C4)C=C3)cc1
REMARK SMILES IDX 29 1 28 2 26 3 27 4 25 6 24 7 23 8 18 9 19 10 20 11 22 12
REMARK SMILES IDX 21 13 17 14 1 15 2 16 3 17 11 18 14 19 12 20 4 21 5 22 10 23
REMARK SMILES IDX 6 24 9 25 7 26 8 27 15 29 16 30 13 31 30 34 31 35 32 36
REMARK SMILES IDX 33 37 34 38 35 40 36 41 37 42 83 43 38 44 82 45 39 46 40 47
REMARK SMILES IDX 41 48 76 49 42 50 81 51 75 52 77 53 43 54 80 55 74 56 73 57
REMARK SMILES IDX 44 59 66 60 51 61 65 62 52 63 55 64 64 65 78 66 53 67 54 68
REMARK SMILES IDX 63 70 79 71 56 72 45 73 46 74 50 75 47 76 49 77 48 78 67 79
REMARK SMILES IDX 68 80 72 81 69 82 71 83 70 84 57 85 58 86 62 87 59 88 61 89
REMARK SMILES IDX 60 90
REMARK H PARENT 28 5 8 28 13 32 13 33 33 39 77 58 55 69
REMARK Flexibility Score: inf
ROOT
ATOM      1  C   UNL A   1      35.469  20.953  25.000  1.00  0.00     0.116 C 
ENDROOT
BRANCH   1   2
ATOM      2  N   UNL A   1      35.653  21.902  23.920  1.00  0.00    -0.353 N 
ATOM      3  C   UNL A   1      36.061  23.207  24.040  1.00  0.00     0.257 C 
ATOM      4  O   UNL A   1      36.716  23.707  23.124  1.00  0.00    -0.271 OA
ATOM      5  H   UNL A   1      35.468  21.578  23.008  1.00  0.00     0.163 HD
BRANCH   3   6
ATOM      6  C   UNL A   1      35.755  24.018  25.299  1.00  0.00     0.329 C 
BRANCH   6   7
ATOM      7  O   UNL A   1      34.593  24.812  25.227  1.00  0.00    -0.483 OA
BRANCH   7   8
ATOM      8  C   UNL A   1      33.374  24.376  25.660  1.00  0.00     0.127 A 
ATOM      9  C   UNL A   1      32.080  24.630  25.145  1.00  0.00     0.026 A 
ATOM     10  C   UNL A   1      31.001  23.914  25.715  1.00  0.00     0.012 A 
ATOM     11  C   UNL A   1      31.189  22.979  26.737  1.00  0.00     0.001 A 
ATOM     12  C   UNL A   1      33.541  23.430  26.688  1.00  0.00     0.047 A 
ATOM     13  C   UNL A   1      32.463  22.736  27.224  1.00  0.00     0.004 A 
BRANCH   9  14
ATOM     14  C   UNL A   1      31.764  25.502  23.982  1.00  0.00     0.012 A 
ATOM     15  C   UNL A   1      31.027  27.300  25.577  1.00  0.00     0.047 C 
ATOM     16  C   UNL A   1      31.171  26.777  24.176  1.00  0.00    -0.015 A 
ATOM     17  C   UNL A   1      30.763  27.510  23.046  1.00  0.00     0.076 A 
ATOM     18  N   UNL A   1      31.058  27.098  21.786  1.00  0.00    -0.230 NA
ATOM     19  C   UNL A   1      32.073  25.107  22.664  1.00  0.00     0.102 A 
ATOM     20  C   UNL A   1      31.728  25.945  21.605  1.00  0.00     0.142 A 
BRANCH  17  21
ATOM     21  C   UNL A   1      29.811  28.647  23.092  1.00  0.00     0.001 A 
ATOM     22  C   UNL A   1      28.435  28.396  22.912  1.00  0.00     0.014 A 
ATOM     23  C   UNL A   1      30.185  29.967  23.393  1.00  0.00     0.014 A 
ATOM     24  C   UNL A   1      27.470  29.383  23.126  1.00  0.00     0.047 A 
ATOM     25  C   UNL A   1      29.223  30.963  23.619  1.00  0.00     0.047 A 
ATOM     26  C   UNL A   1      27.872  30.655  23.500  1.00  0.00     0.115 A 
BRANCH  26  27
ATOM     27  O   UNL A   1      26.903  31.580  23.750  1.00  0.00    -0.508 OA
ATOM     28  H   UNL A   1      26.409  31.537  24.545  1.00  0.00     0.293 HD
ENDBRANCH  26  27
ENDBRANCH  17  21
BRANCH  19  29
ATOM     29  C   UNL A   1      32.764  23.880  22.398  1.00  0.00     0.104 C 
ATOM     30  N   UNL A   1      33.281  22.864  22.172  1.00  0.00    -0.192 NA
ENDBRANCH  19  29
BRANCH  20  31
ATOM     31  N   UNL A   1      31.961  25.626  20.281  1.00  0.00    -0.383 N 
ATOM     32  H   UNL A   1      32.797  25.911  19.846  1.00  0.00     0.158 HD
ATOM     33  H   UNL A   1      31.291  25.115  19.773  1.00  0.00     0.158 HD
ENDBRANCH  20  31
ENDBRANCH   9  14
ENDBRANCH   7   8
ENDBRANCH   6   7
ENDBRANCH   3   6
ENDBRANCH   1   2
BRANCH   1  34
ATOM     34  C   UNL A   1      36.393  19.733  25.001  1.00  0.00     0.023 C 
BRANCH  34  35
ATOM     35  C   UNL A   1      37.855  19.953  24.611  1.00  0.00     0.023 C 
BRANCH  35  36
ATOM     36  C   UNL A   1      38.830  20.182  25.751  1.00  0.00     0.116 C 
BRANCH  36  37
ATOM     37  N   UNL A   1      39.876  19.177  25.801  1.00  0.00    -0.352 N 
ATOM     38  C   UNL A   1      41.223  19.322  26.018  1.00  0.00     0.251 C 
ATOM     39  H   UNL A   1      39.573  18.252  25.656  1.00  0.00     0.163 HD
ATOM     40  O   UNL A   1      41.972  18.361  25.871  1.00  0.00    -0.269 OA
BRANCH  38  41
ATOM     41  C   UNL A   1      41.782  20.638  26.393  1.00  0.00     0.039 A 
ATOM     42  C   UNL A   1      42.154  21.520  25.376  1.00  0.00     0.014 A 
ATOM     43  C   UNL A   1      41.947  21.004  27.732  1.00  0.00     0.014 A 
ATOM     44  C   UNL A   1      42.638  22.787  25.701  1.00  0.00     0.010 A 
ATOM     45  C   UNL A   1      42.344  22.298  28.053  1.00  0.00     0.010 A 
ATOM     46  C   UNL A   1      42.706  23.199  27.042  1.00  0.00    -0.014 A 
BRANCH  46  47
ATOM     47  C   UNL A   1      43.175  24.561  27.397  1.00  0.00     0.031 A 
ATOM     48  C   UNL A   1      42.189  25.616  27.813  1.00  0.00     0.074 A 
ATOM     49  C   UNL A   1      44.485  24.860  27.310  1.00  0.00     0.049 A 
ATOM     50  N   UNL A   1      42.408  26.860  28.149  1.00  0.00    -0.248 NA
ATOM     51  C   UNL A   1      40.769  25.230  27.831  1.00  0.00     0.031 C 
ATOM     52  C   UNL A   1      45.537  23.934  26.891  1.00  0.00     0.029 A 
ATOM     53  N   UNL A   1      45.155  26.029  27.574  1.00  0.00    -0.354 N 
ATOM     54  C   UNL A   1      41.157  27.406  28.409  1.00  0.00     0.074 A 
ATOM     55  C   UNL A   1      40.181  26.377  28.130  1.00  0.00     0.031 C 
ATOM     56  C   UNL A   1      46.723  24.556  26.965  1.00  0.00     0.029 A 
ATOM     57  C   UNL A   1      46.513  25.938  27.389  1.00  0.00     0.049 A 
ATOM     58  H   UNL A   1      44.705  26.854  27.869  1.00  0.00     0.167 HD
ATOM     59  C   UNL A   1      40.851  28.645  28.859  1.00  0.00     0.031 A 
ATOM     60  C   UNL A   1      47.483  26.860  27.537  1.00  0.00     0.031 A 
ATOM     61  C   UNL A   1      41.827  29.665  29.136  1.00  0.00     0.049 A 
ATOM     62  C   UNL A   1      47.120  28.241  28.004  1.00  0.00     0.074 A 
ATOM     63  C   UNL A   1      41.620  30.933  29.651  1.00  0.00     0.029 A 
ATOM     64  N   UNL A   1      43.189  29.540  28.912  1.00  0.00    -0.354 N 
ATOM     65  N   UNL A   1      45.940  28.719  28.319  1.00  0.00    -0.248 NA
ATOM     66  C   UNL A   1      48.219  29.206  28.146  1.00  0.00     0.031 C 
ATOM     67  C   UNL A   1      42.845  31.603  29.660  1.00  0.00     0.029 A 
ATOM     68  C   UNL A   1      43.830  30.727  29.229  1.00  0.00     0.049 A 
ATOM     69  H   UNL A   1      43.635  28.730  28.577  1.00  0.00     0.167 HD
ATOM     70  C   UNL A   1      46.154  30.035  28.709  1.00  0.00     0.074 A 
ATOM     71  C   UNL A   1      47.581  30.272  28.613  1.00  0.00     0.031 C 
ATOM     72  C   UNL A   1      45.248  30.960  29.111  1.00  0.00     0.031 A 
BRANCH  59  73
ATOM     73  C   UNL A   1      39.395  28.973  29.057  1.00  0.00    -0.014 A 
ATOM     74  C   UNL A   1      38.757  28.766  30.290  1.00  0.00     0.009 A 
ATOM     75  C   UNL A   1      38.659  29.533  28.001  1.00  0.00     0.009 A 
ATOM     76  C   UNL A   1      37.403  29.074  30.449  1.00  0.00     0.001 A 
ATOM     77  C   UNL A   1      37.317  29.874  28.173  1.00  0.00     0.001 A 
ATOM     78  C   UNL A   1      36.686  29.633  29.393  1.00  0.00     0.000 A 
ENDBRANCH  59  73
BRANCH  60  79
ATOM     79  C   UNL A   1      48.893  26.479  27.255  1.00  0.00    -0.014 A 
ATOM     80  C   UNL A   1      49.724  26.009  28.282  1.00  0.00     0.009 A 
ATOM     81  C   UNL A   1      49.390  26.513  25.942  1.00  0.00     0.009 A 
ATOM     82  C   UNL A   1      51.022  25.578  27.998  1.00  0.00     0.001 A 
ATOM     83  C   UNL A   1      50.677  26.053  25.657  1.00  0.00     0.001 A 
ATOM     84  C   UNL A   1      51.493  25.588  26.686  1.00  0.00     0.000 A 
ENDBRANCH  60  79
BRANCH  72  85
ATOM     85  C   UNL A   1      45.759  32.326  29.479  1.00  0.00    -0.014 A 
ATOM     86  C   UNL A   1      45.819  33.359  28.529  1.00  0.00     0.009 A 
ATOM     87  C   UNL A   1      46.094  32.613  30.813  1.00  0.00     0.009 A 
ATOM     88  C   UNL A   1      46.224  34.642  28.905  1.00  0.00     0.001 A 
ATOM     89  C   UNL A   1      46.465  33.903  31.192  1.00  0.00     0.001 A 
ATOM     90  C   UNL A   1      46.536  34.915  30.236  1.00  0.00     0.000 A 
ENDBRANCH  72  85
ENDBRANCH  46  47
ENDBRANCH  38  41
ENDBRANCH  36  37
ENDBRANCH  35  36
ENDBRANCH  34  35
ENDBRANCH   1  34
TORSDOF 18
ENDMDL
