MODEL 1
REMARK VINA RESULT:     -10.6      0.000      0.000
REMARK SMILES CCc1c(C)nc(Nc2ccc(Cl)cc2Cl)nc1OCC(=O)NCCCCNC(=O)c1ccc(-c2c3nc(c(-c4ccccc4)c4ccc([nH]4)c(-c4ccccc4)c4nc(c(-c5ccccc5)c5ccc2[nH]5)C=C4)C=C3)cc1
REMARK SMILES IDX 24 1 23 2 21 3 22 4 20 6 19 7 18 8 3 9 4 10 5 11 6 12 17 13
REMARK SMILES IDX 7 14 2 15 1 16 8 17 9 19 10 20 15 21 11 22 14 23 16 24 12 25
REMARK SMILES IDX 13 26 25 27 26 28 27 29 28 30 29 31 30 33 31 34 32 35 78 36
REMARK SMILES IDX 33 37 77 38 34 39 35 40 36 41 71 42 37 43 76 44 70 45 72 46
REMARK SMILES IDX 38 47 75 48 69 49 68 50 39 52 61 53 46 54 60 55 47 56 50 57
REMARK SMILES IDX 59 58 73 59 48 60 49 61 58 63 74 64 51 65 40 66 41 67 45 68
REMARK SMILES IDX 42 69 44 70 43 71 62 72 63 73 67 74 64 75 66 76 65 77 52 78
REMARK SMILES IDX 53 79 57 80 54 81 56 82 55 83
REMARK H PARENT 23 5 8 18 28 32 72 51 50 62
REMARK Flexibility Score: inf
ROOT
ATOM      1  C   UNL A   1      34.740  32.517  27.953  1.00  0.00     0.116 C 
ENDROOT
BRANCH   1   2
ATOM      2  N   UNL A   1      34.813  31.096  28.219  1.00  0.00    -0.353 N 
ATOM      3  C   UNL A   1      34.231  30.081  27.519  1.00  0.00     0.258 C 
ATOM      4  O   UNL A   1      34.654  28.936  27.691  1.00  0.00    -0.271 OA
ATOM      5  H   UNL A   1      35.349  30.829  29.000  1.00  0.00     0.163 HD
BRANCH   3   6
ATOM      6  C   UNL A   1      33.129  30.376  26.498  1.00  0.00     0.331 C 
BRANCH   6   7
ATOM      7  O   UNL A   1      33.070  29.669  25.287  1.00  0.00    -0.467 OA
BRANCH   7   8
ATOM      8  C   UNL A   1      32.293  28.602  24.995  1.00  0.00     0.222 A 
ATOM      9  C   UNL A   1      31.055  28.524  24.363  1.00  0.00     0.035 A 
ATOM     10  C   UNL A   1      30.578  27.221  24.185  1.00  0.00     0.050 A 
ATOM     11  C   UNL A   1      29.245  26.867  23.590  1.00  0.00     0.067 C 
ATOM     12  N   UNL A   1      31.229  26.140  24.641  1.00  0.00    -0.218 NA
ATOM     13  N   UNL A   1      32.913  27.507  25.498  1.00  0.00    -0.177 NA
ATOM     14  C   UNL A   1      32.354  26.312  25.328  1.00  0.00     0.230 A 
BRANCH   9  15
ATOM     15  C   UNL A   1      30.202  29.676  23.909  1.00  0.00     0.040 C 
ATOM     16  C   UNL A   1      30.170  29.841  22.394  1.00  0.00     0.009 C 
ENDBRANCH   9  15
BRANCH  14  17
ATOM     17  N   UNL A   1      32.911  25.219  25.995  1.00  0.00    -0.323 N 
ATOM     18  H   UNL A   1      33.357  25.396  26.853  1.00  0.00     0.170 HD
BRANCH  17  19
ATOM     19  C   UNL A   1      32.888  23.886  25.546  1.00  0.00     0.060 A 
ATOM     20  C   UNL A   1      33.868  23.436  24.645  1.00  0.00     0.029 A 
ATOM     21  C   UNL A   1      31.815  23.024  25.837  1.00  0.00     0.066 A 
ATOM     22  C   UNL A   1      33.782  22.177  24.050  1.00  0.00     0.023 A 
ATOM     23  C   UNL A   1      31.716  21.767  25.234  1.00  0.00     0.043 A 
ATOM     24  Cl  UNL A   1      30.549  23.520  26.906  1.00  0.00    -0.082 Cl
ATOM     25  C   UNL A   1      32.698  21.353  24.338  1.00  0.00     0.042 A 
ATOM     26  Cl  UNL A   1      32.563  19.825  23.561  1.00  0.00    -0.084 Cl
ENDBRANCH  17  19
ENDBRANCH  14  17
ENDBRANCH   7   8
ENDBRANCH   6   7
ENDBRANCH   3   6
ENDBRANCH   1   2
BRANCH   1  27
ATOM     27  C   UNL A   1      34.300  33.343  29.158  1.00  0.00     0.023 C 
BRANCH  27  28
ATOM     28  C   UNL A   1      33.187  34.364  28.907  1.00  0.00     0.023 C 
BRANCH  28  29
ATOM     29  C   UNL A   1      33.379  35.747  29.518  1.00  0.00     0.116 C 
BRANCH  29  30
ATOM     30  N   UNL A   1      32.521  36.008  30.660  1.00  0.00    -0.352 N 
ATOM     31  C   UNL A   1      32.687  35.669  31.984  1.00  0.00     0.251 C 
ATOM     32  H   UNL A   1      31.693  36.503  30.457  1.00  0.00     0.163 HD
ATOM     33  O   UNL A   1      31.804  35.916  32.794  1.00  0.00    -0.269 OA
BRANCH  31  34
ATOM     34  C   UNL A   1      33.914  34.967  32.425  1.00  0.00     0.039 A 
ATOM     35  C   UNL A   1      33.798  33.655  32.893  1.00  0.00     0.014 A 
ATOM     36  C   UNL A   1      35.165  35.585  32.381  1.00  0.00     0.014 A 
ATOM     37  C   UNL A   1      34.944  32.940  33.247  1.00  0.00     0.010 A 
ATOM     38  C   UNL A   1      36.313  34.847  32.662  1.00  0.00     0.010 A 
ATOM     39  C   UNL A   1      36.216  33.517  33.098  1.00  0.00    -0.014 A 
BRANCH  39  40
ATOM     40  C   UNL A   1      37.450  32.743  33.390  1.00  0.00     0.031 A 
ATOM     41  C   UNL A   1      38.217  32.987  34.662  1.00  0.00     0.074 A 
ATOM     42  C   UNL A   1      37.916  31.860  32.485  1.00  0.00     0.049 A 
ATOM     43  N   UNL A   1      39.339  32.448  35.066  1.00  0.00    -0.248 NA
ATOM     44  C   UNL A   1      37.660  33.984  35.591  1.00  0.00     0.031 C 
ATOM     45  C   UNL A   1      37.289  31.553  31.198  1.00  0.00     0.029 A 
ATOM     46  N   UNL A   1      39.031  31.059  32.510  1.00  0.00    -0.354 N 
ATOM     47  C   UNL A   1      39.630  33.052  36.284  1.00  0.00     0.074 A 
ATOM     48  C   UNL A   1      38.596  34.033  36.527  1.00  0.00     0.031 C 
ATOM     49  C   UNL A   1      38.012  30.611  30.569  1.00  0.00     0.029 A 
ATOM     50  C   UNL A   1      39.175  30.279  31.387  1.00  0.00     0.049 A 
ATOM     51  H   UNL A   1      39.668  31.044  33.261  1.00  0.00     0.167 HD
ATOM     52  C   UNL A   1      40.654  32.799  37.133  1.00  0.00     0.031 A 
ATOM     53  C   UNL A   1      40.137  29.401  31.048  1.00  0.00     0.031 A 
ATOM     54  C   UNL A   1      41.681  31.819  36.896  1.00  0.00     0.049 A 
ATOM     55  C   UNL A   1      41.277  29.155  31.998  1.00  0.00     0.074 A 
ATOM     56  C   UNL A   1      42.732  31.454  37.721  1.00  0.00     0.029 A 
ATOM     57  N   UNL A   1      41.789  31.051  35.747  1.00  0.00    -0.354 N 
ATOM     58  N   UNL A   1      41.501  29.686  33.176  1.00  0.00    -0.248 NA
ATOM     59  C   UNL A   1      42.292  28.179  31.575  1.00  0.00     0.031 C 
ATOM     60  C   UNL A   1      43.508  30.507  37.046  1.00  0.00     0.029 A 
ATOM     61  C   UNL A   1      42.904  30.233  35.830  1.00  0.00     0.049 A 
ATOM     62  H   UNL A   1      41.167  31.082  34.985  1.00  0.00     0.167 HD
ATOM     63  C   UNL A   1      42.661  29.085  33.648  1.00  0.00     0.074 A 
ATOM     64  C   UNL A   1      43.085  28.139  32.636  1.00  0.00     0.031 C 
ATOM     65  C   UNL A   1      43.314  29.295  34.816  1.00  0.00     0.031 A 
BRANCH  52  66
ATOM     66  C   UNL A   1      40.719  33.608  38.399  1.00  0.00    -0.014 A 
ATOM     67  C   UNL A   1      40.089  33.174  39.577  1.00  0.00     0.009 A 
ATOM     68  C   UNL A   1      41.449  34.807  38.426  1.00  0.00     0.009 A 
ATOM     69  C   UNL A   1      40.152  33.942  40.741  1.00  0.00     0.001 A 
ATOM     70  C   UNL A   1      41.539  35.558  39.600  1.00  0.00     0.001 A 
ATOM     71  C   UNL A   1      40.882  35.131  40.753  1.00  0.00     0.000 A 
ENDBRANCH  52  66
BRANCH  53  72
ATOM     72  C   UNL A   1      40.062  28.673  29.753  1.00  0.00    -0.014 A 
ATOM     73  C   UNL A   1      39.482  27.396  29.685  1.00  0.00     0.009 A 
ATOM     74  C   UNL A   1      40.581  29.244  28.580  1.00  0.00     0.009 A 
ATOM     75  C   UNL A   1      39.450  26.696  28.476  1.00  0.00     0.001 A 
ATOM     76  C   UNL A   1      40.519  28.555  27.368  1.00  0.00     0.001 A 
ATOM     77  C   UNL A   1      39.965  27.276  27.319  1.00  0.00     0.000 A 
ENDBRANCH  53  72
BRANCH  65  78
ATOM     78  C   UNL A   1      44.534  28.457  35.086  1.00  0.00    -0.014 A 
ATOM     79  C   UNL A   1      45.818  28.894  34.726  1.00  0.00     0.009 A 
ATOM     80  C   UNL A   1      44.394  27.227  35.748  1.00  0.00     0.009 A 
ATOM     81  C   UNL A   1      46.934  28.097  34.992  1.00  0.00     0.001 A 
ATOM     82  C   UNL A   1      45.515  26.448  36.042  1.00  0.00     0.001 A 
ATOM     83  C   UNL A   1      46.782  26.878  35.654  1.00  0.00     0.000 A 
ENDBRANCH  65  78
ENDBRANCH  39  40
ENDBRANCH  31  34
ENDBRANCH  29  30
ENDBRANCH  28  29
ENDBRANCH  27  28
ENDBRANCH   1  27
TORSDOF 16
ENDMDL
MODEL 2
REMARK VINA RESULT:     -10.6      3.947      6.149
REMARK SMILES CCc1c(C)nc(Nc2ccc(Cl)cc2Cl)nc1OCC(=O)NCCCCNC(=O)c1ccc(-c2c3nc(c(-c4ccccc4)c4ccc([nH]4)c(-c4ccccc4)c4nc(c(-c5ccccc5)c5ccc2[nH]5)C=C4)C=C3)cc1
REMARK SMILES IDX 24 1 23 2 21 3 22 4 20 6 19 7 18 8 3 9 4 10 5 11 6 12 17 13
REMARK SMILES IDX 7 14 2 15 1 16 8 17 9 19 10 20 15 21 11 22 14 23 16 24 12 25
REMARK SMILES IDX 13 26 25 27 26 28 27 29 28 30 29 31 30 33 31 34 32 35 78 36
REMARK SMILES IDX 33 37 77 38 34 39 35 40 36 41 71 42 37 43 76 44 70 45 72 46
REMARK SMILES IDX 38 47 75 48 69 49 68 50 39 52 61 53 46 54 60 55 47 56 50 57
REMARK SMILES IDX 59 58 73 59 48 60 49 61 58 63 74 64 51 65 40 66 41 67 45 68
REMARK SMILES IDX 42 69 44 70 43 71 62 72 63 73 67 74 64 75 66 76 65 77 52 78
REMARK SMILES IDX 53 79 57 80 54 81 56 82 55 83
REMARK H PARENT 23 5 8 18 28 32 72 51 50 62
REMARK Flexibility Score: inf
ROOT
ATOM      1  C   UNL A   1      33.350  27.528  23.946  1.00  0.00     0.116 C 
ENDROOT
BRANCH   1   2
ATOM      2  N   UNL A   1      32.257  27.982  23.111  1.00  0.00    -0.353 N 
ATOM      3  C   UNL A   1      31.352  27.222  22.430  1.00  0.00     0.258 C 
ATOM      4  O   UNL A   1      30.316  27.762  22.038  1.00  0.00    -0.271 OA
ATOM      5  H   UNL A   1      32.155  28.956  23.023  1.00  0.00     0.163 HD
BRANCH   3   6
ATOM      6  C   UNL A   1      31.594  25.724  22.225  1.00  0.00     0.331 C 
BRANCH   6   7
ATOM      7  O   UNL A   1      30.859  24.776  22.952  1.00  0.00    -0.467 OA
BRANCH   7   8
ATOM      8  C   UNL A   1      31.311  23.957  23.927  1.00  0.00     0.222 A 
ATOM      9  C   UNL A   1      31.474  24.172  25.293  1.00  0.00     0.035 A 
ATOM     10  C   UNL A   1      31.921  23.053  26.005  1.00  0.00     0.050 A 
ATOM     11  C   UNL A   1      32.236  23.039  27.474  1.00  0.00     0.067 C 
ATOM     12  N   UNL A   1      32.228  21.889  25.412  1.00  0.00    -0.218 NA
ATOM     13  N   UNL A   1      31.676  22.794  23.335  1.00  0.00    -0.177 NA
ATOM     14  C   UNL A   1      32.144  21.803  24.088  1.00  0.00     0.230 A 
BRANCH   9  15
ATOM     15  C   UNL A   1      31.257  25.462  26.034  1.00  0.00     0.040 C 
ATOM     16  C   UNL A   1      29.858  26.035  25.846  1.00  0.00     0.009 C 
ENDBRANCH   9  15
BRANCH  14  17
ATOM     17  N   UNL A   1      32.675  20.679  23.451  1.00  0.00    -0.323 N 
ATOM     18  H   UNL A   1      33.139  20.824  22.596  1.00  0.00     0.170 HD
BRANCH  17  19
ATOM     19  C   UNL A   1      32.602  19.357  23.926  1.00  0.00     0.060 A 
ATOM     20  C   UNL A   1      32.771  19.097  25.297  1.00  0.00     0.029 A 
ATOM     21  C   UNL A   1      32.534  18.258  23.050  1.00  0.00     0.066 A 
ATOM     22  C   UNL A   1      32.873  17.792  25.780  1.00  0.00     0.023 A 
ATOM     23  C   UNL A   1      32.650  16.948  23.526  1.00  0.00     0.043 A 
ATOM     24  Cl  UNL A   1      32.367  18.496  21.345  1.00  0.00    -0.082 Cl
ATOM     25  C   UNL A   1      32.826  16.724  24.889  1.00  0.00     0.042 A 
ATOM     26  Cl  UNL A   1      33.009  15.118  25.479  1.00  0.00    -0.084 Cl
ENDBRANCH  17  19
ENDBRANCH  14  17
ENDBRANCH   7   8
ENDBRANCH   6   7
ENDBRANCH   3   6
ENDBRANCH   1   2
BRANCH   1  27
ATOM     27  C   UNL A   1      33.757  28.533  25.019  1.00  0.00     0.023 C 
BRANCH  27  28
ATOM     28  C   UNL A   1      34.027  27.961  26.413  1.00  0.00     0.023 C 
BRANCH  28  29
ATOM     29  C   UNL A   1      33.292  28.619  27.575  1.00  0.00     0.116 C 
BRANCH  29  30
ATOM     30  N   UNL A   1      33.421  30.065  27.607  1.00  0.00    -0.352 N 
ATOM     31  C   UNL A   1      34.509  30.846  27.927  1.00  0.00     0.251 C 
ATOM     32  H   UNL A   1      32.607  30.563  27.365  1.00  0.00     0.163 HD
ATOM     33  O   UNL A   1      34.396  32.063  27.970  1.00  0.00    -0.269 OA
BRANCH  31  34
ATOM     34  C   UNL A   1      35.806  30.216  28.261  1.00  0.00     0.039 A 
ATOM     35  C   UNL A   1      36.800  30.176  27.279  1.00  0.00     0.014 A 
ATOM     36  C   UNL A   1      36.050  29.671  29.523  1.00  0.00     0.014 A 
ATOM     37  C   UNL A   1      38.059  29.655  27.584  1.00  0.00     0.010 A 
ATOM     38  C   UNL A   1      37.328  29.221  29.849  1.00  0.00     0.010 A 
ATOM     39  C   UNL A   1      38.346  29.208  28.884  1.00  0.00    -0.014 A 
BRANCH  39  40
ATOM     40  C   UNL A   1      39.705  28.730  29.249  1.00  0.00     0.031 A 
ATOM     41  C   UNL A   1      40.637  29.615  30.032  1.00  0.00     0.074 A 
ATOM     42  C   UNL A   1      40.124  27.520  28.828  1.00  0.00     0.049 A 
ATOM     43  N   UNL A   1      41.874  29.393  30.398  1.00  0.00    -0.248 NA
ATOM     44  C   UNL A   1      40.118  30.932  30.436  1.00  0.00     0.031 C 
ATOM     45  C   UNL A   1      39.335  26.577  28.034  1.00  0.00     0.029 A 
ATOM     46  N   UNL A   1      41.325  26.879  29.008  1.00  0.00    -0.354 N 
ATOM     47  C   UNL A   1      42.284  30.545  31.059  1.00  0.00     0.074 A 
ATOM     48  C   UNL A   1      41.184  31.482  30.996  1.00  0.00     0.031 C 
ATOM     49  C   UNL A   1      40.060  25.467  27.819  1.00  0.00     0.029 A 
ATOM     50  C   UNL A   1      41.379  25.636  28.421  1.00  0.00     0.049 A 
ATOM     51  H   UNL A   1      42.077  27.270  29.509  1.00  0.00     0.167 HD
ATOM     52  C   UNL A   1      43.463  30.795  31.678  1.00  0.00     0.031 A 
ATOM     53  C   UNL A   1      42.379  24.737  28.366  1.00  0.00     0.031 A 
ATOM     54  C   UNL A   1      44.557  29.862  31.745  1.00  0.00     0.049 A 
ATOM     55  C   UNL A   1      43.686  25.047  29.042  1.00  0.00     0.074 A 
ATOM     56  C   UNL A   1      45.771  30.004  32.394  1.00  0.00     0.029 A 
ATOM     57  N   UNL A   1      44.569  28.616  31.139  1.00  0.00    -0.354 N 
ATOM     58  N   UNL A   1      44.034  26.115  29.719  1.00  0.00    -0.248 NA
ATOM     59  C   UNL A   1      44.736  24.022  28.954  1.00  0.00     0.031 C 
ATOM     60  C   UNL A   1      46.541  28.867  32.131  1.00  0.00     0.029 A 
ATOM     61  C   UNL A   1      45.782  27.989  31.375  1.00  0.00     0.049 A 
ATOM     62  H   UNL A   1      43.828  28.233  30.617  1.00  0.00     0.167 HD
ATOM     63  C   UNL A   1      45.327  25.875  30.165  1.00  0.00     0.074 A 
ATOM     64  C   UNL A   1      45.697  24.556  29.695  1.00  0.00     0.031 C 
ATOM     65  C   UNL A   1      46.136  26.676  30.902  1.00  0.00     0.031 A 
BRANCH  52  66
ATOM     66  C   UNL A   1      43.633  32.142  32.325  1.00  0.00    -0.014 A 
ATOM     67  C   UNL A   1      44.155  33.234  31.611  1.00  0.00     0.009 A 
ATOM     68  C   UNL A   1      43.237  32.334  33.657  1.00  0.00     0.009 A 
ATOM     69  C   UNL A   1      44.314  34.476  32.229  1.00  0.00     0.001 A 
ATOM     70  C   UNL A   1      43.365  33.585  34.264  1.00  0.00     0.001 A 
ATOM     71  C   UNL A   1      43.914  34.651  33.553  1.00  0.00     0.000 A 
ENDBRANCH  52  66
BRANCH  53  72
ATOM     72  C   UNL A   1      42.183  23.444  27.656  1.00  0.00    -0.014 A 
ATOM     73  C   UNL A   1      42.551  23.308  26.308  1.00  0.00     0.009 A 
ATOM     74  C   UNL A   1      41.617  22.343  28.317  1.00  0.00     0.009 A 
ATOM     75  C   UNL A   1      42.328  22.107  25.631  1.00  0.00     0.001 A 
ATOM     76  C   UNL A   1      41.424  21.134  27.646  1.00  0.00     0.001 A 
ATOM     77  C   UNL A   1      41.769  21.021  26.300  1.00  0.00     0.000 A 
ENDBRANCH  53  72
BRANCH  65  78
ATOM     78  C   UNL A   1      47.485  26.131  31.283  1.00  0.00    -0.014 A 
ATOM     79  C   UNL A   1      47.739  25.637  32.572  1.00  0.00     0.009 A 
ATOM     80  C   UNL A   1      48.505  26.075  30.320  1.00  0.00     0.009 A 
ATOM     81  C   UNL A   1      49.000  25.132  32.898  1.00  0.00     0.001 A 
ATOM     82  C   UNL A   1      49.754  25.540  30.640  1.00  0.00     0.001 A 
ATOM     83  C   UNL A   1      50.004  25.079  31.931  1.00  0.00     0.000 A 
ENDBRANCH  65  78
ENDBRANCH  39  40
ENDBRANCH  31  34
ENDBRANCH  29  30
ENDBRANCH  28  29
ENDBRANCH  27  28
ENDBRANCH   1  27
TORSDOF 16
ENDMDL
MODEL 3
REMARK VINA RESULT:     -10.5      2.344      3.242
REMARK SMILES CCc1c(C)nc(Nc2ccc(Cl)cc2Cl)nc1OCC(=O)NCCCCNC(=O)c1ccc(-c2c3nc(c(-c4ccccc4)c4ccc([nH]4)c(-c4ccccc4)c4nc(c(-c5ccccc5)c5ccc2[nH]5)C=C4)C=C3)cc1
REMARK SMILES IDX 24 1 23 2 21 3 22 4 20 6 19 7 18 8 3 9 4 10 5 11 6 12 17 13
REMARK SMILES IDX 7 14 2 15 1 16 8 17 9 19 10 20 15 21 11 22 14 23 16 24 12 25
REMARK SMILES IDX 13 26 25 27 26 28 27 29 28 30 29 31 30 33 31 34 32 35 78 36
REMARK SMILES IDX 33 37 77 38 34 39 35 40 36 41 71 42 37 43 76 44 70 45 72 46
REMARK SMILES IDX 38 47 75 48 69 49 68 50 39 52 61 53 46 54 60 55 47 56 50 57
REMARK SMILES IDX 59 58 73 59 48 60 49 61 58 63 74 64 51 65 40 66 41 67 45 68
REMARK SMILES IDX 42 69 44 70 43 71 62 72 63 73 67 74 64 75 66 76 65 77 52 78
REMARK SMILES IDX 53 79 57 80 54 81 56 82 55 83
REMARK H PARENT 23 5 8 18 28 32 72 51 50 62
REMARK Flexibility Score: inf
ROOT
ATOM      1  C   UNL A   1      34.551  29.583  27.280  1.00  0.00     0.116 C 
ENDROOT
BRANCH   1   2
ATOM      2  N   UNL A   1      34.239  29.571  25.866  1.00  0.00    -0.353 N 
ATOM      3  C   UNL A   1      33.101  29.126  25.263  1.00  0.00     0.258 C 
ATOM      4  O   UNL A   1      32.878  29.481  24.104  1.00  0.00    -0.271 OA
ATOM      5  H   UNL A   1      34.934  29.928  25.267  1.00  0.00     0.163 HD
BRANCH   3   6
ATOM      6  C   UNL A   1      32.098  28.266  26.037  1.00  0.00     0.331 C 
BRANCH   6   7
ATOM      7  O   UNL A   1      31.405  27.226  25.397  1.00  0.00    -0.467 OA
BRANCH   7   8
ATOM      8  C   UNL A   1      31.848  26.443  24.388  1.00  0.00     0.222 A 
ATOM      9  C   UNL A   1      31.793  26.620  23.008  1.00  0.00     0.035 A 
ATOM     10  C   UNL A   1      32.416  25.607  22.271  1.00  0.00     0.050 A 
ATOM     11  C   UNL A   1      32.442  25.527  20.771  1.00  0.00     0.067 C 
ATOM     12  N   UNL A   1      32.965  24.524  22.843  1.00  0.00    -0.218 NA
ATOM     13  N   UNL A   1      32.357  25.319  24.949  1.00  0.00    -0.177 NA
ATOM     14  C   UNL A   1      32.879  24.383  24.162  1.00  0.00     0.230 A 
BRANCH   9  15
ATOM     15  C   UNL A   1      31.116  27.740  22.270  1.00  0.00     0.040 C 
ATOM     16  C   UNL A   1      29.685  27.988  22.734  1.00  0.00     0.009 C 
ENDBRANCH   9  15
BRANCH  14  17
ATOM     17  N   UNL A   1      33.242  23.162  24.734  1.00  0.00    -0.323 N 
ATOM     18  H   UNL A   1      32.528  22.498  24.868  1.00  0.00     0.170 HD
BRANCH  17  19
ATOM     19  C   UNL A   1      34.540  22.798  25.136  1.00  0.00     0.060 A 
ATOM     20  C   UNL A   1      35.491  23.796  25.413  1.00  0.00     0.029 A 
ATOM     21  C   UNL A   1      34.976  21.461  25.110  1.00  0.00     0.066 A 
ATOM     22  C   UNL A   1      36.829  23.476  25.650  1.00  0.00     0.023 A 
ATOM     23  C   UNL A   1      36.317  21.135  25.333  1.00  0.00     0.043 A 
ATOM     24  Cl  UNL A   1      33.875  20.179  24.740  1.00  0.00    -0.082 Cl
ATOM     25  C   UNL A   1      37.238  22.147  25.596  1.00  0.00     0.042 A 
ATOM     26  Cl  UNL A   1      38.897  21.760  25.831  1.00  0.00    -0.084 Cl
ENDBRANCH  17  19
ENDBRANCH  14  17
ENDBRANCH   7   8
ENDBRANCH   6   7
ENDBRANCH   3   6
ENDBRANCH   1   2
BRANCH   1  27
ATOM     27  C   UNL A   1      34.490  30.971  27.909  1.00  0.00     0.023 C 
BRANCH  27  28
ATOM     28  C   UNL A   1      33.132  31.674  27.863  1.00  0.00     0.023 C 
BRANCH  28  29
ATOM     29  C   UNL A   1      33.090  33.033  27.174  1.00  0.00     0.116 C 
BRANCH  29  30
ATOM     30  N   UNL A   1      32.673  34.119  28.044  1.00  0.00    -0.352 N 
ATOM     31  C   UNL A   1      33.284  34.635  29.165  1.00  0.00     0.251 C 
ATOM     32  H   UNL A   1      31.824  34.552  27.795  1.00  0.00     0.163 HD
ATOM     33  O   UNL A   1      32.730  35.512  29.814  1.00  0.00    -0.269 OA
BRANCH  31  34
ATOM     34  C   UNL A   1      34.591  34.103  29.613  1.00  0.00     0.039 A 
ATOM     35  C   UNL A   1      34.628  33.318  30.769  1.00  0.00     0.014 A 
ATOM     36  C   UNL A   1      35.767  34.368  28.910  1.00  0.00     0.014 A 
ATOM     37  C   UNL A   1      35.832  32.741  31.178  1.00  0.00     0.010 A 
ATOM     38  C   UNL A   1      36.952  33.731  29.275  1.00  0.00     0.010 A 
ATOM     39  C   UNL A   1      36.997  32.911  30.412  1.00  0.00    -0.014 A 
BRANCH  39  40
ATOM     40  C   UNL A   1      38.267  32.235  30.785  1.00  0.00     0.031 A 
ATOM     41  C   UNL A   1      39.192  32.860  31.795  1.00  0.00     0.074 A 
ATOM     42  C   UNL A   1      38.619  31.086  30.175  1.00  0.00     0.049 A 
ATOM     43  N   UNL A   1      40.363  32.448  32.209  1.00  0.00    -0.248 NA
ATOM     44  C   UNL A   1      38.752  34.127  32.402  1.00  0.00     0.031 C 
ATOM     45  C   UNL A   1      37.832  30.392  29.154  1.00  0.00     0.029 A 
ATOM     46  N   UNL A   1      39.736  30.301  30.323  1.00  0.00    -0.354 N 
ATOM     47  C   UNL A   1      40.806  33.410  33.109  1.00  0.00     0.074 A 
ATOM     48  C   UNL A   1      39.803  34.452  33.140  1.00  0.00     0.031 C 
ATOM     49  C   UNL A   1      38.475  29.271  28.789  1.00  0.00     0.029 A 
ATOM     50  C   UNL A   1      39.738  29.189  29.515  1.00  0.00     0.049 A 
ATOM     51  H   UNL A   1      40.466  30.514  30.948  1.00  0.00     0.167 HD
ATOM     52  C   UNL A   1      41.935  33.418  33.856  1.00  0.00     0.031 A 
ATOM     53  C   UNL A   1      40.657  28.216  29.368  1.00  0.00     0.031 A 
ATOM     54  C   UNL A   1      42.932  32.380  33.830  1.00  0.00     0.049 A 
ATOM     55  C   UNL A   1      41.914  28.260  30.192  1.00  0.00     0.074 A 
ATOM     56  C   UNL A   1      44.085  32.274  34.588  1.00  0.00     0.029 A 
ATOM     57  N   UNL A   1      42.896  31.272  32.999  1.00  0.00    -0.354 N 
ATOM     58  N   UNL A   1      42.286  29.143  31.088  1.00  0.00    -0.248 NA
ATOM     59  C   UNL A   1      42.875  27.165  29.993  1.00  0.00     0.031 C 
ATOM     60  C   UNL A   1      44.776  31.130  34.175  1.00  0.00     0.029 A 
ATOM     61  C   UNL A   1      44.020  30.490  33.206  1.00  0.00     0.049 A 
ATOM     62  H   UNL A   1      42.178  31.071  32.356  1.00  0.00     0.167 HD
ATOM     63  C   UNL A   1      43.504  28.693  31.581  1.00  0.00     0.074 A 
ATOM     64  C   UNL A   1      43.801  27.451  30.897  1.00  0.00     0.031 C 
ATOM     65  C   UNL A   1      44.303  29.256  32.519  1.00  0.00     0.031 A 
BRANCH  52  66
ATOM     66  C   UNL A   1      42.158  34.599  34.761  1.00  0.00    -0.014 A 
ATOM     67  C   UNL A   1      41.725  34.586  36.097  1.00  0.00     0.009 A 
ATOM     68  C   UNL A   1      42.839  35.729  34.282  1.00  0.00     0.009 A 
ATOM     69  C   UNL A   1      41.932  35.695  36.921  1.00  0.00     0.001 A 
ATOM     70  C   UNL A   1      43.076  36.823  35.117  1.00  0.00     0.001 A 
ATOM     71  C   UNL A   1      42.612  36.810  36.431  1.00  0.00     0.000 A 
ENDBRANCH  52  66
BRANCH  53  72
ATOM     72  C   UNL A   1      40.420  27.103  28.410  1.00  0.00    -0.014 A 
ATOM     73  C   UNL A   1      40.957  27.151  27.113  1.00  0.00     0.009 A 
ATOM     74  C   UNL A   1      39.647  25.992  28.781  1.00  0.00     0.009 A 
ATOM     75  C   UNL A   1      40.699  26.125  26.201  1.00  0.00     0.001 A 
ATOM     76  C   UNL A   1      39.417  24.953  27.877  1.00  0.00     0.001 A 
ATOM     77  C   UNL A   1      39.933  25.026  26.584  1.00  0.00     0.000 A 
ENDBRANCH  53  72
BRANCH  65  78
ATOM     78  C   UNL A   1      45.556  28.514  32.895  1.00  0.00    -0.014 A 
ATOM     79  C   UNL A   1      45.558  27.543  33.909  1.00  0.00     0.009 A 
ATOM     80  C   UNL A   1      46.745  28.764  32.191  1.00  0.00     0.009 A 
ATOM     81  C   UNL A   1      46.734  26.865  34.235  1.00  0.00     0.001 A 
ATOM     82  C   UNL A   1      47.912  28.061  32.497  1.00  0.00     0.001 A 
ATOM     83  C   UNL A   1      47.908  27.121  33.525  1.00  0.00     0.000 A 
ENDBRANCH  65  78
ENDBRANCH  39  40
ENDBRANCH  31  34
ENDBRANCH  29  30
ENDBRANCH  28  29
ENDBRANCH  27  28
ENDBRANCH   1  27
TORSDOF 16
ENDMDL
