MODEL 1
REMARK VINA RESULT:     -12.3      0.000      0.000
REMARK SMILES C[C@@H](C(=O)NCCCCNC(=O)c1ccc(-c2c3nc(c(-c4ccccc4)c4ccc([nH]4)c(-c4ccccc4)c4nc(c(-c5ccccc5)c5ccc2[nH]5)C=C4)C=C3)cc1)n1ccc(C(=O)N2CC[NH+](Cc3cccc(F)c3)CC2)n1
REMARK SMILES IDX 6 1 5 2 3 3 4 4 2 6 1 7 61 8 62 9 81 10 63 11 64 12 65 13
REMARK SMILES IDX 66 14 67 15 68 16 80 17 69 18 79 19 70 20 71 22 72 23 73 24
REMARK SMILES IDX 78 25 74 26 76 27 75 28 77 29 7 30 8 31 9 32 10 33 11 34
REMARK SMILES IDX 12 36 13 37 14 38 60 39 15 40 59 41 16 42 17 43 18 44 53 45
REMARK SMILES IDX 19 46 58 47 52 48 54 49 20 50 57 51 51 52 50 53 21 55 43 56
REMARK SMILES IDX 28 57 42 58 29 59 32 60 41 61 55 62 30 63 31 64 40 66 56 67
REMARK SMILES IDX 33 68 22 69 23 70 27 71 24 72 26 73 25 74 44 75 45 76 49 77
REMARK SMILES IDX 46 78 48 79 47 80 34 81 35 82 39 83 36 84 38 85 37 86
REMARK H PARENT 5 5 70 21 10 35 54 54 32 65
REMARK Flexibility Score: inf
ROOT
ATOM      1  C   UNL A   1      31.410  29.223  24.901  1.00  0.00     0.116 C 
ENDROOT
BRANCH   1   2
ATOM      2  N   UNL A   1      30.832  29.687  23.655  1.00  0.00    -0.354 N 
ATOM      3  C   UNL A   1      30.361  28.966  22.591  1.00  0.00     0.244 C 
ATOM      4  O   UNL A   1      30.073  29.601  21.574  1.00  0.00    -0.273 OA
ATOM      5  H   UNL A   1      30.767  30.665  23.560  1.00  0.00     0.163 HD
BRANCH   3   6
ATOM      6  C   UNL A   1      30.225  27.450  22.702  1.00  0.00     0.193 C 
ATOM      7  C   UNL A   1      29.265  27.024  23.811  1.00  0.00     0.044 C 
BRANCH   6   8
ATOM      8  N   UNL A   1      31.541  26.832  22.853  1.00  0.00    -0.260 N 
ATOM      9  C   UNL A   1      32.670  27.067  22.121  1.00  0.00     0.110 A 
ATOM     10  N   UNL A   1      31.746  25.998  23.890  1.00  0.00    -0.167 NA
ATOM     11  C   UNL A   1      33.673  26.357  22.734  1.00  0.00     0.056 A 
ATOM     12  C   UNL A   1      33.053  25.679  23.815  1.00  0.00     0.150 A 
BRANCH  12  13
ATOM     13  C   UNL A   1      33.721  24.830  24.813  1.00  0.00     0.274 C 
ATOM     14  O   UNL A   1      34.594  25.305  25.544  1.00  0.00    -0.267 OA
ATOM     15  N   UNL A   1      33.339  23.483  24.907  1.00  0.00    -0.326 N 
ATOM     16  C   UNL A   1      33.912  22.728  26.012  1.00  0.00     0.181 C 
ATOM     17  C   UNL A   1      32.918  22.718  23.727  1.00  0.00     0.181 C 
ATOM     18  C   UNL A   1      33.248  21.366  26.265  1.00  0.00     0.284 C 
ATOM     19  C   UNL A   1      32.298  21.345  24.045  1.00  0.00     0.284 C 
ATOM     20  N   UNL A   1      32.965  20.550  25.080  1.00  0.00    -0.328 N 
ATOM     21  H   UNL A   1      32.289  19.846  25.373  1.00  0.00     0.348 HD
BRANCH  20  22
ATOM     22  C   UNL A   1      34.034  19.655  24.633  1.00  0.00     0.299 C 
BRANCH  22  23
ATOM     23  C   UNL A   1      33.893  18.180  24.929  1.00  0.00     0.009 A 
ATOM     24  C   UNL A   1      32.638  17.623  25.229  1.00  0.00     0.010 A 
ATOM     25  C   UNL A   1      35.011  17.335  24.908  1.00  0.00     0.048 A 
ATOM     26  C   UNL A   1      32.496  16.249  25.434  1.00  0.00     0.004 A 
ATOM     27  C   UNL A   1      34.857  15.967  25.101  1.00  0.00     0.123 A 
ATOM     28  C   UNL A   1      33.608  15.415  25.355  1.00  0.00     0.039 A 
ATOM     29  F   UNL A   1      35.929  15.167  25.027  1.00  0.00    -0.207 F 
ENDBRANCH  22  23
ENDBRANCH  20  22
ENDBRANCH  12  13
ENDBRANCH   6   8
ENDBRANCH   3   6
ENDBRANCH   1   2
BRANCH   1  30
ATOM     30  C   UNL A   1      32.883  29.620  25.002  1.00  0.00     0.023 C 
BRANCH  30  31
ATOM     31  C   UNL A   1      33.749  28.661  25.823  1.00  0.00     0.023 C 
BRANCH  31  32
ATOM     32  C   UNL A   1      33.599  28.782  27.335  1.00  0.00     0.116 C 
BRANCH  32  33
ATOM     33  N   UNL A   1      33.603  30.162  27.795  1.00  0.00    -0.352 N 
ATOM     34  C   UNL A   1      34.606  30.858  28.421  1.00  0.00     0.251 C 
ATOM     35  H   UNL A   1      32.772  30.664  27.635  1.00  0.00     0.163 HD
ATOM     36  O   UNL A   1      34.395  31.988  28.855  1.00  0.00    -0.269 OA
BRANCH  34  37
ATOM     37  C   UNL A   1      35.931  30.233  28.604  1.00  0.00     0.039 A 
ATOM     38  C   UNL A   1      36.837  30.253  27.540  1.00  0.00     0.014 A 
ATOM     39  C   UNL A   1      36.285  29.639  29.820  1.00  0.00     0.014 A 
ATOM     40  C   UNL A   1      38.123  29.739  27.716  1.00  0.00     0.010 A 
ATOM     41  C   UNL A   1      37.584  29.179  30.011  1.00  0.00     0.010 A 
ATOM     42  C   UNL A   1      38.515  29.229  28.963  1.00  0.00    -0.014 A 
BRANCH  42  43
ATOM     43  C   UNL A   1      39.899  28.753  29.200  1.00  0.00     0.031 A 
ATOM     44  C   UNL A   1      40.927  29.678  29.786  1.00  0.00     0.074 A 
ATOM     45  C   UNL A   1      40.252  27.514  28.809  1.00  0.00     0.049 A 
ATOM     46  N   UNL A   1      42.205  29.474  29.979  1.00  0.00    -0.248 NA
ATOM     47  C   UNL A   1      40.462  31.016  30.185  1.00  0.00     0.031 C 
ATOM     48  C   UNL A   1      39.359  26.533  28.187  1.00  0.00     0.029 A 
ATOM     49  N   UNL A   1      41.465  26.874  28.862  1.00  0.00    -0.354 N 
ATOM     50  C   UNL A   1      42.701  30.664  30.494  1.00  0.00     0.074 A 
ATOM     51  C   UNL A   1      41.594  31.594  30.555  1.00  0.00     0.031 C 
ATOM     52  C   UNL A   1      40.052  25.413  27.927  1.00  0.00     0.029 A 
ATOM     53  C   UNL A   1      41.441  25.607  28.333  1.00  0.00     0.049 A 
ATOM     54  H   UNL A   1      42.274  27.284  29.243  1.00  0.00     0.167 HD
ATOM     55  C   UNL A   1      43.963  30.954  30.891  1.00  0.00     0.031 A 
ATOM     56  C   UNL A   1      42.428  24.705  28.183  1.00  0.00     0.031 A 
ATOM     57  C   UNL A   1      45.060  30.025  30.854  1.00  0.00     0.049 A 
ATOM     58  C   UNL A   1      43.815  25.043  28.647  1.00  0.00     0.074 A 
ATOM     59  C   UNL A   1      46.359  30.205  31.301  1.00  0.00     0.029 A 
ATOM     60  N   UNL A   1      44.987  28.740  30.341  1.00  0.00    -0.354 N 
ATOM     61  N   UNL A   1      44.255  26.153  29.190  1.00  0.00    -0.248 NA
ATOM     62  C   UNL A   1      44.840  24.003  28.483  1.00  0.00     0.031 C 
ATOM     63  C   UNL A   1      47.080  29.039  31.026  1.00  0.00     0.029 A 
ATOM     64  C   UNL A   1      46.221  28.121  30.442  1.00  0.00     0.049 A 
ATOM     65  H   UNL A   1      44.177  28.329  29.960  1.00  0.00     0.167 HD
ATOM     66  C   UNL A   1      45.601  25.936  29.453  1.00  0.00     0.074 A 
ATOM     67  C   UNL A   1      45.903  24.587  29.019  1.00  0.00     0.031 C 
ATOM     68  C   UNL A   1      46.505  26.780  30.005  1.00  0.00     0.031 A 
BRANCH  55  69
ATOM     69  C   UNL A   1      44.223  32.345  31.394  1.00  0.00    -0.014 A 
ATOM     70  C   UNL A   1      44.646  33.363  30.525  1.00  0.00     0.009 A 
ATOM     71  C   UNL A   1      44.020  32.644  32.750  1.00  0.00     0.009 A 
ATOM     72  C   UNL A   1      44.895  34.647  31.013  1.00  0.00     0.001 A 
ATOM     73  C   UNL A   1      44.248  33.936  33.230  1.00  0.00     0.001 A 
ATOM     74  C   UNL A   1      44.693  34.933  32.363  1.00  0.00     0.000 A 
ENDBRANCH  55  69
BRANCH  56  75
ATOM     75  C   UNL A   1      42.135  23.384  27.574  1.00  0.00    -0.014 A 
ATOM     76  C   UNL A   1      41.551  22.365  28.342  1.00  0.00     0.009 A 
ATOM     77  C   UNL A   1      42.429  23.138  26.225  1.00  0.00     0.009 A 
ATOM     78  C   UNL A   1      41.286  21.118  27.773  1.00  0.00     0.001 A 
ATOM     79  C   UNL A   1      42.143  21.897  25.654  1.00  0.00     0.001 A 
ATOM     80  C   UNL A   1      41.579  20.886  26.430  1.00  0.00     0.000 A 
ENDBRANCH  56  75
BRANCH  68  81
ATOM     81  C   UNL A   1      47.899  26.260  30.194  1.00  0.00    -0.014 A 
ATOM     82  C   UNL A   1      48.834  26.301  29.149  1.00  0.00     0.009 A 
ATOM     83  C   UNL A   1      48.292  25.762  31.446  1.00  0.00     0.009 A 
ATOM     84  C   UNL A   1      50.132  25.829  29.349  1.00  0.00     0.001 A 
ATOM     85  C   UNL A   1      49.597  25.310  31.647  1.00  0.00     0.001 A 
ATOM     86  C   UNL A   1      50.514  25.337  30.597  1.00  0.00     0.000 A 
ENDBRANCH  68  81
ENDBRANCH  42  43
ENDBRANCH  34  37
ENDBRANCH  32  33
ENDBRANCH  31  32
ENDBRANCH  30  31
ENDBRANCH   1  30
TORSDOF 15
ENDMDL
MODEL 2
REMARK VINA RESULT:     -11.7      2.809      3.980
REMARK SMILES C[C@@H](C(=O)NCCCCNC(=O)c1ccc(-c2c3nc(c(-c4ccccc4)c4ccc([nH]4)c(-c4ccccc4)c4nc(c(-c5ccccc5)c5ccc2[nH]5)C=C4)C=C3)cc1)n1ccc(C(=O)N2CC[NH+](Cc3cccc(F)c3)CC2)n1
REMARK SMILES IDX 6 1 5 2 3 3 4 4 2 6 1 7 61 8 62 9 81 10 63 11 64 12 65 13
REMARK SMILES IDX 66 14 67 15 68 16 80 17 69 18 79 19 70 20 71 22 72 23 73 24
REMARK SMILES IDX 78 25 74 26 76 27 75 28 77 29 7 30 8 31 9 32 10 33 11 34
REMARK SMILES IDX 12 36 13 37 14 38 60 39 15 40 59 41 16 42 17 43 18 44 53 45
REMARK SMILES IDX 19 46 58 47 52 48 54 49 20 50 57 51 51 52 50 53 21 55 43 56
REMARK SMILES IDX 28 57 42 58 29 59 32 60 41 61 55 62 30 63 31 64 40 66 56 67
REMARK SMILES IDX 33 68 22 69 23 70 27 71 24 72 26 73 25 74 44 75 45 76 49 77
REMARK SMILES IDX 46 78 48 79 47 80 34 81 35 82 39 83 36 84 38 85 37 86
REMARK H PARENT 5 5 70 21 10 35 54 54 32 65
REMARK Flexibility Score: inf
ROOT
ATOM      1  C   UNL A   1      34.370  30.415  27.210  1.00  0.00     0.116 C 
ENDROOT
BRANCH   1   2
ATOM      2  N   UNL A   1      33.341  29.476  27.613  1.00  0.00    -0.354 N 
ATOM      3  C   UNL A   1      32.248  29.031  26.920  1.00  0.00     0.244 C 
ATOM      4  O   UNL A   1      31.429  28.358  27.550  1.00  0.00    -0.273 OA
ATOM      5  H   UNL A   1      33.445  29.103  28.519  1.00  0.00     0.163 HD
BRANCH   3   6
ATOM      6  C   UNL A   1      32.091  29.381  25.444  1.00  0.00     0.193 C 
ATOM      7  C   UNL A   1      31.044  30.466  25.202  1.00  0.00     0.044 C 
BRANCH   6   8
ATOM      8  N   UNL A   1      31.818  28.175  24.662  1.00  0.00    -0.260 N 
ATOM      9  C   UNL A   1      30.671  27.846  23.998  1.00  0.00     0.110 A 
ATOM     10  N   UNL A   1      32.820  27.301  24.457  1.00  0.00    -0.167 NA
ATOM     11  C   UNL A   1      30.955  26.696  23.303  1.00  0.00     0.056 A 
ATOM     12  C   UNL A   1      32.295  26.370  23.637  1.00  0.00     0.150 A 
BRANCH  12  13
ATOM     13  C   UNL A   1      33.082  25.249  23.100  1.00  0.00     0.274 C 
ATOM     14  O   UNL A   1      33.709  25.384  22.046  1.00  0.00    -0.267 OA
ATOM     15  N   UNL A   1      33.099  24.042  23.815  1.00  0.00    -0.326 N 
ATOM     16  C   UNL A   1      34.018  23.021  23.331  1.00  0.00     0.181 C 
ATOM     17  C   UNL A   1      31.931  23.580  24.573  1.00  0.00     0.181 C 
ATOM     18  C   UNL A   1      34.234  21.848  24.299  1.00  0.00     0.284 C 
ATOM     19  C   UNL A   1      32.203  22.376  25.495  1.00  0.00     0.284 C 
ATOM     20  N   UNL A   1      33.033  21.303  24.939  1.00  0.00    -0.328 N 
ATOM     21  H   UNL A   1      33.358  20.757  25.737  1.00  0.00     0.348 HD
BRANCH  20  22
ATOM     22  C   UNL A   1      32.333  20.239  24.217  1.00  0.00     0.299 C 
BRANCH  22  23
ATOM     23  C   UNL A   1      32.802  18.818  24.420  1.00  0.00     0.009 A 
ATOM     24  C   UNL A   1      32.559  18.145  25.630  1.00  0.00     0.010 A 
ATOM     25  C   UNL A   1      33.489  18.138  23.404  1.00  0.00     0.048 A 
ATOM     26  C   UNL A   1      32.930  16.808  25.792  1.00  0.00     0.004 A 
ATOM     27  C   UNL A   1      33.843  16.804  23.572  1.00  0.00     0.123 A 
ATOM     28  C   UNL A   1      33.562  16.130  24.753  1.00  0.00     0.039 A 
ATOM     29  F   UNL A   1      34.454  16.155  22.571  1.00  0.00    -0.207 F 
ENDBRANCH  22  23
ENDBRANCH  20  22
ENDBRANCH  12  13
ENDBRANCH   6   8
ENDBRANCH   3   6
ENDBRANCH   1   2
BRANCH   1  30
ATOM     30  C   UNL A   1      34.407  31.623  28.147  1.00  0.00     0.023 C 
BRANCH  30  31
ATOM     31  C   UNL A   1      33.248  32.607  27.970  1.00  0.00     0.023 C 
BRANCH  31  32
ATOM     32  C   UNL A   1      33.622  34.080  28.089  1.00  0.00     0.116 C 
BRANCH  32  33
ATOM     33  N   UNL A   1      33.205  34.668  29.352  1.00  0.00    -0.352 N 
ATOM     34  C   UNL A   1      33.709  34.455  30.609  1.00  0.00     0.251 C 
ATOM     35  H   UNL A   1      32.458  35.307  29.295  1.00  0.00     0.163 HD
ATOM     36  O   UNL A   1      33.153  34.946  31.590  1.00  0.00    -0.269 OA
BRANCH  34  37
ATOM     37  C   UNL A   1      34.903  33.604  30.789  1.00  0.00     0.039 A 
ATOM     38  C   UNL A   1      36.121  34.034  30.254  1.00  0.00     0.014 A 
ATOM     39  C   UNL A   1      34.827  32.396  31.488  1.00  0.00     0.014 A 
ATOM     40  C   UNL A   1      37.278  33.285  30.480  1.00  0.00     0.010 A 
ATOM     41  C   UNL A   1      35.989  31.681  31.759  1.00  0.00     0.010 A 
ATOM     42  C   UNL A   1      37.225  32.122  31.262  1.00  0.00    -0.014 A 
BRANCH  42  43
ATOM     43  C   UNL A   1      38.451  31.354  31.584  1.00  0.00     0.031 A 
ATOM     44  C   UNL A   1      39.296  31.738  32.766  1.00  0.00     0.074 A 
ATOM     45  C   UNL A   1      38.851  30.363  30.764  1.00  0.00     0.049 A 
ATOM     46  N   UNL A   1      40.446  31.249  33.150  1.00  0.00    -0.248 NA
ATOM     47  C   UNL A   1      38.792  32.833  33.610  1.00  0.00     0.031 C 
ATOM     48  C   UNL A   1      38.144  29.921  29.560  1.00  0.00     0.029 A 
ATOM     49  N   UNL A   1      39.963  29.561  30.812  1.00  0.00    -0.354 N 
ATOM     50  C   UNL A   1      40.817  31.993  34.263  1.00  0.00     0.074 A 
ATOM     51  C   UNL A   1      39.785  32.985  34.473  1.00  0.00     0.031 C 
ATOM     52  C   UNL A   1      38.833  28.919  28.990  1.00  0.00     0.029 A 
ATOM     53  C   UNL A   1      40.042  28.671  29.769  1.00  0.00     0.049 A 
ATOM     54  H   UNL A   1      40.637  29.616  31.526  1.00  0.00     0.167 HD
ATOM     55  C   UNL A   1      41.913  31.855  35.046  1.00  0.00     0.031 A 
ATOM     56  C   UNL A   1      40.989  27.763  29.467  1.00  0.00     0.031 A 
ATOM     57  C   UNL A   1      42.929  30.856  34.855  1.00  0.00     0.049 A 
ATOM     58  C   UNL A   1      42.186  27.618  30.360  1.00  0.00     0.074 A 
ATOM     59  C   UNL A   1      44.039  30.593  35.640  1.00  0.00     0.029 A 
ATOM     60  N   UNL A   1      42.956  29.953  33.805  1.00  0.00    -0.354 N 
ATOM     61  N   UNL A   1      42.490  28.288  31.446  1.00  0.00    -0.248 NA
ATOM     62  C   UNL A   1      43.166  26.587  29.992  1.00  0.00     0.031 C 
ATOM     63  C   UNL A   1      44.758  29.552  35.043  1.00  0.00     0.029 A 
ATOM     64  C   UNL A   1      44.075  29.144  33.909  1.00  0.00     0.049 A 
ATOM     65  H   UNL A   1      42.281  29.896  33.091  1.00  0.00     0.167 HD
ATOM     66  C   UNL A   1      43.685  27.746  31.900  1.00  0.00     0.074 A 
ATOM     67  C   UNL A   1      44.044  26.685  30.981  1.00  0.00     0.031 C 
ATOM     68  C   UNL A   1      44.418  28.095  32.985  1.00  0.00     0.031 A 
BRANCH  55  69
ATOM     69  C   UNL A   1      42.071  32.824  36.183  1.00  0.00    -0.014 A 
ATOM     70  C   UNL A   1      41.534  32.548  37.451  1.00  0.00     0.009 A 
ATOM     71  C   UNL A   1      42.783  34.017  35.989  1.00  0.00     0.009 A 
ATOM     72  C   UNL A   1      41.679  33.465  38.492  1.00  0.00     0.001 A 
ATOM     73  C   UNL A   1      42.946  34.922  37.039  1.00  0.00     0.001 A 
ATOM     74  C   UNL A   1      42.387  34.650  38.287  1.00  0.00     0.000 A 
ENDBRANCH  55  69
BRANCH  56  75
ATOM     75  C   UNL A   1      40.834  26.908  28.264  1.00  0.00    -0.014 A 
ATOM     76  C   UNL A   1      41.425  27.283  27.048  1.00  0.00     0.009 A 
ATOM     77  C   UNL A   1      40.102  25.713  28.326  1.00  0.00     0.009 A 
ATOM     78  C   UNL A   1      41.269  26.487  25.913  1.00  0.00     0.001 A 
ATOM     79  C   UNL A   1      39.965  24.908  27.194  1.00  0.00     0.001 A 
ATOM     80  C   UNL A   1      40.543  25.299  25.987  1.00  0.00     0.000 A 
ENDBRANCH  56  75
BRANCH  68  81
ATOM     81  C   UNL A   1      45.666  27.307  33.249  1.00  0.00    -0.014 A 
ATOM     82  C   UNL A   1      46.907  27.728  32.747  1.00  0.00     0.009 A 
ATOM     83  C   UNL A   1      45.606  26.152  34.044  1.00  0.00     0.009 A 
ATOM     84  C   UNL A   1      48.061  26.992  33.018  1.00  0.00     0.001 A 
ATOM     85  C   UNL A   1      46.765  25.430  34.329  1.00  0.00     0.001 A 
ATOM     86  C   UNL A   1      47.991  25.847  33.811  1.00  0.00     0.000 A 
ENDBRANCH  68  81
ENDBRANCH  42  43
ENDBRANCH  34  37
ENDBRANCH  32  33
ENDBRANCH  31  32
ENDBRANCH  30  31
ENDBRANCH   1  30
TORSDOF 15
ENDMDL
MODEL 3
REMARK VINA RESULT:     -11.6      3.062      6.934
REMARK SMILES C[C@@H](C(=O)NCCCCNC(=O)c1ccc(-c2c3nc(c(-c4ccccc4)c4ccc([nH]4)c(-c4ccccc4)c4nc(c(-c5ccccc5)c5ccc2[nH]5)C=C4)C=C3)cc1)n1ccc(C(=O)N2CC[NH+](Cc3cccc(F)c3)CC2)n1
REMARK SMILES IDX 6 1 5 2 3 3 4 4 2 6 1 7 61 8 62 9 81 10 63 11 64 12 65 13
REMARK SMILES IDX 66 14 67 15 68 16 80 17 69 18 79 19 70 20 71 22 72 23 73 24
REMARK SMILES IDX 78 25 74 26 76 27 75 28 77 29 7 30 8 31 9 32 10 33 11 34
REMARK SMILES IDX 12 36 13 37 14 38 60 39 15 40 59 41 16 42 17 43 18 44 53 45
REMARK SMILES IDX 19 46 58 47 52 48 54 49 20 50 57 51 51 52 50 53 21 55 43 56
REMARK SMILES IDX 28 57 42 58 29 59 32 60 41 61 55 62 30 63 31 64 40 66 56 67
REMARK SMILES IDX 33 68 22 69 23 70 27 71 24 72 26 73 25 74 44 75 45 76 49 77
REMARK SMILES IDX 46 78 48 79 47 80 34 81 35 82 39 83 36 84 38 85 37 86
REMARK H PARENT 5 5 70 21 10 35 54 54 32 65
REMARK Flexibility Score: inf
ROOT
ATOM      1  C   UNL A   1      31.133  29.219  25.091  1.00  0.00     0.116 C 
ENDROOT
BRANCH   1   2
ATOM      2  N   UNL A   1      30.699  29.719  23.802  1.00  0.00    -0.354 N 
ATOM      3  C   UNL A   1      30.360  29.030  22.669  1.00  0.00     0.244 C 
ATOM      4  O   UNL A   1      30.186  29.696  21.646  1.00  0.00    -0.273 OA
ATOM      5  H   UNL A   1      30.638  30.700  23.730  1.00  0.00     0.163 HD
BRANCH   3   6
ATOM      6  C   UNL A   1      30.223  27.511  22.717  1.00  0.00     0.193 C 
ATOM      7  C   UNL A   1      29.250  27.040  23.796  1.00  0.00     0.044 C 
BRANCH   6   8
ATOM      8  N   UNL A   1      31.538  26.887  22.858  1.00  0.00    -0.260 N 
ATOM      9  C   UNL A   1      32.681  27.170  22.166  1.00  0.00     0.110 A 
ATOM     10  N   UNL A   1      31.723  25.992  23.845  1.00  0.00    -0.167 NA
ATOM     11  C   UNL A   1      33.673  26.425  22.755  1.00  0.00     0.056 A 
ATOM     12  C   UNL A   1      33.032  25.681  23.780  1.00  0.00     0.150 A 
BRANCH  12  13
ATOM     13  C   UNL A   1      33.682  24.772  24.737  1.00  0.00     0.274 C 
ATOM     14  O   UNL A   1      34.575  25.192  25.478  1.00  0.00    -0.267 OA
ATOM     15  N   UNL A   1      33.259  23.435  24.782  1.00  0.00    -0.326 N 
ATOM     16  C   UNL A   1      33.817  22.621  25.852  1.00  0.00     0.181 C 
ATOM     17  C   UNL A   1      32.804  22.731  23.578  1.00  0.00     0.181 C 
ATOM     18  C   UNL A   1      33.113  21.270  26.058  1.00  0.00     0.284 C 
ATOM     19  C   UNL A   1      32.144  21.366  23.847  1.00  0.00     0.284 C 
ATOM     20  N   UNL A   1      32.795  20.511  24.844  1.00  0.00    -0.328 N 
ATOM     21  H   UNL A   1      32.099  19.817  25.117  1.00  0.00     0.348 HD
BRANCH  20  22
ATOM     22  C   UNL A   1      33.831  19.602  24.353  1.00  0.00     0.299 C 
BRANCH  22  23
ATOM     23  C   UNL A   1      33.752  18.150  24.763  1.00  0.00     0.009 A 
ATOM     24  C   UNL A   1      32.523  17.568  25.119  1.00  0.00     0.010 A 
ATOM     25  C   UNL A   1      34.904  17.350  24.795  1.00  0.00     0.048 A 
ATOM     26  C   UNL A   1      32.438  16.209  25.430  1.00  0.00     0.004 A 
ATOM     27  C   UNL A   1      34.806  15.996  25.094  1.00  0.00     0.123 A 
ATOM     28  C   UNL A   1      33.582  15.416  25.403  1.00  0.00     0.039 A 
ATOM     29  F   UNL A   1      35.910  15.237  25.070  1.00  0.00    -0.207 F 
ENDBRANCH  22  23
ENDBRANCH  20  22
ENDBRANCH  12  13
ENDBRANCH   6   8
ENDBRANCH   3   6
ENDBRANCH   1   2
BRANCH   1  30
ATOM     30  C   UNL A   1      32.242  30.095  25.674  1.00  0.00     0.023 C 
BRANCH  30  31
ATOM     31  C   UNL A   1      31.752  31.348  26.404  1.00  0.00     0.023 C 
BRANCH  31  32
ATOM     32  C   UNL A   1      32.811  32.079  27.222  1.00  0.00     0.116 C 
BRANCH  32  33
ATOM     33  N   UNL A   1      32.457  33.462  27.499  1.00  0.00    -0.352 N 
ATOM     34  C   UNL A   1      33.052  34.347  28.361  1.00  0.00     0.251 C 
ATOM     35  H   UNL A   1      31.683  33.809  26.999  1.00  0.00     0.163 HD
ATOM     36  O   UNL A   1      32.544  35.448  28.564  1.00  0.00    -0.269 OA
BRANCH  34  37
ATOM     37  C   UNL A   1      34.288  33.963  29.073  1.00  0.00     0.039 A 
ATOM     38  C   UNL A   1      34.178  33.274  30.285  1.00  0.00     0.014 A 
ATOM     39  C   UNL A   1      35.546  34.269  28.547  1.00  0.00     0.014 A 
ATOM     40  C   UNL A   1      35.332  32.832  30.935  1.00  0.00     0.010 A 
ATOM     41  C   UNL A   1      36.691  33.779  29.167  1.00  0.00     0.010 A 
ATOM     42  C   UNL A   1      36.593  33.053  30.363  1.00  0.00    -0.014 A 
BRANCH  42  43
ATOM     43  C   UNL A   1      37.827  32.523  30.991  1.00  0.00     0.031 A 
ATOM     44  C   UNL A   1      38.529  31.335  30.396  1.00  0.00     0.074 A 
ATOM     45  C   UNL A   1      38.269  33.058  32.145  1.00  0.00     0.049 A 
ATOM     46  N   UNL A   1      39.561  30.674  30.853  1.00  0.00    -0.248 NA
ATOM     47  C   UNL A   1      37.982  30.807  29.136  1.00  0.00     0.031 C 
ATOM     48  C   UNL A   1      37.653  34.185  32.850  1.00  0.00     0.029 A 
ATOM     49  N   UNL A   1      39.332  32.710  32.940  1.00  0.00    -0.354 N 
ATOM     50  C   UNL A   1      39.770  29.637  29.953  1.00  0.00     0.074 A 
ATOM     51  C   UNL A   1      38.740  29.739  28.942  1.00  0.00     0.031 C 
ATOM     52  C   UNL A   1      38.356  34.443  33.964  1.00  0.00     0.029 A 
ATOM     53  C   UNL A   1      39.450  33.482  34.070  1.00  0.00     0.049 A 
ATOM     54  H   UNL A   1      39.952  31.978  32.720  1.00  0.00     0.167 HD
ATOM     55  C   UNL A   1      40.740  28.691  29.961  1.00  0.00     0.031 A 
ATOM     56  C   UNL A   1      40.333  33.418  35.083  1.00  0.00     0.031 A 
ATOM     57  C   UNL A   1      41.778  28.601  30.951  1.00  0.00     0.049 A 
ATOM     58  C   UNL A   1      41.408  32.371  35.060  1.00  0.00     0.074 A 
ATOM     59  C   UNL A   1      42.846  27.720  31.003  1.00  0.00     0.029 A 
ATOM     60  N   UNL A   1      41.881  29.422  32.062  1.00  0.00    -0.354 N 
ATOM     61  N   UNL A   1      41.630  31.436  34.168  1.00  0.00    -0.248 NA
ATOM     62  C   UNL A   1      42.360  32.375  36.181  1.00  0.00     0.031 C 
ATOM     63  C   UNL A   1      43.575  27.988  32.167  1.00  0.00     0.029 A 
ATOM     64  C   UNL A   1      42.982  29.058  32.817  1.00  0.00     0.049 A 
ATOM     65  H   UNL A   1      41.262  30.155  32.282  1.00  0.00     0.167 HD
ATOM     66  C   UNL A   1      42.758  30.756  34.608  1.00  0.00     0.074 A 
ATOM     67  C   UNL A   1      43.180  31.391  35.840  1.00  0.00     0.031 C 
ATOM     68  C   UNL A   1      43.387  29.699  34.041  1.00  0.00     0.031 A 
BRANCH  55  69
ATOM     69  C   UNL A   1      40.711  27.669  28.862  1.00  0.00    -0.014 A 
ATOM     70  C   UNL A   1      41.546  27.787  27.740  1.00  0.00     0.009 A 
ATOM     71  C   UNL A   1      39.853  26.563  28.961  1.00  0.00     0.009 A 
ATOM     72  C   UNL A   1      41.497  26.834  26.721  1.00  0.00     0.001 A 
ATOM     73  C   UNL A   1      39.823  25.599  27.950  1.00  0.00     0.001 A 
ATOM     74  C   UNL A   1      40.638  25.740  26.828  1.00  0.00     0.000 A 
ENDBRANCH  55  69
BRANCH  56  75
ATOM     75  C   UNL A   1      40.243  34.387  36.202  1.00  0.00    -0.014 A 
ATOM     76  C   UNL A   1      40.896  35.626  36.121  1.00  0.00     0.009 A 
ATOM     77  C   UNL A   1      39.500  34.082  37.353  1.00  0.00     0.009 A 
ATOM     78  C   UNL A   1      40.822  36.534  37.178  1.00  0.00     0.001 A 
ATOM     79  C   UNL A   1      39.412  35.001  38.401  1.00  0.00     0.001 A 
ATOM     80  C   UNL A   1      40.078  36.222  38.316  1.00  0.00     0.000 A 
ENDBRANCH  56  75
BRANCH  68  81
ATOM     81  C   UNL A   1      44.613  29.180  34.732  1.00  0.00    -0.014 A 
ATOM     82  C   UNL A   1      45.896  29.563  34.314  1.00  0.00     0.009 A 
ATOM     83  C   UNL A   1      44.479  28.331  35.841  1.00  0.00     0.009 A 
ATOM     84  C   UNL A   1      47.024  29.085  34.981  1.00  0.00     0.001 A 
ATOM     85  C   UNL A   1      45.609  27.871  36.518  1.00  0.00     0.001 A 
ATOM     86  C   UNL A   1      46.881  28.242  36.083  1.00  0.00     0.000 A 
ENDBRANCH  68  81
ENDBRANCH  42  43
ENDBRANCH  34  37
ENDBRANCH  32  33
ENDBRANCH  31  32
ENDBRANCH  30  31
ENDBRANCH   1  30
TORSDOF 15
ENDMDL
