MODEL 1
REMARK VINA RESULT:     -10.6      0.000      0.000
REMARK SMILES O=C(CC[NH+]1CC[NH+](Cc2ccccc2C2CC2)CC1)NCCCCNC(=O)c1ccc(-c2c3nc(c(-c4ccccc4)c4ccc([nH]4)c(-c4ccccc4)c4nc(c(-c5ccccc5)c5ccc2[nH]5)C=C4)C=C3)cc1
REMARK SMILES IDX 22 1 21 2 1 3 2 4 3 6 4 7 5 8 6 9 20 10 7 12 19 13 8 14 9 16
REMARK SMILES IDX 10 17 11 18 15 19 12 20 14 21 13 22 16 23 17 24 18 25 23 26
REMARK SMILES IDX 24 27 25 28 26 29 27 30 28 32 29 33 30 34 76 35 31 36 75 37
REMARK SMILES IDX 32 38 33 39 34 40 69 41 35 42 74 43 68 44 70 45 36 46 73 47
REMARK SMILES IDX 67 48 66 49 37 51 59 52 44 53 58 54 45 55 48 56 57 57 71 58
REMARK SMILES IDX 46 59 47 60 56 62 72 63 49 64 38 65 39 66 43 67 40 68 42 69
REMARK SMILES IDX 41 70 60 71 61 72 65 73 62 74 64 75 63 76 50 77 51 78 55 79
REMARK SMILES IDX 52 80 54 81 53 82
REMARK H PARENT 21 5 5 11 8 15 26 31 70 50 48 61
REMARK Flexibility Score: inf
ROOT
ATOM      1  C   UNL A   1      31.761  29.526  25.005  1.00  0.00     0.116 C 
ENDROOT
BRANCH   1   2
ATOM      2  N   UNL A   1      30.925  28.337  24.955  1.00  0.00    -0.356 N 
ATOM      3  O   UNL A   1      30.745  28.310  22.679  1.00  0.00    -0.275 OA
ATOM      4  C   UNL A   1      30.531  27.768  23.765  1.00  0.00     0.225 C 
ATOM      5  H   UNL A   1      30.631  27.925  25.800  1.00  0.00     0.163 HD
BRANCH   4   6
ATOM      6  C   UNL A   1      29.715  26.476  23.820  1.00  0.00     0.161 C 
BRANCH   6   7
ATOM      7  C   UNL A   1      30.316  25.182  23.250  1.00  0.00     0.272 C 
BRANCH   7   8
ATOM      8  N   UNL A   1      30.447  24.065  24.188  1.00  0.00    -0.325 N 
ATOM      9  C   UNL A   1      31.117  22.882  23.640  1.00  0.00     0.324 C 
ATOM     10  C   UNL A   1      31.049  24.462  25.486  1.00  0.00     0.324 C 
ATOM     11  H   UNL A   1      29.481  23.788  24.362  1.00  0.00     0.348 HD
ATOM     12  C   UNL A   1      32.640  22.803  23.756  1.00  0.00     0.324 C 
ATOM     13  C   UNL A   1      32.579  24.236  25.674  1.00  0.00     0.324 C 
ATOM     14  N   UNL A   1      33.132  22.998  25.116  1.00  0.00    -0.322 N 
ATOM     15  H   UNL A   1      34.140  23.146  25.083  1.00  0.00     0.348 HD
BRANCH  14  16
ATOM     16  C   UNL A   1      33.115  21.792  25.964  1.00  0.00     0.299 C 
BRANCH  16  17
ATOM     17  C   UNL A   1      33.731  20.498  25.459  1.00  0.00     0.010 A 
ATOM     18  C   UNL A   1      32.811  19.449  25.196  1.00  0.00     0.010 A 
ATOM     19  C   UNL A   1      35.113  20.273  25.239  1.00  0.00    -0.036 A 
ATOM     20  C   UNL A   1      33.205  18.239  24.634  1.00  0.00     0.001 A 
ATOM     21  C   UNL A   1      35.466  19.030  24.659  1.00  0.00     0.004 A 
ATOM     22  C   UNL A   1      34.538  18.039  24.339  1.00  0.00     0.000 A 
BRANCH  19  23
ATOM     23  C   UNL A   1      36.269  21.246  25.406  1.00  0.00     0.020 C 
ATOM     24  C   UNL A   1      37.632  21.169  24.783  1.00  0.00     0.009 C 
ATOM     25  C   UNL A   1      36.647  22.183  24.287  1.00  0.00     0.009 C 
ENDBRANCH  19  23
ENDBRANCH  16  17
ENDBRANCH  14  16
ENDBRANCH   7   8
ENDBRANCH   6   7
ENDBRANCH   4   6
ENDBRANCH   1   2
BRANCH   1  26
ATOM     26  C   UNL A   1      33.270  29.276  24.882  1.00  0.00     0.023 C 
BRANCH  26  27
ATOM     27  C   UNL A   1      33.939  28.439  25.981  1.00  0.00     0.023 C 
BRANCH  27  28
ATOM     28  C   UNL A   1      33.487  28.675  27.427  1.00  0.00     0.116 C 
BRANCH  28  29
ATOM     29  N   UNL A   1      33.479  30.079  27.809  1.00  0.00    -0.352 N 
ATOM     30  C   UNL A   1      34.470  30.839  28.384  1.00  0.00     0.251 C 
ATOM     31  H   UNL A   1      32.637  30.556  27.628  1.00  0.00     0.163 HD
ATOM     32  O   UNL A   1      34.215  31.986  28.756  1.00  0.00    -0.269 OA
BRANCH  30  33
ATOM     33  C   UNL A   1      35.842  30.309  28.588  1.00  0.00     0.039 A 
ATOM     34  C   UNL A   1      36.733  30.301  27.506  1.00  0.00     0.014 A 
ATOM     35  C   UNL A   1      36.240  29.747  29.801  1.00  0.00     0.014 A 
ATOM     36  C   UNL A   1      38.032  29.795  27.658  1.00  0.00     0.010 A 
ATOM     37  C   UNL A   1      37.551  29.275  29.960  1.00  0.00     0.010 A 
ATOM     38  C   UNL A   1      38.466  29.301  28.897  1.00  0.00    -0.014 A 
BRANCH  38  39
ATOM     39  C   UNL A   1      39.866  28.829  29.104  1.00  0.00     0.031 A 
ATOM     40  C   UNL A   1      40.920  29.743  29.673  1.00  0.00     0.074 A 
ATOM     41  C   UNL A   1      40.218  27.584  28.722  1.00  0.00     0.049 A 
ATOM     42  N   UNL A   1      42.194  29.509  29.880  1.00  0.00    -0.248 NA
ATOM     43  C   UNL A   1      40.493  31.101  30.043  1.00  0.00     0.031 C 
ATOM     44  C   UNL A   1      39.321  26.597  28.120  1.00  0.00     0.029 A 
ATOM     45  N   UNL A   1      41.431  26.939  28.780  1.00  0.00    -0.354 N 
ATOM     46  C   UNL A   1      42.719  30.688  30.395  1.00  0.00     0.074 A 
ATOM     47  C   UNL A   1      41.637  31.648  30.430  1.00  0.00     0.031 C 
ATOM     48  C   UNL A   1      40.009  25.467  27.880  1.00  0.00     0.029 A 
ATOM     49  C   UNL A   1      41.401  25.660  28.280  1.00  0.00     0.049 A 
ATOM     50  H   UNL A   1      42.245  27.356  29.144  1.00  0.00     0.167 HD
ATOM     51  C   UNL A   1      43.982  30.948  30.816  1.00  0.00     0.031 A 
ATOM     52  C   UNL A   1      42.377  24.742  28.148  1.00  0.00     0.031 A 
ATOM     53  C   UNL A   1      45.069  30.004  30.794  1.00  0.00     0.049 A 
ATOM     54  C   UNL A   1      43.774  25.060  28.606  1.00  0.00     0.074 A 
ATOM     55  C   UNL A   1      46.367  30.172  31.251  1.00  0.00     0.029 A 
ATOM     56  N   UNL A   1      44.991  28.719  30.284  1.00  0.00    -0.354 N 
ATOM     57  N   UNL A   1      44.235  26.158  29.150  1.00  0.00    -0.248 NA
ATOM     58  C   UNL A   1      44.782  24.002  28.440  1.00  0.00     0.031 C 
ATOM     59  C   UNL A   1      47.085  29.004  30.978  1.00  0.00     0.029 A 
ATOM     60  C   UNL A   1      46.222  28.091  30.395  1.00  0.00     0.049 A 
ATOM     61  H   UNL A   1      44.182  28.312  29.900  1.00  0.00     0.167 HD
ATOM     62  C   UNL A   1      45.577  25.917  29.413  1.00  0.00     0.074 A 
ATOM     63  C   UNL A   1      45.854  24.563  28.983  1.00  0.00     0.031 C 
ATOM     64  C   UNL A   1      46.495  26.745  29.965  1.00  0.00     0.031 A 
BRANCH  51  65
ATOM     65  C   UNL A   1      44.263  32.327  31.346  1.00  0.00    -0.014 A 
ATOM     66  C   UNL A   1      44.730  33.346  30.499  1.00  0.00     0.009 A 
ATOM     67  C   UNL A   1      44.011  32.626  32.694  1.00  0.00     0.009 A 
ATOM     68  C   UNL A   1      44.970  34.627  31.000  1.00  0.00     0.001 A 
ATOM     69  C   UNL A   1      44.227  33.914  33.186  1.00  0.00     0.001 A 
ATOM     70  C   UNL A   1      44.714  34.911  32.341  1.00  0.00     0.000 A 
ENDBRANCH  51  65
BRANCH  52  71
ATOM     71  C   UNL A   1      42.070  23.413  27.559  1.00  0.00    -0.014 A 
ATOM     72  C   UNL A   1      41.260  22.498  28.249  1.00  0.00     0.009 A 
ATOM     73  C   UNL A   1      42.597  23.048  26.310  1.00  0.00     0.009 A 
ATOM     74  C   UNL A   1      41.003  21.235  27.710  1.00  0.00     0.001 A 
ATOM     75  C   UNL A   1      42.317  21.795  25.762  1.00  0.00     0.001 A 
ATOM     76  C   UNL A   1      41.528  20.887  26.466  1.00  0.00     0.000 A 
ENDBRANCH  52  71
BRANCH  64  77
ATOM     77  C   UNL A   1      47.883  26.204  30.164  1.00  0.00    -0.014 A 
ATOM     78  C   UNL A   1      48.307  25.727  31.414  1.00  0.00     0.009 A 
ATOM     79  C   UNL A   1      48.767  26.138  29.075  1.00  0.00     0.009 A 
ATOM     80  C   UNL A   1      49.601  25.223  31.575  1.00  0.00     0.001 A 
ATOM     81  C   UNL A   1      50.050  25.612  29.234  1.00  0.00     0.001 A 
ATOM     82  C   UNL A   1      50.468  25.163  30.486  1.00  0.00     0.000 A 
ENDBRANCH  64  77
ENDBRANCH  38  39
ENDBRANCH  30  33
ENDBRANCH  28  29
ENDBRANCH  27  28
ENDBRANCH  26  27
ENDBRANCH   1  26
TORSDOF 16
ENDMDL
MODEL 2
REMARK VINA RESULT:     -10.4      3.746      8.829
REMARK SMILES O=C(CC[NH+]1CC[NH+](Cc2ccccc2C2CC2)CC1)NCCCCNC(=O)c1ccc(-c2c3nc(c(-c4ccccc4)c4ccc([nH]4)c(-c4ccccc4)c4nc(c(-c5ccccc5)c5ccc2[nH]5)C=C4)C=C3)cc1
REMARK SMILES IDX 22 1 21 2 1 3 2 4 3 6 4 7 5 8 6 9 20 10 7 12 19 13 8 14 9 16
REMARK SMILES IDX 10 17 11 18 15 19 12 20 14 21 13 22 16 23 17 24 18 25 23 26
REMARK SMILES IDX 24 27 25 28 26 29 27 30 28 32 29 33 30 34 76 35 31 36 75 37
REMARK SMILES IDX 32 38 33 39 34 40 69 41 35 42 74 43 68 44 70 45 36 46 73 47
REMARK SMILES IDX 67 48 66 49 37 51 59 52 44 53 58 54 45 55 48 56 57 57 71 58
REMARK SMILES IDX 46 59 47 60 56 62 72 63 49 64 38 65 39 66 43 67 40 68 42 69
REMARK SMILES IDX 41 70 60 71 61 72 65 73 62 74 64 75 63 76 50 77 51 78 55 79
REMARK SMILES IDX 52 80 54 81 53 82
REMARK H PARENT 21 5 5 11 8 15 26 31 70 50 48 61
REMARK Flexibility Score: inf
ROOT
ATOM      1  C   UNL A   1      40.030  21.538  26.749  1.00  0.00     0.116 C 
ENDROOT
BRANCH   1   2
ATOM      2  N   UNL A   1      39.100  22.188  25.838  1.00  0.00    -0.356 N 
ATOM      3  O   UNL A   1      38.031  20.265  25.231  1.00  0.00    -0.275 OA
ATOM      4  C   UNL A   1      38.106  21.494  25.188  1.00  0.00     0.225 C 
ATOM      5  H   UNL A   1      39.186  23.156  25.682  1.00  0.00     0.163 HD
BRANCH   4   6
ATOM      6  C   UNL A   1      37.133  22.282  24.311  1.00  0.00     0.161 C 
BRANCH   6   7
ATOM      7  C   UNL A   1      35.622  22.060  24.474  1.00  0.00     0.272 C 
BRANCH   7   8
ATOM      8  N   UNL A   1      34.758  23.148  24.014  1.00  0.00    -0.325 N 
ATOM      9  C   UNL A   1      33.330  22.818  23.968  1.00  0.00     0.324 C 
ATOM     10  C   UNL A   1      34.984  24.422  24.743  1.00  0.00     0.324 C 
ATOM     11  H   UNL A   1      35.046  23.286  23.045  1.00  0.00     0.348 HD
ATOM     12  C   UNL A   1      32.499  23.057  25.230  1.00  0.00     0.324 C 
ATOM     13  C   UNL A   1      34.037  24.752  25.936  1.00  0.00     0.324 C 
ATOM     14  N   UNL A   1      32.622  24.410  25.762  1.00  0.00    -0.322 N 
ATOM     15  H   UNL A   1      32.224  24.432  26.700  1.00  0.00     0.348 HD
BRANCH  14  16
ATOM     16  C   UNL A   1      31.744  25.411  25.128  1.00  0.00     0.299 C 
BRANCH  16  17
ATOM     17  C   UNL A   1      31.775  26.856  25.596  1.00  0.00     0.010 A 
ATOM     18  C   UNL A   1      31.431  27.061  26.959  1.00  0.00     0.010 A 
ATOM     19  C   UNL A   1      32.113  27.976  24.796  1.00  0.00    -0.036 A 
ATOM     20  C   UNL A   1      31.510  28.310  27.565  1.00  0.00     0.001 A 
ATOM     21  C   UNL A   1      32.188  29.226  25.458  1.00  0.00     0.004 A 
ATOM     22  C   UNL A   1      31.918  29.395  26.815  1.00  0.00     0.000 A 
BRANCH  19  23
ATOM     23  C   UNL A   1      32.552  28.001  23.341  1.00  0.00     0.020 C 
ATOM     24  C   UNL A   1      33.475  28.980  22.676  1.00  0.00     0.009 C 
ATOM     25  C   UNL A   1      33.950  27.588  22.956  1.00  0.00     0.009 C 
ENDBRANCH  19  23
ENDBRANCH  16  17
ENDBRANCH  14  16
ENDBRANCH   7   8
ENDBRANCH   6   7
ENDBRANCH   4   6
ENDBRANCH   1   2
BRANCH   1  26
ATOM     26  C   UNL A   1      41.369  21.112  26.131  1.00  0.00     0.023 C 
BRANCH  26  27
ATOM     27  C   UNL A   1      41.542  19.630  25.775  1.00  0.00     0.023 C 
BRANCH  27  28
ATOM     28  C   UNL A   1      42.857  18.952  26.176  1.00  0.00     0.116 C 
BRANCH  28  29
ATOM     29  N   UNL A   1      43.741  18.692  25.050  1.00  0.00    -0.352 N 
ATOM     30  C   UNL A   1      44.569  19.552  24.367  1.00  0.00     0.251 C 
ATOM     31  H   UNL A   1      43.747  17.762  24.729  1.00  0.00     0.163 HD
ATOM     32  O   UNL A   1      45.140  19.161  23.346  1.00  0.00    -0.269 OA
BRANCH  30  33
ATOM     33  C   UNL A   1      44.783  20.951  24.814  1.00  0.00     0.039 A 
ATOM     34  C   UNL A   1      44.491  21.997  23.929  1.00  0.00     0.014 A 
ATOM     35  C   UNL A   1      45.341  21.249  26.058  1.00  0.00     0.014 A 
ATOM     36  C   UNL A   1      44.695  23.331  24.312  1.00  0.00     0.010 A 
ATOM     37  C   UNL A   1      45.509  22.584  26.451  1.00  0.00     0.010 A 
ATOM     38  C   UNL A   1      45.181  23.641  25.590  1.00  0.00    -0.014 A 
BRANCH  38  39
ATOM     39  C   UNL A   1      45.333  25.053  26.048  1.00  0.00     0.031 A 
ATOM     40  C   UNL A   1      46.674  25.740  26.022  1.00  0.00     0.074 A 
ATOM     41  C   UNL A   1      44.270  25.714  26.551  1.00  0.00     0.049 A 
ATOM     42  N   UNL A   1      46.993  26.949  26.421  1.00  0.00    -0.248 NA
ATOM     43  C   UNL A   1      47.807  24.966  25.494  1.00  0.00     0.031 C 
ATOM     44  C   UNL A   1      42.917  25.171  26.679  1.00  0.00     0.029 A 
ATOM     45  N   UNL A   1      44.166  26.989  27.057  1.00  0.00    -0.354 N 
ATOM     46  C   UNL A   1      48.358  27.075  26.201  1.00  0.00     0.074 A 
ATOM     47  C   UNL A   1      48.816  25.808  25.672  1.00  0.00     0.031 C 
ATOM     48  C   UNL A   1      42.116  26.110  27.210  1.00  0.00     0.029 A 
ATOM     49  C   UNL A   1      42.902  27.308  27.491  1.00  0.00     0.049 A 
ATOM     50  H   UNL A   1      44.925  27.613  27.104  1.00  0.00     0.167 HD
ATOM     51  C   UNL A   1      49.160  28.150  26.403  1.00  0.00     0.031 A 
ATOM     52  C   UNL A   1      42.423  28.433  28.057  1.00  0.00     0.031 A 
ATOM     53  C   UNL A   1      48.722  29.419  26.922  1.00  0.00     0.049 A 
ATOM     54  C   UNL A   1      43.336  29.605  28.287  1.00  0.00     0.074 A 
ATOM     55  C   UNL A   1      49.461  30.577  27.109  1.00  0.00     0.029 A 
ATOM     56  N   UNL A   1      47.433  29.699  27.343  1.00  0.00    -0.354 N 
ATOM     57  N   UNL A   1      44.610  29.727  28.012  1.00  0.00    -0.248 NA
ATOM     58  C   UNL A   1      42.736  30.801  28.899  1.00  0.00     0.031 C 
ATOM     59  C   UNL A   1      48.629  31.543  27.684  1.00  0.00     0.029 A 
ATOM     60  C   UNL A   1      47.360  31.003  27.810  1.00  0.00     0.049 A 
ATOM     61  H   UNL A   1      46.679  29.067  27.316  1.00  0.00     0.167 HD
ATOM     62  C   UNL A   1      44.959  31.016  28.393  1.00  0.00     0.074 A 
ATOM     63  C   UNL A   1      43.760  31.644  28.906  1.00  0.00     0.031 C 
ATOM     64  C   UNL A   1      46.167  31.624  28.320  1.00  0.00     0.031 A 
BRANCH  51  65
ATOM     65  C   UNL A   1      50.616  28.001  26.058  1.00  0.00    -0.014 A 
ATOM     66  C   UNL A   1      51.089  28.301  24.770  1.00  0.00     0.009 A 
ATOM     67  C   UNL A   1      51.534  27.605  27.044  1.00  0.00     0.009 A 
ATOM     68  C   UNL A   1      52.447  28.176  24.468  1.00  0.00     0.001 A 
ATOM     69  C   UNL A   1      52.894  27.506  26.746  1.00  0.00     0.001 A 
ATOM     70  C   UNL A   1      53.348  27.783  25.457  1.00  0.00     0.000 A 
ENDBRANCH  51  65
BRANCH  52  71
ATOM     71  C   UNL A   1      40.991  28.515  28.443  1.00  0.00    -0.014 A 
ATOM     72  C   UNL A   1      40.578  28.148  29.733  1.00  0.00     0.009 A 
ATOM     73  C   UNL A   1      40.028  28.951  27.519  1.00  0.00     0.009 A 
ATOM     74  C   UNL A   1      39.226  28.192  30.082  1.00  0.00     0.001 A 
ATOM     75  C   UNL A   1      38.681  29.018  27.879  1.00  0.00     0.001 A 
ATOM     76  C   UNL A   1      38.281  28.631  29.157  1.00  0.00     0.000 A 
ENDBRANCH  52  71
BRANCH  64  77
ATOM     77  C   UNL A   1      46.250  33.052  28.779  1.00  0.00    -0.014 A 
ATOM     78  C   UNL A   1      45.936  34.115  27.918  1.00  0.00     0.009 A 
ATOM     79  C   UNL A   1      46.616  33.337  30.105  1.00  0.00     0.009 A 
ATOM     80  C   UNL A   1      46.016  35.435  28.367  1.00  0.00     0.001 A 
ATOM     81  C   UNL A   1      46.671  34.656  30.558  1.00  0.00     0.001 A 
ATOM     82  C   UNL A   1      46.379  35.704  29.686  1.00  0.00     0.000 A 
ENDBRANCH  64  77
ENDBRANCH  38  39
ENDBRANCH  30  33
ENDBRANCH  28  29
ENDBRANCH  27  28
ENDBRANCH  26  27
ENDBRANCH   1  26
TORSDOF 16
ENDMDL
MODEL 3
REMARK VINA RESULT:     -10.3      0.601      5.919
REMARK SMILES O=C(CC[NH+]1CC[NH+](Cc2ccccc2C2CC2)CC1)NCCCCNC(=O)c1ccc(-c2c3nc(c(-c4ccccc4)c4ccc([nH]4)c(-c4ccccc4)c4nc(c(-c5ccccc5)c5ccc2[nH]5)C=C4)C=C3)cc1
REMARK SMILES IDX 22 1 21 2 1 3 2 4 3 6 4 7 5 8 6 9 20 10 7 12 19 13 8 14 9 16
REMARK SMILES IDX 10 17 11 18 15 19 12 20 14 21 13 22 16 23 17 24 18 25 23 26
REMARK SMILES IDX 24 27 25 28 26 29 27 30 28 32 29 33 30 34 76 35 31 36 75 37
REMARK SMILES IDX 32 38 33 39 34 40 69 41 35 42 74 43 68 44 70 45 36 46 73 47
REMARK SMILES IDX 67 48 66 49 37 51 59 52 44 53 58 54 45 55 48 56 57 57 71 58
REMARK SMILES IDX 46 59 47 60 56 62 72 63 49 64 38 65 39 66 43 67 40 68 42 69
REMARK SMILES IDX 41 70 60 71 61 72 65 73 62 74 64 75 63 76 50 77 51 78 55 79
REMARK SMILES IDX 52 80 54 81 53 82
REMARK H PARENT 21 5 5 11 8 15 26 31 70 50 48 61
REMARK Flexibility Score: inf
ROOT
ATOM      1  C   UNL A   1      31.630  29.412  25.174  1.00  0.00     0.116 C 
ENDROOT
BRANCH   1   2
ATOM      2  N   UNL A   1      30.871  28.171  25.203  1.00  0.00    -0.356 N 
ATOM      3  O   UNL A   1      30.594  28.048  22.941  1.00  0.00    -0.275 OA
ATOM      4  C   UNL A   1      30.463  27.535  24.054  1.00  0.00     0.225 C 
ATOM      5  H   UNL A   1      30.643  27.774  26.075  1.00  0.00     0.163 HD
BRANCH   4   6
ATOM      6  C   UNL A   1      29.737  26.197  24.191  1.00  0.00     0.161 C 
BRANCH   6   7
ATOM      7  C   UNL A   1      30.286  24.964  23.457  1.00  0.00     0.272 C 
BRANCH   7   8
ATOM      8  N   UNL A   1      30.615  23.809  24.296  1.00  0.00    -0.325 N 
ATOM      9  C   UNL A   1      31.804  23.064  23.871  1.00  0.00     0.324 C 
ATOM     10  C   UNL A   1      30.686  24.140  25.742  1.00  0.00     0.324 C 
ATOM     11  H   UNL A   1      29.823  23.182  24.157  1.00  0.00     0.348 HD
ATOM     12  C   UNL A   1      33.161  23.506  24.420  1.00  0.00     0.324 C 
ATOM     13  C   UNL A   1      32.090  24.437  26.349  1.00  0.00     0.324 C 
ATOM     14  N   UNL A   1      33.198  23.602  25.876  1.00  0.00    -0.322 N 
ATOM     15  H   UNL A   1      34.045  24.099  26.151  1.00  0.00     0.348 HD
BRANCH  14  16
ATOM     16  C   UNL A   1      33.453  22.331  26.578  1.00  0.00     0.299 C 
BRANCH  16  17
ATOM     17  C   UNL A   1      34.326  21.268  25.934  1.00  0.00     0.010 A 
ATOM     18  C   UNL A   1      33.636  20.122  25.457  1.00  0.00     0.010 A 
ATOM     19  C   UNL A   1      35.733  21.336  25.781  1.00  0.00    -0.036 A 
ATOM     20  C   UNL A   1      34.278  19.108  24.753  1.00  0.00     0.001 A 
ATOM     21  C   UNL A   1      36.342  20.285  25.053  1.00  0.00     0.004 A 
ATOM     22  C   UNL A   1      35.636  19.204  24.527  1.00  0.00     0.000 A 
BRANCH  19  23
ATOM     23  C   UNL A   1      36.674  22.466  26.170  1.00  0.00     0.020 C 
ATOM     24  C   UNL A   1      37.973  22.845  25.522  1.00  0.00     0.009 C 
ATOM     25  C   UNL A   1      36.767  23.710  25.322  1.00  0.00     0.009 C 
ENDBRANCH  19  23
ENDBRANCH  16  17
ENDBRANCH  14  16
ENDBRANCH   7   8
ENDBRANCH   6   7
ENDBRANCH   4   6
ENDBRANCH   1   2
BRANCH   1  26
ATOM     26  C   UNL A   1      33.096  29.278  24.740  1.00  0.00     0.023 C 
BRANCH  26  27
ATOM     27  C   UNL A   1      34.028  28.460  25.645  1.00  0.00     0.023 C 
BRANCH  27  28
ATOM     28  C   UNL A   1      33.785  28.524  27.158  1.00  0.00     0.116 C 
BRANCH  28  29
ATOM     29  N   UNL A   1      33.649  29.881  27.665  1.00  0.00    -0.352 N 
ATOM     30  C   UNL A   1      34.563  30.668  28.325  1.00  0.00     0.251 C 
ATOM     31  H   UNL A   1      32.770  30.298  27.512  1.00  0.00     0.163 HD
ATOM     32  O   UNL A   1      34.203  31.750  28.794  1.00  0.00    -0.269 OA
BRANCH  30  33
ATOM     33  C   UNL A   1      35.974  30.243  28.507  1.00  0.00     0.039 A 
ATOM     34  C   UNL A   1      36.344  29.620  29.706  1.00  0.00     0.014 A 
ATOM     35  C   UNL A   1      36.953  30.518  27.552  1.00  0.00     0.014 A 
ATOM     36  C   UNL A   1      37.671  29.218  29.919  1.00  0.00     0.010 A 
ATOM     37  C   UNL A   1      38.271  30.082  27.753  1.00  0.00     0.010 A 
ATOM     38  C   UNL A   1      38.645  29.420  28.931  1.00  0.00    -0.014 A 
BRANCH  38  39
ATOM     39  C   UNL A   1      40.045  28.932  29.102  1.00  0.00     0.031 A 
ATOM     40  C   UNL A   1      40.439  27.536  28.691  1.00  0.00     0.074 A 
ATOM     41  C   UNL A   1      40.965  29.725  29.688  1.00  0.00     0.049 A 
ATOM     42  N   UNL A   1      41.600  26.937  28.807  1.00  0.00    -0.248 NA
ATOM     43  C   UNL A   1      39.391  26.701  28.086  1.00  0.00     0.031 C 
ATOM     44  C   UNL A   1      40.726  31.084  30.176  1.00  0.00     0.029 A 
ATOM     45  N   UNL A   1      42.289  29.495  29.981  1.00  0.00    -0.354 N 
ATOM     46  C   UNL A   1      41.420  25.656  28.299  1.00  0.00     0.074 A 
ATOM     47  C   UNL A   1      40.029  25.551  27.913  1.00  0.00     0.031 C 
ATOM     48  C   UNL A   1      41.868  31.573  30.688  1.00  0.00     0.029 A 
ATOM     49  C   UNL A   1      42.910  30.553  30.598  1.00  0.00     0.049 A 
ATOM     50  H   UNL A   1      42.749  28.651  29.768  1.00  0.00     0.167 HD
ATOM     51  C   UNL A   1      42.329  24.661  28.150  1.00  0.00     0.031 A 
ATOM     52  C   UNL A   1      44.171  30.694  31.050  1.00  0.00     0.031 A 
ATOM     53  C   UNL A   1      43.716  24.749  28.524  1.00  0.00     0.049 A 
ATOM     54  C   UNL A   1      45.156  29.570  30.890  1.00  0.00     0.074 A 
ATOM     55  C   UNL A   1      44.716  23.803  28.359  1.00  0.00     0.029 A 
ATOM     56  N   UNL A   1      44.302  25.842  29.141  1.00  0.00    -0.354 N 
ATOM     57  N   UNL A   1      44.982  28.391  30.348  1.00  0.00    -0.248 NA
ATOM     58  C   UNL A   1      46.517  29.804  31.397  1.00  0.00     0.031 C 
ATOM     59  C   UNL A   1      45.895  24.307  28.916  1.00  0.00     0.029 A 
ATOM     60  C   UNL A   1      45.643  25.585  29.384  1.00  0.00     0.049 A 
ATOM     61  H   UNL A   1      43.836  26.676  29.373  1.00  0.00     0.167 HD
ATOM     62  C   UNL A   1      46.213  27.752  30.426  1.00  0.00     0.074 A 
ATOM     63  C   UNL A   1      47.130  28.679  31.054  1.00  0.00     0.031 C 
ATOM     64  C   UNL A   1      46.552  26.508  30.010  1.00  0.00     0.031 A 
BRANCH  51  65
ATOM     65  C   UNL A   1      41.847  23.369  27.551  1.00  0.00    -0.014 A 
ATOM     66  C   UNL A   1      42.054  23.080  26.192  1.00  0.00     0.009 A 
ATOM     67  C   UNL A   1      41.225  22.407  28.363  1.00  0.00     0.009 A 
ATOM     68  C   UNL A   1      41.617  21.868  25.652  1.00  0.00     0.001 A 
ATOM     69  C   UNL A   1      40.813  21.186  27.826  1.00  0.00     0.001 A 
ATOM     70  C   UNL A   1      41.002  20.921  26.470  1.00  0.00     0.000 A 
ENDBRANCH  51  65
BRANCH  52  71
ATOM     71  C   UNL A   1      44.589  31.966  31.696  1.00  0.00    -0.014 A 
ATOM     72  C   UNL A   1      45.133  33.008  30.931  1.00  0.00     0.009 A 
ATOM     73  C   UNL A   1      44.458  32.136  33.083  1.00  0.00     0.009 A 
ATOM     74  C   UNL A   1      45.560  34.188  31.545  1.00  0.00     0.001 A 
ATOM     75  C   UNL A   1      44.860  33.327  33.690  1.00  0.00     0.001 A 
ATOM     76  C   UNL A   1      45.419  34.347  32.922  1.00  0.00     0.000 A 
ENDBRANCH  52  71
BRANCH  64  77
ATOM     77  C   UNL A   1      47.981  26.083  30.194  1.00  0.00    -0.014 A 
ATOM     78  C   UNL A   1      48.913  26.190  29.150  1.00  0.00     0.009 A 
ATOM     79  C   UNL A   1      48.409  25.601  31.441  1.00  0.00     0.009 A 
ATOM     80  C   UNL A   1      50.239  25.794  29.344  1.00  0.00     0.001 A 
ATOM     81  C   UNL A   1      49.740  25.228  31.639  1.00  0.00     0.001 A 
ATOM     82  C   UNL A   1      50.651  25.318  30.588  1.00  0.00     0.000 A 
ENDBRANCH  64  77
ENDBRANCH  38  39
ENDBRANCH  30  33
ENDBRANCH  28  29
ENDBRANCH  27  28
ENDBRANCH  26  27
ENDBRANCH   1  26
TORSDOF 16
ENDMDL
