MODEL 1
REMARK VINA RESULT:      -9.3      0.000      0.000
REMARK SMILES CCCCc1[nH]ncc1C(=O)NCCCCNC(=O)c1ccc(-c2c3nc(c(-c4ccccc4)c4ccc([nH]4)c(-c4ccccc4)c4nc(c(-c5ccccc5)c5ccc2[nH]5)C=C4)C=C3)cc1
REMARK SMILES IDX 14 1 13 2 12 3 10 4 11 5 9 7 5 8 6 9 7 10 8 12 4 13 3 14
REMARK SMILES IDX 2 15 1 16 15 17 16 18 17 19 18 20 19 22 20 23 21 24 67 25
REMARK SMILES IDX 22 26 66 27 23 28 24 29 25 30 60 31 26 32 65 33 59 34 61 35
REMARK SMILES IDX 27 36 64 37 58 38 57 39 28 41 50 42 35 43 49 44 36 45 39 46
REMARK SMILES IDX 48 47 62 48 37 49 38 50 47 52 63 53 40 54 29 55 30 56 34 57
REMARK SMILES IDX 31 58 33 59 32 60 51 61 52 62 56 63 53 64 55 65 54 66 41 67
REMARK SMILES IDX 42 68 46 69 43 70 45 71 44 72
REMARK H PARENT 12 6 6 11 17 21 61 40 39 51
REMARK Flexibility Score: inf
ROOT
ATOM      1  C   UNL A   1      36.816  33.478  28.853  1.00  0.00     0.023 C 
ENDROOT
BRANCH   1   2
ATOM      2  C   UNL A   1      37.116  32.749  30.164  1.00  0.00     0.116 C 
BRANCH   2   3
ATOM      3  N   UNL A   1      37.447  33.684  31.206  1.00  0.00    -0.352 N 
ATOM      4  C   UNL A   1      36.719  34.315  32.174  1.00  0.00     0.254 C 
ATOM      5  O   UNL A   1      37.395  35.015  32.936  1.00  0.00    -0.269 OA
ATOM      6  H   UNL A   1      38.403  33.921  31.225  1.00  0.00     0.163 HD
BRANCH   4   7
ATOM      7  C   UNL A   1      35.275  34.200  32.391  1.00  0.00     0.080 A 
ATOM      8  C   UNL A   1      34.121  34.942  32.127  1.00  0.00     0.048 A 
ATOM      9  N   UNL A   1      33.085  34.240  32.699  1.00  0.00    -0.282 N 
ATOM     10  N   UNL A   1      33.444  33.107  33.298  1.00  0.00    -0.183 NA
ATOM     11  H   UNL A   1      32.152  34.551  32.667  1.00  0.00     0.190 HD
ATOM     12  C   UNL A   1      34.762  33.086  33.129  1.00  0.00     0.149 A 
BRANCH   8  13
ATOM     13  C   UNL A   1      33.776  36.247  31.495  1.00  0.00     0.056 C 
BRANCH  13  14
ATOM     14  C   UNL A   1      32.564  36.165  30.554  1.00  0.00     0.006 C 
BRANCH  14  15
ATOM     15  C   UNL A   1      32.901  35.907  29.082  1.00  0.00    -0.003 C 
ATOM     16  C   UNL A   1      34.009  36.804  28.549  1.00  0.00     0.004 C 
ENDBRANCH  14  15
ENDBRANCH  13  14
ENDBRANCH   8  13
ENDBRANCH   4   7
ENDBRANCH   2   3
ENDBRANCH   1   2
BRANCH   1  17
ATOM     17  C   UNL A   1      35.429  33.213  28.271  1.00  0.00     0.023 C 
BRANCH  17  18
ATOM     18  C   UNL A   1      34.543  32.315  29.127  1.00  0.00     0.116 C 
BRANCH  18  19
ATOM     19  N   UNL A   1      33.978  31.180  28.407  1.00  0.00    -0.352 N 
ATOM     20  C   UNL A   1      34.617  30.028  28.012  1.00  0.00     0.251 C 
ATOM     21  H   UNL A   1      33.024  31.246  28.177  1.00  0.00     0.163 HD
ATOM     22  O   UNL A   1      34.031  29.179  27.349  1.00  0.00    -0.269 OA
BRANCH  20  23
ATOM     23  C   UNL A   1      36.042  29.861  28.350  1.00  0.00     0.039 A 
ATOM     24  C   UNL A   1      36.380  29.340  29.600  1.00  0.00     0.014 A 
ATOM     25  C   UNL A   1      37.028  30.129  27.398  1.00  0.00     0.014 A 
ATOM     26  C   UNL A   1      37.707  29.002  29.864  1.00  0.00     0.010 A 
ATOM     27  C   UNL A   1      38.335  29.723  27.634  1.00  0.00     0.010 A 
ATOM     28  C   UNL A   1      38.684  29.147  28.866  1.00  0.00    -0.014 A 
BRANCH  28  29
ATOM     29  C   UNL A   1      40.078  28.690  29.078  1.00  0.00     0.031 A 
ATOM     30  C   UNL A   1      41.095  29.628  29.661  1.00  0.00     0.074 A 
ATOM     31  C   UNL A   1      40.446  27.458  28.672  1.00  0.00     0.049 A 
ATOM     32  N   UNL A   1      42.377  29.442  29.849  1.00  0.00    -0.248 NA
ATOM     33  C   UNL A   1      40.615  30.961  30.059  1.00  0.00     0.031 C 
ATOM     34  C   UNL A   1      39.563  26.468  28.049  1.00  0.00     0.029 A 
ATOM     35  N   UNL A   1      41.665  26.832  28.718  1.00  0.00    -0.354 N 
ATOM     36  C   UNL A   1      42.858  30.637  30.363  1.00  0.00     0.074 A 
ATOM     37  C   UNL A   1      41.743  31.558  30.414  1.00  0.00     0.031 C 
ATOM     38  C   UNL A   1      40.264  25.350  27.799  1.00  0.00     0.029 A 
ATOM     39  C   UNL A   1      41.649  25.556  28.208  1.00  0.00     0.049 A 
ATOM     40  H   UNL A   1      42.476  27.256  29.082  1.00  0.00     0.167 HD
ATOM     41  C   UNL A   1      44.111  30.939  30.779  1.00  0.00     0.031 A 
ATOM     42  C   UNL A   1      42.641  24.654  28.084  1.00  0.00     0.031 A 
ATOM     43  C   UNL A   1      45.216  30.019  30.748  1.00  0.00     0.049 A 
ATOM     44  C   UNL A   1      44.022  25.012  28.554  1.00  0.00     0.074 A 
ATOM     45  C   UNL A   1      46.509  30.212  31.199  1.00  0.00     0.029 A 
ATOM     46  N   UNL A   1      45.153  28.732  30.240  1.00  0.00    -0.354 N 
ATOM     47  N   UNL A   1      44.448  26.127  29.095  1.00  0.00    -0.248 NA
ATOM     48  C   UNL A   1      45.059  23.980  28.404  1.00  0.00     0.031 C 
ATOM     49  C   UNL A   1      47.241  29.050  30.929  1.00  0.00     0.029 A 
ATOM     50  C   UNL A   1      46.390  28.122  30.351  1.00  0.00     0.049 A 
ATOM     51  H   UNL A   1      44.348  28.314  29.856  1.00  0.00     0.167 HD
ATOM     52  C   UNL A   1      45.792  25.923  29.374  1.00  0.00     0.074 A 
ATOM     53  C   UNL A   1      46.109  24.574  28.953  1.00  0.00     0.031 C 
ATOM     54  C   UNL A   1      46.685  26.777  29.929  1.00  0.00     0.031 A 
BRANCH  41  55
ATOM     55  C   UNL A   1      44.344  32.327  31.303  1.00  0.00    -0.014 A 
ATOM     56  C   UNL A   1      44.181  32.622  32.666  1.00  0.00     0.009 A 
ATOM     57  C   UNL A   1      44.750  33.346  30.428  1.00  0.00     0.009 A 
ATOM     58  C   UNL A   1      44.382  33.922  33.136  1.00  0.00     0.001 A 
ATOM     59  C   UNL A   1      44.977  34.638  30.907  1.00  0.00     0.001 A 
ATOM     60  C   UNL A   1      44.783  34.926  32.257  1.00  0.00     0.000 A 
ENDBRANCH  41  55
BRANCH  42  61
ATOM     61  C   UNL A   1      42.359  23.312  27.514  1.00  0.00    -0.014 A 
ATOM     62  C   UNL A   1      42.617  23.053  26.158  1.00  0.00     0.009 A 
ATOM     63  C   UNL A   1      41.832  22.288  28.314  1.00  0.00     0.009 A 
ATOM     64  C   UNL A   1      42.327  21.802  25.610  1.00  0.00     0.001 A 
ATOM     65  C   UNL A   1      41.566  21.029  27.768  1.00  0.00     0.001 A 
ATOM     66  C   UNL A   1      41.806  20.791  26.416  1.00  0.00     0.000 A 
ENDBRANCH  42  61
BRANCH  54  67
ATOM     67  C   UNL A   1      48.080  26.266  30.146  1.00  0.00    -0.014 A 
ATOM     68  C   UNL A   1      49.038  26.313  29.121  1.00  0.00     0.009 A 
ATOM     69  C   UNL A   1      48.449  25.771  31.406  1.00  0.00     0.009 A 
ATOM     70  C   UNL A   1      50.334  25.848  29.348  1.00  0.00     0.001 A 
ATOM     71  C   UNL A   1      49.752  25.330  31.637  1.00  0.00     0.001 A 
ATOM     72  C   UNL A   1      50.691  25.362  30.607  1.00  0.00     0.000 A 
ENDBRANCH  54  67
ENDBRANCH  28  29
ENDBRANCH  20  23
ENDBRANCH  18  19
ENDBRANCH  17  18
ENDBRANCH   1  17
TORSDOF 14
ENDMDL
MODEL 2
REMARK VINA RESULT:      -9.2      4.349     10.208
REMARK SMILES CCCCc1[nH]ncc1C(=O)NCCCCNC(=O)c1ccc(-c2c3nc(c(-c4ccccc4)c4ccc([nH]4)c(-c4ccccc4)c4nc(c(-c5ccccc5)c5ccc2[nH]5)C=C4)C=C3)cc1
REMARK SMILES IDX 14 1 13 2 12 3 10 4 11 5 9 7 5 8 6 9 7 10 8 12 4 13 3 14
REMARK SMILES IDX 2 15 1 16 15 17 16 18 17 19 18 20 19 22 20 23 21 24 67 25
REMARK SMILES IDX 22 26 66 27 23 28 24 29 25 30 60 31 26 32 65 33 59 34 61 35
REMARK SMILES IDX 27 36 64 37 58 38 57 39 28 41 50 42 35 43 49 44 36 45 39 46
REMARK SMILES IDX 48 47 62 48 37 49 38 50 47 52 63 53 40 54 29 55 30 56 34 57
REMARK SMILES IDX 31 58 33 59 32 60 51 61 52 62 56 63 53 64 55 65 54 66 41 67
REMARK SMILES IDX 42 68 46 69 43 70 45 71 44 72
REMARK H PARENT 12 6 6 11 17 21 61 40 39 51
REMARK Flexibility Score: inf
ROOT
ATOM      1  C   UNL A   1      37.089  21.702  24.347  1.00  0.00     0.023 C 
ENDROOT
BRANCH   1   2
ATOM      2  C   UNL A   1      36.871  22.897  25.276  1.00  0.00     0.116 C 
BRANCH   2   3
ATOM      3  N   UNL A   1      36.004  22.545  26.370  1.00  0.00    -0.352 N 
ATOM      4  C   UNL A   1      34.731  22.055  26.445  1.00  0.00     0.254 C 
ATOM      5  O   UNL A   1      34.349  21.821  27.597  1.00  0.00    -0.269 OA
ATOM      6  H   UNL A   1      36.416  22.688  27.253  1.00  0.00     0.163 HD
BRANCH   4   7
ATOM      7  C   UNL A   1      33.842  21.765  25.318  1.00  0.00     0.080 A 
ATOM      8  C   UNL A   1      33.342  20.645  24.650  1.00  0.00     0.048 A 
ATOM      9  N   UNL A   1      32.596  21.136  23.602  1.00  0.00    -0.282 N 
ATOM     10  N   UNL A   1      32.548  22.463  23.527  1.00  0.00    -0.183 NA
ATOM     11  H   UNL A   1      32.135  20.551  22.959  1.00  0.00     0.190 HD
ATOM     12  C   UNL A   1      33.307  22.847  24.548  1.00  0.00     0.149 A 
BRANCH   8  13
ATOM     13  C   UNL A   1      33.474  19.163  24.740  1.00  0.00     0.056 C 
BRANCH  13  14
ATOM     14  C   UNL A   1      32.432  18.408  23.901  1.00  0.00     0.006 C 
BRANCH  14  15
ATOM     15  C   UNL A   1      33.008  17.547  22.771  1.00  0.00    -0.003 C 
ATOM     16  C   UNL A   1      34.109  16.603  23.231  1.00  0.00     0.004 C 
ENDBRANCH  14  15
ENDBRANCH  13  14
ENDBRANCH   8  13
ENDBRANCH   4   7
ENDBRANCH   2   3
ENDBRANCH   1   2
BRANCH   1  17
ATOM     17  C   UNL A   1      37.684  20.464  25.016  1.00  0.00     0.023 C 
BRANCH  17  18
ATOM     18  C   UNL A   1      38.967  20.721  25.797  1.00  0.00     0.116 C 
BRANCH  18  19
ATOM     19  N   UNL A   1      39.936  19.635  25.718  1.00  0.00    -0.352 N 
ATOM     20  C   UNL A   1      41.270  19.667  26.053  1.00  0.00     0.251 C 
ATOM     21  H   UNL A   1      39.595  18.774  25.386  1.00  0.00     0.163 HD
ATOM     22  O   UNL A   1      41.989  18.690  25.871  1.00  0.00    -0.269 OA
BRANCH  20  23
ATOM     23  C   UNL A   1      41.833  20.923  26.581  1.00  0.00     0.039 A 
ATOM     24  C   UNL A   1      42.270  21.896  25.680  1.00  0.00     0.014 A 
ATOM     25  C   UNL A   1      41.837  21.170  27.956  1.00  0.00     0.014 A 
ATOM     26  C   UNL A   1      42.630  23.156  26.156  1.00  0.00     0.010 A 
ATOM     27  C   UNL A   1      42.124  22.447  28.420  1.00  0.00     0.010 A 
ATOM     28  C   UNL A   1      42.513  23.454  27.523  1.00  0.00    -0.014 A 
BRANCH  28  29
ATOM     29  C   UNL A   1      42.777  24.818  28.041  1.00  0.00     0.031 A 
ATOM     30  C   UNL A   1      44.165  25.203  28.466  1.00  0.00     0.074 A 
ATOM     31  C   UNL A   1      41.755  25.680  28.204  1.00  0.00     0.049 A 
ATOM     32  N   UNL A   1      44.580  26.315  29.016  1.00  0.00    -0.248 NA
ATOM     33  C   UNL A   1      45.221  24.195  28.273  1.00  0.00     0.031 C 
ATOM     34  C   UNL A   1      40.352  25.410  27.874  1.00  0.00     0.029 A 
ATOM     35  N   UNL A   1      41.738  26.959  28.698  1.00  0.00    -0.354 N 
ATOM     36  C   UNL A   1      45.935  26.133  29.255  1.00  0.00     0.074 A 
ATOM     37  C   UNL A   1      46.263  24.788  28.835  1.00  0.00     0.031 C 
ATOM     38  C   UNL A   1      39.619  26.502  28.145  1.00  0.00     0.029 A 
ATOM     39  C   UNL A   1      40.489  27.532  28.702  1.00  0.00     0.049 A 
ATOM     40  H   UNL A   1      42.545  27.425  29.018  1.00  0.00     0.167 HD
ATOM     41  C   UNL A   1      46.834  27.011  29.759  1.00  0.00     0.031 A 
ATOM     42  C   UNL A   1      40.090  28.751  29.111  1.00  0.00     0.031 A 
ATOM     43  C   UNL A   1      46.513  28.355  30.157  1.00  0.00     0.049 A 
ATOM     44  C   UNL A   1      41.107  29.710  29.665  1.00  0.00     0.074 A 
ATOM     45  C   UNL A   1      47.364  29.340  30.625  1.00  0.00     0.029 A 
ATOM     46  N   UNL A   1      45.240  28.901  30.131  1.00  0.00    -0.354 N 
ATOM     47  N   UNL A   1      42.396  29.542  29.828  1.00  0.00    -0.248 NA
ATOM     48  C   UNL A   1      40.611  31.029  30.082  1.00  0.00     0.031 C 
ATOM     49  C   UNL A   1      46.597  30.473  30.918  1.00  0.00     0.029 A 
ATOM     50  C   UNL A   1      45.279  30.206  30.590  1.00  0.00     0.049 A 
ATOM     51  H   UNL A   1      44.429  28.430  29.831  1.00  0.00     0.167 HD
ATOM     52  C   UNL A   1      42.871  30.742  30.341  1.00  0.00     0.074 A 
ATOM     53  C   UNL A   1      41.733  31.631  30.450  1.00  0.00     0.031 C 
ATOM     54  C   UNL A   1      44.136  31.077  30.689  1.00  0.00     0.031 A 
BRANCH  41  55
ATOM     55  C   UNL A   1      48.251  26.536  29.902  1.00  0.00    -0.014 A 
ATOM     56  C   UNL A   1      49.182  26.716  28.867  1.00  0.00     0.009 A 
ATOM     57  C   UNL A   1      48.666  25.920  31.093  1.00  0.00     0.009 A 
ATOM     58  C   UNL A   1      50.492  26.251  29.006  1.00  0.00     0.001 A 
ATOM     59  C   UNL A   1      49.983  25.482  31.239  1.00  0.00     0.001 A 
ATOM     60  C   UNL A   1      50.892  25.639  30.193  1.00  0.00     0.000 A 
ENDBRANCH  41  55
BRANCH  42  61
ATOM     61  C   UNL A   1      38.665  29.148  28.989  1.00  0.00    -0.014 A 
ATOM     62  C   UNL A   1      38.167  29.627  27.767  1.00  0.00     0.009 A 
ATOM     63  C   UNL A   1      37.796  29.056  30.087  1.00  0.00     0.009 A 
ATOM     64  C   UNL A   1      36.834  30.028  27.654  1.00  0.00     0.001 A 
ATOM     65  C   UNL A   1      36.457  29.435  29.965  1.00  0.00     0.001 A 
ATOM     66  C   UNL A   1      35.980  29.929  28.752  1.00  0.00     0.000 A 
ENDBRANCH  42  61
BRANCH  54  67
ATOM     67  C   UNL A   1      44.363  32.474  31.189  1.00  0.00    -0.014 A 
ATOM     68  C   UNL A   1      44.644  33.526  30.303  1.00  0.00     0.009 A 
ATOM     69  C   UNL A   1      44.248  32.747  32.560  1.00  0.00     0.009 A 
ATOM     70  C   UNL A   1      44.835  34.821  30.787  1.00  0.00     0.001 A 
ATOM     71  C   UNL A   1      44.414  34.047  33.038  1.00  0.00     0.001 A 
ATOM     72  C   UNL A   1      44.714  35.081  32.153  1.00  0.00     0.000 A 
ENDBRANCH  54  67
ENDBRANCH  28  29
ENDBRANCH  20  23
ENDBRANCH  18  19
ENDBRANCH  17  18
ENDBRANCH   1  17
TORSDOF 14
ENDMDL
MODEL 3
REMARK VINA RESULT:      -9.2      3.917      9.281
REMARK SMILES CCCCc1[nH]ncc1C(=O)NCCCCNC(=O)c1ccc(-c2c3nc(c(-c4ccccc4)c4ccc([nH]4)c(-c4ccccc4)c4nc(c(-c5ccccc5)c5ccc2[nH]5)C=C4)C=C3)cc1
REMARK SMILES IDX 14 1 13 2 12 3 10 4 11 5 9 7 5 8 6 9 7 10 8 12 4 13 3 14
REMARK SMILES IDX 2 15 1 16 15 17 16 18 17 19 18 20 19 22 20 23 21 24 67 25
REMARK SMILES IDX 22 26 66 27 23 28 24 29 25 30 60 31 26 32 65 33 59 34 61 35
REMARK SMILES IDX 27 36 64 37 58 38 57 39 28 41 50 42 35 43 49 44 36 45 39 46
REMARK SMILES IDX 48 47 62 48 37 49 38 50 47 52 63 53 40 54 29 55 30 56 34 57
REMARK SMILES IDX 31 58 33 59 32 60 51 61 52 62 56 63 53 64 55 65 54 66 41 67
REMARK SMILES IDX 42 68 46 69 43 70 45 71 44 72
REMARK H PARENT 12 6 6 11 17 21 61 40 39 51
REMARK Flexibility Score: inf
ROOT
ATOM      1  C   UNL A   1      36.897  22.892  24.177  1.00  0.00     0.023 C 
ENDROOT
BRANCH   1   2
ATOM      2  C   UNL A   1      35.405  23.163  23.972  1.00  0.00     0.116 C 
BRANCH   2   3
ATOM      3  N   UNL A   1      35.038  24.445  24.511  1.00  0.00    -0.352 N 
ATOM      4  C   UNL A   1      34.143  24.848  25.461  1.00  0.00     0.254 C 
ATOM      5  O   UNL A   1      34.166  26.062  25.691  1.00  0.00    -0.269 OA
ATOM      6  H   UNL A   1      35.538  25.192  24.109  1.00  0.00     0.163 HD
BRANCH   4   7
ATOM      7  C   UNL A   1      33.231  23.988  26.219  1.00  0.00     0.080 A 
ATOM      8  C   UNL A   1      33.191  22.672  26.687  1.00  0.00     0.048 A 
ATOM      9  N   UNL A   1      31.956  22.521  27.274  1.00  0.00    -0.282 N 
ATOM     10  N   UNL A   1      31.190  23.609  27.248  1.00  0.00    -0.183 NA
ATOM     11  H   UNL A   1      31.661  21.674  27.680  1.00  0.00     0.190 HD
ATOM     12  C   UNL A   1      31.947  24.489  26.602  1.00  0.00     0.149 A 
BRANCH   8  13
ATOM     13  C   UNL A   1      34.062  21.463  26.639  1.00  0.00     0.056 C 
BRANCH  13  14
ATOM     14  C   UNL A   1      33.370  20.241  26.017  1.00  0.00     0.006 C 
BRANCH  14  15
ATOM     15  C   UNL A   1      33.587  20.068  24.509  1.00  0.00    -0.003 C 
ATOM     16  C   UNL A   1      32.463  20.651  23.666  1.00  0.00     0.004 C 
ENDBRANCH  14  15
ENDBRANCH  13  14
ENDBRANCH   8  13
ENDBRANCH   4   7
ENDBRANCH   2   3
ENDBRANCH   1   2
BRANCH   1  17
ATOM     17  C   UNL A   1      37.244  21.457  24.568  1.00  0.00     0.023 C 
BRANCH  17  18
ATOM     18  C   UNL A   1      38.295  21.335  25.665  1.00  0.00     0.116 C 
BRANCH  18  19
ATOM     19  N   UNL A   1      39.119  20.137  25.565  1.00  0.00    -0.352 N 
ATOM     20  C   UNL A   1      40.431  19.979  25.947  1.00  0.00     0.251 C 
ATOM     21  H   UNL A   1      38.683  19.343  25.179  1.00  0.00     0.163 HD
ATOM     22  O   UNL A   1      41.025  18.926  25.741  1.00  0.00    -0.269 OA
BRANCH  20  23
ATOM     23  C   UNL A   1      41.130  21.126  26.555  1.00  0.00     0.039 A 
ATOM     24  C   UNL A   1      41.740  22.063  25.719  1.00  0.00     0.014 A 
ATOM     25  C   UNL A   1      41.095  21.319  27.938  1.00  0.00     0.014 A 
ATOM     26  C   UNL A   1      42.241  23.244  26.266  1.00  0.00     0.010 A 
ATOM     27  C   UNL A   1      41.526  22.527  28.470  1.00  0.00     0.010 A 
ATOM     28  C   UNL A   1      42.093  23.505  27.638  1.00  0.00    -0.014 A 
BRANCH  28  29
ATOM     29  C   UNL A   1      42.511  24.799  28.226  1.00  0.00     0.031 A 
ATOM     30  C   UNL A   1      41.500  25.889  28.438  1.00  0.00     0.074 A 
ATOM     31  C   UNL A   1      43.813  25.021  28.495  1.00  0.00     0.049 A 
ATOM     32  N   UNL A   1      41.683  27.113  28.863  1.00  0.00    -0.248 NA
ATOM     33  C   UNL A   1      40.103  25.571  28.099  1.00  0.00     0.031 C 
ATOM     34  C   UNL A   1      44.900  24.059  28.291  1.00  0.00     0.029 A 
ATOM     35  N   UNL A   1      44.443  26.132  28.993  1.00  0.00    -0.354 N 
ATOM     36  C   UNL A   1      40.434  27.715  28.822  1.00  0.00     0.074 A 
ATOM     37  C   UNL A   1      39.509  26.740  28.286  1.00  0.00     0.031 C 
ATOM     38  C   UNL A   1      46.057  24.613  28.689  1.00  0.00     0.029 A 
ATOM     39  C   UNL A   1      45.800  25.977  29.139  1.00  0.00     0.049 A 
ATOM     40  H   UNL A   1      43.968  26.964  29.224  1.00  0.00     0.167 HD
ATOM     41  C   UNL A   1      40.080  28.961  29.215  1.00  0.00     0.031 A 
ATOM     42  C   UNL A   1      46.734  26.839  29.586  1.00  0.00     0.031 A 
ATOM     43  C   UNL A   1      40.993  29.925  29.767  1.00  0.00     0.049 A 
ATOM     44  C   UNL A   1      46.316  28.216  30.018  1.00  0.00     0.074 A 
ATOM     45  C   UNL A   1      40.721  31.193  30.248  1.00  0.00     0.029 A 
ATOM     46  N   UNL A   1      42.356  29.722  29.914  1.00  0.00    -0.354 N 
ATOM     47  N   UNL A   1      45.119  28.750  30.030  1.00  0.00    -0.248 NA
ATOM     48  C   UNL A   1      47.378  29.105  30.509  1.00  0.00     0.031 C 
ATOM     49  C   UNL A   1      41.928  31.773  30.652  1.00  0.00     0.029 A 
ATOM     50  C   UNL A   1      42.942  30.848  30.464  1.00  0.00     0.049 A 
ATOM     51  H   UNL A   1      42.835  28.899  29.663  1.00  0.00     0.167 HD
ATOM     52  C   UNL A   1      45.279  30.026  30.552  1.00  0.00     0.074 A 
ATOM     53  C   UNL A   1      46.687  30.181  30.855  1.00  0.00     0.031 C 
ATOM     54  C   UNL A   1      44.344  30.983  30.761  1.00  0.00     0.031 A 
BRANCH  41  55
ATOM     55  C   UNL A   1      38.636  29.346  29.059  1.00  0.00    -0.014 A 
ATOM     56  C   UNL A   1      38.143  29.822  27.833  1.00  0.00     0.009 A 
ATOM     57  C   UNL A   1      37.755  29.213  30.142  1.00  0.00     0.009 A 
ATOM     58  C   UNL A   1      36.803  30.195  27.708  1.00  0.00     0.001 A 
ATOM     59  C   UNL A   1      36.410  29.561  30.005  1.00  0.00     0.001 A 
ATOM     60  C   UNL A   1      35.938  30.061  28.792  1.00  0.00     0.000 A 
ENDBRANCH  41  55
BRANCH  42  61
ATOM     61  C   UNL A   1      48.155  26.417  29.673  1.00  0.00    -0.014 A 
ATOM     62  C   UNL A   1      48.641  25.808  30.841  1.00  0.00     0.009 A 
ATOM     63  C   UNL A   1      49.033  26.623  28.598  1.00  0.00     0.009 A 
ATOM     64  C   UNL A   1      49.983  25.437  30.939  1.00  0.00     0.001 A 
ATOM     65  C   UNL A   1      50.369  26.227  28.690  1.00  0.00     0.001 A 
ATOM     66  C   UNL A   1      50.845  25.643  29.863  1.00  0.00     0.000 A 
ENDBRANCH  42  61
BRANCH  54  67
ATOM     67  C   UNL A   1      44.808  32.271  31.379  1.00  0.00    -0.014 A 
ATOM     68  C   UNL A   1      45.230  33.347  30.583  1.00  0.00     0.009 A 
ATOM     69  C   UNL A   1      44.779  32.421  32.774  1.00  0.00     0.009 A 
ATOM     70  C   UNL A   1      45.641  34.542  31.177  1.00  0.00     0.001 A 
ATOM     71  C   UNL A   1      45.167  33.624  33.363  1.00  0.00     0.001 A 
ATOM     72  C   UNL A   1      45.604  34.681  32.564  1.00  0.00     0.000 A 
ENDBRANCH  54  67
ENDBRANCH  28  29
ENDBRANCH  20  23
ENDBRANCH  18  19
ENDBRANCH  17  18
ENDBRANCH   1  17
TORSDOF 14
ENDMDL
