MODEL 1
REMARK VINA RESULT:     -11.3      0.000      0.000
REMARK SMILES CC(C)N(c1cc2c(cc1Cl)C=C(C(=O)NCCCCNC(=O)c1ccc(-c3c4nc(c(-c5ccccc5)c5ccc([nH]5)c(-c5ccccc5)c5nc(c(-c6ccccc6)c6ccc3[nH]6)C=C5)C=C4)cc1)[C@@H](C(F)(F)F)O2)C(C)C
REMARK SMILES IDX 18 1 17 2 16 3 14 4 15 5 13 7 5 8 6 9 10 10 7 11 9 12 11 13
REMARK SMILES IDX 8 14 77 15 12 16 72 17 4 18 2 19 1 20 3 21 78 22 79 23 80 24
REMARK SMILES IDX 73 25 74 26 75 27 76 28 19 29 20 30 21 31 22 32 23 34 24 35
REMARK SMILES IDX 25 36 71 37 26 38 70 39 27 40 28 41 29 42 64 43 30 44 69 45
REMARK SMILES IDX 63 46 65 47 31 48 68 49 62 50 61 51 32 53 54 54 39 55 53 56
REMARK SMILES IDX 40 57 43 58 52 59 66 60 41 61 42 62 51 64 67 65 44 66 33 67
REMARK SMILES IDX 34 68 38 69 35 70 37 71 36 72 55 73 56 74 60 75 57 76 59 77
REMARK SMILES IDX 58 78 45 79 46 80 50 81 47 82 49 83 48 84
REMARK H PARENT 16 6 21 33 65 52 43 63
REMARK Flexibility Score: inf
ROOT
ATOM      1  C   UNL A   1      36.784  21.330  24.375  1.00  0.00     0.023 C 
ENDROOT
BRANCH   1   2
ATOM      2  C   UNL A   1      36.205  20.293  25.331  1.00  0.00     0.116 C 
BRANCH   2   3
ATOM      3  N   UNL A   1      34.979  19.709  24.818  1.00  0.00    -0.352 N 
ATOM      4  C   UNL A   1      33.713  20.126  24.578  1.00  0.00     0.251 C 
ATOM      5  O   UNL A   1      32.953  19.260  24.133  1.00  0.00    -0.270 OA
ATOM      6  H   UNL A   1      35.100  18.761  24.581  1.00  0.00     0.163 HD
BRANCH   4   7
ATOM      7  C   UNL A   1      33.202  21.510  24.807  1.00  0.00     0.067 C 
ATOM      8  C   UNL A   1      32.082  26.438  24.410  1.00  0.00     0.060 A 
ATOM      9  C   UNL A   1      31.643  25.373  25.219  1.00  0.00     0.074 A 
ATOM     10  C   UNL A   1      32.979  26.111  23.364  1.00  0.00     0.065 A 
ATOM     11  C   UNL A   1      32.104  24.072  25.029  1.00  0.00     0.130 A 
ATOM     12  C   UNL A   1      33.393  24.786  23.140  1.00  0.00     0.034 A 
ATOM     13  Cl  UNL A   1      33.713  27.307  22.347  1.00  0.00    -0.082 Cl
ATOM     14  C   UNL A   1      32.966  23.764  23.982  1.00  0.00     0.019 A 
ATOM     15  O   UNL A   1      31.660  23.121  25.908  1.00  0.00    -0.475 OA
ATOM     16  C   UNL A   1      33.395  22.381  23.798  1.00  0.00     0.025 C 
ATOM     17  C   UNL A   1      32.551  21.982  26.078  1.00  0.00     0.314 C 
BRANCH   8  18
ATOM     18  N   UNL A   1      31.639  27.744  24.703  1.00  0.00    -0.365 N 
BRANCH  18  19
ATOM     19  C   UNL A   1      32.278  28.433  25.845  1.00  0.00     0.076 C 
ATOM     20  C   UNL A   1      31.563  28.175  27.171  1.00  0.00     0.030 C 
ATOM     21  C   UNL A   1      33.770  28.139  25.969  1.00  0.00     0.030 C 
ENDBRANCH  18  19
BRANCH  18  22
ATOM     22  C   UNL A   1      30.682  28.341  23.742  1.00  0.00     0.076 C 
ATOM     23  C   UNL A   1      29.399  27.527  23.603  1.00  0.00     0.030 C 
ATOM     24  C   UNL A   1      30.382  29.812  24.011  1.00  0.00     0.030 C 
ENDBRANCH  18  22
ENDBRANCH   8  18
BRANCH  17  25
ATOM     25  C   UNL A   1      33.578  22.278  27.190  1.00  0.00     0.429 C 
ATOM     26  F   UNL A   1      34.060  21.120  27.709  1.00  0.00    -0.167 F 
ATOM     27  F   UNL A   1      34.651  22.967  26.734  1.00  0.00    -0.167 F 
ATOM     28  F   UNL A   1      33.058  22.994  28.211  1.00  0.00    -0.167 F 
ENDBRANCH  17  25
ENDBRANCH   4   7
ENDBRANCH   2   3
ENDBRANCH   1   2
BRANCH   1  29
ATOM     29  C   UNL A   1      38.076  21.983  24.869  1.00  0.00     0.023 C 
BRANCH  29  30
ATOM     30  C   UNL A   1      38.709  21.335  26.098  1.00  0.00     0.116 C 
BRANCH  30  31
ATOM     31  N   UNL A   1      39.547  20.181  25.801  1.00  0.00    -0.352 N 
ATOM     32  C   UNL A   1      40.904  20.058  25.998  1.00  0.00     0.251 C 
ATOM     33  H   UNL A   1      39.091  19.398  25.415  1.00  0.00     0.163 HD
ATOM     34  O   UNL A   1      41.510  19.049  25.659  1.00  0.00    -0.269 OA
BRANCH  32  35
ATOM     35  C   UNL A   1      41.621  21.208  26.577  1.00  0.00     0.039 A 
ATOM     36  C   UNL A   1      41.620  21.401  27.960  1.00  0.00     0.014 A 
ATOM     37  C   UNL A   1      42.164  22.163  25.716  1.00  0.00     0.014 A 
ATOM     38  C   UNL A   1      42.013  22.630  28.472  1.00  0.00     0.010 A 
ATOM     39  C   UNL A   1      42.620  23.372  26.241  1.00  0.00     0.010 A 
ATOM     40  C   UNL A   1      42.494  23.633  27.614  1.00  0.00    -0.014 A 
BRANCH  40  41
ATOM     41  C   UNL A   1      42.830  24.968  28.163  1.00  0.00     0.031 A 
ATOM     42  C   UNL A   1      41.755  26.001  28.368  1.00  0.00     0.074 A 
ATOM     43  C   UNL A   1      44.099  25.231  28.525  1.00  0.00     0.049 A 
ATOM     44  N   UNL A   1      41.869  27.230  28.804  1.00  0.00    -0.248 NA
ATOM     45  C   UNL A   1      40.373  25.605  28.048  1.00  0.00     0.031 C 
ATOM     46  C   UNL A   1      45.215  24.290  28.419  1.00  0.00     0.029 A 
ATOM     47  N   UNL A   1      44.657  26.356  29.074  1.00  0.00    -0.354 N 
ATOM     48  C   UNL A   1      40.585  27.760  28.788  1.00  0.00     0.074 A 
ATOM     49  C   UNL A   1      39.705  26.726  28.289  1.00  0.00     0.031 C 
ATOM     50  C   UNL A   1      46.315  24.861  28.932  1.00  0.00     0.029 A 
ATOM     51  C   UNL A   1      45.997  26.226  29.336  1.00  0.00     0.049 A 
ATOM     52  H   UNL A   1      44.145  27.175  29.262  1.00  0.00     0.167 HD
ATOM     53  C   UNL A   1      40.179  28.995  29.163  1.00  0.00     0.031 A 
ATOM     54  C   UNL A   1      46.882  27.114  29.825  1.00  0.00     0.031 A 
ATOM     55  C   UNL A   1      41.054  30.014  29.677  1.00  0.00     0.049 A 
ATOM     56  C   UNL A   1      46.422  28.503  30.153  1.00  0.00     0.074 A 
ATOM     57  C   UNL A   1      40.728  31.290  30.105  1.00  0.00     0.029 A 
ATOM     58  N   UNL A   1      42.422  29.872  29.836  1.00  0.00    -0.354 N 
ATOM     59  N   UNL A   1      45.208  28.996  30.109  1.00  0.00    -0.248 NA
ATOM     60  C   UNL A   1      47.450  29.461  30.577  1.00  0.00     0.031 C 
ATOM     61  C   UNL A   1      41.909  31.937  30.479  1.00  0.00     0.029 A 
ATOM     62  C   UNL A   1      42.962  31.048  30.326  1.00  0.00     0.049 A 
ATOM     63  H   UNL A   1      42.936  29.058  29.630  1.00  0.00     0.167 HD
ATOM     64  C   UNL A   1      45.327  30.323  30.497  1.00  0.00     0.074 A 
ATOM     65  C   UNL A   1      46.727  30.553  30.790  1.00  0.00     0.031 C 
ATOM     66  C   UNL A   1      44.358  31.264  30.596  1.00  0.00     0.031 A 
BRANCH  53  67
ATOM     67  C   UNL A   1      38.723  29.335  29.015  1.00  0.00    -0.014 A 
ATOM     68  C   UNL A   1      37.856  29.158  30.106  1.00  0.00     0.009 A 
ATOM     69  C   UNL A   1      38.193  29.739  27.781  1.00  0.00     0.009 A 
ATOM     70  C   UNL A   1      36.484  29.373  29.961  1.00  0.00     0.001 A 
ATOM     71  C   UNL A   1      36.823  29.972  27.646  1.00  0.00     0.001 A 
ATOM     72  C   UNL A   1      35.969  29.782  28.732  1.00  0.00     0.000 A 
ENDBRANCH  53  67
BRANCH  54  73
ATOM     73  C   UNL A   1      48.297  26.704  29.998  1.00  0.00    -0.014 A 
ATOM     74  C   UNL A   1      49.232  26.927  28.975  1.00  0.00     0.009 A 
ATOM     75  C   UNL A   1      48.703  26.026  31.155  1.00  0.00     0.009 A 
ATOM     76  C   UNL A   1      50.539  26.452  29.094  1.00  0.00     0.001 A 
ATOM     77  C   UNL A   1      50.018  25.573  31.282  1.00  0.00     0.001 A 
ATOM     78  C   UNL A   1      50.931  25.778  30.248  1.00  0.00     0.000 A 
ENDBRANCH  54  73
BRANCH  66  79
ATOM     79  C   UNL A   1      44.770  32.639  31.032  1.00  0.00    -0.014 A 
ATOM     80  C   UNL A   1      45.170  33.586  30.077  1.00  0.00     0.009 A 
ATOM     81  C   UNL A   1      44.858  32.959  32.394  1.00  0.00     0.009 A 
ATOM     82  C   UNL A   1      45.663  34.828  30.480  1.00  0.00     0.001 A 
ATOM     83  C   UNL A   1      45.333  34.210  32.793  1.00  0.00     0.001 A 
ATOM     84  C   UNL A   1      45.743  35.139  31.836  1.00  0.00     0.000 A 
ENDBRANCH  66  79
ENDBRANCH  40  41
ENDBRANCH  32  35
ENDBRANCH  30  31
ENDBRANCH  29  30
ENDBRANCH   1  29
TORSDOF 15
ENDMDL
MODEL 2
REMARK VINA RESULT:     -11.2      2.505      6.749
REMARK SMILES CC(C)N(c1cc2c(cc1Cl)C=C(C(=O)NCCCCNC(=O)c1ccc(-c3c4nc(c(-c5ccccc5)c5ccc([nH]5)c(-c5ccccc5)c5nc(c(-c6ccccc6)c6ccc3[nH]6)C=C5)C=C4)cc1)[C@@H](C(F)(F)F)O2)C(C)C
REMARK SMILES IDX 18 1 17 2 16 3 14 4 15 5 13 7 5 8 6 9 10 10 7 11 9 12 11 13
REMARK SMILES IDX 8 14 77 15 12 16 72 17 4 18 2 19 1 20 3 21 78 22 79 23 80 24
REMARK SMILES IDX 73 25 74 26 75 27 76 28 19 29 20 30 21 31 22 32 23 34 24 35
REMARK SMILES IDX 25 36 71 37 26 38 70 39 27 40 28 41 29 42 64 43 30 44 69 45
REMARK SMILES IDX 63 46 65 47 31 48 68 49 62 50 61 51 32 53 54 54 39 55 53 56
REMARK SMILES IDX 40 57 43 58 52 59 66 60 41 61 42 62 51 64 67 65 44 66 33 67
REMARK SMILES IDX 34 68 38 69 35 70 37 71 36 72 55 73 56 74 60 75 57 76 59 77
REMARK SMILES IDX 58 78 45 79 46 80 50 81 47 82 49 83 48 84
REMARK H PARENT 16 6 21 33 65 52 43 63
REMARK Flexibility Score: inf
ROOT
ATOM      1  C   UNL A   1      36.948  21.338  24.297  1.00  0.00     0.023 C 
ENDROOT
BRANCH   1   2
ATOM      2  C   UNL A   1      36.310  20.467  25.376  1.00  0.00     0.116 C 
BRANCH   2   3
ATOM      3  N   UNL A   1      35.138  19.768  24.884  1.00  0.00    -0.352 N 
ATOM      4  C   UNL A   1      33.842  20.071  24.633  1.00  0.00     0.251 C 
ATOM      5  O   UNL A   1      33.156  19.131  24.217  1.00  0.00    -0.270 OA
ATOM      6  H   UNL A   1      35.337  18.826  24.677  1.00  0.00     0.163 HD
BRANCH   4   7
ATOM      7  C   UNL A   1      33.218  21.414  24.820  1.00  0.00     0.067 C 
ATOM      8  C   UNL A   1      31.753  26.240  24.310  1.00  0.00     0.060 A 
ATOM      9  C   UNL A   1      31.354  25.152  25.107  1.00  0.00     0.074 A 
ATOM     10  C   UNL A   1      32.725  25.974  23.314  1.00  0.00     0.065 A 
ATOM     11  C   UNL A   1      31.921  23.887  24.957  1.00  0.00     0.130 A 
ATOM     12  C   UNL A   1      33.248  24.682  23.127  1.00  0.00     0.034 A 
ATOM     13  Cl  UNL A   1      33.419  27.214  22.321  1.00  0.00    -0.082 Cl
ATOM     14  C   UNL A   1      32.855  23.637  23.958  1.00  0.00     0.019 A 
ATOM     15  O   UNL A   1      31.505  22.913  25.822  1.00  0.00    -0.475 OA
ATOM     16  C   UNL A   1      33.396  22.290  23.812  1.00  0.00     0.025 C 
ATOM     17  C   UNL A   1      32.469  21.846  26.051  1.00  0.00     0.314 C 
BRANCH   8  18
ATOM     18  N   UNL A   1      31.199  27.511  24.564  1.00  0.00    -0.365 N 
BRANCH  18  19
ATOM     19  C   UNL A   1      29.935  27.847  23.872  1.00  0.00     0.076 C 
ATOM     20  C   UNL A   1      30.155  28.369  22.453  1.00  0.00     0.030 C 
ATOM     21  C   UNL A   1      28.923  26.704  23.878  1.00  0.00     0.030 C 
ENDBRANCH  18  19
BRANCH  18  22
ATOM     22  C   UNL A   1      31.867  28.320  25.610  1.00  0.00     0.076 C 
ATOM     23  C   UNL A   1      31.786  29.819  25.340  1.00  0.00     0.030 C 
ATOM     24  C   UNL A   1      31.412  27.984  27.027  1.00  0.00     0.030 C 
ENDBRANCH  18  22
ENDBRANCH   8  18
BRANCH  17  25
ATOM     25  C   UNL A   1      33.412  22.227  27.210  1.00  0.00     0.429 C 
ATOM     26  F   UNL A   1      34.033  21.123  27.698  1.00  0.00    -0.167 F 
ATOM     27  F   UNL A   1      34.393  23.076  26.821  1.00  0.00    -0.167 F 
ATOM     28  F   UNL A   1      32.769  22.818  28.241  1.00  0.00    -0.167 F 
ENDBRANCH  17  25
ENDBRANCH   4   7
ENDBRANCH   2   3
ENDBRANCH   1   2
BRANCH   1  29
ATOM     29  C   UNL A   1      36.748  22.840  24.506  1.00  0.00     0.023 C 
BRANCH  29  30
ATOM     30  C   UNL A   1      37.639  23.476  25.570  1.00  0.00     0.116 C 
BRANCH  30  31
ATOM     31  N   UNL A   1      38.923  22.811  25.752  1.00  0.00    -0.352 N 
ATOM     32  C   UNL A   1      40.014  23.274  26.450  1.00  0.00     0.251 C 
ATOM     33  H   UNL A   1      39.021  21.929  25.325  1.00  0.00     0.163 HD
ATOM     34  O   UNL A   1      41.063  22.642  26.489  1.00  0.00    -0.269 OA
BRANCH  32  35
ATOM     35  C   UNL A   1      39.904  24.590  27.105  1.00  0.00     0.039 A 
ATOM     36  C   UNL A   1      40.549  25.697  26.550  1.00  0.00     0.014 A 
ATOM     37  C   UNL A   1      39.277  24.670  28.349  1.00  0.00     0.014 A 
ATOM     38  C   UNL A   1      40.711  26.842  27.318  1.00  0.00     0.010 A 
ATOM     39  C   UNL A   1      39.384  25.846  29.091  1.00  0.00     0.010 A 
ATOM     40  C   UNL A   1      40.150  26.917  28.603  1.00  0.00    -0.014 A 
BRANCH  40  41
ATOM     41  C   UNL A   1      40.402  28.111  29.445  1.00  0.00     0.031 A 
ATOM     42  C   UNL A   1      41.695  28.252  30.200  1.00  0.00     0.074 A 
ATOM     43  C   UNL A   1      39.483  29.092  29.486  1.00  0.00     0.049 A 
ATOM     44  N   UNL A   1      42.073  29.209  31.010  1.00  0.00    -0.248 NA
ATOM     45  C   UNL A   1      42.697  27.187  30.023  1.00  0.00     0.031 C 
ATOM     46  C   UNL A   1      38.214  29.088  28.755  1.00  0.00     0.029 A 
ATOM     47  N   UNL A   1      39.485  30.291  30.151  1.00  0.00    -0.354 N 
ATOM     48  C   UNL A   1      43.339  28.852  31.456  1.00  0.00     0.074 A 
ATOM     49  C   UNL A   1      43.665  27.585  30.839  1.00  0.00     0.031 C 
ATOM     50  C   UNL A   1      37.581  30.250  28.975  1.00  0.00     0.029 A 
ATOM     51  C   UNL A   1      38.365  31.047  29.913  1.00  0.00     0.049 A 
ATOM     52  H   UNL A   1      40.218  30.580  30.740  1.00  0.00     0.167 HD
ATOM     53  C   UNL A   1      44.156  29.525  32.299  1.00  0.00     0.031 A 
ATOM     54  C   UNL A   1      37.994  32.240  30.413  1.00  0.00     0.031 A 
ATOM     55  C   UNL A   1      43.837  30.793  32.896  1.00  0.00     0.049 A 
ATOM     56  C   UNL A   1      38.879  32.925  31.410  1.00  0.00     0.074 A 
ATOM     57  C   UNL A   1      44.613  31.563  33.745  1.00  0.00     0.029 A 
ATOM     58  N   UNL A   1      42.649  31.479  32.703  1.00  0.00    -0.354 N 
ATOM     59  N   UNL A   1      40.063  32.562  31.841  1.00  0.00    -0.248 NA
ATOM     60  C   UNL A   1      38.374  34.169  32.005  1.00  0.00     0.031 C 
ATOM     61  C   UNL A   1      43.874  32.693  34.104  1.00  0.00     0.029 A 
ATOM     62  C   UNL A   1      42.657  32.648  33.443  1.00  0.00     0.049 A 
ATOM     63  H   UNL A   1      41.908  31.180  32.127  1.00  0.00     0.167 HD
ATOM     64  C   UNL A   1      40.443  33.530  32.759  1.00  0.00     0.074 A 
ATOM     65  C   UNL A   1      39.373  34.506  32.809  1.00  0.00     0.031 C 
ATOM     66  C   UNL A   1      41.578  33.598  33.495  1.00  0.00     0.031 A 
BRANCH  53  67
ATOM     67  C   UNL A   1      45.476  28.900  32.652  1.00  0.00    -0.014 A 
ATOM     68  C   UNL A   1      45.572  28.077  33.786  1.00  0.00     0.009 A 
ATOM     69  C   UNL A   1      46.637  29.195  31.923  1.00  0.00     0.009 A 
ATOM     70  C   UNL A   1      46.809  27.568  34.188  1.00  0.00     0.001 A 
ATOM     71  C   UNL A   1      47.868  28.668  32.317  1.00  0.00     0.001 A 
ATOM     72  C   UNL A   1      47.955  27.861  33.452  1.00  0.00     0.000 A 
ENDBRANCH  53  67
BRANCH  54  73
ATOM     73  C   UNL A   1      36.702  32.833  29.986  1.00  0.00    -0.014 A 
ATOM     74  C   UNL A   1      36.595  33.486  28.748  1.00  0.00     0.009 A 
ATOM     75  C   UNL A   1      35.593  32.809  30.842  1.00  0.00     0.009 A 
ATOM     76  C   UNL A   1      35.412  34.132  28.388  1.00  0.00     0.001 A 
ATOM     77  C   UNL A   1      34.402  33.435  30.469  1.00  0.00     0.001 A 
ATOM     78  C   UNL A   1      34.316  34.104  29.248  1.00  0.00     0.000 A 
ENDBRANCH  54  73
BRANCH  66  79
ATOM     79  C   UNL A   1      41.728  34.761  34.430  1.00  0.00    -0.014 A 
ATOM     80  C   UNL A   1      42.364  35.933  33.993  1.00  0.00     0.009 A 
ATOM     81  C   UNL A   1      41.330  34.654  35.770  1.00  0.00     0.009 A 
ATOM     82  C   UNL A   1      42.611  36.976  34.888  1.00  0.00     0.001 A 
ATOM     83  C   UNL A   1      41.561  35.707  36.658  1.00  0.00     0.001 A 
ATOM     84  C   UNL A   1      42.208  36.862  36.218  1.00  0.00     0.000 A 
ENDBRANCH  66  79
ENDBRANCH  40  41
ENDBRANCH  32  35
ENDBRANCH  30  31
ENDBRANCH  29  30
ENDBRANCH   1  29
TORSDOF 15
ENDMDL
MODEL 3
REMARK VINA RESULT:     -11.2      0.762      5.767
REMARK SMILES CC(C)N(c1cc2c(cc1Cl)C=C(C(=O)NCCCCNC(=O)c1ccc(-c3c4nc(c(-c5ccccc5)c5ccc([nH]5)c(-c5ccccc5)c5nc(c(-c6ccccc6)c6ccc3[nH]6)C=C5)C=C4)cc1)[C@@H](C(F)(F)F)O2)C(C)C
REMARK SMILES IDX 18 1 17 2 16 3 14 4 15 5 13 7 5 8 6 9 10 10 7 11 9 12 11 13
REMARK SMILES IDX 8 14 77 15 12 16 72 17 4 18 2 19 1 20 3 21 78 22 79 23 80 24
REMARK SMILES IDX 73 25 74 26 75 27 76 28 19 29 20 30 21 31 22 32 23 34 24 35
REMARK SMILES IDX 25 36 71 37 26 38 70 39 27 40 28 41 29 42 64 43 30 44 69 45
REMARK SMILES IDX 63 46 65 47 31 48 68 49 62 50 61 51 32 53 54 54 39 55 53 56
REMARK SMILES IDX 40 57 43 58 52 59 66 60 41 61 42 62 51 64 67 65 44 66 33 67
REMARK SMILES IDX 34 68 38 69 35 70 37 71 36 72 55 73 56 74 60 75 57 76 59 77
REMARK SMILES IDX 58 78 45 79 46 80 50 81 47 82 49 83 48 84
REMARK H PARENT 16 6 21 33 65 52 43 63
REMARK Flexibility Score: inf
ROOT
ATOM      1  C   UNL A   1      36.352  21.912  24.984  1.00  0.00     0.023 C 
ENDROOT
BRANCH   1   2
ATOM      2  C   UNL A   1      35.385  20.972  25.696  1.00  0.00     0.116 C 
BRANCH   2   3
ATOM      3  N   UNL A   1      34.351  20.481  24.804  1.00  0.00    -0.352 N 
ATOM      4  C   UNL A   1      33.231  20.975  24.226  1.00  0.00     0.251 C 
ATOM      5  O   UNL A   1      32.610  20.175  23.518  1.00  0.00    -0.270 OA
ATOM      6  H   UNL A   1      34.506  19.542  24.551  1.00  0.00     0.163 HD
BRANCH   4   7
ATOM      7  C   UNL A   1      32.721  22.369  24.384  1.00  0.00     0.067 C 
ATOM      8  C   UNL A   1      31.860  27.344  23.924  1.00  0.00     0.060 A 
ATOM      9  C   UNL A   1      31.219  26.273  24.574  1.00  0.00     0.074 A 
ATOM     10  C   UNL A   1      32.960  27.015  23.095  1.00  0.00     0.065 A 
ATOM     11  C   UNL A   1      31.675  24.961  24.446  1.00  0.00     0.130 A 
ATOM     12  C   UNL A   1      33.377  25.683  22.922  1.00  0.00     0.034 A 
ATOM     13  Cl  UNL A   1      33.939  28.213  22.312  1.00  0.00    -0.082 Cl
ATOM     14  C   UNL A   1      32.741  24.653  23.609  1.00  0.00     0.019 A 
ATOM     15  O   UNL A   1      31.017  24.003  25.167  1.00  0.00    -0.475 OA
ATOM     16  C   UNL A   1      33.162  23.262  23.477  1.00  0.00     0.025 C 
ATOM     17  C   UNL A   1      31.814  22.828  25.492  1.00  0.00     0.314 C 
BRANCH   8  18
ATOM     18  N   UNL A   1      31.400  28.656  24.156  1.00  0.00    -0.365 N 
BRANCH  18  19
ATOM     19  C   UNL A   1      32.223  29.514  25.036  1.00  0.00     0.076 C 
ATOM     20  C   UNL A   1      31.404  30.577  25.766  1.00  0.00     0.030 C 
ATOM     21  C   UNL A   1      33.082  28.722  26.019  1.00  0.00     0.030 C 
ENDBRANCH  18  19
BRANCH  18  22
ATOM     22  C   UNL A   1      30.215  29.082  23.376  1.00  0.00     0.076 C 
ATOM     23  C   UNL A   1      30.584  29.696  22.029  1.00  0.00     0.030 C 
ATOM     24  C   UNL A   1      29.159  27.992  23.221  1.00  0.00     0.030 C 
ENDBRANCH  18  22
ENDBRANCH   8  18
BRANCH  17  25
ATOM     25  C   UNL A   1      32.571  23.054  26.817  1.00  0.00     0.429 C 
ATOM     26  F   UNL A   1      33.783  23.615  26.580  1.00  0.00    -0.167 F 
ATOM     27  F   UNL A   1      31.915  23.899  27.649  1.00  0.00    -0.167 F 
ATOM     28  F   UNL A   1      32.780  21.911  27.507  1.00  0.00    -0.167 F 
ENDBRANCH  17  25
ENDBRANCH   4   7
ENDBRANCH   2   3
ENDBRANCH   1   2
BRANCH   1  29
ATOM     29  C   UNL A   1      37.675  21.258  24.579  1.00  0.00     0.023 C 
BRANCH  29  30
ATOM     30  C   UNL A   1      38.698  21.104  25.701  1.00  0.00     0.116 C 
BRANCH  30  31
ATOM     31  N   UNL A   1      39.517  19.902  25.603  1.00  0.00    -0.352 N 
ATOM     32  C   UNL A   1      40.832  19.752  25.980  1.00  0.00     0.251 C 
ATOM     33  H   UNL A   1      39.079  19.106  25.223  1.00  0.00     0.163 HD
ATOM     34  O   UNL A   1      41.432  18.699  25.800  1.00  0.00    -0.269 OA
BRANCH  32  35
ATOM     35  C   UNL A   1      41.520  20.921  26.556  1.00  0.00     0.039 A 
ATOM     36  C   UNL A   1      41.488  21.136  27.935  1.00  0.00     0.014 A 
ATOM     37  C   UNL A   1      42.066  21.871  25.691  1.00  0.00     0.014 A 
ATOM     38  C   UNL A   1      41.852  22.378  28.436  1.00  0.00     0.010 A 
ATOM     39  C   UNL A   1      42.494  23.095  26.206  1.00  0.00     0.010 A 
ATOM     40  C   UNL A   1      42.335  23.375  27.573  1.00  0.00    -0.014 A 
BRANCH  40  41
ATOM     41  C   UNL A   1      42.640  24.723  28.108  1.00  0.00     0.031 A 
ATOM     42  C   UNL A   1      44.056  25.109  28.441  1.00  0.00     0.074 A 
ATOM     43  C   UNL A   1      41.645  25.617  28.245  1.00  0.00     0.049 A 
ATOM     44  N   UNL A   1      44.505  26.229  28.949  1.00  0.00    -0.248 NA
ATOM     45  C   UNL A   1      45.106  24.114  28.165  1.00  0.00     0.031 C 
ATOM     46  C   UNL A   1      40.242  25.372  27.908  1.00  0.00     0.029 A 
ATOM     47  N   UNL A   1      41.665  26.916  28.683  1.00  0.00    -0.354 N 
ATOM     48  C   UNL A   1      45.878  26.066  29.076  1.00  0.00     0.074 A 
ATOM     49  C   UNL A   1      46.194  24.736  28.604  1.00  0.00     0.031 C 
ATOM     50  C   UNL A   1      39.543  26.500  28.106  1.00  0.00     0.029 A 
ATOM     51  C   UNL A   1      40.433  27.521  28.648  1.00  0.00     0.049 A 
ATOM     52  H   UNL A   1      42.482  27.370  28.989  1.00  0.00     0.167 HD
ATOM     53  C   UNL A   1      46.792  26.950  29.538  1.00  0.00     0.031 A 
ATOM     54  C   UNL A   1      40.054  28.753  29.034  1.00  0.00     0.031 A 
ATOM     55  C   UNL A   1      46.478  28.279  29.989  1.00  0.00     0.049 A 
ATOM     56  C   UNL A   1      41.072  29.683  29.621  1.00  0.00     0.074 A 
ATOM     57  C   UNL A   1      47.342  29.256  30.453  1.00  0.00     0.029 A 
ATOM     58  N   UNL A   1      45.202  28.817  30.027  1.00  0.00    -0.354 N 
ATOM     59  N   UNL A   1      42.364  29.505  29.757  1.00  0.00    -0.248 NA
ATOM     60  C   UNL A   1      40.582  30.973  30.126  1.00  0.00     0.031 C 
ATOM     61  C   UNL A   1      46.582  30.370  30.818  1.00  0.00     0.029 A 
ATOM     62  C   UNL A   1      45.251  30.103  30.538  1.00  0.00     0.049 A 
ATOM     63  H   UNL A   1      44.383  28.356  29.736  1.00  0.00     0.167 HD
ATOM     64  C   UNL A   1      42.841  30.658  30.365  1.00  0.00     0.074 A 
ATOM     65  C   UNL A   1      41.704  31.536  30.555  1.00  0.00     0.031 C 
ATOM     66  C   UNL A   1      44.109  30.955  30.735  1.00  0.00     0.031 A 
BRANCH  53  67
ATOM     67  C   UNL A   1      48.227  26.512  29.605  1.00  0.00    -0.014 A 
ATOM     68  C   UNL A   1      48.705  25.876  30.763  1.00  0.00     0.009 A 
ATOM     69  C   UNL A   1      49.126  26.807  28.569  1.00  0.00     0.009 A 
ATOM     70  C   UNL A   1      50.058  25.552  30.885  1.00  0.00     0.001 A 
ATOM     71  C   UNL A   1      50.474  26.463  28.687  1.00  0.00     0.001 A 
ATOM     72  C   UNL A   1      50.940  25.842  29.846  1.00  0.00     0.000 A 
ENDBRANCH  53  67
BRANCH  54  73
ATOM     73  C   UNL A   1      38.631  29.148  28.894  1.00  0.00    -0.014 A 
ATOM     74  C   UNL A   1      38.158  29.684  27.686  1.00  0.00     0.009 A 
ATOM     75  C   UNL A   1      37.758  29.057  29.987  1.00  0.00     0.009 A 
ATOM     76  C   UNL A   1      36.846  30.150  27.583  1.00  0.00     0.001 A 
ATOM     77  C   UNL A   1      36.439  29.501  29.874  1.00  0.00     0.001 A 
ATOM     78  C   UNL A   1      35.988  30.056  28.676  1.00  0.00     0.000 A 
ENDBRANCH  54  73
BRANCH  66  79
ATOM     79  C   UNL A   1      44.346  32.282  31.392  1.00  0.00    -0.014 A 
ATOM     80  C   UNL A   1      44.682  33.400  30.613  1.00  0.00     0.009 A 
ATOM     81  C   UNL A   1      44.334  32.398  32.790  1.00  0.00     0.009 A 
ATOM     82  C   UNL A   1      45.015  34.610  31.223  1.00  0.00     0.001 A 
ATOM     83  C   UNL A   1      44.650  33.616  33.396  1.00  0.00     0.001 A 
ATOM     84  C   UNL A   1      44.998  34.716  32.613  1.00  0.00     0.000 A 
ENDBRANCH  66  79
ENDBRANCH  40  41
ENDBRANCH  32  35
ENDBRANCH  30  31
ENDBRANCH  29  30
ENDBRANCH   1  29
TORSDOF 15
ENDMDL
