MODEL 1
REMARK VINA RESULT:     -10.4      0.000      0.000
REMARK SMILES CN(c1ccc(C(=O)NCCCCNC(=O)c2ccc(-c3c4nc(c(-c5ccccc5)c5ccc([nH]5)c(-c5ccccc5)c5nc(c(-c6ccccc6)c6ccc3[nH]6)C=C5)C=C4)cc2)cc1[N+](=O)[O-])C1CC1
REMARK SMILES IDX 11 1 10 2 9 3 7 4 8 5 6 7 3 8 4 9 66 10 5 11 65 12 2 13 1 14
REMARK SMILES IDX 70 15 71 16 72 17 67 18 68 19 69 20 12 21 13 22 14 23 15 24
REMARK SMILES IDX 16 26 17 27 18 28 64 29 19 30 63 31 20 32 21 33 22 34 57 35
REMARK SMILES IDX 23 36 62 37 56 38 58 39 24 40 61 41 55 42 54 43 25 45 47 46
REMARK SMILES IDX 32 47 46 48 33 49 36 50 45 51 59 52 34 53 35 54 44 56 60 57
REMARK SMILES IDX 37 58 26 59 27 60 31 61 28 62 30 63 29 64 48 65 49 66 53 67
REMARK SMILES IDX 50 68 52 69 51 70 38 71 39 72 43 73 40 74 42 75 41 76
REMARK H PARENT 9 6 14 25 58 44 36 55
REMARK Flexibility Score: inf
ROOT
ATOM      1  C   UNL A   1      32.423  28.666  27.570  1.00  0.00     0.023 C 
ENDROOT
BRANCH   1   2
ATOM      2  C   UNL A   1      32.340  27.588  26.488  1.00  0.00     0.116 C 
BRANCH   2   3
ATOM      3  N   UNL A   1      31.084  26.868  26.584  1.00  0.00    -0.352 N 
ATOM      4  C   UNL A   1      30.759  25.563  26.321  1.00  0.00     0.251 C 
ATOM      5  O   UNL A   1      29.604  25.198  26.531  1.00  0.00    -0.269 OA
ATOM      6  H   UNL A   1      30.328  27.416  26.894  1.00  0.00     0.163 HD
BRANCH   4   7
ATOM      7  C   UNL A   1      31.756  24.564  25.851  1.00  0.00     0.046 A 
ATOM      8  C   UNL A   1      33.710  22.608  25.139  1.00  0.00     0.116 A 
ATOM      9  C   UNL A   1      33.289  22.780  26.467  1.00  0.00     0.034 A 
ATOM     10  C   UNL A   1      33.103  23.431  24.182  1.00  0.00     0.293 A 
ATOM     11  C   UNL A   1      32.332  23.737  26.822  1.00  0.00     0.016 A 
ATOM     12  C   UNL A   1      32.116  24.378  24.519  1.00  0.00     0.101 A 
BRANCH   8  13
ATOM     13  N   UNL A   1      34.697  21.648  24.896  1.00  0.00    -0.366 N 
ATOM     14  C   UNL A   1      34.322  20.239  24.870  1.00  0.00     0.144 C 
BRANCH  13  15
ATOM     15  C   UNL A   1      36.117  21.960  25.123  1.00  0.00     0.082 C 
ATOM     16  C   UNL A   1      36.968  22.400  23.962  1.00  0.00     0.027 C 
ATOM     17  C   UNL A   1      36.713  23.341  25.100  1.00  0.00     0.027 C 
ENDBRANCH  13  15
ENDBRANCH   8  13
BRANCH  10  18
ATOM     18  N   UNL A   1      33.484  23.370  22.784  1.00  0.00     0.065 N 
ATOM     19  O   UNL A   1      34.375  24.153  22.422  1.00  0.00    -0.258 OA
ATOM     20  O   UNL A   1      32.877  22.585  22.044  1.00  0.00    -0.258 OA
ENDBRANCH  10  18
ENDBRANCH   4   7
ENDBRANCH   2   3
ENDBRANCH   1   2
BRANCH   1  21
ATOM     21  C   UNL A   1      31.886  30.032  27.135  1.00  0.00     0.023 C 
BRANCH  21  22
ATOM     22  C   UNL A   1      32.942  31.123  26.997  1.00  0.00     0.116 C 
BRANCH  22  23
ATOM     23  N   UNL A   1      32.427  32.458  27.254  1.00  0.00    -0.352 N 
ATOM     24  C   UNL A   1      33.003  33.466  27.992  1.00  0.00     0.251 C 
ATOM     25  H   UNL A   1      31.554  32.667  26.849  1.00  0.00     0.163 HD
ATOM     26  O   UNL A   1      32.406  34.512  28.202  1.00  0.00    -0.269 OA
BRANCH  24  27
ATOM     27  C   UNL A   1      34.342  33.243  28.571  1.00  0.00     0.039 A 
ATOM     28  C   UNL A   1      34.441  32.597  29.804  1.00  0.00     0.014 A 
ATOM     29  C   UNL A   1      35.490  33.610  27.863  1.00  0.00     0.014 A 
ATOM     30  C   UNL A   1      35.697  32.238  30.291  1.00  0.00     0.010 A 
ATOM     31  C   UNL A   1      36.737  33.202  28.322  1.00  0.00     0.010 A 
ATOM     32  C   UNL A   1      36.849  32.494  29.530  1.00  0.00    -0.014 A 
BRANCH  32  33
ATOM     33  C   UNL A   1      38.178  31.993  29.954  1.00  0.00     0.031 A 
ATOM     34  C   UNL A   1      38.681  30.669  29.457  1.00  0.00     0.074 A 
ATOM     35  C   UNL A   1      38.894  32.699  30.851  1.00  0.00     0.049 A 
ATOM     36  N   UNL A   1      39.767  30.022  29.795  1.00  0.00    -0.248 NA
ATOM     37  C   UNL A   1      37.847  29.973  28.464  1.00  0.00     0.031 C 
ATOM     38  C   UNL A   1      38.500  33.986  31.431  1.00  0.00     0.029 A 
ATOM     39  N   UNL A   1      40.101  32.425  31.443  1.00  0.00    -0.354 N 
ATOM     40  C   UNL A   1      39.744  28.842  29.065  1.00  0.00     0.074 A 
ATOM     41  C   UNL A   1      38.517  28.842  28.296  1.00  0.00     0.031 C 
ATOM     42  C   UNL A   1      39.454  34.395  32.282  1.00  0.00     0.029 A 
ATOM     43  C   UNL A   1      40.505  33.384  32.340  1.00  0.00     0.049 A 
ATOM     44  H   UNL A   1      40.628  31.618  31.244  1.00  0.00     0.167 HD
ATOM     45  C   UNL A   1      40.670  27.856  29.023  1.00  0.00     0.031 A 
ATOM     46  C   UNL A   1      41.590  33.435  33.134  1.00  0.00     0.031 A 
ATOM     47  C   UNL A   1      41.892  27.857  29.780  1.00  0.00     0.049 A 
ATOM     48  C   UNL A   1      42.578  32.303  33.102  1.00  0.00     0.074 A 
ATOM     49  C   UNL A   1      42.912  26.921  29.773  1.00  0.00     0.029 A 
ATOM     50  N   UNL A   1      42.259  28.842  30.683  1.00  0.00    -0.354 N 
ATOM     51  N   UNL A   1      42.566  31.218  32.366  1.00  0.00    -0.248 NA
ATOM     52  C   UNL A   1      43.729  32.403  34.010  1.00  0.00     0.031 C 
ATOM     53  C   UNL A   1      43.878  27.321  30.701  1.00  0.00     0.029 A 
ATOM     54  C   UNL A   1      43.478  28.526  31.255  1.00  0.00     0.049 A 
ATOM     55  H   UNL A   1      41.731  29.648  30.887  1.00  0.00     0.167 HD
ATOM     56  C   UNL A   1      43.715  30.519  32.708  1.00  0.00     0.074 A 
ATOM     57  C   UNL A   1      44.410  31.308  33.704  1.00  0.00     0.031 C 
ATOM     58  C   UNL A   1      44.154  29.324  32.243  1.00  0.00     0.031 A 
BRANCH  45  59
ATOM     59  C   UNL A   1      40.399  26.689  28.118  1.00  0.00    -0.014 A 
ATOM     60  C   UNL A   1      40.955  26.633  26.831  1.00  0.00     0.009 A 
ATOM     61  C   UNL A   1      39.628  25.611  28.576  1.00  0.00     0.009 A 
ATOM     62  C   UNL A   1      40.725  25.528  26.010  1.00  0.00     0.001 A 
ATOM     63  C   UNL A   1      39.418  24.496  27.761  1.00  0.00     0.001 A 
ATOM     64  C   UNL A   1      39.961  24.459  26.478  1.00  0.00     0.000 A 
ENDBRANCH  45  59
BRANCH  46  65
ATOM     65  C   UNL A   1      41.805  34.591  34.042  1.00  0.00    -0.014 A 
ATOM     66  C   UNL A   1      41.311  34.564  35.355  1.00  0.00     0.009 A 
ATOM     67  C   UNL A   1      42.476  35.739  33.593  1.00  0.00     0.009 A 
ATOM     68  C   UNL A   1      41.458  35.674  36.190  1.00  0.00     0.001 A 
ATOM     69  C   UNL A   1      42.644  36.838  34.438  1.00  0.00     0.001 A 
ATOM     70  C   UNL A   1      42.126  36.809  35.731  1.00  0.00     0.000 A 
ENDBRANCH  46  65
BRANCH  58  71
ATOM     71  C   UNL A   1      45.455  28.815  32.789  1.00  0.00    -0.014 A 
ATOM     72  C   UNL A   1      46.677  29.174  32.199  1.00  0.00     0.009 A 
ATOM     73  C   UNL A   1      45.461  28.002  33.934  1.00  0.00     0.009 A 
ATOM     74  C   UNL A   1      47.879  28.707  32.731  1.00  0.00     0.001 A 
ATOM     75  C   UNL A   1      46.666  27.557  34.476  1.00  0.00     0.001 A 
ATOM     76  C   UNL A   1      47.873  27.903  33.871  1.00  0.00     0.000 A 
ENDBRANCH  58  71
ENDBRANCH  32  33
ENDBRANCH  24  27
ENDBRANCH  22  23
ENDBRANCH  21  22
ENDBRANCH   1  21
TORSDOF 14
ENDMDL
MODEL 2
REMARK VINA RESULT:     -10.4      2.002      7.175
REMARK SMILES CN(c1ccc(C(=O)NCCCCNC(=O)c2ccc(-c3c4nc(c(-c5ccccc5)c5ccc([nH]5)c(-c5ccccc5)c5nc(c(-c6ccccc6)c6ccc3[nH]6)C=C5)C=C4)cc2)cc1[N+](=O)[O-])C1CC1
REMARK SMILES IDX 11 1 10 2 9 3 7 4 8 5 6 7 3 8 4 9 66 10 5 11 65 12 2 13 1 14
REMARK SMILES IDX 70 15 71 16 72 17 67 18 68 19 69 20 12 21 13 22 14 23 15 24
REMARK SMILES IDX 16 26 17 27 18 28 64 29 19 30 63 31 20 32 21 33 22 34 57 35
REMARK SMILES IDX 23 36 62 37 56 38 58 39 24 40 61 41 55 42 54 43 25 45 47 46
REMARK SMILES IDX 32 47 46 48 33 49 36 50 45 51 59 52 34 53 35 54 44 56 60 57
REMARK SMILES IDX 37 58 26 59 27 60 31 61 28 62 30 63 29 64 48 65 49 66 53 67
REMARK SMILES IDX 50 68 52 69 51 70 38 71 39 72 43 73 40 74 42 75 41 76
REMARK H PARENT 9 6 14 25 58 44 36 55
REMARK Flexibility Score: inf
ROOT
ATOM      1  C   UNL A   1      35.768  21.757  26.146  1.00  0.00     0.023 C 
ENDROOT
BRANCH   1   2
ATOM      2  C   UNL A   1      35.381  21.037  24.853  1.00  0.00     0.116 C 
BRANCH   2   3
ATOM      3  N   UNL A   1      34.032  20.513  24.948  1.00  0.00    -0.352 N 
ATOM      4  C   UNL A   1      32.810  21.133  24.922  1.00  0.00     0.251 C 
ATOM      5  O   UNL A   1      31.802  20.431  24.981  1.00  0.00    -0.269 OA
ATOM      6  H   UNL A   1      33.985  19.535  25.048  1.00  0.00     0.163 HD
BRANCH   4   7
ATOM      7  C   UNL A   1      32.655  22.604  24.768  1.00  0.00     0.046 A 
ATOM      8  C   UNL A   1      32.288  25.433  24.657  1.00  0.00     0.116 A 
ATOM      9  C   UNL A   1      32.137  24.716  25.855  1.00  0.00     0.034 A 
ATOM     10  C   UNL A   1      32.649  24.688  23.527  1.00  0.00     0.293 A 
ATOM     11  C   UNL A   1      32.316  23.330  25.915  1.00  0.00     0.016 A 
ATOM     12  C   UNL A   1      32.862  23.297  23.578  1.00  0.00     0.101 A 
BRANCH   8  13
ATOM     13  N   UNL A   1      32.051  26.811  24.698  1.00  0.00    -0.366 N 
ATOM     14  C   UNL A   1      33.104  27.694  25.185  1.00  0.00     0.144 C 
BRANCH  13  15
ATOM     15  C   UNL A   1      30.677  27.336  24.711  1.00  0.00     0.082 C 
ATOM     16  C   UNL A   1      30.104  27.928  23.451  1.00  0.00     0.027 C 
ATOM     17  C   UNL A   1      29.498  26.689  24.035  1.00  0.00     0.027 C 
ENDBRANCH  13  15
ENDBRANCH   8  13
BRANCH  10  18
ATOM     18  N   UNL A   1      32.796  25.314  22.228  1.00  0.00     0.065 N 
ATOM     19  O   UNL A   1      31.758  25.454  21.563  1.00  0.00    -0.258 OA
ATOM     20  O   UNL A   1      33.933  25.624  21.850  1.00  0.00    -0.258 OA
ENDBRANCH  10  18
ENDBRANCH   4   7
ENDBRANCH   2   3
ENDBRANCH   1   2
BRANCH   1  21
ATOM     21  C   UNL A   1      36.169  23.222  25.951  1.00  0.00     0.023 C 
BRANCH  21  22
ATOM     22  C   UNL A   1      37.427  23.436  25.115  1.00  0.00     0.116 C 
BRANCH  22  23
ATOM     23  N   UNL A   1      38.540  22.594  25.523  1.00  0.00    -0.352 N 
ATOM     24  C   UNL A   1      39.623  22.931  26.300  1.00  0.00     0.251 C 
ATOM     25  H   UNL A   1      38.515  21.663  25.202  1.00  0.00     0.163 HD
ATOM     26  O   UNL A   1      40.537  22.139  26.485  1.00  0.00    -0.269 OA
BRANCH  24  27
ATOM     27  C   UNL A   1      39.689  24.291  26.871  1.00  0.00     0.039 A 
ATOM     28  C   UNL A   1      39.140  24.515  28.135  1.00  0.00     0.014 A 
ATOM     29  C   UNL A   1      40.351  25.315  26.188  1.00  0.00     0.014 A 
ATOM     30  C   UNL A   1      39.332  25.749  28.756  1.00  0.00     0.010 A 
ATOM     31  C   UNL A   1      40.588  26.524  26.831  1.00  0.00     0.010 A 
ATOM     32  C   UNL A   1      40.098  26.744  28.128  1.00  0.00    -0.014 A 
BRANCH  32  33
ATOM     33  C   UNL A   1      40.440  28.006  28.826  1.00  0.00     0.031 A 
ATOM     34  C   UNL A   1      41.761  28.151  29.523  1.00  0.00     0.074 A 
ATOM     35  C   UNL A   1      39.522  28.990  28.898  1.00  0.00     0.049 A 
ATOM     36  N   UNL A   1      42.195  29.135  30.269  1.00  0.00    -0.248 NA
ATOM     37  C   UNL A   1      42.714  27.038  29.378  1.00  0.00     0.031 C 
ATOM     38  C   UNL A   1      38.190  28.957  28.287  1.00  0.00     0.029 A 
ATOM     39  N   UNL A   1      39.567  30.207  29.530  1.00  0.00    -0.354 N 
ATOM     40  C   UNL A   1      43.464  28.759  30.687  1.00  0.00     0.074 A 
ATOM     41  C   UNL A   1      43.715  27.440  30.149  1.00  0.00     0.031 C 
ATOM     42  C   UNL A   1      37.553  30.107  28.560  1.00  0.00     0.029 A 
ATOM     43  C   UNL A   1      38.411  30.938  29.399  1.00  0.00     0.049 A 
ATOM     44  H   UNL A   1      40.352  30.527  30.029  1.00  0.00     0.167 HD
ATOM     45  C   UNL A   1      44.347  29.459  31.437  1.00  0.00     0.031 A 
ATOM     46  C   UNL A   1      38.072  32.135  29.911  1.00  0.00     0.031 A 
ATOM     47  C   UNL A   1      44.102  30.772  31.968  1.00  0.00     0.049 A 
ATOM     48  C   UNL A   1      39.057  32.868  30.780  1.00  0.00     0.074 A 
ATOM     49  C   UNL A   1      44.954  31.576  32.706  1.00  0.00     0.029 A 
ATOM     50  N   UNL A   1      42.917  31.472  31.820  1.00  0.00    -0.354 N 
ATOM     51  N   UNL A   1      40.272  32.519  31.123  1.00  0.00    -0.248 NA
ATOM     52  C   UNL A   1      38.620  34.158  31.332  1.00  0.00     0.031 C 
ATOM     53  C   UNL A   1      44.268  32.749  33.038  1.00  0.00     0.029 A 
ATOM     54  C   UNL A   1      43.005  32.690  32.471  1.00  0.00     0.049 A 
ATOM     55  H   UNL A   1      42.128  31.152  31.326  1.00  0.00     0.167 HD
ATOM     56  C   UNL A   1      40.752  33.555  31.913  1.00  0.00     0.074 A 
ATOM     57  C   UNL A   1      39.704  34.552  31.984  1.00  0.00     0.031 C 
ATOM     58  C   UNL A   1      41.953  33.669  32.530  1.00  0.00     0.031 A 
BRANCH  45  59
ATOM     59  C   UNL A   1      45.673  28.814  31.725  1.00  0.00    -0.014 A 
ATOM     60  C   UNL A   1      46.762  28.991  30.857  1.00  0.00     0.009 A 
ATOM     61  C   UNL A   1      45.851  28.071  32.901  1.00  0.00     0.009 A 
ATOM     62  C   UNL A   1      47.999  28.416  31.151  1.00  0.00     0.001 A 
ATOM     63  C   UNL A   1      47.097  27.516  33.203  1.00  0.00     0.001 A 
ATOM     64  C   UNL A   1      48.167  27.684  32.326  1.00  0.00     0.000 A 
ENDBRANCH  45  59
BRANCH  46  65
ATOM     65  C   UNL A   1      36.737  32.723  29.632  1.00  0.00    -0.014 A 
ATOM     66  C   UNL A   1      36.520  33.471  28.465  1.00  0.00     0.009 A 
ATOM     67  C   UNL A   1      35.682  32.566  30.545  1.00  0.00     0.009 A 
ATOM     68  C   UNL A   1      35.282  34.077  28.232  1.00  0.00     0.001 A 
ATOM     69  C   UNL A   1      34.438  33.151  30.296  1.00  0.00     0.001 A 
ATOM     70  C   UNL A   1      34.243  33.914  29.147  1.00  0.00     0.000 A 
ENDBRANCH  46  65
BRANCH  58  71
ATOM     71  C   UNL A   1      42.202  34.924  33.313  1.00  0.00    -0.014 A 
ATOM     72  C   UNL A   1      41.721  35.066  34.624  1.00  0.00     0.009 A 
ATOM     73  C   UNL A   1      42.966  35.958  32.749  1.00  0.00     0.009 A 
ATOM     74  C   UNL A   1      41.978  36.232  35.346  1.00  0.00     0.001 A 
ATOM     75  C   UNL A   1      43.241  37.112  33.483  1.00  0.00     0.001 A 
ATOM     76  C   UNL A   1      42.741  37.251  34.776  1.00  0.00     0.000 A 
ENDBRANCH  58  71
ENDBRANCH  32  33
ENDBRANCH  24  27
ENDBRANCH  22  23
ENDBRANCH  21  22
ENDBRANCH   1  21
TORSDOF 14
ENDMDL
MODEL 3
REMARK VINA RESULT:     -10.3      2.519      7.047
REMARK SMILES CN(c1ccc(C(=O)NCCCCNC(=O)c2ccc(-c3c4nc(c(-c5ccccc5)c5ccc([nH]5)c(-c5ccccc5)c5nc(c(-c6ccccc6)c6ccc3[nH]6)C=C5)C=C4)cc2)cc1[N+](=O)[O-])C1CC1
REMARK SMILES IDX 11 1 10 2 9 3 7 4 8 5 6 7 3 8 4 9 66 10 5 11 65 12 2 13 1 14
REMARK SMILES IDX 70 15 71 16 72 17 67 18 68 19 69 20 12 21 13 22 14 23 15 24
REMARK SMILES IDX 16 26 17 27 18 28 64 29 19 30 63 31 20 32 21 33 22 34 57 35
REMARK SMILES IDX 23 36 62 37 56 38 58 39 24 40 61 41 55 42 54 43 25 45 47 46
REMARK SMILES IDX 32 47 46 48 33 49 36 50 45 51 59 52 34 53 35 54 44 56 60 57
REMARK SMILES IDX 37 58 26 59 27 60 31 61 28 62 30 63 29 64 48 65 49 66 53 67
REMARK SMILES IDX 50 68 52 69 51 70 38 71 39 72 43 73 40 74 42 75 41 76
REMARK H PARENT 9 6 14 25 58 44 36 55
REMARK Flexibility Score: inf
ROOT
ATOM      1  C   UNL A   1      31.582  29.552  25.630  1.00  0.00     0.023 C 
ENDROOT
BRANCH   1   2
ATOM      2  C   UNL A   1      31.543  29.083  24.175  1.00  0.00     0.116 C 
BRANCH   2   3
ATOM      3  N   UNL A   1      30.216  28.611  23.829  1.00  0.00    -0.352 N 
ATOM      4  C   UNL A   1      29.693  27.347  23.736  1.00  0.00     0.251 C 
ATOM      5  O   UNL A   1      28.501  27.230  23.459  1.00  0.00    -0.269 OA
ATOM      6  H   UNL A   1      29.573  29.328  23.625  1.00  0.00     0.163 HD
BRANCH   4   7
ATOM      7  C   UNL A   1      30.492  26.124  24.013  1.00  0.00     0.046 A 
ATOM      8  C   UNL A   1      32.097  23.787  24.358  1.00  0.00     0.116 A 
ATOM      9  C   UNL A   1      32.229  24.612  23.229  1.00  0.00     0.034 A 
ATOM     10  C   UNL A   1      31.152  24.186  25.313  1.00  0.00     0.293 A 
ATOM     11  C   UNL A   1      31.445  25.758  23.055  1.00  0.00     0.016 A 
ATOM     12  C   UNL A   1      30.377  25.352  25.166  1.00  0.00     0.101 A 
BRANCH   8  13
ATOM     13  N   UNL A   1      32.903  22.647  24.419  1.00  0.00    -0.366 N 
ATOM     14  C   UNL A   1      32.343  21.364  24.012  1.00  0.00     0.144 C 
BRANCH  13  15
ATOM     15  C   UNL A   1      34.093  22.615  25.284  1.00  0.00     0.082 C 
ATOM     16  C   UNL A   1      35.449  22.866  24.678  1.00  0.00     0.027 C 
ATOM     17  C   UNL A   1      34.896  23.820  25.694  1.00  0.00     0.027 C 
ENDBRANCH  13  15
ENDBRANCH   8  13
BRANCH  10  18
ATOM     18  N   UNL A   1      30.902  23.393  26.501  1.00  0.00     0.065 N 
ATOM     19  O   UNL A   1      31.565  23.685  27.508  1.00  0.00    -0.258 OA
ATOM     20  O   UNL A   1      30.090  22.462  26.426  1.00  0.00    -0.258 OA
ENDBRANCH  10  18
ENDBRANCH   4   7
ENDBRANCH   2   3
ENDBRANCH   1   2
BRANCH   1  21
ATOM     21  C   UNL A   1      32.107  28.501  26.612  1.00  0.00     0.023 C 
BRANCH  21  22
ATOM     22  C   UNL A   1      33.424  28.859  27.293  1.00  0.00     0.116 C 
BRANCH  22  23
ATOM     23  N   UNL A   1      33.504  30.256  27.691  1.00  0.00    -0.352 N 
ATOM     24  C   UNL A   1      34.572  30.924  28.242  1.00  0.00     0.251 C 
ATOM     25  H   UNL A   1      32.690  30.791  27.548  1.00  0.00     0.163 HD
ATOM     26  O   UNL A   1      34.464  32.084  28.616  1.00  0.00    -0.269 OA
BRANCH  24  27
ATOM     27  C   UNL A   1      35.845  30.199  28.422  1.00  0.00     0.039 A 
ATOM     28  C   UNL A   1      36.765  30.189  27.371  1.00  0.00     0.014 A 
ATOM     29  C   UNL A   1      36.151  29.595  29.644  1.00  0.00     0.014 A 
ATOM     30  C   UNL A   1      38.033  29.646  27.576  1.00  0.00     0.010 A 
ATOM     31  C   UNL A   1      37.433  29.105  29.864  1.00  0.00     0.010 A 
ATOM     32  C   UNL A   1      38.391  29.146  28.838  1.00  0.00    -0.014 A 
BRANCH  32  33
ATOM     33  C   UNL A   1      39.775  28.700  29.124  1.00  0.00     0.031 A 
ATOM     34  C   UNL A   1      40.763  29.646  29.743  1.00  0.00     0.074 A 
ATOM     35  C   UNL A   1      40.162  27.465  28.749  1.00  0.00     0.049 A 
ATOM     36  N   UNL A   1      42.039  29.470  29.973  1.00  0.00    -0.248 NA
ATOM     37  C   UNL A   1      40.254  30.968  30.142  1.00  0.00     0.031 C 
ATOM     38  C   UNL A   1      39.304  26.462  28.111  1.00  0.00     0.029 A 
ATOM     39  N   UNL A   1      41.383  26.846  28.838  1.00  0.00    -0.354 N 
ATOM     40  C   UNL A   1      42.487  30.658  30.534  1.00  0.00     0.074 A 
ATOM     41  C   UNL A   1      41.358  31.562  30.572  1.00  0.00     0.031 C 
ATOM     42  C   UNL A   1      40.022  25.351  27.882  1.00  0.00     0.029 A 
ATOM     43  C   UNL A   1      41.397  25.574  28.317  1.00  0.00     0.049 A 
ATOM     44  H   UNL A   1      42.175  27.272  29.239  1.00  0.00     0.167 HD
ATOM     45  C   UNL A   1      43.724  30.961  30.992  1.00  0.00     0.031 A 
ATOM     46  C   UNL A   1      42.406  24.695  28.187  1.00  0.00     0.031 A 
ATOM     47  C   UNL A   1      44.845  30.063  30.961  1.00  0.00     0.049 A 
ATOM     48  C   UNL A   1      43.780  25.078  28.662  1.00  0.00     0.074 A 
ATOM     49  C   UNL A   1      46.128  30.267  31.440  1.00  0.00     0.029 A 
ATOM     50  N   UNL A   1      44.819  28.789  30.417  1.00  0.00    -0.354 N 
ATOM     51  N   UNL A   1      44.174  26.188  29.237  1.00  0.00    -0.248 NA
ATOM     52  C   UNL A   1      44.847  24.086  28.469  1.00  0.00     0.031 C 
ATOM     53  C   UNL A   1      46.889  29.130  31.150  1.00  0.00     0.029 A 
ATOM     54  C   UNL A   1      46.068  28.204  30.528  1.00  0.00     0.049 A 
ATOM     55  H   UNL A   1      44.029  28.363  30.012  1.00  0.00     0.167 HD
ATOM     56  C   UNL A   1      45.528  26.019  29.493  1.00  0.00     0.074 A 
ATOM     57  C   UNL A   1      45.884  24.694  29.026  1.00  0.00     0.031 C 
ATOM     58  C   UNL A   1      46.402  26.885  30.059  1.00  0.00     0.031 A 
BRANCH  45  59
ATOM     59  C   UNL A   1      43.929  32.329  31.578  1.00  0.00    -0.014 A 
ATOM     60  C   UNL A   1      43.750  32.557  32.951  1.00  0.00     0.009 A 
ATOM     61  C   UNL A   1      44.357  33.385  30.761  1.00  0.00     0.009 A 
ATOM     62  C   UNL A   1      43.976  33.824  33.491  1.00  0.00     0.001 A 
ATOM     63  C   UNL A   1      44.604  34.646  31.308  1.00  0.00     0.001 A 
ATOM     64  C   UNL A   1      44.407  34.866  32.670  1.00  0.00     0.000 A 
ENDBRANCH  45  59
BRANCH  46  65
ATOM     65  C   UNL A   1      42.171  23.364  27.569  1.00  0.00    -0.014 A 
ATOM     66  C   UNL A   1      42.493  23.140  26.223  1.00  0.00     0.009 A 
ATOM     67  C   UNL A   1      41.595  22.322  28.313  1.00  0.00     0.009 A 
ATOM     68  C   UNL A   1      42.214  21.909  25.624  1.00  0.00     0.001 A 
ATOM     69  C   UNL A   1      41.342  21.084  27.719  1.00  0.00     0.001 A 
ATOM     70  C   UNL A   1      41.642  20.882  26.373  1.00  0.00     0.000 A 
ENDBRANCH  46  65
BRANCH  58  71
ATOM     71  C   UNL A   1      47.818  26.418  30.225  1.00  0.00    -0.014 A 
ATOM     72  C   UNL A   1      48.754  26.567  29.190  1.00  0.00     0.009 A 
ATOM     73  C   UNL A   1      48.231  25.863  31.447  1.00  0.00     0.009 A 
ATOM     74  C   UNL A   1      50.072  26.145  29.368  1.00  0.00     0.001 A 
ATOM     75  C   UNL A   1      49.555  25.464  31.628  1.00  0.00     0.001 A 
ATOM     76  C   UNL A   1      50.472  25.598  30.587  1.00  0.00     0.000 A 
ENDBRANCH  58  71
ENDBRANCH  32  33
ENDBRANCH  24  27
ENDBRANCH  22  23
ENDBRANCH  21  22
ENDBRANCH   1  21
TORSDOF 14
ENDMDL
