MODEL 1
REMARK VINA RESULT:     -10.7      0.000      0.000
REMARK SMILES CC(C)c1ccc(C[N@@H+](CC(=O)NCCCCNC(=O)c2ccc(-c3c4nc(c(-c5ccccc5)c5ccc([nH]5)c(-c5ccccc5)c5nc(c(-c6ccccc6)c6ccc3[nH]6)C=C5)C=C4)cc2)CC(F)(F)F)cc1
REMARK SMILES IDX 14 1 13 2 11 3 12 4 10 6 9 7 8 9 7 10 4 11 5 12 75 13 6 14
REMARK SMILES IDX 74 15 2 16 1 17 3 18 69 19 70 20 71 21 72 22 73 23 15 24
REMARK SMILES IDX 16 25 17 26 18 27 19 28 20 30 21 31 22 32 68 33 23 34 67 35
REMARK SMILES IDX 24 36 25 37 26 38 61 39 27 40 66 41 60 42 62 43 28 44 65 45
REMARK SMILES IDX 59 46 58 47 29 49 51 50 36 51 50 52 37 53 40 54 49 55 63 56
REMARK SMILES IDX 38 57 39 58 48 60 64 61 41 62 30 63 31 64 35 65 32 66 34 67
REMARK SMILES IDX 33 68 52 69 53 70 57 71 54 72 56 73 55 74 42 75 43 76 47 77
REMARK SMILES IDX 44 78 46 79 45 80
REMARK H PARENT 13 5 9 8 18 29 62 48 40 59
REMARK Flexibility Score: inf
ROOT
ATOM      1  C   UNL A   1      36.875  23.417  25.173  1.00  0.00     0.116 C 
ENDROOT
BRANCH   1   2
ATOM      2  N   UNL A   1      35.999  23.157  26.300  1.00  0.00    -0.351 N 
ATOM      3  C   UNL A   1      34.650  23.278  26.452  1.00  0.00     0.275 C 
ATOM      4  O   UNL A   1      34.181  22.900  27.531  1.00  0.00    -0.269 OA
ATOM      5  H   UNL A   1      36.466  22.833  27.104  1.00  0.00     0.163 HD
BRANCH   3   6
ATOM      6  C   UNL A   1      33.711  23.792  25.351  1.00  0.00     0.364 C 
BRANCH   6   7
ATOM      7  N   UNL A   1      32.520  22.967  25.017  1.00  0.00    -0.316 N 
ATOM      8  H   UNL A   1      32.296  22.407  25.841  1.00  0.00     0.349 HD
BRANCH   7   9
ATOM      9  C   UNL A   1      32.834  21.979  23.998  1.00  0.00     0.299 C 
BRANCH   9  10
ATOM     10  C   UNL A   1      32.716  20.497  24.250  1.00  0.00     0.006 A 
ATOM     11  C   UNL A   1      33.100  17.690  24.470  1.00  0.00    -0.045 A 
ATOM     12  C   UNL A   1      33.348  18.553  25.553  1.00  0.00     0.004 A 
ATOM     13  C   UNL A   1      32.563  18.255  23.308  1.00  0.00     0.004 A 
ATOM     14  C   UNL A   1      33.165  19.938  25.447  1.00  0.00     0.010 A 
ATOM     15  C   UNL A   1      32.371  19.633  23.202  1.00  0.00     0.010 A 
BRANCH  11  16
ATOM     16  C   UNL A   1      33.405  16.198  24.590  1.00  0.00     0.013 C 
ATOM     17  C   UNL A   1      34.829  15.863  25.064  1.00  0.00     0.012 C 
ATOM     18  C   UNL A   1      32.418  15.486  25.528  1.00  0.00     0.012 C 
ENDBRANCH  11  16
ENDBRANCH   9  10
ENDBRANCH   7   9
BRANCH   7  19
ATOM     19  C   UNL A   1      31.234  23.691  24.925  1.00  0.00     0.380 C 
BRANCH  19  20
ATOM     20  C   UNL A   1      30.696  24.372  23.643  1.00  0.00     0.438 C 
ATOM     21  F   UNL A   1      31.678  24.860  22.860  1.00  0.00    -0.165 F 
ATOM     22  F   UNL A   1      30.000  23.480  22.895  1.00  0.00    -0.165 F 
ATOM     23  F   UNL A   1      29.848  25.382  23.920  1.00  0.00    -0.165 F 
ENDBRANCH  19  20
ENDBRANCH   7  19
ENDBRANCH   6   7
ENDBRANCH   3   6
ENDBRANCH   1   2
BRANCH   1  24
ATOM     24  C   UNL A   1      36.987  22.200  24.245  1.00  0.00     0.023 C 
BRANCH  24  25
ATOM     25  C   UNL A   1      37.468  20.908  24.875  1.00  0.00     0.023 C 
BRANCH  25  26
ATOM     26  C   UNL A   1      38.713  21.050  25.722  1.00  0.00     0.116 C 
BRANCH  26  27
ATOM     27  N   UNL A   1      39.596  19.892  25.670  1.00  0.00    -0.352 N 
ATOM     28  C   UNL A   1      40.925  19.799  26.026  1.00  0.00     0.251 C 
ATOM     29  H   UNL A   1      39.187  19.061  25.334  1.00  0.00     0.163 HD
ATOM     30  O   UNL A   1      41.552  18.772  25.844  1.00  0.00    -0.269 OA
BRANCH  28  31
ATOM     31  C   UNL A   1      41.587  20.995  26.589  1.00  0.00     0.039 A 
ATOM     32  C   UNL A   1      42.163  21.923  25.720  1.00  0.00     0.014 A 
ATOM     33  C   UNL A   1      41.547  21.237  27.963  1.00  0.00     0.014 A 
ATOM     34  C   UNL A   1      42.618  23.141  26.226  1.00  0.00     0.010 A 
ATOM     35  C   UNL A   1      41.886  22.493  28.443  1.00  0.00     0.010 A 
ATOM     36  C   UNL A   1      42.437  23.454  27.582  1.00  0.00    -0.014 A 
BRANCH  36  37
ATOM     37  C   UNL A   1      42.839  24.765  28.144  1.00  0.00     0.031 A 
ATOM     38  C   UNL A   1      41.790  25.818  28.385  1.00  0.00     0.074 A 
ATOM     39  C   UNL A   1      44.141  25.041  28.356  1.00  0.00     0.049 A 
ATOM     40  N   UNL A   1      41.939  27.060  28.768  1.00  0.00    -0.248 NA
ATOM     41  C   UNL A   1      40.392  25.436  28.118  1.00  0.00     0.031 C 
ATOM     42  C   UNL A   1      45.259  24.127  28.107  1.00  0.00     0.029 A 
ATOM     43  N   UNL A   1      44.744  26.180  28.826  1.00  0.00    -0.354 N 
ATOM     44  C   UNL A   1      40.664  27.610  28.753  1.00  0.00     0.074 A 
ATOM     45  C   UNL A   1      39.763  26.590  28.265  1.00  0.00     0.031 C 
ATOM     46  C   UNL A   1      46.406  24.729  28.462  1.00  0.00     0.029 A 
ATOM     47  C   UNL A   1      46.110  26.080  28.925  1.00  0.00     0.049 A 
ATOM     48  H   UNL A   1      44.243  26.993  29.069  1.00  0.00     0.167 HD
ATOM     49  C   UNL A   1      40.269  28.846  29.137  1.00  0.00     0.031 A 
ATOM     50  C   UNL A   1      47.020  26.979  29.344  1.00  0.00     0.031 A 
ATOM     51  C   UNL A   1      41.157  29.844  29.663  1.00  0.00     0.049 A 
ATOM     52  C   UNL A   1      46.553  28.335  29.795  1.00  0.00     0.074 A 
ATOM     53  C   UNL A   1      40.849  31.101  30.151  1.00  0.00     0.029 A 
ATOM     54  N   UNL A   1      42.529  29.690  29.781  1.00  0.00    -0.354 N 
ATOM     55  N   UNL A   1      45.336  28.818  29.836  1.00  0.00    -0.248 NA
ATOM     56  C   UNL A   1      47.589  29.266  30.266  1.00  0.00     0.031 C 
ATOM     57  C   UNL A   1      42.043  31.722  30.533  1.00  0.00     0.029 A 
ATOM     58  C   UNL A   1      43.085  30.834  30.322  1.00  0.00     0.049 A 
ATOM     59  H   UNL A   1      43.032  28.885  29.518  1.00  0.00     0.167 HD
ATOM     60  C   UNL A   1      45.454  30.098  30.361  1.00  0.00     0.074 A 
ATOM     61  C   UNL A   1      46.860  30.309  30.638  1.00  0.00     0.031 C 
ATOM     62  C   UNL A   1      44.487  31.018  30.593  1.00  0.00     0.031 A 
BRANCH  49  63
ATOM     63  C   UNL A   1      38.808  29.172  29.009  1.00  0.00    -0.014 A 
ATOM     64  C   UNL A   1      37.928  29.000  30.090  1.00  0.00     0.009 A 
ATOM     65  C   UNL A   1      38.306  29.667  27.796  1.00  0.00     0.009 A 
ATOM     66  C   UNL A   1      36.569  29.278  29.947  1.00  0.00     0.001 A 
ATOM     67  C   UNL A   1      36.950  29.974  27.666  1.00  0.00     0.001 A 
ATOM     68  C   UNL A   1      36.081  29.769  28.737  1.00  0.00     0.000 A 
ENDBRANCH  49  63
BRANCH  50  69
ATOM     69  C   UNL A   1      48.461  26.621  29.389  1.00  0.00    -0.014 A 
ATOM     70  C   UNL A   1      48.999  25.994  30.525  1.00  0.00     0.009 A 
ATOM     71  C   UNL A   1      49.308  26.909  28.309  1.00  0.00     0.009 A 
ATOM     72  C   UNL A   1      50.361  25.691  30.589  1.00  0.00     0.001 A 
ATOM     73  C   UNL A   1      50.665  26.582  28.365  1.00  0.00     0.001 A 
ATOM     74  C   UNL A   1      51.191  25.982  29.508  1.00  0.00     0.000 A 
ENDBRANCH  50  69
BRANCH  62  75
ATOM     75  C   UNL A   1      44.913  32.320  31.203  1.00  0.00    -0.014 A 
ATOM     76  C   UNL A   1      44.968  32.486  32.595  1.00  0.00     0.009 A 
ATOM     77  C   UNL A   1      45.309  33.380  30.372  1.00  0.00     0.009 A 
ATOM     78  C   UNL A   1      45.383  33.700  33.144  1.00  0.00     0.001 A 
ATOM     79  C   UNL A   1      45.749  34.583  30.923  1.00  0.00     0.001 A 
ATOM     80  C   UNL A   1      45.778  34.745  32.308  1.00  0.00     0.000 A 
ENDBRANCH  62  75
ENDBRANCH  36  37
ENDBRANCH  28  31
ENDBRANCH  26  27
ENDBRANCH  25  26
ENDBRANCH  24  25
ENDBRANCH   1  24
TORSDOF 17
ENDMDL
MODEL 2
REMARK VINA RESULT:     -10.6      0.877      6.012
REMARK SMILES CC(C)c1ccc(C[N@@H+](CC(=O)NCCCCNC(=O)c2ccc(-c3c4nc(c(-c5ccccc5)c5ccc([nH]5)c(-c5ccccc5)c5nc(c(-c6ccccc6)c6ccc3[nH]6)C=C5)C=C4)cc2)CC(F)(F)F)cc1
REMARK SMILES IDX 14 1 13 2 11 3 12 4 10 6 9 7 8 9 7 10 4 11 5 12 75 13 6 14
REMARK SMILES IDX 74 15 2 16 1 17 3 18 69 19 70 20 71 21 72 22 73 23 15 24
REMARK SMILES IDX 16 25 17 26 18 27 19 28 20 30 21 31 22 32 68 33 23 34 67 35
REMARK SMILES IDX 24 36 25 37 26 38 61 39 27 40 66 41 60 42 62 43 28 44 65 45
REMARK SMILES IDX 59 46 58 47 29 49 51 50 36 51 50 52 37 53 40 54 49 55 63 56
REMARK SMILES IDX 38 57 39 58 48 60 64 61 41 62 30 63 31 64 35 65 32 66 34 67
REMARK SMILES IDX 33 68 52 69 53 70 57 71 54 72 56 73 55 74 42 75 43 76 47 77
REMARK SMILES IDX 44 78 46 79 45 80
REMARK H PARENT 13 5 9 8 18 29 62 48 40 59
REMARK Flexibility Score: inf
ROOT
ATOM      1  C   UNL A   1      37.138  23.016  25.551  1.00  0.00     0.116 C 
ENDROOT
BRANCH   1   2
ATOM      2  N   UNL A   1      36.092  22.924  26.553  1.00  0.00    -0.351 N 
ATOM      3  C   UNL A   1      34.828  23.432  26.598  1.00  0.00     0.275 C 
ATOM      4  O   UNL A   1      34.140  23.111  27.572  1.00  0.00    -0.269 OA
ATOM      5  H   UNL A   1      36.342  22.398  27.346  1.00  0.00     0.163 HD
BRANCH   3   6
ATOM      6  C   UNL A   1      34.223  24.311  25.493  1.00  0.00     0.364 C 
BRANCH   6   7
ATOM      7  N   UNL A   1      32.952  23.856  24.867  1.00  0.00    -0.316 N 
ATOM      8  H   UNL A   1      32.445  23.313  25.566  1.00  0.00     0.349 HD
BRANCH   7   9
ATOM      9  C   UNL A   1      33.204  22.904  23.798  1.00  0.00     0.299 C 
BRANCH   9  10
ATOM     10  C   UNL A   1      32.936  21.429  23.955  1.00  0.00     0.006 A 
ATOM     11  C   UNL A   1      32.935  18.590  23.836  1.00  0.00    -0.045 A 
ATOM     12  C   UNL A   1      33.589  19.282  24.872  1.00  0.00     0.004 A 
ATOM     13  C   UNL A   1      32.202  19.349  22.919  1.00  0.00     0.004 A 
ATOM     14  C   UNL A   1      33.596  20.682  24.931  1.00  0.00     0.010 A 
ATOM     15  C   UNL A   1      32.199  20.744  22.980  1.00  0.00     0.010 A 
BRANCH  11  16
ATOM     16  C   UNL A   1      33.033  17.068  23.748  1.00  0.00     0.013 C 
ATOM     17  C   UNL A   1      34.339  16.535  23.135  1.00  0.00     0.012 C 
ATOM     18  C   UNL A   1      32.854  16.402  25.121  1.00  0.00     0.012 C 
ENDBRANCH  11  16
ENDBRANCH   9  10
ENDBRANCH   7   9
BRANCH   7  19
ATOM     19  C   UNL A   1      31.924  24.899  24.656  1.00  0.00     0.380 C 
BRANCH  19  20
ATOM     20  C   UNL A   1      31.029  25.493  25.770  1.00  0.00     0.438 C 
ATOM     21  F   UNL A   1      31.733  25.888  26.849  1.00  0.00    -0.165 F 
ATOM     22  F   UNL A   1      30.366  26.582  25.309  1.00  0.00    -0.165 F 
ATOM     23  F   UNL A   1      30.090  24.621  26.187  1.00  0.00    -0.165 F 
ENDBRANCH  19  20
ENDBRANCH   7  19
ENDBRANCH   6   7
ENDBRANCH   3   6
ENDBRANCH   1   2
BRANCH   1  24
ATOM     24  C   UNL A   1      36.997  21.927  24.478  1.00  0.00     0.023 C 
BRANCH  24  25
ATOM     25  C   UNL A   1      37.733  20.626  24.729  1.00  0.00     0.023 C 
BRANCH  25  26
ATOM     26  C   UNL A   1      38.791  20.704  25.807  1.00  0.00     0.116 C 
BRANCH  26  27
ATOM     27  N   UNL A   1      39.788  19.643  25.731  1.00  0.00    -0.352 N 
ATOM     28  C   UNL A   1      41.130  19.692  26.045  1.00  0.00     0.251 C 
ATOM     29  H   UNL A   1      39.457  18.773  25.411  1.00  0.00     0.163 HD
ATOM     30  O   UNL A   1      41.855  18.734  25.847  1.00  0.00    -0.269 OA
BRANCH  28  31
ATOM     31  C   UNL A   1      41.680  20.954  26.584  1.00  0.00     0.039 A 
ATOM     32  C   UNL A   1      42.168  21.914  25.696  1.00  0.00     0.014 A 
ATOM     33  C   UNL A   1      41.620  21.217  27.953  1.00  0.00     0.014 A 
ATOM     34  C   UNL A   1      42.510  23.178  26.178  1.00  0.00     0.010 A 
ATOM     35  C   UNL A   1      41.844  22.507  28.409  1.00  0.00     0.010 A 
ATOM     36  C   UNL A   1      42.303  23.498  27.529  1.00  0.00    -0.014 A 
BRANCH  36  37
ATOM     37  C   UNL A   1      42.584  24.851  28.065  1.00  0.00     0.031 A 
ATOM     38  C   UNL A   1      43.983  25.198  28.498  1.00  0.00     0.074 A 
ATOM     39  C   UNL A   1      41.580  25.732  28.240  1.00  0.00     0.049 A 
ATOM     40  N   UNL A   1      44.422  26.280  29.088  1.00  0.00    -0.248 NA
ATOM     41  C   UNL A   1      45.020  24.173  28.278  1.00  0.00     0.031 C 
ATOM     42  C   UNL A   1      40.171  25.496  27.915  1.00  0.00     0.029 A 
ATOM     43  N   UNL A   1      41.594  27.007  28.746  1.00  0.00    -0.354 N 
ATOM     44  C   UNL A   1      45.768  26.050  29.337  1.00  0.00     0.074 A 
ATOM     45  C   UNL A   1      46.062  24.706  28.894  1.00  0.00     0.031 C 
ATOM     46  C   UNL A   1      39.464  26.604  28.195  1.00  0.00     0.029 A 
ATOM     47  C   UNL A   1      40.359  27.611  28.754  1.00  0.00     0.049 A 
ATOM     48  H   UNL A   1      42.412  27.448  29.074  1.00  0.00     0.167 HD
ATOM     49  C   UNL A   1      46.689  26.890  29.863  1.00  0.00     0.031 A 
ATOM     50  C   UNL A   1      39.994  28.839  29.165  1.00  0.00     0.031 A 
ATOM     51  C   UNL A   1      46.407  28.240  30.262  1.00  0.00     0.049 A 
ATOM     52  C   UNL A   1      41.042  29.766  29.718  1.00  0.00     0.074 A 
ATOM     53  C   UNL A   1      47.283  29.199  30.738  1.00  0.00     0.029 A 
ATOM     54  N   UNL A   1      45.151  28.825  30.221  1.00  0.00    -0.354 N 
ATOM     55  N   UNL A   1      42.324  29.556  29.887  1.00  0.00    -0.248 NA
ATOM     56  C   UNL A   1      40.589  31.103  30.126  1.00  0.00     0.031 C 
ATOM     57  C   UNL A   1      46.549  30.357  31.016  1.00  0.00     0.029 A 
ATOM     58  C   UNL A   1      45.226  30.129  30.673  1.00  0.00     0.049 A 
ATOM     59  H   UNL A   1      44.330  28.377  29.914  1.00  0.00     0.167 HD
ATOM     60  C   UNL A   1      42.837  30.741  30.397  1.00  0.00     0.074 A 
ATOM     61  C   UNL A   1      41.730  31.670  30.494  1.00  0.00     0.031 C 
ATOM     62  C   UNL A   1      44.110  31.035  30.755  1.00  0.00     0.031 A 
BRANCH  49  63
ATOM     63  C   UNL A   1      48.088  26.366  30.021  1.00  0.00    -0.014 A 
ATOM     64  C   UNL A   1      49.016  26.444  28.969  1.00  0.00     0.009 A 
ATOM     65  C   UNL A   1      48.488  25.796  31.239  1.00  0.00     0.009 A 
ATOM     66  C   UNL A   1      50.302  25.926  29.121  1.00  0.00     0.001 A 
ATOM     67  C   UNL A   1      49.786  25.306  31.397  1.00  0.00     0.001 A 
ATOM     68  C   UNL A   1      50.688  25.361  30.335  1.00  0.00     0.000 A 
ENDBRANCH  49  63
BRANCH  50  69
ATOM     69  C   UNL A   1      38.581  29.281  29.043  1.00  0.00    -0.014 A 
ATOM     70  C   UNL A   1      37.713  29.188  30.142  1.00  0.00     0.009 A 
ATOM     71  C   UNL A   1      38.089  29.787  27.830  1.00  0.00     0.009 A 
ATOM     72  C   UNL A   1      36.373  29.564  30.021  1.00  0.00     0.001 A 
ATOM     73  C   UNL A   1      36.755  30.187  27.719  1.00  0.00     0.001 A 
ATOM     74  C   UNL A   1      35.897  30.066  28.811  1.00  0.00     0.000 A 
ENDBRANCH  50  69
BRANCH  62  75
ATOM     75  C   UNL A   1      44.378  32.425  31.252  1.00  0.00    -0.014 A 
ATOM     76  C   UNL A   1      44.700  33.463  30.365  1.00  0.00     0.009 A 
ATOM     77  C   UNL A   1      44.259  32.707  32.622  1.00  0.00     0.009 A 
ATOM     78  C   UNL A   1      44.929  34.754  30.846  1.00  0.00     0.001 A 
ATOM     79  C   UNL A   1      44.462  34.003  33.096  1.00  0.00     0.001 A 
ATOM     80  C   UNL A   1      44.805  35.023  32.209  1.00  0.00     0.000 A 
ENDBRANCH  62  75
ENDBRANCH  36  37
ENDBRANCH  28  31
ENDBRANCH  26  27
ENDBRANCH  25  26
ENDBRANCH  24  25
ENDBRANCH   1  24
TORSDOF 17
ENDMDL
MODEL 3
REMARK VINA RESULT:     -10.6      1.514      6.868
REMARK SMILES CC(C)c1ccc(C[N@@H+](CC(=O)NCCCCNC(=O)c2ccc(-c3c4nc(c(-c5ccccc5)c5ccc([nH]5)c(-c5ccccc5)c5nc(c(-c6ccccc6)c6ccc3[nH]6)C=C5)C=C4)cc2)CC(F)(F)F)cc1
REMARK SMILES IDX 14 1 13 2 11 3 12 4 10 6 9 7 8 9 7 10 4 11 5 12 75 13 6 14
REMARK SMILES IDX 74 15 2 16 1 17 3 18 69 19 70 20 71 21 72 22 73 23 15 24
REMARK SMILES IDX 16 25 17 26 18 27 19 28 20 30 21 31 22 32 68 33 23 34 67 35
REMARK SMILES IDX 24 36 25 37 26 38 61 39 27 40 66 41 60 42 62 43 28 44 65 45
REMARK SMILES IDX 59 46 58 47 29 49 51 50 36 51 50 52 37 53 40 54 49 55 63 56
REMARK SMILES IDX 38 57 39 58 48 60 64 61 41 62 30 63 31 64 35 65 32 66 34 67
REMARK SMILES IDX 33 68 52 69 53 70 57 71 54 72 56 73 55 74 42 75 43 76 47 77
REMARK SMILES IDX 44 78 46 79 45 80
REMARK H PARENT 13 5 9 8 18 29 62 48 40 59
REMARK Flexibility Score: inf
ROOT
ATOM      1  C   UNL A   1      35.442  21.311  25.199  1.00  0.00     0.116 C 
ENDROOT
BRANCH   1   2
ATOM      2  N   UNL A   1      35.003  19.945  24.985  1.00  0.00    -0.351 N 
ATOM      3  C   UNL A   1      33.776  19.413  24.719  1.00  0.00     0.275 C 
ATOM      4  O   UNL A   1      33.737  18.196  24.510  1.00  0.00    -0.269 OA
ATOM      5  H   UNL A   1      35.725  19.278  25.044  1.00  0.00     0.163 HD
BRANCH   3   6
ATOM      6  C   UNL A   1      32.491  20.247  24.611  1.00  0.00     0.364 C 
BRANCH   6   7
ATOM      7  N   UNL A   1      32.634  21.705  24.352  1.00  0.00    -0.316 N 
ATOM      8  H   UNL A   1      33.632  21.915  24.336  1.00  0.00     0.349 HD
BRANCH   7   9
ATOM      9  C   UNL A   1      32.129  22.489  25.467  1.00  0.00     0.299 C 
BRANCH   9  10
ATOM     10  C   UNL A   1      32.319  23.982  25.551  1.00  0.00     0.006 A 
ATOM     11  C   UNL A   1      32.757  26.674  26.351  1.00  0.00    -0.045 A 
ATOM     12  C   UNL A   1      33.802  25.877  25.849  1.00  0.00     0.004 A 
ATOM     13  C   UNL A   1      31.472  26.123  26.352  1.00  0.00     0.004 A 
ATOM     14  C   UNL A   1      33.591  24.548  25.459  1.00  0.00     0.010 A 
ATOM     15  C   UNL A   1      31.256  24.802  25.955  1.00  0.00     0.010 A 
BRANCH  11  16
ATOM     16  C   UNL A   1      33.043  28.085  26.860  1.00  0.00     0.013 C 
ATOM     17  C   UNL A   1      33.884  28.959  25.914  1.00  0.00     0.012 C 
ATOM     18  C   UNL A   1      31.750  28.851  27.181  1.00  0.00     0.012 C 
ENDBRANCH  11  16
ENDBRANCH   9  10
ENDBRANCH   7   9
BRANCH   7  19
ATOM     19  C   UNL A   1      32.323  22.153  22.977  1.00  0.00     0.380 C 
BRANCH  19  20
ATOM     20  C   UNL A   1      33.196  23.126  22.149  1.00  0.00     0.438 C 
ATOM     21  F   UNL A   1      33.180  22.849  20.830  1.00  0.00    -0.165 F 
ATOM     22  F   UNL A   1      32.745  24.398  22.291  1.00  0.00    -0.165 F 
ATOM     23  F   UNL A   1      34.481  23.128  22.555  1.00  0.00    -0.165 F 
ENDBRANCH  19  20
ENDBRANCH   7  19
ENDBRANCH   6   7
ENDBRANCH   3   6
ENDBRANCH   1   2
BRANCH   1  24
ATOM     24  C   UNL A   1      36.906  21.511  24.785  1.00  0.00     0.023 C 
BRANCH  24  25
ATOM     25  C   UNL A   1      37.827  20.319  24.951  1.00  0.00     0.023 C 
BRANCH  25  26
ATOM     26  C   UNL A   1      39.019  20.568  25.848  1.00  0.00     0.116 C 
BRANCH  26  27
ATOM     27  N   UNL A   1      40.031  19.521  25.788  1.00  0.00    -0.352 N 
ATOM     28  C   UNL A   1      41.375  19.595  26.091  1.00  0.00     0.251 C 
ATOM     29  H   UNL A   1      39.711  18.638  25.490  1.00  0.00     0.163 HD
ATOM     30  O   UNL A   1      42.112  18.645  25.909  1.00  0.00    -0.269 OA
BRANCH  28  31
ATOM     31  C   UNL A   1      41.910  20.877  26.597  1.00  0.00     0.039 A 
ATOM     32  C   UNL A   1      42.346  21.838  25.683  1.00  0.00     0.014 A 
ATOM     33  C   UNL A   1      41.887  21.156  27.964  1.00  0.00     0.014 A 
ATOM     34  C   UNL A   1      42.673  23.115  26.138  1.00  0.00     0.010 A 
ATOM     35  C   UNL A   1      42.093  22.457  28.398  1.00  0.00     0.010 A 
ATOM     36  C   UNL A   1      42.500  23.447  27.491  1.00  0.00    -0.014 A 
BRANCH  36  37
ATOM     37  C   UNL A   1      42.765  24.814  28.002  1.00  0.00     0.031 A 
ATOM     38  C   UNL A   1      44.165  25.196  28.397  1.00  0.00     0.074 A 
ATOM     39  C   UNL A   1      41.746  25.676  28.189  1.00  0.00     0.049 A 
ATOM     40  N   UNL A   1      44.594  26.295  28.962  1.00  0.00    -0.248 NA
ATOM     41  C   UNL A   1      45.218  24.190  28.168  1.00  0.00     0.031 C 
ATOM     42  C   UNL A   1      40.335  25.406  27.900  1.00  0.00     0.029 A 
ATOM     43  N   UNL A   1      41.744  26.958  28.677  1.00  0.00    -0.354 N 
ATOM     44  C   UNL A   1      45.951  26.097  29.184  1.00  0.00     0.074 A 
ATOM     45  C   UNL A   1      46.263  24.753  28.752  1.00  0.00     0.031 C 
ATOM     46  C   UNL A   1      39.611  26.502  28.181  1.00  0.00     0.029 A 
ATOM     47  C   UNL A   1      40.498  27.536  28.705  1.00  0.00     0.049 A 
ATOM     48  H   UNL A   1      42.560  27.421  28.979  1.00  0.00     0.167 HD
ATOM     49  C   UNL A   1      46.865  26.964  29.676  1.00  0.00     0.031 A 
ATOM     50  C   UNL A   1      40.116  28.762  29.108  1.00  0.00     0.031 A 
ATOM     51  C   UNL A   1      46.564  28.313  30.064  1.00  0.00     0.049 A 
ATOM     52  C   UNL A   1      41.156  29.718  29.623  1.00  0.00     0.074 A 
ATOM     53  C   UNL A   1      47.430  29.297  30.505  1.00  0.00     0.029 A 
ATOM     54  N   UNL A   1      45.295  28.871  30.043  1.00  0.00    -0.354 N 
ATOM     55  N   UNL A   1      42.446  29.537  29.765  1.00  0.00    -0.248 NA
ATOM     56  C   UNL A   1      40.684  31.051  30.023  1.00  0.00     0.031 C 
ATOM     57  C   UNL A   1      46.677  30.443  30.784  1.00  0.00     0.029 A 
ATOM     58  C   UNL A   1      45.352  30.182  30.475  1.00  0.00     0.049 A 
ATOM     59  H   UNL A   1      44.476  28.401  29.762  1.00  0.00     0.167 HD
ATOM     60  C   UNL A   1      42.945  30.740  30.246  1.00  0.00     0.074 A 
ATOM     61  C   UNL A   1      41.821  31.647  30.357  1.00  0.00     0.031 C 
ATOM     62  C   UNL A   1      44.219  31.066  30.571  1.00  0.00     0.031 A 
BRANCH  49  63
ATOM     63  C   UNL A   1      48.278  26.471  29.809  1.00  0.00    -0.014 A 
ATOM     64  C   UNL A   1      48.713  25.814  30.971  1.00  0.00     0.009 A 
ATOM     65  C   UNL A   1      49.185  26.658  28.754  1.00  0.00     0.009 A 
ATOM     66  C   UNL A   1      50.036  25.390  31.091  1.00  0.00     0.001 A 
ATOM     67  C   UNL A   1      50.501  26.204  28.866  1.00  0.00     0.001 A 
ATOM     68  C   UNL A   1      50.929  25.582  30.038  1.00  0.00     0.000 A 
ENDBRANCH  49  63
BRANCH  50  69
ATOM     69  C   UNL A   1      38.691  29.172  29.012  1.00  0.00    -0.014 A 
ATOM     70  C   UNL A   1      37.830  29.000  30.108  1.00  0.00     0.009 A 
ATOM     71  C   UNL A   1      38.181  29.726  27.828  1.00  0.00     0.009 A 
ATOM     72  C   UNL A   1      36.481  29.347  30.010  1.00  0.00     0.001 A 
ATOM     73  C   UNL A   1      36.836  30.096  27.742  1.00  0.00     0.001 A 
ATOM     74  C   UNL A   1      35.986  29.897  28.829  1.00  0.00     0.000 A 
ENDBRANCH  50  69
BRANCH  62  75
ATOM     75  C   UNL A   1      44.469  32.468  31.042  1.00  0.00    -0.014 A 
ATOM     76  C   UNL A   1      44.434  32.793  32.406  1.00  0.00     0.009 A 
ATOM     77  C   UNL A   1      44.788  33.467  30.109  1.00  0.00     0.009 A 
ATOM     78  C   UNL A   1      44.685  34.100  32.826  1.00  0.00     0.001 A 
ATOM     79  C   UNL A   1      45.064  34.767  30.533  1.00  0.00     0.001 A 
ATOM     80  C   UNL A   1      45.005  35.084  31.890  1.00  0.00     0.000 A 
ENDBRANCH  62  75
ENDBRANCH  36  37
ENDBRANCH  28  31
ENDBRANCH  26  27
ENDBRANCH  25  26
ENDBRANCH  24  25
ENDBRANCH   1  24
TORSDOF 17
ENDMDL
