MODEL 1
REMARK VINA RESULT:     -11.7      0.000      0.000
REMARK SMILES NS(=O)(=O)c1ccc(-n2nc(C(=O)NCCCCNC(=O)c3ccc(-c4c5nc(c(-c6ccccc6)c6ccc([nH]6)c(-c6ccccc6)c6nc(c(-c7ccccc7)c7ccc4[nH]7)C=C6)C=C5)cc3)cc2-c2ccc(Cl)s2)cc1
REMARK SMILES IDX 16 1 15 2 14 3 12 4 13 5 11 7 9 8 10 9 71 10 70 11 8 12 5 13
REMARK SMILES IDX 6 14 79 15 7 16 78 17 2 18 3 19 4 20 1 21 72 24 73 25 77 26
REMARK SMILES IDX 74 27 75 28 76 29 17 30 18 31 19 32 20 33 21 35 22 36 23 37
REMARK SMILES IDX 69 38 24 39 68 40 25 41 26 42 27 43 62 44 28 45 67 46 61 47
REMARK SMILES IDX 63 48 29 49 66 50 60 51 59 52 30 54 52 55 37 56 51 57 38 58
REMARK SMILES IDX 41 59 50 60 64 61 39 62 40 63 49 65 65 66 42 67 31 68 32 69
REMARK SMILES IDX 36 70 33 71 35 72 34 73 53 74 54 75 58 76 55 77 57 78 56 79
REMARK SMILES IDX 43 80 44 81 48 82 45 83 47 84 46 85
REMARK H PARENT 14 6 1 22 1 23 19 34 63 53 41 64
REMARK Flexibility Score: inf
ROOT
ATOM      1  C   UNL A   1      40.668  33.397  35.860  1.00  0.00     0.023 C 
ENDROOT
BRANCH   1   2
ATOM      2  C   UNL A   1      40.864  31.885  35.716  1.00  0.00     0.116 C 
BRANCH   2   3
ATOM      3  N   UNL A   1      39.829  31.124  36.384  1.00  0.00    -0.351 N 
ATOM      4  C   UNL A   1      38.511  30.848  36.084  1.00  0.00     0.271 C 
ATOM      5  O   UNL A   1      37.937  30.109  36.890  1.00  0.00    -0.267 OA
ATOM      6  H   UNL A   1      40.128  30.719  37.230  1.00  0.00     0.163 HD
BRANCH   4   7
ATOM      7  C   UNL A   1      37.838  31.366  34.869  1.00  0.00     0.151 A 
ATOM      8  N   UNL A   1      36.475  32.589  33.724  1.00  0.00    -0.231 N 
ATOM      9  N   UNL A   1      37.053  32.463  34.942  1.00  0.00    -0.162 NA
ATOM     10  C   UNL A   1      36.986  31.679  32.822  1.00  0.00     0.085 A 
ATOM     11  C   UNL A   1      37.884  30.914  33.530  1.00  0.00     0.066 A 
BRANCH   8  12
ATOM     12  C   UNL A   1      35.498  33.585  33.478  1.00  0.00     0.065 A 
ATOM     13  C   UNL A   1      33.650  35.493  32.665  1.00  0.00     0.082 A 
ATOM     14  C   UNL A   1      33.234  34.174  32.860  1.00  0.00     0.024 A 
ATOM     15  C   UNL A   1      34.973  35.873  32.923  1.00  0.00     0.024 A 
ATOM     16  C   UNL A   1      34.165  33.213  33.251  1.00  0.00     0.030 A 
ATOM     17  C   UNL A   1      35.895  34.921  33.367  1.00  0.00     0.030 A 
BRANCH  13  18
ATOM     18  S   UNL A   1      32.539  36.695  31.992  1.00  0.00     0.238 S 
ATOM     19  O   UNL A   1      31.411  36.826  32.876  1.00  0.00    -0.207 OA
ATOM     20  O   UNL A   1      32.404  36.447  30.572  1.00  0.00    -0.207 OA
BRANCH  18  21
ATOM     21  N   UNL A   1      33.372  38.152  32.126  1.00  0.00    -0.225 NA
ATOM     22  H   UNL A   1      34.262  37.993  32.597  1.00  0.00     0.137 HD
ATOM     23  H   UNL A   1      32.814  38.813  32.667  1.00  0.00     0.137 HD
ENDBRANCH  18  21
ENDBRANCH  13  18
ENDBRANCH   8  12
BRANCH  10  24
ATOM     24  C   UNL A   1      36.740  31.620  31.413  1.00  0.00     0.054 A 
ATOM     25  C   UNL A   1      36.653  32.692  30.546  1.00  0.00     0.024 A 
ATOM     26  S   UNL A   1      36.384  30.137  30.629  1.00  0.00    -0.122 S 
ATOM     27  C   UNL A   1      36.282  32.287  29.228  1.00  0.00     0.033 A 
ATOM     28  C   UNL A   1      36.100  30.930  29.163  1.00  0.00     0.094 A 
ATOM     29  Cl  UNL A   1      35.616  30.026  27.786  1.00  0.00    -0.072 Cl
ENDBRANCH  10  24
ENDBRANCH   4   7
ENDBRANCH   2   3
ENDBRANCH   1   2
BRANCH   1  30
ATOM     30  C   UNL A   1      40.390  34.153  34.548  1.00  0.00     0.023 C 
BRANCH  30  31
ATOM     31  C   UNL A   1      40.592  33.348  33.265  1.00  0.00     0.116 C 
BRANCH  31  32
ATOM     32  N   UNL A   1      39.984  33.962  32.078  1.00  0.00    -0.352 N 
ATOM     33  C   UNL A   1      40.280  33.739  30.740  1.00  0.00     0.251 C 
ATOM     34  H   UNL A   1      39.272  34.619  32.255  1.00  0.00     0.163 HD
ATOM     35  O   UNL A   1      40.020  34.575  29.885  1.00  0.00    -0.269 OA
BRANCH  33  36
ATOM     36  C   UNL A   1      40.879  32.448  30.359  1.00  0.00     0.039 A 
ATOM     37  C   UNL A   1      42.251  32.252  30.183  1.00  0.00     0.014 A 
ATOM     38  C   UNL A   1      39.992  31.391  30.211  1.00  0.00     0.014 A 
ATOM     39  C   UNL A   1      42.709  30.960  29.918  1.00  0.00     0.010 A 
ATOM     40  C   UNL A   1      40.457  30.112  30.224  1.00  0.00     0.010 A 
ATOM     41  C   UNL A   1      41.795  29.894  29.949  1.00  0.00    -0.014 A 
BRANCH  41  42
ATOM     42  C   UNL A   1      42.187  28.503  29.793  1.00  0.00     0.031 A 
ATOM     43  C   UNL A   1      42.856  27.937  30.986  1.00  0.00     0.074 A 
ATOM     44  C   UNL A   1      41.743  27.729  28.776  1.00  0.00     0.049 A 
ATOM     45  N   UNL A   1      44.107  27.651  31.111  1.00  0.00    -0.248 NA
ATOM     46  C   UNL A   1      42.088  27.830  32.238  1.00  0.00     0.031 C 
ATOM     47  C   UNL A   1      40.791  28.069  27.707  1.00  0.00     0.029 A 
ATOM     48  N   UNL A   1      41.967  26.409  28.551  1.00  0.00    -0.354 N 
ATOM     49  C   UNL A   1      44.241  27.105  32.381  1.00  0.00     0.074 A 
ATOM     50  C   UNL A   1      43.037  27.446  33.094  1.00  0.00     0.031 C 
ATOM     51  C   UNL A   1      40.349  26.937  27.111  1.00  0.00     0.029 A 
ATOM     52  C   UNL A   1      41.110  25.816  27.628  1.00  0.00     0.049 A 
ATOM     53  H   UNL A   1      42.682  25.908  29.006  1.00  0.00     0.167 HD
ATOM     54  C   UNL A   1      45.196  26.167  32.637  1.00  0.00     0.031 A 
ATOM     55  C   UNL A   1      41.029  24.493  27.331  1.00  0.00     0.031 A 
ATOM     56  C   UNL A   1      46.160  26.093  31.564  1.00  0.00     0.049 A 
ATOM     57  C   UNL A   1      42.294  23.872  27.785  1.00  0.00     0.074 A 
ATOM     58  C   UNL A   1      47.024  26.988  30.964  1.00  0.00     0.029 A 
ATOM     59  N   UNL A   1      46.006  25.060  30.668  1.00  0.00    -0.354 N 
ATOM     60  N   UNL A   1      43.449  24.129  27.242  1.00  0.00    -0.248 NA
ATOM     61  C   UNL A   1      42.342  23.341  29.138  1.00  0.00     0.031 C 
ATOM     62  C   UNL A   1      46.948  26.691  29.570  1.00  0.00     0.029 A 
ATOM     63  C   UNL A   1      46.119  25.580  29.405  1.00  0.00     0.049 A 
ATOM     64  H   UNL A   1      45.844  24.115  30.894  1.00  0.00     0.167 HD
ATOM     65  C   UNL A   1      44.320  24.240  28.316  1.00  0.00     0.074 A 
ATOM     66  C   UNL A   1      43.605  23.647  29.447  1.00  0.00     0.031 C 
ATOM     67  C   UNL A   1      45.409  25.065  28.254  1.00  0.00     0.031 A 
BRANCH  54  68
ATOM     68  C   UNL A   1      45.000  25.021  33.600  1.00  0.00    -0.014 A 
ATOM     69  C   UNL A   1      44.151  23.968  33.216  1.00  0.00     0.009 A 
ATOM     70  C   UNL A   1      45.371  25.069  34.957  1.00  0.00     0.009 A 
ATOM     71  C   UNL A   1      43.630  23.072  34.157  1.00  0.00     0.001 A 
ATOM     72  C   UNL A   1      44.887  24.152  35.892  1.00  0.00     0.001 A 
ATOM     73  C   UNL A   1      43.990  23.172  35.496  1.00  0.00     0.000 A 
ENDBRANCH  54  68
BRANCH  55  74
ATOM     74  C   UNL A   1      39.861  23.671  26.942  1.00  0.00    -0.014 A 
ATOM     75  C   UNL A   1      38.611  24.269  26.705  1.00  0.00     0.009 A 
ATOM     76  C   UNL A   1      40.044  22.348  26.502  1.00  0.00     0.009 A 
ATOM     77  C   UNL A   1      37.603  23.588  26.006  1.00  0.00     0.001 A 
ATOM     78  C   UNL A   1      39.038  21.668  25.804  1.00  0.00     0.001 A 
ATOM     79  C   UNL A   1      37.824  22.294  25.540  1.00  0.00     0.000 A 
ENDBRANCH  55  74
BRANCH  67  80
ATOM     80  C   UNL A   1      45.762  25.671  26.917  1.00  0.00    -0.014 A 
ATOM     81  C   UNL A   1      45.133  26.814  26.388  1.00  0.00     0.009 A 
ATOM     82  C   UNL A   1      46.869  25.151  26.232  1.00  0.00     0.009 A 
ATOM     83  C   UNL A   1      45.583  27.396  25.197  1.00  0.00     0.001 A 
ATOM     84  C   UNL A   1      47.331  25.744  25.056  1.00  0.00     0.001 A 
ATOM     85  C   UNL A   1      46.685  26.861  24.534  1.00  0.00     0.000 A 
ENDBRANCH  67  80
ENDBRANCH  41  42
ENDBRANCH  33  36
ENDBRANCH  31  32
ENDBRANCH  30  31
ENDBRANCH   1  30
TORSDOF 15
ENDMDL
MODEL 2
REMARK VINA RESULT:     -11.4      5.856      9.938
REMARK SMILES NS(=O)(=O)c1ccc(-n2nc(C(=O)NCCCCNC(=O)c3ccc(-c4c5nc(c(-c6ccccc6)c6ccc([nH]6)c(-c6ccccc6)c6nc(c(-c7ccccc7)c7ccc4[nH]7)C=C6)C=C5)cc3)cc2-c2ccc(Cl)s2)cc1
REMARK SMILES IDX 16 1 15 2 14 3 12 4 13 5 11 7 9 8 10 9 71 10 70 11 8 12 5 13
REMARK SMILES IDX 6 14 79 15 7 16 78 17 2 18 3 19 4 20 1 21 72 24 73 25 77 26
REMARK SMILES IDX 74 27 75 28 76 29 17 30 18 31 19 32 20 33 21 35 22 36 23 37
REMARK SMILES IDX 69 38 24 39 68 40 25 41 26 42 27 43 62 44 28 45 67 46 61 47
REMARK SMILES IDX 63 48 29 49 66 50 60 51 59 52 30 54 52 55 37 56 51 57 38 58
REMARK SMILES IDX 41 59 50 60 64 61 39 62 40 63 49 65 65 66 42 67 31 68 32 69
REMARK SMILES IDX 36 70 33 71 35 72 34 73 53 74 54 75 58 76 55 77 57 78 56 79
REMARK SMILES IDX 43 80 44 81 48 82 45 83 47 84 46 85
REMARK H PARENT 14 6 1 22 1 23 19 34 63 53 41 64
REMARK Flexibility Score: inf
ROOT
ATOM      1  C   UNL A   1      31.458  28.459  26.717  1.00  0.00     0.023 C 
ENDROOT
BRANCH   1   2
ATOM      2  C   UNL A   1      31.431  26.944  26.498  1.00  0.00     0.116 C 
BRANCH   2   3
ATOM      3  N   UNL A   1      30.558  26.555  25.410  1.00  0.00    -0.351 N 
ATOM      4  C   UNL A   1      30.584  25.522  24.496  1.00  0.00     0.271 C 
ATOM      5  O   UNL A   1      29.620  25.486  23.724  1.00  0.00    -0.267 OA
ATOM      6  H   UNL A   1      29.784  27.153  25.299  1.00  0.00     0.163 HD
BRANCH   4   7
ATOM      7  C   UNL A   1      31.663  24.507  24.460  1.00  0.00     0.151 A 
ATOM      8  N   UNL A   1      32.528  22.528  24.495  1.00  0.00    -0.231 N 
ATOM      9  N   UNL A   1      31.359  23.195  24.349  1.00  0.00    -0.162 NA
ATOM     10  C   UNL A   1      33.603  23.392  24.552  1.00  0.00     0.085 A 
ATOM     11  C   UNL A   1      33.069  24.658  24.495  1.00  0.00     0.066 A 
BRANCH   8  12
ATOM     12  C   UNL A   1      32.562  21.113  24.539  1.00  0.00     0.065 A 
ATOM     13  C   UNL A   1      32.961  18.363  24.562  1.00  0.00     0.082 A 
ATOM     14  C   UNL A   1      33.030  19.077  25.761  1.00  0.00     0.024 A 
ATOM     15  C   UNL A   1      32.643  19.010  23.360  1.00  0.00     0.024 A 
ATOM     16  C   UNL A   1      32.847  20.459  25.746  1.00  0.00     0.030 A 
ATOM     17  C   UNL A   1      32.406  20.387  23.353  1.00  0.00     0.030 A 
BRANCH  13  18
ATOM     18  S   UNL A   1      33.371  16.643  24.517  1.00  0.00     0.238 S 
ATOM     19  O   UNL A   1      33.713  16.286  23.164  1.00  0.00    -0.207 OA
ATOM     20  O   UNL A   1      32.392  15.919  25.301  1.00  0.00    -0.207 OA
BRANCH  18  21
ATOM     21  N   UNL A   1      34.815  16.537  25.376  1.00  0.00    -0.225 NA
ATOM     22  H   UNL A   1      35.154  17.476  25.588  1.00  0.00     0.137 HD
ATOM     23  H   UNL A   1      35.509  16.044  24.814  1.00  0.00     0.137 HD
ENDBRANCH  18  21
ENDBRANCH  13  18
ENDBRANCH   8  12
BRANCH  10  24
ATOM     24  C   UNL A   1      34.993  23.050  24.539  1.00  0.00     0.054 A 
ATOM     25  C   UNL A   1      35.724  22.610  23.453  1.00  0.00     0.024 A 
ATOM     26  S   UNL A   1      35.923  23.035  25.980  1.00  0.00    -0.122 S 
ATOM     27  C   UNL A   1      37.057  22.248  23.814  1.00  0.00     0.033 A 
ATOM     28  C   UNL A   1      37.269  22.428  25.157  1.00  0.00     0.094 A 
ATOM     29  Cl  UNL A   1      38.712  22.085  26.021  1.00  0.00    -0.072 Cl
ENDBRANCH  10  24
ENDBRANCH   4   7
ENDBRANCH   2   3
ENDBRANCH   1   2
BRANCH   1  30
ATOM     30  C   UNL A   1      32.820  29.136  26.472  1.00  0.00     0.023 C 
BRANCH  30  31
ATOM     31  C   UNL A   1      33.392  29.916  27.655  1.00  0.00     0.116 C 
BRANCH  31  32
ATOM     32  N   UNL A   1      33.867  31.261  27.305  1.00  0.00    -0.352 N 
ATOM     33  C   UNL A   1      35.030  31.901  27.711  1.00  0.00     0.251 C 
ATOM     34  H   UNL A   1      33.282  31.777  26.704  1.00  0.00     0.163 HD
ATOM     35  O   UNL A   1      35.118  33.122  27.703  1.00  0.00    -0.269 OA
BRANCH  33  36
ATOM     36  C   UNL A   1      36.182  31.076  28.115  1.00  0.00     0.039 A 
ATOM     37  C   UNL A   1      36.382  29.761  27.688  1.00  0.00     0.014 A 
ATOM     38  C   UNL A   1      37.110  31.697  28.939  1.00  0.00     0.014 A 
ATOM     39  C   UNL A   1      37.562  29.114  28.059  1.00  0.00     0.010 A 
ATOM     40  C   UNL A   1      38.358  31.171  29.069  1.00  0.00     0.010 A 
ATOM     41  C   UNL A   1      38.548  29.839  28.747  1.00  0.00    -0.014 A 
BRANCH  41  42
ATOM     42  C   UNL A   1      39.851  29.290  29.084  1.00  0.00     0.031 A 
ATOM     43  C   UNL A   1      40.083  29.159  30.540  1.00  0.00     0.074 A 
ATOM     44  C   UNL A   1      40.655  28.705  28.166  1.00  0.00     0.049 A 
ATOM     45  N   UNL A   1      40.867  29.879  31.267  1.00  0.00    -0.248 NA
ATOM     46  C   UNL A   1      39.230  28.237  31.306  1.00  0.00     0.031 C 
ATOM     47  C   UNL A   1      40.396  28.455  26.739  1.00  0.00     0.029 A 
ATOM     48  N   UNL A   1      41.852  28.090  28.351  1.00  0.00    -0.354 N 
ATOM     49  C   UNL A   1      40.784  29.346  32.548  1.00  0.00     0.074 A 
ATOM     50  C   UNL A   1      39.614  28.505  32.556  1.00  0.00     0.031 C 
ATOM     51  C   UNL A   1      41.283  27.549  26.265  1.00  0.00     0.029 A 
ATOM     52  C   UNL A   1      42.273  27.290  27.293  1.00  0.00     0.049 A 
ATOM     53  H   UNL A   1      42.382  28.202  29.173  1.00  0.00     0.167 HD
ATOM     54  C   UNL A   1      41.848  29.406  33.397  1.00  0.00     0.031 A 
ATOM     55  C   UNL A   1      43.351  26.465  27.281  1.00  0.00     0.031 A 
ATOM     56  C   UNL A   1      42.855  30.319  32.910  1.00  0.00     0.049 A 
ATOM     57  C   UNL A   1      44.247  26.909  28.373  1.00  0.00     0.074 A 
ATOM     58  C   UNL A   1      42.882  31.661  32.585  1.00  0.00     0.029 A 
ATOM     59  N   UNL A   1      43.944  29.759  32.283  1.00  0.00    -0.354 N 
ATOM     60  N   UNL A   1      44.869  28.052  28.361  1.00  0.00    -0.248 NA
ATOM     61  C   UNL A   1      44.072  26.302  29.682  1.00  0.00     0.031 C 
ATOM     62  C   UNL A   1      43.679  31.735  31.403  1.00  0.00     0.029 A 
ATOM     63  C   UNL A   1      44.168  30.457  31.125  1.00  0.00     0.049 A 
ATOM     64  H   UNL A   1      44.470  28.992  32.608  1.00  0.00     0.167 HD
ATOM     65  C   UNL A   1      44.749  28.525  29.660  1.00  0.00     0.074 A 
ATOM     66  C   UNL A   1      44.338  27.363  30.450  1.00  0.00     0.031 C 
ATOM     67  C   UNL A   1      44.703  29.867  29.918  1.00  0.00     0.031 A 
BRANCH  54  68
ATOM     68  C   UNL A   1      42.183  28.320  34.389  1.00  0.00    -0.014 A 
ATOM     69  C   UNL A   1      42.727  27.118  33.902  1.00  0.00     0.009 A 
ATOM     70  C   UNL A   1      41.725  28.311  35.721  1.00  0.00     0.009 A 
ATOM     71  C   UNL A   1      42.725  25.951  34.675  1.00  0.00     0.001 A 
ATOM     72  C   UNL A   1      41.760  27.159  36.510  1.00  0.00     0.001 A 
ATOM     73  C   UNL A   1      42.231  25.970  35.974  1.00  0.00     0.000 A 
ENDBRANCH  54  68
BRANCH  55  74
ATOM     74  C   UNL A   1      43.553  25.168  26.595  1.00  0.00    -0.014 A 
ATOM     75  C   UNL A   1      42.591  24.148  26.693  1.00  0.00     0.009 A 
ATOM     76  C   UNL A   1      44.536  25.043  25.597  1.00  0.00     0.009 A 
ATOM     77  C   UNL A   1      42.580  23.073  25.792  1.00  0.00     0.001 A 
ATOM     78  C   UNL A   1      44.525  23.970  24.697  1.00  0.00     0.001 A 
ATOM     79  C   UNL A   1      43.537  22.994  24.782  1.00  0.00     0.000 A 
ENDBRANCH  55  74
BRANCH  67  80
ATOM     80  C   UNL A   1      45.015  30.816  28.784  1.00  0.00    -0.014 A 
ATOM     81  C   UNL A   1      46.303  31.318  28.520  1.00  0.00     0.009 A 
ATOM     82  C   UNL A   1      43.995  31.099  27.866  1.00  0.00     0.009 A 
ATOM     83  C   UNL A   1      46.550  32.102  27.387  1.00  0.00     0.001 A 
ATOM     84  C   UNL A   1      44.245  31.863  26.725  1.00  0.00     0.001 A 
ATOM     85  C   UNL A   1      45.520  32.370  26.488  1.00  0.00     0.000 A 
ENDBRANCH  67  80
ENDBRANCH  41  42
ENDBRANCH  33  36
ENDBRANCH  31  32
ENDBRANCH  30  31
ENDBRANCH   1  30
TORSDOF 15
ENDMDL
MODEL 3
REMARK VINA RESULT:     -11.1      4.689     12.160
REMARK SMILES NS(=O)(=O)c1ccc(-n2nc(C(=O)NCCCCNC(=O)c3ccc(-c4c5nc(c(-c6ccccc6)c6ccc([nH]6)c(-c6ccccc6)c6nc(c(-c7ccccc7)c7ccc4[nH]7)C=C6)C=C5)cc3)cc2-c2ccc(Cl)s2)cc1
REMARK SMILES IDX 16 1 15 2 14 3 12 4 13 5 11 7 9 8 10 9 71 10 70 11 8 12 5 13
REMARK SMILES IDX 6 14 79 15 7 16 78 17 2 18 3 19 4 20 1 21 72 24 73 25 77 26
REMARK SMILES IDX 74 27 75 28 76 29 17 30 18 31 19 32 20 33 21 35 22 36 23 37
REMARK SMILES IDX 69 38 24 39 68 40 25 41 26 42 27 43 62 44 28 45 67 46 61 47
REMARK SMILES IDX 63 48 29 49 66 50 60 51 59 52 30 54 52 55 37 56 51 57 38 58
REMARK SMILES IDX 41 59 50 60 64 61 39 62 40 63 49 65 65 66 42 67 31 68 32 69
REMARK SMILES IDX 36 70 33 71 35 72 34 73 53 74 54 75 58 76 55 77 57 78 56 79
REMARK SMILES IDX 43 80 44 81 48 82 45 83 47 84 46 85
REMARK H PARENT 14 6 1 22 1 23 19 34 63 53 41 64
REMARK Flexibility Score: inf
ROOT
ATOM      1  C   UNL A   1      48.533  27.219  27.615  1.00  0.00     0.023 C 
ENDROOT
BRANCH   1   2
ATOM      2  C   UNL A   1      47.665  28.468  27.433  1.00  0.00     0.116 C 
BRANCH   2   3
ATOM      3  N   UNL A   1      47.418  28.774  26.040  1.00  0.00    -0.351 N 
ATOM      4  C   UNL A   1      46.606  28.214  25.075  1.00  0.00     0.271 C 
ATOM      5  O   UNL A   1      46.625  28.787  23.981  1.00  0.00    -0.267 OA
ATOM      6  H   UNL A   1      47.937  29.543  25.712  1.00  0.00     0.163 HD
BRANCH   4   7
ATOM      7  C   UNL A   1      45.744  27.036  25.335  1.00  0.00     0.151 A 
ATOM      8  N   UNL A   1      45.139  24.964  25.257  1.00  0.00    -0.231 N 
ATOM      9  N   UNL A   1      46.191  25.792  25.056  1.00  0.00    -0.162 NA
ATOM     10  C   UNL A   1      44.062  25.634  25.803  1.00  0.00     0.085 A 
ATOM     11  C   UNL A   1      44.447  26.951  25.892  1.00  0.00     0.066 A 
BRANCH   8  12
ATOM     12  C   UNL A   1      45.225  23.584  24.952  1.00  0.00     0.065 A 
ATOM     13  C   UNL A   1      45.092  20.845  24.504  1.00  0.00     0.082 A 
ATOM     14  C   UNL A   1      44.630  21.725  23.522  1.00  0.00     0.024 A 
ATOM     15  C   UNL A   1      45.666  21.328  25.687  1.00  0.00     0.024 A 
ATOM     16  C   UNL A   1      44.681  23.099  23.755  1.00  0.00     0.030 A 
ATOM     17  C   UNL A   1      45.767  22.706  25.898  1.00  0.00     0.030 A 
BRANCH  13  18
ATOM     18  S   UNL A   1      44.871  19.099  24.320  1.00  0.00     0.238 S 
ATOM     19  O   UNL A   1      43.496  18.776  24.601  1.00  0.00    -0.207 OA
ATOM     20  O   UNL A   1      45.985  18.428  24.956  1.00  0.00    -0.207 OA
BRANCH  18  21
ATOM     21  N   UNL A   1      45.055  18.828  22.669  1.00  0.00    -0.225 NA
ATOM     22  H   UNL A   1      44.995  19.716  22.170  1.00  0.00     0.137 HD
ATOM     23  H   UNL A   1      44.316  18.205  22.343  1.00  0.00     0.137 HD
ENDBRANCH  18  21
ENDBRANCH  13  18
ENDBRANCH   8  12
BRANCH  10  24
ATOM     24  C   UNL A   1      42.846  25.064  26.299  1.00  0.00     0.054 A 
ATOM     25  C   UNL A   1      42.724  23.924  27.070  1.00  0.00     0.024 A 
ATOM     26  S   UNL A   1      41.316  25.704  25.863  1.00  0.00    -0.122 S 
ATOM     27  C   UNL A   1      41.359  23.572  27.293  1.00  0.00     0.033 A 
ATOM     28  C   UNL A   1      40.514  24.459  26.678  1.00  0.00     0.094 A 
ATOM     29  Cl  UNL A   1      38.799  24.394  26.657  1.00  0.00    -0.072 Cl
ENDBRANCH  10  24
ENDBRANCH   4   7
ENDBRANCH   2   3
ENDBRANCH   1   2
BRANCH   1  30
ATOM     30  C   UNL A   1      47.869  26.063  28.386  1.00  0.00     0.023 C 
BRANCH  30  31
ATOM     31  C   UNL A   1      46.480  26.355  28.949  1.00  0.00     0.116 C 
BRANCH  31  32
ATOM     32  N   UNL A   1      45.763  25.159  29.410  1.00  0.00    -0.352 N 
ATOM     33  C   UNL A   1      44.715  25.073  30.317  1.00  0.00     0.251 C 
ATOM     34  H   UNL A   1      46.068  24.305  29.027  1.00  0.00     0.163 HD
ATOM     35  O   UNL A   1      44.483  24.036  30.923  1.00  0.00    -0.269 OA
BRANCH  33  36
ATOM     36  C   UNL A   1      43.851  26.252  30.505  1.00  0.00     0.039 A 
ATOM     37  C   UNL A   1      43.986  27.151  31.567  1.00  0.00     0.014 A 
ATOM     38  C   UNL A   1      42.888  26.457  29.528  1.00  0.00     0.014 A 
ATOM     39  C   UNL A   1      43.172  28.285  31.585  1.00  0.00     0.010 A 
ATOM     40  C   UNL A   1      42.299  27.678  29.405  1.00  0.00     0.010 A 
ATOM     41  C   UNL A   1      42.334  28.539  30.487  1.00  0.00    -0.014 A 
BRANCH  41  42
ATOM     42  C   UNL A   1      41.531  29.743  30.360  1.00  0.00     0.031 A 
ATOM     43  C   UNL A   1      42.316  30.947  30.006  1.00  0.00     0.074 A 
ATOM     44  C   UNL A   1      40.179  29.716  30.298  1.00  0.00     0.049 A 
ATOM     45  N   UNL A   1      42.600  31.941  30.777  1.00  0.00    -0.248 NA
ATOM     46  C   UNL A   1      43.003  30.980  28.705  1.00  0.00     0.031 C 
ATOM     47  C   UNL A   1      39.280  28.551  30.287  1.00  0.00     0.029 A 
ATOM     48  N   UNL A   1      39.315  30.745  30.107  1.00  0.00    -0.354 N 
ATOM     49  C   UNL A   1      43.306  32.839  29.986  1.00  0.00     0.074 A 
ATOM     50  C   UNL A   1      43.711  32.106  28.814  1.00  0.00     0.031 C 
ATOM     51  C   UNL A   1      38.050  28.925  29.865  1.00  0.00     0.029 A 
ATOM     52  C   UNL A   1      38.023  30.371  29.748  1.00  0.00     0.049 A 
ATOM     53  H   UNL A   1      39.581  31.687  30.215  1.00  0.00     0.167 HD
ATOM     54  C   UNL A   1      43.237  34.178  30.224  1.00  0.00     0.031 A 
ATOM     55  C   UNL A   1      37.016  31.198  29.366  1.00  0.00     0.031 A 
ATOM     56  C   UNL A   1      42.639  34.453  31.509  1.00  0.00     0.049 A 
ATOM     57  C   UNL A   1      37.368  32.555  29.845  1.00  0.00     0.074 A 
ATOM     58  C   UNL A   1      42.931  34.111  32.815  1.00  0.00     0.029 A 
ATOM     59  N   UNL A   1      41.314  34.827  31.506  1.00  0.00    -0.354 N 
ATOM     60  N   UNL A   1      37.421  32.872  31.106  1.00  0.00    -0.248 NA
ATOM     61  C   UNL A   1      38.121  33.416  28.949  1.00  0.00     0.031 C 
ATOM     62  C   UNL A   1      41.664  33.827  33.410  1.00  0.00     0.029 A 
ATOM     63  C   UNL A   1      40.669  34.098  32.470  1.00  0.00     0.049 A 
ATOM     64  H   UNL A   1      40.904  35.500  30.915  1.00  0.00     0.167 HD
ATOM     65  C   UNL A   1      38.558  33.659  31.218  1.00  0.00     0.074 A 
ATOM     66  C   UNL A   1      38.890  34.041  29.845  1.00  0.00     0.031 C 
ATOM     67  C   UNL A   1      39.288  33.678  32.374  1.00  0.00     0.031 A 
BRANCH  54  68
ATOM     68  C   UNL A   1      43.270  35.220  29.133  1.00  0.00    -0.014 A 
ATOM     69  C   UNL A   1      43.854  36.467  29.421  1.00  0.00     0.009 A 
ATOM     70  C   UNL A   1      42.507  35.139  27.952  1.00  0.00     0.009 A 
ATOM     71  C   UNL A   1      43.608  37.590  28.621  1.00  0.00     0.001 A 
ATOM     72  C   UNL A   1      42.294  36.247  27.128  1.00  0.00     0.001 A 
ATOM     73  C   UNL A   1      42.819  37.480  27.481  1.00  0.00     0.000 A 
ENDBRANCH  54  68
BRANCH  55  74
ATOM     74  C   UNL A   1      35.918  30.982  28.397  1.00  0.00    -0.014 A 
ATOM     75  C   UNL A   1      35.779  29.751  27.733  1.00  0.00     0.009 A 
ATOM     76  C   UNL A   1      34.828  31.870  28.356  1.00  0.00     0.009 A 
ATOM     77  C   UNL A   1      34.578  29.400  27.099  1.00  0.00     0.001 A 
ATOM     78  C   UNL A   1      33.628  31.520  27.724  1.00  0.00     0.001 A 
ATOM     79  C   UNL A   1      33.496  30.278  27.111  1.00  0.00     0.000 A 
ENDBRANCH  55  74
BRANCH  67  80
ATOM     80  C   UNL A   1      38.702  33.004  33.592  1.00  0.00    -0.014 A 
ATOM     81  C   UNL A   1      38.800  31.622  33.841  1.00  0.00     0.009 A 
ATOM     82  C   UNL A   1      38.155  33.817  34.593  1.00  0.00     0.009 A 
ATOM     83  C   UNL A   1      38.338  31.073  35.043  1.00  0.00     0.001 A 
ATOM     84  C   UNL A   1      37.713  33.273  35.801  1.00  0.00     0.001 A 
ATOM     85  C   UNL A   1      37.798  31.902  36.024  1.00  0.00     0.000 A 
ENDBRANCH  67  80
ENDBRANCH  41  42
ENDBRANCH  33  36
ENDBRANCH  31  32
ENDBRANCH  30  31
ENDBRANCH   1  30
TORSDOF 15
ENDMDL
