MODEL 1
REMARK VINA RESULT:     -11.1      0.000      0.000
REMARK SMILES COC(=O)C1=C(C)NC(C)=C(C(=O)OC)C1c1ccc(C(=O)NCCCCNC(=O)c2ccc(-c3c4nc(c(-c5ccccc5)c5ccc([nH]5)c(-c5ccccc5)c5nc(c(-c6ccccc6)c6ccc3[nH]6)C=C5)C=C4)cc2)cc1
REMARK SMILES IDX 25 1 24 2 23 3 21 4 22 5 20 7 17 8 18 9 80 10 19 11 79 12
REMARK SMILES IDX 16 13 5 14 6 15 7 16 8 17 11 18 9 19 10 21 3 22 4 23 2 24
REMARK SMILES IDX 1 25 12 26 13 27 14 28 15 29 26 30 27 31 28 32 29 33 30 35
REMARK SMILES IDX 31 36 32 37 78 38 33 39 77 40 34 41 35 42 36 43 71 44 37 45
REMARK SMILES IDX 76 46 70 47 72 48 38 49 75 50 69 51 68 52 39 54 61 55 46 56
REMARK SMILES IDX 60 57 47 58 50 59 59 60 73 61 48 62 49 63 58 65 74 66 51 67
REMARK SMILES IDX 40 68 41 69 45 70 42 71 44 72 43 73 62 74 63 75 67 76 64 77
REMARK SMILES IDX 66 78 65 79 52 80 53 81 57 82 54 83 56 84 55 85
REMARK H PARENT 23 6 8 20 28 34 72 53 50 64
REMARK Flexibility Score: inf
ROOT
ATOM      1  C   UNL A   1      31.787  29.235  25.573  1.00  0.00     0.023 C 
ENDROOT
BRANCH   1   2
ATOM      2  C   UNL A   1      31.566  28.118  24.552  1.00  0.00     0.116 C 
BRANCH   2   3
ATOM      3  N   UNL A   1      32.412  28.300  23.386  1.00  0.00    -0.352 N 
ATOM      4  C   UNL A   1      33.372  27.472  22.861  1.00  0.00     0.251 C 
ATOM      5  O   UNL A   1      33.918  27.771  21.802  1.00  0.00    -0.269 OA
ATOM      6  H   UNL A   1      32.277  29.146  22.900  1.00  0.00     0.163 HD
BRANCH   4   7
ATOM      7  C   UNL A   1      33.720  26.198  23.527  1.00  0.00     0.039 A 
ATOM      8  C   UNL A   1      34.306  23.726  24.724  1.00  0.00    -0.035 A 
ATOM      9  C   UNL A   1      33.987  23.795  23.359  1.00  0.00     0.005 A 
ATOM     10  C   UNL A   1      34.349  24.916  25.474  1.00  0.00     0.005 A 
ATOM     11  C   UNL A   1      33.713  25.028  22.762  1.00  0.00     0.014 A 
ATOM     12  C   UNL A   1      34.077  26.144  24.876  1.00  0.00     0.014 A 
BRANCH   8  13
ATOM     13  C   UNL A   1      34.606  22.402  25.427  1.00  0.00     0.098 C 
ATOM     14  C   UNL A   1      33.433  21.426  25.389  1.00  0.00     0.068 C 
ATOM     15  C   UNL A   1      33.636  20.091  25.323  1.00  0.00     0.023 C 
ATOM     16  C   UNL A   1      32.550  19.045  25.318  1.00  0.00     0.065 C 
ATOM     17  N   UNL A   1      34.930  19.608  25.214  1.00  0.00    -0.362 N 
ATOM     18  C   UNL A   1      35.934  21.747  25.024  1.00  0.00     0.068 C 
ATOM     19  C   UNL A   1      36.044  20.397  24.969  1.00  0.00     0.023 C 
ATOM     20  H   UNL A   1      35.068  18.638  25.317  1.00  0.00     0.166 HD
ATOM     21  C   UNL A   1      37.305  19.634  24.645  1.00  0.00     0.065 C 
BRANCH  14  22
ATOM     22  C   UNL A   1      32.057  21.956  25.391  1.00  0.00     0.336 C 
ATOM     23  O   UNL A   1      31.340  21.998  24.404  1.00  0.00    -0.246 OA
BRANCH  22  24
ATOM     24  O   UNL A   1      31.705  22.318  26.651  1.00  0.00    -0.466 OA
ATOM     25  C   UNL A   1      30.904  23.502  26.709  1.00  0.00     0.282 C 
ENDBRANCH  22  24
ENDBRANCH  14  22
BRANCH  18  26
ATOM     26  C   UNL A   1      37.067  22.615  24.621  1.00  0.00     0.336 C 
ATOM     27  O   UNL A   1      37.155  23.158  23.530  1.00  0.00    -0.246 OA
BRANCH  26  28
ATOM     28  O   UNL A   1      37.930  22.776  25.655  1.00  0.00    -0.466 OA
ATOM     29  C   UNL A   1      37.855  24.059  26.281  1.00  0.00     0.282 C 
ENDBRANCH  26  28
ENDBRANCH  18  26
ENDBRANCH   8  13
ENDBRANCH   4   7
ENDBRANCH   2   3
ENDBRANCH   1   2
BRANCH   1  30
ATOM     30  C   UNL A   1      33.247  29.672  25.728  1.00  0.00     0.023 C 
BRANCH  30  31
ATOM     31  C   UNL A   1      33.821  29.509  27.129  1.00  0.00     0.116 C 
BRANCH  31  32
ATOM     32  N   UNL A   1      33.744  30.724  27.926  1.00  0.00    -0.352 N 
ATOM     33  C   UNL A   1      34.683  31.243  28.784  1.00  0.00     0.251 C 
ATOM     34  H   UNL A   1      32.909  31.240  27.839  1.00  0.00     0.163 HD
ATOM     35  O   UNL A   1      34.423  32.226  29.471  1.00  0.00    -0.269 OA
BRANCH  33  36
ATOM     36  C   UNL A   1      35.996  30.580  28.902  1.00  0.00     0.039 A 
ATOM     37  C   UNL A   1      36.874  30.630  27.816  1.00  0.00     0.014 A 
ATOM     38  C   UNL A   1      36.371  29.946  30.090  1.00  0.00     0.014 A 
ATOM     39  C   UNL A   1      38.160  30.101  27.946  1.00  0.00     0.010 A 
ATOM     40  C   UNL A   1      37.672  29.476  30.237  1.00  0.00     0.010 A 
ATOM     41  C   UNL A   1      38.579  29.551  29.169  1.00  0.00    -0.014 A 
BRANCH  41  42
ATOM     42  C   UNL A   1      39.967  29.063  29.354  1.00  0.00     0.031 A 
ATOM     43  C   UNL A   1      41.021  29.979  29.911  1.00  0.00     0.074 A 
ATOM     44  C   UNL A   1      40.295  27.822  28.948  1.00  0.00     0.049 A 
ATOM     45  N   UNL A   1      42.298  29.755  30.086  1.00  0.00    -0.248 NA
ATOM     46  C   UNL A   1      40.588  31.332  30.300  1.00  0.00     0.031 C 
ATOM     47  C   UNL A   1      39.376  26.856  28.342  1.00  0.00     0.029 A 
ATOM     48  N   UNL A   1      41.498  27.164  28.973  1.00  0.00    -0.354 N 
ATOM     49  C   UNL A   1      42.824  30.942  30.577  1.00  0.00     0.074 A 
ATOM     50  C   UNL A   1      41.739  31.895  30.640  1.00  0.00     0.031 C 
ATOM     51  C   UNL A   1      40.046  25.725  28.067  1.00  0.00     0.029 A 
ATOM     52  C   UNL A   1      41.444  25.895  28.448  1.00  0.00     0.049 A 
ATOM     53  H   UNL A   1      42.324  27.563  29.333  1.00  0.00     0.167 HD
ATOM     54  C   UNL A   1      44.096  31.210  30.959  1.00  0.00     0.031 A 
ATOM     55  C   UNL A   1      42.412  24.976  28.285  1.00  0.00     0.031 A 
ATOM     56  C   UNL A   1      45.171  30.255  30.921  1.00  0.00     0.049 A 
ATOM     57  C   UNL A   1      43.811  25.292  28.736  1.00  0.00     0.074 A 
ATOM     58  C   UNL A   1      46.475  30.410  31.358  1.00  0.00     0.029 A 
ATOM     59  N   UNL A   1      45.066  28.970  30.416  1.00  0.00    -0.354 N 
ATOM     60  N   UNL A   1      44.274  26.391  29.279  1.00  0.00    -0.248 NA
ATOM     61  C   UNL A   1      44.817  24.234  28.564  1.00  0.00     0.031 C 
ATOM     62  C   UNL A   1      47.171  29.230  31.079  1.00  0.00     0.029 A 
ATOM     63  C   UNL A   1      46.288  28.326  30.511  1.00  0.00     0.049 A 
ATOM     64  H   UNL A   1      44.244  28.573  30.045  1.00  0.00     0.167 HD
ATOM     65  C   UNL A   1      45.616  26.149  29.537  1.00  0.00     0.074 A 
ATOM     66  C   UNL A   1      45.889  24.794  29.107  1.00  0.00     0.031 C 
ATOM     67  C   UNL A   1      46.541  26.976  30.082  1.00  0.00     0.031 A 
BRANCH  54  68
ATOM     68  C   UNL A   1      44.395  32.597  31.449  1.00  0.00    -0.014 A 
ATOM     69  C   UNL A   1      44.291  32.926  32.811  1.00  0.00     0.009 A 
ATOM     70  C   UNL A   1      44.834  33.577  30.546  1.00  0.00     0.009 A 
ATOM     71  C   UNL A   1      44.590  34.216  33.251  1.00  0.00     0.001 A 
ATOM     72  C   UNL A   1      45.159  34.859  30.993  1.00  0.00     0.001 A 
ATOM     73  C   UNL A   1      45.029  35.179  32.343  1.00  0.00     0.000 A 
ENDBRANCH  54  68
BRANCH  55  74
ATOM     74  C   UNL A   1      42.096  23.658  27.675  1.00  0.00    -0.014 A 
ATOM     75  C   UNL A   1      42.285  23.445  26.301  1.00  0.00     0.009 A 
ATOM     76  C   UNL A   1      41.593  22.611  28.462  1.00  0.00     0.009 A 
ATOM     77  C   UNL A   1      41.946  22.221  25.722  1.00  0.00     0.001 A 
ATOM     78  C   UNL A   1      41.281  21.378  27.886  1.00  0.00     0.001 A 
ATOM     79  C   UNL A   1      41.448  21.187  26.514  1.00  0.00     0.000 A 
ENDBRANCH  55  74
BRANCH  67  80
ATOM     80  C   UNL A   1      47.924  26.427  30.274  1.00  0.00    -0.014 A 
ATOM     81  C   UNL A   1      48.296  25.798  31.473  1.00  0.00     0.009 A 
ATOM     82  C   UNL A   1      48.853  26.501  29.224  1.00  0.00     0.009 A 
ATOM     83  C   UNL A   1      49.583  25.281  31.626  1.00  0.00     0.001 A 
ATOM     84  C   UNL A   1      50.130  25.959  29.372  1.00  0.00     0.001 A 
ATOM     85  C   UNL A   1      50.497  25.358  30.574  1.00  0.00     0.000 A 
ENDBRANCH  67  80
ENDBRANCH  41  42
ENDBRANCH  33  36
ENDBRANCH  31  32
ENDBRANCH  30  31
ENDBRANCH   1  30
TORSDOF 16
ENDMDL
MODEL 2
REMARK VINA RESULT:     -11.0      2.957      6.227
REMARK SMILES COC(=O)C1=C(C)NC(C)=C(C(=O)OC)C1c1ccc(C(=O)NCCCCNC(=O)c2ccc(-c3c4nc(c(-c5ccccc5)c5ccc([nH]5)c(-c5ccccc5)c5nc(c(-c6ccccc6)c6ccc3[nH]6)C=C5)C=C4)cc2)cc1
REMARK SMILES IDX 25 1 24 2 23 3 21 4 22 5 20 7 17 8 18 9 80 10 19 11 79 12
REMARK SMILES IDX 16 13 5 14 6 15 7 16 8 17 11 18 9 19 10 21 3 22 4 23 2 24
REMARK SMILES IDX 1 25 12 26 13 27 14 28 15 29 26 30 27 31 28 32 29 33 30 35
REMARK SMILES IDX 31 36 32 37 78 38 33 39 77 40 34 41 35 42 36 43 71 44 37 45
REMARK SMILES IDX 76 46 70 47 72 48 38 49 75 50 69 51 68 52 39 54 61 55 46 56
REMARK SMILES IDX 60 57 47 58 50 59 59 60 73 61 48 62 49 63 58 65 74 66 51 67
REMARK SMILES IDX 40 68 41 69 45 70 42 71 44 72 43 73 62 74 63 75 67 76 64 77
REMARK SMILES IDX 66 78 65 79 52 80 53 81 57 82 54 83 56 84 55 85
REMARK H PARENT 23 6 8 20 28 34 72 53 50 64
REMARK Flexibility Score: inf
ROOT
ATOM      1  C   UNL A   1      30.928  28.619  24.648  1.00  0.00     0.023 C 
ENDROOT
BRANCH   1   2
ATOM      2  C   UNL A   1      30.961  28.047  23.230  1.00  0.00     0.116 C 
BRANCH   2   3
ATOM      3  N   UNL A   1      32.156  28.469  22.523  1.00  0.00    -0.352 N 
ATOM      4  C   UNL A   1      33.387  27.864  22.441  1.00  0.00     0.251 C 
ATOM      5  O   UNL A   1      34.248  28.340  21.707  1.00  0.00    -0.269 OA
ATOM      6  H   UNL A   1      32.073  29.316  22.030  1.00  0.00     0.163 HD
BRANCH   4   7
ATOM      7  C   UNL A   1      33.669  26.617  23.184  1.00  0.00     0.039 A 
ATOM      8  C   UNL A   1      34.136  24.192  24.523  1.00  0.00    -0.035 A 
ATOM      9  C   UNL A   1      33.954  24.211  23.131  1.00  0.00     0.005 A 
ATOM     10  C   UNL A   1      34.104  25.409  25.229  1.00  0.00     0.005 A 
ATOM     11  C   UNL A   1      33.738  25.420  22.465  1.00  0.00     0.014 A 
ATOM     12  C   UNL A   1      33.891  26.613  24.562  1.00  0.00     0.014 A 
BRANCH   8  13
ATOM     13  C   UNL A   1      34.368  22.896  25.300  1.00  0.00     0.098 C 
ATOM     14  C   UNL A   1      33.216  21.903  25.160  1.00  0.00     0.068 C 
ATOM     15  C   UNL A   1      33.440  20.570  25.163  1.00  0.00     0.023 C 
ATOM     16  C   UNL A   1      32.373  19.509  25.068  1.00  0.00     0.065 C 
ATOM     17  N   UNL A   1      34.743  20.102  25.219  1.00  0.00    -0.362 N 
ATOM     18  C   UNL A   1      35.740  22.247  25.074  1.00  0.00     0.068 C 
ATOM     19  C   UNL A   1      35.869  20.899  25.077  1.00  0.00     0.023 C 
ATOM     20  H   UNL A   1      34.878  19.138  25.370  1.00  0.00     0.166 HD
ATOM     21  C   UNL A   1      37.167  20.143  24.926  1.00  0.00     0.065 C 
BRANCH  14  22
ATOM     22  C   UNL A   1      31.844  22.414  24.986  1.00  0.00     0.336 C 
ATOM     23  O   UNL A   1      31.266  22.467  23.912  1.00  0.00    -0.246 OA
BRANCH  22  24
ATOM     24  O   UNL A   1      31.320  22.743  26.194  1.00  0.00    -0.466 OA
ATOM     25  C   UNL A   1      30.727  24.044  26.230  1.00  0.00     0.282 C 
ENDBRANCH  22  24
ENDBRANCH  14  22
BRANCH  18  26
ATOM     26  C   UNL A   1      36.902  23.118  24.775  1.00  0.00     0.336 C 
ATOM     27  O   UNL A   1      37.340  23.308  23.649  1.00  0.00    -0.246 OA
BRANCH  26  28
ATOM     28  O   UNL A   1      37.344  23.721  25.906  1.00  0.00    -0.466 OA
ATOM     29  C   UNL A   1      38.633  23.276  26.337  1.00  0.00     0.282 C 
ENDBRANCH  26  28
ENDBRANCH  18  26
ENDBRANCH   8  13
ENDBRANCH   4   7
ENDBRANCH   2   3
ENDBRANCH   1   2
BRANCH   1  30
ATOM     30  C   UNL A   1      31.946  29.734  24.905  1.00  0.00     0.023 C 
BRANCH  30  31
ATOM     31  C   UNL A   1      32.079  30.160  26.362  1.00  0.00     0.116 C 
BRANCH  31  32
ATOM     32  N   UNL A   1      31.819  31.576  26.571  1.00  0.00    -0.352 N 
ATOM     33  C   UNL A   1      32.582  32.493  27.251  1.00  0.00     0.251 C 
ATOM     34  H   UNL A   1      30.986  31.922  26.173  1.00  0.00     0.163 HD
ATOM     35  O   UNL A   1      32.171  33.634  27.434  1.00  0.00    -0.269 OA
BRANCH  33  36
ATOM     36  C   UNL A   1      33.889  32.078  27.798  1.00  0.00     0.039 A 
ATOM     37  C   UNL A   1      34.868  33.052  28.013  1.00  0.00     0.014 A 
ATOM     38  C   UNL A   1      34.132  30.742  28.130  1.00  0.00     0.014 A 
ATOM     39  C   UNL A   1      36.070  32.696  28.627  1.00  0.00     0.010 A 
ATOM     40  C   UNL A   1      35.304  30.402  28.798  1.00  0.00     0.010 A 
ATOM     41  C   UNL A   1      36.282  31.375  29.055  1.00  0.00    -0.014 A 
BRANCH  41  42
ATOM     42  C   UNL A   1      37.514  30.995  29.787  1.00  0.00     0.031 A 
ATOM     43  C   UNL A   1      38.553  30.137  29.120  1.00  0.00     0.074 A 
ATOM     44  C   UNL A   1      37.662  31.359  31.075  1.00  0.00     0.049 A 
ATOM     45  N   UNL A   1      39.662  29.650  29.617  1.00  0.00    -0.248 NA
ATOM     46  C   UNL A   1      38.301  29.754  27.721  1.00  0.00     0.031 C 
ATOM     47  C   UNL A   1      36.701  32.146  31.851  1.00  0.00     0.029 A 
ATOM     48  N   UNL A   1      38.674  31.102  31.964  1.00  0.00    -0.354 N 
ATOM     49  C   UNL A   1      40.224  28.886  28.604  1.00  0.00     0.074 A 
ATOM     50  C   UNL A   1      39.319  28.941  27.477  1.00  0.00     0.031 C 
ATOM     51  C   UNL A   1      37.177  32.319  33.094  1.00  0.00     0.029 A 
ATOM     52  C   UNL A   1      38.459  31.632  33.213  1.00  0.00     0.049 A 
ATOM     53  H   UNL A   1      39.479  30.585  31.731  1.00  0.00     0.167 HD
ATOM     54  C   UNL A   1      41.397  28.210  28.605  1.00  0.00     0.031 A 
ATOM     55  C   UNL A   1      39.206  31.567  34.330  1.00  0.00     0.031 A 
ATOM     56  C   UNL A   1      42.309  28.175  29.716  1.00  0.00     0.049 A 
ATOM     57  C   UNL A   1      40.515  30.829  34.298  1.00  0.00     0.074 A 
ATOM     58  C   UNL A   1      43.558  27.581  29.785  1.00  0.00     0.029 A 
ATOM     59  N   UNL A   1      42.071  28.755  30.950  1.00  0.00    -0.354 N 
ATOM     60  N   UNL A   1      41.073  30.182  33.304  1.00  0.00    -0.248 NA
ATOM     61  C   UNL A   1      41.303  30.823  35.538  1.00  0.00     0.031 C 
ATOM     62  C   UNL A   1      44.058  27.768  31.078  1.00  0.00     0.029 A 
ATOM     63  C   UNL A   1      43.141  28.517  31.797  1.00  0.00     0.049 A 
ATOM     64  H   UNL A   1      41.262  29.263  31.190  1.00  0.00     0.167 HD
ATOM     65  C   UNL A   1      42.286  29.715  33.791  1.00  0.00     0.074 A 
ATOM     66  C   UNL A   1      42.391  30.167  35.162  1.00  0.00     0.031 C 
ATOM     67  C   UNL A   1      43.230  28.977  33.157  1.00  0.00     0.031 A 
BRANCH  54  68
ATOM     68  C   UNL A   1      41.761  27.448  27.363  1.00  0.00    -0.014 A 
ATOM     69  C   UNL A   1      41.390  26.103  27.200  1.00  0.00     0.009 A 
ATOM     70  C   UNL A   1      42.441  28.096  26.321  1.00  0.00     0.009 A 
ATOM     71  C   UNL A   1      41.721  25.416  26.031  1.00  0.00     0.001 A 
ATOM     72  C   UNL A   1      42.747  27.415  25.142  1.00  0.00     0.001 A 
ATOM     73  C   UNL A   1      42.394  26.073  25.001  1.00  0.00     0.000 A 
ENDBRANCH  54  68
BRANCH  55  74
ATOM     74  C   UNL A   1      38.745  32.231  35.577  1.00  0.00    -0.014 A 
ATOM     75  C   UNL A   1      38.092  31.492  36.577  1.00  0.00     0.009 A 
ATOM     76  C   UNL A   1      38.944  33.606  35.769  1.00  0.00     0.009 A 
ATOM     77  C   UNL A   1      37.621  32.126  37.728  1.00  0.00     0.001 A 
ATOM     78  C   UNL A   1      38.496  34.231  36.934  1.00  0.00     0.001 A 
ATOM     79  C   UNL A   1      37.825  33.493  37.908  1.00  0.00     0.000 A 
ENDBRANCH  55  74
BRANCH  67  80
ATOM     80  C   UNL A   1      44.472  28.643  33.930  1.00  0.00    -0.014 A 
ATOM     81  C   UNL A   1      45.581  29.504  33.933  1.00  0.00     0.009 A 
ATOM     82  C   UNL A   1      44.515  27.470  34.701  1.00  0.00     0.009 A 
ATOM     83  C   UNL A   1      46.721  29.180  34.671  1.00  0.00     0.001 A 
ATOM     84  C   UNL A   1      45.647  27.164  35.458  1.00  0.00     0.001 A 
ATOM     85  C   UNL A   1      46.751  28.014  35.436  1.00  0.00     0.000 A 
ENDBRANCH  67  80
ENDBRANCH  41  42
ENDBRANCH  33  36
ENDBRANCH  31  32
ENDBRANCH  30  31
ENDBRANCH   1  30
TORSDOF 16
ENDMDL
MODEL 3
REMARK VINA RESULT:     -11.0      2.450      8.244
REMARK SMILES COC(=O)C1=C(C)NC(C)=C(C(=O)OC)C1c1ccc(C(=O)NCCCCNC(=O)c2ccc(-c3c4nc(c(-c5ccccc5)c5ccc([nH]5)c(-c5ccccc5)c5nc(c(-c6ccccc6)c6ccc3[nH]6)C=C5)C=C4)cc2)cc1
REMARK SMILES IDX 25 1 24 2 23 3 21 4 22 5 20 7 17 8 18 9 80 10 19 11 79 12
REMARK SMILES IDX 16 13 5 14 6 15 7 16 8 17 11 18 9 19 10 21 3 22 4 23 2 24
REMARK SMILES IDX 1 25 12 26 13 27 14 28 15 29 26 30 27 31 28 32 29 33 30 35
REMARK SMILES IDX 31 36 32 37 78 38 33 39 77 40 34 41 35 42 36 43 71 44 37 45
REMARK SMILES IDX 76 46 70 47 72 48 38 49 75 50 69 51 68 52 39 54 61 55 46 56
REMARK SMILES IDX 60 57 47 58 50 59 59 60 73 61 48 62 49 63 58 65 74 66 51 67
REMARK SMILES IDX 40 68 41 69 45 70 42 71 44 72 43 73 62 74 63 75 67 76 64 77
REMARK SMILES IDX 66 78 65 79 52 80 53 81 57 82 54 83 56 84 55 85
REMARK H PARENT 23 6 8 20 28 34 72 53 50 64
REMARK Flexibility Score: inf
ROOT
ATOM      1  C   UNL A   1      35.146  22.991  23.895  1.00  0.00     0.023 C 
ENDROOT
BRANCH   1   2
ATOM      2  C   UNL A   1      33.698  22.968  23.404  1.00  0.00     0.116 C 
BRANCH   2   3
ATOM      3  N   UNL A   1      33.620  23.287  21.990  1.00  0.00    -0.352 N 
ATOM      4  C   UNL A   1      33.107  24.399  21.368  1.00  0.00     0.251 C 
ATOM      5  O   UNL A   1      33.222  24.521  20.151  1.00  0.00    -0.269 OA
ATOM      6  H   UNL A   1      33.990  22.604  21.386  1.00  0.00     0.163 HD
BRANCH   4   7
ATOM      7  C   UNL A   1      32.464  25.476  22.152  1.00  0.00     0.039 A 
ATOM      8  C   UNL A   1      31.347  27.564  23.662  1.00  0.00    -0.035 A 
ATOM      9  C   UNL A   1      32.497  27.784  22.888  1.00  0.00     0.005 A 
ATOM     10  C   UNL A   1      30.752  26.289  23.648  1.00  0.00     0.005 A 
ATOM     11  C   UNL A   1      33.042  26.748  22.124  1.00  0.00     0.014 A 
ATOM     12  C   UNL A   1      31.296  25.259  22.885  1.00  0.00     0.014 A 
BRANCH   8  13
ATOM     13  C   UNL A   1      30.717  28.662  24.520  1.00  0.00     0.098 C 
ATOM     14  C   UNL A   1      31.701  29.285  25.507  1.00  0.00     0.068 C 
ATOM     15  C   UNL A   1      31.612  30.590  25.851  1.00  0.00     0.023 C 
ATOM     16  C   UNL A   1      32.508  31.291  26.841  1.00  0.00     0.065 C 
ATOM     17  N   UNL A   1      30.659  31.388  25.240  1.00  0.00    -0.362 N 
ATOM     18  C   UNL A   1      29.919  29.712  23.736  1.00  0.00     0.068 C 
ATOM     19  C   UNL A   1      29.898  31.003  24.145  1.00  0.00     0.023 C 
ATOM     20  H   UNL A   1      30.511  32.290  25.608  1.00  0.00     0.166 HD
ATOM     21  C   UNL A   1      29.108  32.114  23.499  1.00  0.00     0.065 C 
BRANCH  14  22
ATOM     22  C   UNL A   1      32.783  28.455  26.066  1.00  0.00     0.336 C 
ATOM     23  O   UNL A   1      33.972  28.675  25.893  1.00  0.00    -0.246 OA
BRANCH  22  24
ATOM     24  O   UNL A   1      32.256  27.470  26.836  1.00  0.00    -0.466 OA
ATOM     25  C   UNL A   1      32.763  26.167  26.534  1.00  0.00     0.282 C 
ENDBRANCH  22  24
ENDBRANCH  14  22
BRANCH  18  26
ATOM     26  C   UNL A   1      29.236  29.304  22.485  1.00  0.00     0.336 C 
ATOM     27  O   UNL A   1      29.578  29.673  21.370  1.00  0.00    -0.246 OA
BRANCH  26  28
ATOM     28  O   UNL A   1      28.248  28.414  22.753  1.00  0.00    -0.466 OA
ATOM     29  C   UNL A   1      27.012  29.018  23.144  1.00  0.00     0.282 C 
ENDBRANCH  26  28
ENDBRANCH  18  26
ENDBRANCH   8  13
ENDBRANCH   4   7
ENDBRANCH   2   3
ENDBRANCH   1   2
BRANCH   1  30
ATOM     30  C   UNL A   1      35.511  24.218  24.735  1.00  0.00     0.023 C 
BRANCH  30  31
ATOM     31  C   UNL A   1      36.282  23.915  26.014  1.00  0.00     0.116 C 
BRANCH  31  32
ATOM     32  N   UNL A   1      37.246  22.836  25.860  1.00  0.00    -0.352 N 
ATOM     33  C   UNL A   1      38.590  22.845  26.144  1.00  0.00     0.251 C 
ATOM     34  H   UNL A   1      36.887  21.989  25.505  1.00  0.00     0.163 HD
ATOM     35  O   UNL A   1      39.295  21.884  25.855  1.00  0.00    -0.269 OA
BRANCH  33  36
ATOM     36  C   UNL A   1      39.187  24.044  26.765  1.00  0.00     0.039 A 
ATOM     37  C   UNL A   1      39.936  24.911  25.965  1.00  0.00     0.014 A 
ATOM     38  C   UNL A   1      38.979  24.327  28.117  1.00  0.00     0.014 A 
ATOM     39  C   UNL A   1      40.420  26.103  26.509  1.00  0.00     0.010 A 
ATOM     40  C   UNL A   1      39.407  25.543  28.640  1.00  0.00     0.010 A 
ATOM     41  C   UNL A   1      40.128  26.443  27.841  1.00  0.00    -0.014 A 
BRANCH  41  42
ATOM     42  C   UNL A   1      40.558  27.742  28.411  1.00  0.00     0.031 A 
ATOM     43  C   UNL A   1      41.980  27.935  28.862  1.00  0.00     0.074 A 
ATOM     44  C   UNL A   1      39.652  28.721  28.594  1.00  0.00     0.049 A 
ATOM     45  N   UNL A   1      42.526  28.973  29.442  1.00  0.00    -0.248 NA
ATOM     46  C   UNL A   1      42.901  26.805  28.658  1.00  0.00     0.031 C 
ATOM     47  C   UNL A   1      38.231  28.638  28.249  1.00  0.00     0.029 A 
ATOM     48  N   UNL A   1      39.789  29.976  29.130  1.00  0.00    -0.354 N 
ATOM     49  C   UNL A   1      43.842  28.613  29.695  1.00  0.00     0.074 A 
ATOM     50  C   UNL A   1      44.006  27.250  29.240  1.00  0.00     0.031 C 
ATOM     51  C   UNL A   1      37.633  29.797  28.567  1.00  0.00     0.029 A 
ATOM     52  C   UNL A   1      38.617  30.692  29.166  1.00  0.00     0.049 A 
ATOM     53  H   UNL A   1      40.647  30.331  29.459  1.00  0.00     0.167 HD
ATOM     54  C   UNL A   1      44.833  29.356  30.242  1.00  0.00     0.031 A 
ATOM     55  C   UNL A   1      38.362  31.927  29.635  1.00  0.00     0.031 A 
ATOM     56  C   UNL A   1      44.679  30.720  30.672  1.00  0.00     0.049 A 
ATOM     57  C   UNL A   1      39.485  32.738  30.218  1.00  0.00     0.074 A 
ATOM     58  C   UNL A   1      45.644  31.580  31.167  1.00  0.00     0.029 A 
ATOM     59  N   UNL A   1      43.484  31.420  30.657  1.00  0.00    -0.354 N 
ATOM     60  N   UNL A   1      40.745  32.413  30.372  1.00  0.00    -0.248 NA
ATOM     61  C   UNL A   1      39.152  34.093  30.681  1.00  0.00     0.031 C 
ATOM     62  C   UNL A   1      45.022  32.790  31.492  1.00  0.00     0.029 A 
ATOM     63  C   UNL A   1      43.682  32.697  31.155  1.00  0.00     0.049 A 
ATOM     64  H   UNL A   1      42.623  31.063  30.340  1.00  0.00     0.167 HD
ATOM     65  C   UNL A   1      41.359  33.529  30.923  1.00  0.00     0.074 A 
ATOM     66  C   UNL A   1      40.338  34.545  31.062  1.00  0.00     0.031 C 
ATOM     67  C   UNL A   1      42.655  33.697  31.283  1.00  0.00     0.031 A 
BRANCH  54  68
ATOM     68  C   UNL A   1      46.177  28.706  30.411  1.00  0.00    -0.014 A 
ATOM     69  C   UNL A   1      47.148  28.772  29.399  1.00  0.00     0.009 A 
ATOM     70  C   UNL A   1      46.493  28.061  31.616  1.00  0.00     0.009 A 
ATOM     71  C   UNL A   1      48.398  28.176  29.581  1.00  0.00     0.001 A 
ATOM     72  C   UNL A   1      47.752  27.489  31.805  1.00  0.00     0.001 A 
ATOM     73  C   UNL A   1      48.701  27.541  30.785  1.00  0.00     0.000 A 
ENDBRANCH  54  68
BRANCH  55  74
ATOM     74  C   UNL A   1      36.987  32.484  29.564  1.00  0.00    -0.014 A 
ATOM     75  C   UNL A   1      36.045  32.185  30.561  1.00  0.00     0.009 A 
ATOM     76  C   UNL A   1      36.605  33.307  28.494  1.00  0.00     0.009 A 
ATOM     77  C   UNL A   1      34.740  32.674  30.470  1.00  0.00     0.001 A 
ATOM     78  C   UNL A   1      35.307  33.816  28.419  1.00  0.00     0.001 A 
ATOM     79  C   UNL A   1      34.373  33.491  29.402  1.00  0.00     0.000 A 
ENDBRANCH  55  74
BRANCH  67  80
ATOM     80  C   UNL A   1      43.047  35.039  31.829  1.00  0.00    -0.014 A 
ATOM     81  C   UNL A   1      43.568  36.039  30.993  1.00  0.00     0.009 A 
ATOM     82  C   UNL A   1      42.851  35.319  33.190  1.00  0.00     0.009 A 
ATOM     83  C   UNL A   1      43.913  37.285  31.519  1.00  0.00     0.001 A 
ATOM     84  C   UNL A   1      43.172  36.575  33.706  1.00  0.00     0.001 A 
ATOM     85  C   UNL A   1      43.710  37.554  32.873  1.00  0.00     0.000 A 
ENDBRANCH  67  80
ENDBRANCH  41  42
ENDBRANCH  33  36
ENDBRANCH  31  32
ENDBRANCH  30  31
ENDBRANCH   1  30
TORSDOF 16
ENDMDL
