MODEL 1
REMARK VINA RESULT:     -12.5      0.000      0.000
REMARK SMILES O=C(NCCCCNC(=O)c1nnn(-c2cccc(OC(F)(F)F)c2)c1-c1ccncc1)c1ccc(-c2c3nc(c(-c4ccccc4)c4ccc([nH]4)c(-c4ccccc4)c4nc(c(-c5ccccc5)c5ccc2[nH]5)C=C4)C=C3)cc1
REMARK SMILES IDX 6 1 5 2 4 3 3 4 1 5 2 6 33 8 34 9 80 10 35 11 79 12 36 13
REMARK SMILES IDX 37 14 38 15 73 16 39 17 78 18 72 19 74 20 40 21 77 22 71 23
REMARK SMILES IDX 70 24 41 26 63 27 48 28 62 29 49 30 52 31 61 32 75 33 50 34
REMARK SMILES IDX 51 35 60 37 76 38 53 39 42 40 43 41 47 42 44 43 46 44 45 45
REMARK SMILES IDX 64 46 65 47 69 48 66 49 68 50 67 51 54 52 55 53 59 54 56 55
REMARK SMILES IDX 58 56 57 57 7 58 8 59 9 60 10 62 11 63 12 64 26 65 13 66
REMARK SMILES IDX 14 67 27 68 28 69 32 70 29 71 31 72 30 73 15 74 16 75 25 76
REMARK SMILES IDX 17 77 19 78 18 79 20 80 21 81 22 82 23 83 24 84
REMARK H PARENT 3 7 74 25 52 36 8 61
REMARK Flexibility Score: inf
ROOT
ATOM      1  C   UNL A   1      35.505  22.869  24.344  1.00  0.00     0.023 C 
ENDROOT
BRANCH   1   2
ATOM      2  C   UNL A   1      37.024  22.904  24.491  1.00  0.00     0.023 C 
BRANCH   2   3
ATOM      3  C   UNL A   1      37.604  22.230  25.740  1.00  0.00     0.116 C 
BRANCH   3   4
ATOM      4  N   UNL A   1      39.028  21.959  25.713  1.00  0.00    -0.352 N 
ATOM      5  O   UNL A   1      41.172  21.844  26.243  1.00  0.00    -0.269 OA
ATOM      6  C   UNL A   1      40.119  22.476  26.356  1.00  0.00     0.251 C 
ATOM      7  H   UNL A   1      39.264  21.235  25.087  1.00  0.00     0.163 HD
BRANCH   6   8
ATOM      8  C   UNL A   1      40.144  23.763  27.107  1.00  0.00     0.039 A 
ATOM      9  C   UNL A   1      39.149  24.738  27.077  1.00  0.00     0.014 A 
ATOM     10  C   UNL A   1      41.307  24.021  27.860  1.00  0.00     0.014 A 
ATOM     11  C   UNL A   1      39.357  25.983  27.665  1.00  0.00     0.010 A 
ATOM     12  C   UNL A   1      41.504  25.249  28.485  1.00  0.00     0.010 A 
ATOM     13  C   UNL A   1      40.545  26.248  28.345  1.00  0.00    -0.014 A 
BRANCH  13  14
ATOM     14  C   UNL A   1      40.686  27.554  28.982  1.00  0.00     0.031 A 
ATOM     15  C   UNL A   1      41.725  28.454  28.405  1.00  0.00     0.074 A 
ATOM     16  C   UNL A   1      39.853  28.016  29.935  1.00  0.00     0.049 A 
ATOM     17  N   UNL A   1      42.734  29.006  29.000  1.00  0.00    -0.248 NA
ATOM     18  C   UNL A   1      41.651  28.733  26.963  1.00  0.00     0.031 C 
ATOM     19  C   UNL A   1      38.601  27.415  30.398  1.00  0.00     0.029 A 
ATOM     20  N   UNL A   1      39.902  29.203  30.608  1.00  0.00    -0.354 N 
ATOM     21  C   UNL A   1      43.336  29.832  28.052  1.00  0.00     0.074 A 
ATOM     22  C   UNL A   1      42.696  29.542  26.793  1.00  0.00     0.031 C 
ATOM     23  C   UNL A   1      37.900  28.340  31.091  1.00  0.00     0.029 A 
ATOM     24  C   UNL A   1      38.709  29.540  31.228  1.00  0.00     0.049 A 
ATOM     25  H   UNL A   1      40.708  29.766  30.650  1.00  0.00     0.167 HD
ATOM     26  C   UNL A   1      44.185  30.841  28.395  1.00  0.00     0.031 A 
ATOM     27  C   UNL A   1      38.376  30.743  31.754  1.00  0.00     0.031 A 
ATOM     28  C   UNL A   1      44.711  30.688  29.724  1.00  0.00     0.049 A 
ATOM     29  C   UNL A   1      39.617  31.516  31.978  1.00  0.00     0.074 A 
ATOM     30  C   UNL A   1      45.458  29.733  30.385  1.00  0.00     0.029 A 
ATOM     31  N   UNL A   1      44.217  31.514  30.703  1.00  0.00    -0.354 N 
ATOM     32  N   UNL A   1      40.493  31.234  32.897  1.00  0.00    -0.248 NA
ATOM     33  C   UNL A   1      40.076  32.416  30.933  1.00  0.00     0.031 C 
ATOM     34  C   UNL A   1      44.982  29.755  31.729  1.00  0.00     0.029 A 
ATOM     35  C   UNL A   1      43.994  30.738  31.807  1.00  0.00     0.049 A 
ATOM     36  H   UNL A   1      44.055  32.482  30.626  1.00  0.00     0.167 HD
ATOM     37  C   UNL A   1      41.716  31.563  32.332  1.00  0.00     0.074 A 
ATOM     38  C   UNL A   1      41.387  32.404  31.184  1.00  0.00     0.031 C 
ATOM     39  C   UNL A   1      42.854  30.893  32.680  1.00  0.00     0.031 A 
BRANCH  26  40
ATOM     40  C   UNL A   1      44.229  32.172  27.677  1.00  0.00    -0.014 A 
ATOM     41  C   UNL A   1      43.789  33.323  28.360  1.00  0.00     0.009 A 
ATOM     42  C   UNL A   1      44.390  32.290  26.284  1.00  0.00     0.009 A 
ATOM     43  C   UNL A   1      43.431  34.489  27.672  1.00  0.00     0.001 A 
ATOM     44  C   UNL A   1      44.080  33.469  25.600  1.00  0.00     0.001 A 
ATOM     45  C   UNL A   1      43.566  34.557  26.289  1.00  0.00     0.000 A 
ENDBRANCH  26  40
BRANCH  27  46
ATOM     46  C   UNL A   1      37.040  31.363  31.858  1.00  0.00    -0.014 A 
ATOM     47  C   UNL A   1      36.570  31.863  33.081  1.00  0.00     0.009 A 
ATOM     48  C   UNL A   1      36.321  31.693  30.694  1.00  0.00     0.009 A 
ATOM     49  C   UNL A   1      35.439  32.688  33.133  1.00  0.00     0.001 A 
ATOM     50  C   UNL A   1      35.188  32.510  30.745  1.00  0.00     0.001 A 
ATOM     51  C   UNL A   1      34.756  33.019  31.965  1.00  0.00     0.000 A 
ENDBRANCH  27  46
BRANCH  39  52
ATOM     52  C   UNL A   1      42.810  30.000  33.891  1.00  0.00    -0.014 A 
ATOM     53  C   UNL A   1      43.164  30.446  35.176  1.00  0.00     0.009 A 
ATOM     54  C   UNL A   1      42.252  28.719  33.760  1.00  0.00     0.009 A 
ATOM     55  C   UNL A   1      42.999  29.619  36.291  1.00  0.00     0.001 A 
ATOM     56  C   UNL A   1      42.066  27.903  34.877  1.00  0.00     0.001 A 
ATOM     57  C   UNL A   1      42.446  28.350  36.141  1.00  0.00     0.000 A 
ENDBRANCH  39  52
ENDBRANCH  13  14
ENDBRANCH   6   8
ENDBRANCH   3   4
ENDBRANCH   2   3
ENDBRANCH   1   2
BRANCH   1  58
ATOM     58  C   UNL A   1      34.755  23.983  25.052  1.00  0.00     0.116 C 
BRANCH  58  59
ATOM     59  N   UNL A   1      33.894  23.520  26.120  1.00  0.00    -0.351 N 
ATOM     60  C   UNL A   1      32.556  23.793  26.328  1.00  0.00     0.274 C 
ATOM     61  H   UNL A   1      34.318  22.932  26.788  1.00  0.00     0.163 HD
ATOM     62  O   UNL A   1      32.011  23.325  27.316  1.00  0.00    -0.267 OA
BRANCH  60  63
ATOM     63  C   UNL A   1      31.842  24.626  25.366  1.00  0.00     0.178 A 
ATOM     64  N   UNL A   1      30.948  24.086  24.474  1.00  0.00    -0.124 NA
ATOM     65  C   UNL A   1      31.871  26.005  25.207  1.00  0.00     0.108 A 
ATOM     66  N   UNL A   1      30.366  25.078  23.814  1.00  0.00    -0.061 NA
ATOM     67  N   UNL A   1      31.005  26.221  24.140  1.00  0.00    -0.212 N 
BRANCH  65  68
ATOM     68  C   UNL A   1      32.460  27.064  26.028  1.00  0.00     0.006 A 
ATOM     69  C   UNL A   1      31.706  27.756  26.973  1.00  0.00     0.030 A 
ATOM     70  C   UNL A   1      33.796  27.439  25.821  1.00  0.00     0.030 A 
ATOM     71  C   UNL A   1      32.318  28.790  27.661  1.00  0.00     0.111 A 
ATOM     72  C   UNL A   1      34.313  28.492  26.552  1.00  0.00     0.111 A 
ATOM     73  N   UNL A   1      33.596  29.180  27.461  1.00  0.00    -0.265 NA
ENDBRANCH  65  68
BRANCH  67  74
ATOM     74  C   UNL A   1      30.724  27.447  23.496  1.00  0.00     0.071 A 
ATOM     75  C   UNL A   1      31.673  28.019  22.647  1.00  0.00     0.029 A 
ATOM     76  C   UNL A   1      29.455  28.027  23.653  1.00  0.00     0.075 A 
ATOM     77  C   UNL A   1      31.306  29.123  21.878  1.00  0.00     0.006 A 
ATOM     78  C   UNL A   1      29.099  29.148  22.907  1.00  0.00     0.131 A 
ATOM     79  C   UNL A   1      30.025  29.673  22.001  1.00  0.00     0.047 A 
BRANCH  78  80
ATOM     80  O   UNL A   1      27.898  29.795  22.956  1.00  0.00    -0.406 OA
BRANCH  80  81
ATOM     81  C   UNL A   1      27.888  31.129  23.445  1.00  0.00     0.573 C 
ATOM     82  F   UNL A   1      29.006  31.397  24.156  1.00  0.00    -0.132 F 
ATOM     83  F   UNL A   1      27.784  32.017  22.432  1.00  0.00    -0.132 F 
ATOM     84  F   UNL A   1      26.823  31.291  24.258  1.00  0.00    -0.132 F 
ENDBRANCH  80  81
ENDBRANCH  78  80
ENDBRANCH  67  74
ENDBRANCH  60  63
ENDBRANCH  58  59
ENDBRANCH   1  58
TORSDOF 15
ENDMDL
MODEL 2
REMARK VINA RESULT:     -12.4      2.475      3.180
REMARK SMILES O=C(NCCCCNC(=O)c1nnn(-c2cccc(OC(F)(F)F)c2)c1-c1ccncc1)c1ccc(-c2c3nc(c(-c4ccccc4)c4ccc([nH]4)c(-c4ccccc4)c4nc(c(-c5ccccc5)c5ccc2[nH]5)C=C4)C=C3)cc1
REMARK SMILES IDX 6 1 5 2 4 3 3 4 1 5 2 6 33 8 34 9 80 10 35 11 79 12 36 13
REMARK SMILES IDX 37 14 38 15 73 16 39 17 78 18 72 19 74 20 40 21 77 22 71 23
REMARK SMILES IDX 70 24 41 26 63 27 48 28 62 29 49 30 52 31 61 32 75 33 50 34
REMARK SMILES IDX 51 35 60 37 76 38 53 39 42 40 43 41 47 42 44 43 46 44 45 45
REMARK SMILES IDX 64 46 65 47 69 48 66 49 68 50 67 51 54 52 55 53 59 54 56 55
REMARK SMILES IDX 58 56 57 57 7 58 8 59 9 60 10 62 11 63 12 64 26 65 13 66
REMARK SMILES IDX 14 67 27 68 28 69 32 70 29 71 31 72 30 73 15 74 16 75 25 76
REMARK SMILES IDX 17 77 19 78 18 79 20 80 21 81 22 82 23 83 24 84
REMARK H PARENT 3 7 74 25 52 36 8 61
REMARK Flexibility Score: inf
ROOT
ATOM      1  C   UNL A   1      36.076  22.770  25.147  1.00  0.00     0.023 C 
ENDROOT
BRANCH   1   2
ATOM      2  C   UNL A   1      37.501  22.222  25.152  1.00  0.00     0.023 C 
BRANCH   2   3
ATOM      3  C   UNL A   1      38.423  22.734  26.265  1.00  0.00     0.116 C 
BRANCH   3   4
ATOM      4  N   UNL A   1      39.838  22.461  26.094  1.00  0.00    -0.352 N 
ATOM      5  O   UNL A   1      42.034  22.429  26.351  1.00  0.00    -0.269 OA
ATOM      6  C   UNL A   1      40.992  23.071  26.504  1.00  0.00     0.251 C 
ATOM      7  H   UNL A   1      40.005  21.651  25.559  1.00  0.00     0.163 HD
BRANCH   6   8
ATOM      8  C   UNL A   1      41.087  24.457  27.042  1.00  0.00     0.039 A 
ATOM      9  C   UNL A   1      41.329  24.796  28.372  1.00  0.00     0.014 A 
ATOM     10  C   UNL A   1      40.855  25.499  26.121  1.00  0.00     0.014 A 
ATOM     11  C   UNL A   1      41.211  26.115  28.801  1.00  0.00     0.010 A 
ATOM     12  C   UNL A   1      40.776  26.825  26.536  1.00  0.00     0.010 A 
ATOM     13  C   UNL A   1      40.908  27.125  27.889  1.00  0.00    -0.014 A 
BRANCH  13  14
ATOM     14  C   UNL A   1      40.845  28.496  28.389  1.00  0.00     0.031 A 
ATOM     15  C   UNL A   1      42.003  29.370  28.046  1.00  0.00     0.074 A 
ATOM     16  C   UNL A   1      39.765  29.022  28.996  1.00  0.00     0.049 A 
ATOM     17  N   UNL A   1      42.787  30.021  28.845  1.00  0.00    -0.248 NA
ATOM     18  C   UNL A   1      42.359  29.492  26.624  1.00  0.00     0.031 C 
ATOM     19  C   UNL A   1      38.435  28.426  29.135  1.00  0.00     0.029 A 
ATOM     20  N   UNL A   1      39.604  30.275  29.517  1.00  0.00    -0.354 N 
ATOM     21  C   UNL A   1      43.638  30.765  28.029  1.00  0.00     0.074 A 
ATOM     22  C   UNL A   1      43.402  30.319  26.679  1.00  0.00     0.031 C 
ATOM     23  C   UNL A   1      37.554  29.391  29.484  1.00  0.00     0.029 A 
ATOM     24  C   UNL A   1      38.279  30.629  29.717  1.00  0.00     0.049 A 
ATOM     25  H   UNL A   1      40.358  30.871  29.730  1.00  0.00     0.167 HD
ATOM     26  C   UNL A   1      44.340  31.837  28.491  1.00  0.00     0.031 A 
ATOM     27  C   UNL A   1      37.798  31.867  29.982  1.00  0.00     0.031 A 
ATOM     28  C   UNL A   1      44.450  31.845  29.925  1.00  0.00     0.049 A 
ATOM     29  C   UNL A   1      38.912  32.707  30.473  1.00  0.00     0.074 A 
ATOM     30  C   UNL A   1      44.973  30.996  30.879  1.00  0.00     0.029 A 
ATOM     31  N   UNL A   1      43.683  32.750  30.616  1.00  0.00    -0.354 N 
ATOM     32  N   UNL A   1      39.477  32.558  31.635  1.00  0.00    -0.248 NA
ATOM     33  C   UNL A   1      39.655  33.509  29.515  1.00  0.00     0.031 C 
ATOM     34  C   UNL A   1      44.119  31.140  32.013  1.00  0.00     0.029 A 
ATOM     35  C   UNL A   1      43.147  32.087  31.685  1.00  0.00     0.049 A 
ATOM     36  H   UNL A   1      43.545  33.698  30.386  1.00  0.00     0.167 HD
ATOM     37  C   UNL A   1      40.811  32.873  31.421  1.00  0.00     0.074 A 
ATOM     38  C   UNL A   1      40.832  33.574  30.141  1.00  0.00     0.031 C 
ATOM     39  C   UNL A   1      41.799  32.288  32.161  1.00  0.00     0.031 A 
BRANCH  26  40
ATOM     40  C   UNL A   1      44.587  33.086  27.674  1.00  0.00    -0.014 A 
ATOM     41  C   UNL A   1      45.898  33.360  27.237  1.00  0.00     0.009 A 
ATOM     42  C   UNL A   1      43.660  34.140  27.581  1.00  0.00     0.009 A 
ATOM     43  C   UNL A   1      46.280  34.645  26.833  1.00  0.00     0.001 A 
ATOM     44  C   UNL A   1      44.027  35.412  27.132  1.00  0.00     0.001 A 
ATOM     45  C   UNL A   1      45.346  35.674  26.792  1.00  0.00     0.000 A 
ENDBRANCH  26  40
BRANCH  27  46
ATOM     46  C   UNL A   1      36.487  32.441  29.619  1.00  0.00    -0.014 A 
ATOM     47  C   UNL A   1      35.546  32.773  30.605  1.00  0.00     0.009 A 
ATOM     48  C   UNL A   1      36.255  32.902  28.309  1.00  0.00     0.009 A 
ATOM     49  C   UNL A   1      34.430  33.562  30.296  1.00  0.00     0.001 A 
ATOM     50  C   UNL A   1      35.139  33.683  27.999  1.00  0.00     0.001 A 
ATOM     51  C   UNL A   1      34.233  34.024  28.997  1.00  0.00     0.000 A 
ENDBRANCH  27  46
BRANCH  39  52
ATOM     52  C   UNL A   1      41.403  31.526  33.398  1.00  0.00    -0.014 A 
ATOM     53  C   UNL A   1      41.388  32.111  34.676  1.00  0.00     0.009 A 
ATOM     54  C   UNL A   1      40.884  30.231  33.251  1.00  0.00     0.009 A 
ATOM     55  C   UNL A   1      40.905  31.403  35.781  1.00  0.00     0.001 A 
ATOM     56  C   UNL A   1      40.380  29.534  34.350  1.00  0.00     0.001 A 
ATOM     57  C   UNL A   1      40.397  30.118  35.616  1.00  0.00     0.000 A 
ENDBRANCH  39  52
ENDBRANCH  13  14
ENDBRANCH   6   8
ENDBRANCH   3   4
ENDBRANCH   2   3
ENDBRANCH   1   2
BRANCH   1  58
ATOM     58  C   UNL A   1      35.668  23.516  23.889  1.00  0.00     0.116 C 
BRANCH  58  59
ATOM     59  N   UNL A   1      34.710  22.802  23.072  1.00  0.00    -0.351 N 
ATOM     60  C   UNL A   1      33.604  23.297  22.410  1.00  0.00     0.274 C 
ATOM     61  H   UNL A   1      34.868  21.834  22.974  1.00  0.00     0.163 HD
ATOM     62  O   UNL A   1      32.896  22.517  21.790  1.00  0.00    -0.267 OA
BRANCH  60  63
ATOM     63  C   UNL A   1      33.317  24.725  22.471  1.00  0.00     0.178 A 
ATOM     64  N   UNL A   1      33.517  25.545  21.387  1.00  0.00    -0.124 NA
ATOM     65  C   UNL A   1      32.784  25.470  23.515  1.00  0.00     0.108 A 
ATOM     66  N   UNL A   1      33.063  26.753  21.688  1.00  0.00    -0.061 NA
ATOM     67  N   UNL A   1      32.750  26.762  23.000  1.00  0.00    -0.212 N 
BRANCH  65  68
ATOM     68  C   UNL A   1      32.184  25.065  24.788  1.00  0.00     0.006 A 
ATOM     69  C   UNL A   1      32.966  24.822  25.915  1.00  0.00     0.030 A 
ATOM     70  C   UNL A   1      30.800  24.855  24.866  1.00  0.00     0.030 A 
ATOM     71  C   UNL A   1      32.330  24.376  27.062  1.00  0.00     0.111 A 
ATOM     72  C   UNL A   1      30.261  24.399  26.054  1.00  0.00     0.111 A 
ATOM     73  N   UNL A   1      31.001  24.147  27.150  1.00  0.00    -0.265 NA
ENDBRANCH  65  68
BRANCH  67  74
ATOM     74  C   UNL A   1      32.375  27.945  23.675  1.00  0.00     0.071 A 
ATOM     75  C   UNL A   1      31.109  28.495  23.463  1.00  0.00     0.029 A 
ATOM     76  C   UNL A   1      33.254  28.504  24.617  1.00  0.00     0.075 A 
ATOM     77  C   UNL A   1      30.691  29.549  24.275  1.00  0.00     0.006 A 
ATOM     78  C   UNL A   1      32.847  29.575  25.407  1.00  0.00     0.131 A 
ATOM     79  C   UNL A   1      31.551  30.075  25.246  1.00  0.00     0.047 A 
BRANCH  78  80
ATOM     80  O   UNL A   1      33.596  30.196  26.364  1.00  0.00    -0.406 OA
BRANCH  80  81
ATOM     81  C   UNL A   1      34.133  29.392  27.405  1.00  0.00     0.573 C 
ATOM     82  F   UNL A   1      33.191  28.576  27.928  1.00  0.00    -0.132 F 
ATOM     83  F   UNL A   1      35.167  28.646  26.958  1.00  0.00    -0.132 F 
ATOM     84  F   UNL A   1      34.588  30.195  28.390  1.00  0.00    -0.132 F 
ENDBRANCH  80  81
ENDBRANCH  78  80
ENDBRANCH  67  74
ENDBRANCH  60  63
ENDBRANCH  58  59
ENDBRANCH   1  58
TORSDOF 15
ENDMDL
MODEL 3
REMARK VINA RESULT:     -12.4      3.787      8.371
REMARK SMILES O=C(NCCCCNC(=O)c1nnn(-c2cccc(OC(F)(F)F)c2)c1-c1ccncc1)c1ccc(-c2c3nc(c(-c4ccccc4)c4ccc([nH]4)c(-c4ccccc4)c4nc(c(-c5ccccc5)c5ccc2[nH]5)C=C4)C=C3)cc1
REMARK SMILES IDX 6 1 5 2 4 3 3 4 1 5 2 6 33 8 34 9 80 10 35 11 79 12 36 13
REMARK SMILES IDX 37 14 38 15 73 16 39 17 78 18 72 19 74 20 40 21 77 22 71 23
REMARK SMILES IDX 70 24 41 26 63 27 48 28 62 29 49 30 52 31 61 32 75 33 50 34
REMARK SMILES IDX 51 35 60 37 76 38 53 39 42 40 43 41 47 42 44 43 46 44 45 45
REMARK SMILES IDX 64 46 65 47 69 48 66 49 68 50 67 51 54 52 55 53 59 54 56 55
REMARK SMILES IDX 58 56 57 57 7 58 8 59 9 60 10 62 11 63 12 64 26 65 13 66
REMARK SMILES IDX 14 67 27 68 28 69 32 70 29 71 31 72 30 73 15 74 16 75 25 76
REMARK SMILES IDX 17 77 19 78 18 79 20 80 21 81 22 82 23 83 24 84
REMARK H PARENT 3 7 74 25 52 36 8 61
REMARK Flexibility Score: inf
ROOT
ATOM      1  C   UNL A   1      32.766  29.151  26.815  1.00  0.00     0.023 C 
ENDROOT
BRANCH   1   2
ATOM      2  C   UNL A   1      33.963  29.693  27.593  1.00  0.00     0.023 C 
BRANCH   2   3
ATOM      3  C   UNL A   1      34.147  31.215  27.586  1.00  0.00     0.116 C 
BRANCH   3   4
ATOM      4  N   UNL A   1      34.403  31.830  28.874  1.00  0.00    -0.352 N 
ATOM      5  O   UNL A   1      35.402  32.633  30.676  1.00  0.00    -0.269 OA
ATOM      6  C   UNL A   1      35.440  31.801  29.766  1.00  0.00     0.251 C 
ATOM      7  H   UNL A   1      33.658  32.399  29.176  1.00  0.00     0.163 HD
BRANCH   6   8
ATOM      8  C   UNL A   1      36.551  30.809  29.760  1.00  0.00     0.039 A 
ATOM      9  C   UNL A   1      36.481  29.510  30.261  1.00  0.00     0.014 A 
ATOM     10  C   UNL A   1      37.785  31.260  29.250  1.00  0.00     0.014 A 
ATOM     11  C   UNL A   1      37.629  28.732  30.377  1.00  0.00     0.010 A 
ATOM     12  C   UNL A   1      38.929  30.472  29.326  1.00  0.00     0.010 A 
ATOM     13  C   UNL A   1      38.858  29.222  29.936  1.00  0.00    -0.014 A 
BRANCH  13  14
ATOM     14  C   UNL A   1      40.018  28.341  30.038  1.00  0.00     0.031 A 
ATOM     15  C   UNL A   1      40.694  28.303  31.366  1.00  0.00     0.074 A 
ATOM     16  C   UNL A   1      40.398  27.488  29.068  1.00  0.00     0.049 A 
ATOM     17  N   UNL A   1      41.932  28.556  31.648  1.00  0.00    -0.248 NA
ATOM     18  C   UNL A   1      39.863  27.988  32.538  1.00  0.00     0.031 C 
ATOM     19  C   UNL A   1      39.680  27.155  27.836  1.00  0.00     0.029 A 
ATOM     20  N   UNL A   1      41.467  26.639  29.048  1.00  0.00    -0.354 N 
ATOM     21  C   UNL A   1      42.083  28.279  33.006  1.00  0.00     0.074 A 
ATOM     22  C   UNL A   1      40.759  28.039  33.523  1.00  0.00     0.031 C 
ATOM     23  C   UNL A   1      40.204  26.023  27.314  1.00  0.00     0.029 A 
ATOM     24  C   UNL A   1      41.365  25.635  28.098  1.00  0.00     0.049 A 
ATOM     25  H   UNL A   1      42.240  26.732  29.653  1.00  0.00     0.167 HD
ATOM     26  C   UNL A   1      43.302  28.070  33.578  1.00  0.00     0.031 A 
ATOM     27  C   UNL A   1      42.131  24.523  28.003  1.00  0.00     0.031 A 
ATOM     28  C   UNL A   1      44.380  28.577  32.773  1.00  0.00     0.049 A 
ATOM     29  C   UNL A   1      43.375  24.743  28.774  1.00  0.00     0.074 A 
ATOM     30  C   UNL A   1      44.742  29.813  32.275  1.00  0.00     0.029 A 
ATOM     31  N   UNL A   1      45.156  27.665  32.101  1.00  0.00    -0.354 N 
ATOM     32  N   UNL A   1      44.320  25.558  28.410  1.00  0.00    -0.248 NA
ATOM     33  C   UNL A   1      43.420  24.313  30.162  1.00  0.00     0.031 C 
ATOM     34  C   UNL A   1      45.352  29.540  31.014  1.00  0.00     0.029 A 
ATOM     35  C   UNL A   1      45.345  28.155  30.838  1.00  0.00     0.049 A 
ATOM     36  H   UNL A   1      45.509  26.819  32.460  1.00  0.00     0.167 HD
ATOM     37  C   UNL A   1      44.816  26.075  29.597  1.00  0.00     0.074 A 
ATOM     38  C   UNL A   1      44.319  25.178  30.636  1.00  0.00     0.031 C 
ATOM     39  C   UNL A   1      45.343  27.334  29.650  1.00  0.00     0.031 A 
BRANCH  26  40
ATOM     40  C   UNL A   1      43.545  27.056  34.674  1.00  0.00    -0.014 A 
ATOM     41  C   UNL A   1      43.301  25.695  34.403  1.00  0.00     0.009 A 
ATOM     42  C   UNL A   1      43.702  27.409  36.027  1.00  0.00     0.009 A 
ATOM     43  C   UNL A   1      43.121  24.765  35.434  1.00  0.00     0.001 A 
ATOM     44  C   UNL A   1      43.571  26.472  37.057  1.00  0.00     0.001 A 
ATOM     45  C   UNL A   1      43.245  25.158  36.762  1.00  0.00     0.000 A 
ENDBRANCH  26  40
BRANCH  27  46
ATOM     46  C   UNL A   1      41.759  23.191  27.484  1.00  0.00    -0.014 A 
ATOM     47  C   UNL A   1      42.586  22.078  27.694  1.00  0.00     0.009 A 
ATOM     48  C   UNL A   1      40.459  22.961  26.997  1.00  0.00     0.009 A 
ATOM     49  C   UNL A   1      42.118  20.780  27.451  1.00  0.00     0.001 A 
ATOM     50  C   UNL A   1      39.994  21.667  26.748  1.00  0.00     0.001 A 
ATOM     51  C   UNL A   1      40.820  20.575  26.989  1.00  0.00     0.000 A 
ENDBRANCH  27  46
BRANCH  39  52
ATOM     52  C   UNL A   1      45.643  28.033  28.351  1.00  0.00    -0.014 A 
ATOM     53  C   UNL A   1      44.698  28.831  27.683  1.00  0.00     0.009 A 
ATOM     54  C   UNL A   1      46.959  28.013  27.866  1.00  0.00     0.009 A 
ATOM     55  C   UNL A   1      45.052  29.555  26.540  1.00  0.00     0.001 A 
ATOM     56  C   UNL A   1      47.318  28.754  26.739  1.00  0.00     0.001 A 
ATOM     57  C   UNL A   1      46.362  29.519  26.072  1.00  0.00     0.000 A 
ENDBRANCH  39  52
ENDBRANCH  13  14
ENDBRANCH   6   8
ENDBRANCH   3   4
ENDBRANCH   2   3
ENDBRANCH   1   2
BRANCH   1  58
ATOM     58  C   UNL A   1      32.398  27.707  27.107  1.00  0.00     0.116 C 
BRANCH  58  59
ATOM     59  N   UNL A   1      31.107  27.316  26.581  1.00  0.00    -0.351 N 
ATOM     60  C   UNL A   1      30.694  26.072  26.148  1.00  0.00     0.274 C 
ATOM     61  H   UNL A   1      30.433  28.033  26.526  1.00  0.00     0.163 HD
ATOM     62  O   UNL A   1      29.561  25.953  25.707  1.00  0.00    -0.267 OA
BRANCH  60  63
ATOM     63  C   UNL A   1      31.618  24.946  26.230  1.00  0.00     0.178 A 
ATOM     64  N   UNL A   1      31.554  24.038  27.259  1.00  0.00    -0.124 NA
ATOM     65  C   UNL A   1      32.618  24.565  25.345  1.00  0.00     0.108 A 
ATOM     66  N   UNL A   1      32.423  23.068  27.014  1.00  0.00    -0.061 NA
ATOM     67  N   UNL A   1      33.165  23.437  25.949  1.00  0.00    -0.212 N 
BRANCH  65  68
ATOM     68  C   UNL A   1      32.952  25.032  23.999  1.00  0.00     0.006 A 
ATOM     69  C   UNL A   1      33.570  26.263  23.789  1.00  0.00     0.030 A 
ATOM     70  C   UNL A   1      32.589  24.259  22.887  1.00  0.00     0.030 A 
ATOM     71  C   UNL A   1      33.791  26.664  22.482  1.00  0.00     0.111 A 
ATOM     72  C   UNL A   1      32.844  24.751  21.621  1.00  0.00     0.111 A 
ATOM     73  N   UNL A   1      33.429  25.943  21.398  1.00  0.00    -0.265 NA
ENDBRANCH  65  68
BRANCH  67  74
ATOM     74  C   UNL A   1      34.283  22.688  25.518  1.00  0.00     0.071 A 
ATOM     75  C   UNL A   1      35.537  23.296  25.434  1.00  0.00     0.029 A 
ATOM     76  C   UNL A   1      34.130  21.316  25.263  1.00  0.00     0.075 A 
ATOM     77  C   UNL A   1      36.654  22.499  25.191  1.00  0.00     0.006 A 
ATOM     78  C   UNL A   1      35.243  20.525  24.991  1.00  0.00     0.131 A 
ATOM     79  C   UNL A   1      36.506  21.122  24.983  1.00  0.00     0.047 A 
BRANCH  78  80
ATOM     80  O   UNL A   1      35.231  19.182  24.741  1.00  0.00    -0.406 OA
BRANCH  80  81
ATOM     81  C   UNL A   1      33.982  18.580  24.432  1.00  0.00     0.573 C 
ATOM     82  F   UNL A   1      33.270  19.345  23.575  1.00  0.00    -0.132 F 
ATOM     83  F   UNL A   1      34.155  17.354  23.893  1.00  0.00    -0.132 F 
ATOM     84  F   UNL A   1      33.267  18.444  25.569  1.00  0.00    -0.132 F 
ENDBRANCH  80  81
ENDBRANCH  78  80
ENDBRANCH  67  74
ENDBRANCH  60  63
ENDBRANCH  58  59
ENDBRANCH   1  58
TORSDOF 15
ENDMDL
