MODEL 1
REMARK VINA RESULT:     -12.4      0.000      0.000
REMARK SMILES O=C(CNC(=O)[C@@H](CC1=c2ccccc2=NC1)N1C(=O)N=C2C=CC=C[C@H]2C1=O)NCCCCNC(=O)c1ccc(-c2c3nc(c(-c4ccccc4)c4ccc([nH]4)c(-c4ccccc4)c4nc(c(-c5ccccc5)c5ccc2[nH]5)C=C4)C=C3)cc1
REMARK SMILES IDX 31 1 30 2 1 3 2 4 3 6 4 7 5 8 6 10 7 11 8 12 9 13 10 14
REMARK SMILES IDX 17 15 11 16 15 17 16 18 12 19 14 20 13 21 18 22 19 23 28 24
REMARK SMILES IDX 21 25 20 26 27 27 29 28 22 29 26 30 23 31 25 32 24 33 32 34
REMARK SMILES IDX 33 35 34 36 35 37 36 38 37 40 38 41 39 42 85 43 40 44 84 45
REMARK SMILES IDX 41 46 42 47 43 48 78 49 44 50 83 51 77 52 79 53 45 54 82 55
REMARK SMILES IDX 76 56 75 57 46 59 68 60 53 61 67 62 54 63 57 64 66 65 80 66
REMARK SMILES IDX 55 67 56 68 65 70 81 71 58 72 47 73 48 74 52 75 49 76 51 77
REMARK SMILES IDX 50 78 69 79 70 80 74 81 71 82 73 83 72 84 59 85 60 86 64 87
REMARK SMILES IDX 61 88 63 89 62 90
REMARK H PARENT 30 5 4 9 35 39 79 58 57 69
REMARK Flexibility Score: inf
ROOT
ATOM      1  C   UNL A   1      35.576  33.079  28.229  1.00  0.00     0.116 C 
ENDROOT
BRANCH   1   2
ATOM      2  N   UNL A   1      34.564  32.237  27.604  1.00  0.00    -0.355 N 
ATOM      3  O   UNL A   1      35.595  30.264  28.148  1.00  0.00    -0.273 OA
ATOM      4  C   UNL A   1      34.634  30.860  27.663  1.00  0.00     0.239 C 
ATOM      5  H   UNL A   1      33.813  32.661  27.128  1.00  0.00     0.163 HD
BRANCH   4   6
ATOM      6  C   UNL A   1      33.414  30.075  27.147  1.00  0.00     0.216 C 
BRANCH   6   7
ATOM      7  N   UNL A   1      33.216  29.962  25.701  1.00  0.00    -0.345 N 
ATOM      8  C   UNL A   1      31.978  29.533  25.229  1.00  0.00     0.244 C 
ATOM      9  H   UNL A   1      33.942  30.184  25.076  1.00  0.00     0.164 HD
ATOM     10  O   UNL A   1      31.050  30.335  25.165  1.00  0.00    -0.273 OA
BRANCH   8  11
ATOM     11  C   UNL A   1      31.995  28.178  24.493  1.00  0.00     0.188 C 
BRANCH  11  12
ATOM     12  C   UNL A   1      33.395  27.631  24.126  1.00  0.00     0.069 C 
BRANCH  12  13
ATOM     13  C   UNL A   1      33.719  26.213  23.737  1.00  0.00    -0.037 C 
ATOM     14  C   UNL A   1      34.302  25.157  24.306  1.00  0.00     0.001 A 
ATOM     15  C   UNL A   1      33.332  25.868  22.318  1.00  0.00     0.174 C 
ATOM     16  C   UNL A   1      34.865  24.814  25.571  1.00  0.00     0.010 A 
ATOM     17  C   UNL A   1      34.383  24.188  23.187  1.00  0.00     0.065 A 
ATOM     18  N   UNL A   1      33.855  24.523  22.051  1.00  0.00    -0.280 NA
ATOM     19  C   UNL A   1      35.456  23.621  25.747  1.00  0.00     0.001 A 
ATOM     20  C   UNL A   1      35.091  22.915  23.437  1.00  0.00     0.028 A 
ATOM     21  C   UNL A   1      35.583  22.673  24.662  1.00  0.00     0.002 A 
ENDBRANCH  12  13
ENDBRANCH  11  12
BRANCH  11  22
ATOM     22  N   UNL A   1      31.106  27.069  24.860  1.00  0.00    -0.249 N 
ATOM     23  C   UNL A   1      30.236  26.623  23.876  1.00  0.00     0.351 C 
ATOM     24  C   UNL A   1      31.184  26.384  26.044  1.00  0.00     0.244 C 
ATOM     25  N   UNL A   1      30.314  25.283  23.592  1.00  0.00    -0.197 NA
ATOM     26  O   UNL A   1      29.554  27.385  23.217  1.00  0.00    -0.246 OA
ATOM     27  C   UNL A   1      30.685  24.948  25.997  1.00  0.00     0.151 C 
ATOM     28  O   UNL A   1      31.533  26.900  27.104  1.00  0.00    -0.273 OA
ATOM     29  C   UNL A   1      30.623  24.477  24.554  1.00  0.00     0.062 C 
ATOM     30  C   UNL A   1      31.570  24.055  26.833  1.00  0.00    -0.007 C 
ATOM     31  C   UNL A   1      30.948  23.069  24.223  1.00  0.00     0.025 C 
ATOM     32  C   UNL A   1      32.012  22.864  26.406  1.00  0.00    -0.003 C 
ATOM     33  C   UNL A   1      31.627  22.343  25.119  1.00  0.00     0.002 C 
ENDBRANCH  11  22
ENDBRANCH   8  11
ENDBRANCH   6   7
ENDBRANCH   4   6
ENDBRANCH   1   2
BRANCH   1  34
ATOM     34  C   UNL A   1      35.065  33.964  29.368  1.00  0.00     0.023 C 
BRANCH  34  35
ATOM     35  C   UNL A   1      33.716  34.641  29.132  1.00  0.00     0.023 C 
BRANCH  35  36
ATOM     36  C   UNL A   1      33.580  36.061  29.658  1.00  0.00     0.116 C 
BRANCH  36  37
ATOM     37  N   UNL A   1      32.519  36.244  30.634  1.00  0.00    -0.352 N 
ATOM     38  C   UNL A   1      32.480  35.835  31.952  1.00  0.00     0.251 C 
ATOM     39  H   UNL A   1      31.720  36.723  30.312  1.00  0.00     0.163 HD
ATOM     40  O   UNL A   1      31.468  36.008  32.623  1.00  0.00    -0.269 OA
BRANCH  38  41
ATOM     41  C   UNL A   1      33.646  35.134  32.543  1.00  0.00     0.039 A 
ATOM     42  C   UNL A   1      34.871  35.783  32.703  1.00  0.00     0.014 A 
ATOM     43  C   UNL A   1      33.520  33.788  32.902  1.00  0.00     0.014 A 
ATOM     44  C   UNL A   1      36.004  35.046  33.033  1.00  0.00     0.010 A 
ATOM     45  C   UNL A   1      34.644  33.070  33.327  1.00  0.00     0.010 A 
ATOM     46  C   UNL A   1      35.908  33.679  33.342  1.00  0.00    -0.014 A 
BRANCH  46  47
ATOM     47  C   UNL A   1      37.142  32.918  33.673  1.00  0.00     0.031 A 
ATOM     48  C   UNL A   1      37.754  31.960  32.686  1.00  0.00     0.074 A 
ATOM     49  C   UNL A   1      37.756  33.144  34.852  1.00  0.00     0.049 A 
ATOM     50  N   UNL A   1      38.853  31.254  32.799  1.00  0.00    -0.248 NA
ATOM     51  C   UNL A   1      37.047  31.763  31.411  1.00  0.00     0.031 C 
ATOM     52  C   UNL A   1      37.276  34.059  35.888  1.00  0.00     0.029 A 
ATOM     53  N   UNL A   1      38.932  32.651  35.360  1.00  0.00    -0.354 N 
ATOM     54  C   UNL A   1      38.955  30.517  31.626  1.00  0.00     0.074 A 
ATOM     55  C   UNL A   1      37.797  30.841  30.821  1.00  0.00     0.031 C 
ATOM     56  C   UNL A   1      38.183  34.119  36.873  1.00  0.00     0.029 A 
ATOM     57  C   UNL A   1      39.273  33.196  36.574  1.00  0.00     0.049 A 
ATOM     58  H   UNL A   1      39.477  31.974  34.899  1.00  0.00     0.167 HD
ATOM     59  C   UNL A   1      39.928  29.654  31.249  1.00  0.00     0.031 A 
ATOM     60  C   UNL A   1      40.339  32.980  37.367  1.00  0.00     0.031 A 
ATOM     61  C   UNL A   1      41.091  29.342  32.038  1.00  0.00     0.049 A 
ATOM     62  C   UNL A   1      41.384  31.991  36.945  1.00  0.00     0.074 A 
ATOM     63  C   UNL A   1      42.142  28.499  31.720  1.00  0.00     0.029 A 
ATOM     64  N   UNL A   1      41.357  29.859  33.295  1.00  0.00    -0.354 N 
ATOM     65  N   UNL A   1      41.462  31.303  35.832  1.00  0.00    -0.248 NA
ATOM     66  C   UNL A   1      42.481  31.740  37.889  1.00  0.00     0.031 C 
ATOM     67  C   UNL A   1      43.019  28.465  32.808  1.00  0.00     0.029 A 
ATOM     68  C   UNL A   1      42.542  29.332  33.778  1.00  0.00     0.049 A 
ATOM     69  H   UNL A   1      40.789  30.506  33.773  1.00  0.00     0.167 HD
ATOM     70  C   UNL A   1      42.617  30.540  35.940  1.00  0.00     0.074 A 
ATOM     71  C   UNL A   1      43.219  30.865  37.217  1.00  0.00     0.031 C 
ATOM     72  C   UNL A   1      43.125  29.648  35.057  1.00  0.00     0.031 A 
BRANCH  59  73
ATOM     73  C   UNL A   1      39.778  28.959  29.923  1.00  0.00    -0.014 A 
ATOM     74  C   UNL A   1      39.282  27.646  29.881  1.00  0.00     0.009 A 
ATOM     75  C   UNL A   1      40.198  29.566  28.731  1.00  0.00     0.009 A 
ATOM     76  C   UNL A   1      39.215  26.952  28.671  1.00  0.00     0.001 A 
ATOM     77  C   UNL A   1      40.106  28.878  27.518  1.00  0.00     0.001 A 
ATOM     78  C   UNL A   1      39.622  27.570  27.490  1.00  0.00     0.000 A 
ENDBRANCH  59  73
BRANCH  60  79
ATOM     79  C   UNL A   1      40.456  33.733  38.642  1.00  0.00    -0.014 A 
ATOM     80  C   UNL A   1      39.863  33.242  39.816  1.00  0.00     0.009 A 
ATOM     81  C   UNL A   1      41.096  34.980  38.673  1.00  0.00     0.009 A 
ATOM     82  C   UNL A   1      39.881  33.998  40.989  1.00  0.00     0.001 A 
ATOM     83  C   UNL A   1      41.135  35.723  39.855  1.00  0.00     0.001 A 
ATOM     84  C   UNL A   1      40.518  35.237  41.008  1.00  0.00     0.000 A 
ENDBRANCH  60  79
BRANCH  72  85
ATOM     85  C   UNL A   1      44.399  28.947  35.431  1.00  0.00    -0.014 A 
ATOM     86  C   UNL A   1      45.633  29.466  35.007  1.00  0.00     0.009 A 
ATOM     87  C   UNL A   1      44.372  27.726  36.120  1.00  0.00     0.009 A 
ATOM     88  C   UNL A   1      46.816  28.770  35.256  1.00  0.00     0.001 A 
ATOM     89  C   UNL A   1      45.561  27.043  36.389  1.00  0.00     0.001 A 
ATOM     90  C   UNL A   1      46.779  27.561  35.950  1.00  0.00     0.000 A 
ENDBRANCH  72  85
ENDBRANCH  46  47
ENDBRANCH  38  41
ENDBRANCH  36  37
ENDBRANCH  35  36
ENDBRANCH  34  35
ENDBRANCH   1  34
TORSDOF 16
ENDMDL
MODEL 2
REMARK VINA RESULT:     -12.3      4.200      6.666
REMARK SMILES O=C(CNC(=O)[C@@H](CC1=c2ccccc2=NC1)N1C(=O)N=C2C=CC=C[C@H]2C1=O)NCCCCNC(=O)c1ccc(-c2c3nc(c(-c4ccccc4)c4ccc([nH]4)c(-c4ccccc4)c4nc(c(-c5ccccc5)c5ccc2[nH]5)C=C4)C=C3)cc1
REMARK SMILES IDX 31 1 30 2 1 3 2 4 3 6 4 7 5 8 6 10 7 11 8 12 9 13 10 14
REMARK SMILES IDX 17 15 11 16 15 17 16 18 12 19 14 20 13 21 18 22 19 23 28 24
REMARK SMILES IDX 21 25 20 26 27 27 29 28 22 29 26 30 23 31 25 32 24 33 32 34
REMARK SMILES IDX 33 35 34 36 35 37 36 38 37 40 38 41 39 42 85 43 40 44 84 45
REMARK SMILES IDX 41 46 42 47 43 48 78 49 44 50 83 51 77 52 79 53 45 54 82 55
REMARK SMILES IDX 76 56 75 57 46 59 68 60 53 61 67 62 54 63 57 64 66 65 80 66
REMARK SMILES IDX 55 67 56 68 65 70 81 71 58 72 47 73 48 74 52 75 49 76 51 77
REMARK SMILES IDX 50 78 69 79 70 80 74 81 71 82 73 83 72 84 59 85 60 86 64 87
REMARK SMILES IDX 61 88 63 89 62 90
REMARK H PARENT 30 5 4 9 35 39 79 58 57 69
REMARK Flexibility Score: inf
ROOT
ATOM      1  C   UNL A   1      35.252  33.189  28.569  1.00  0.00     0.116 C 
ENDROOT
BRANCH   1   2
ATOM      2  N   UNL A   1      34.513  32.165  27.841  1.00  0.00    -0.355 N 
ATOM      3  O   UNL A   1      35.761  30.420  28.649  1.00  0.00    -0.273 OA
ATOM      4  C   UNL A   1      34.805  30.823  27.987  1.00  0.00     0.239 C 
ATOM      5  H   UNL A   1      33.790  32.436  27.230  1.00  0.00     0.163 HD
BRANCH   4   6
ATOM      6  C   UNL A   1      33.838  29.822  27.330  1.00  0.00     0.216 C 
BRANCH   6   7
ATOM      7  N   UNL A   1      33.549  29.961  25.902  1.00  0.00    -0.345 N 
ATOM      8  C   UNL A   1      32.255  29.709  25.455  1.00  0.00     0.244 C 
ATOM      9  H   UNL A   1      34.255  30.228  25.271  1.00  0.00     0.164 HD
ATOM     10  O   UNL A   1      31.395  30.577  25.583  1.00  0.00    -0.273 OA
BRANCH   8  11
ATOM     11  C   UNL A   1      32.116  28.495  24.514  1.00  0.00     0.188 C 
BRANCH  11  12
ATOM     12  C   UNL A   1      33.443  27.894  23.993  1.00  0.00     0.069 C 
BRANCH  12  13
ATOM     13  C   UNL A   1      33.680  26.454  23.623  1.00  0.00    -0.037 C 
ATOM     14  C   UNL A   1      34.173  25.365  24.215  1.00  0.00     0.001 A 
ATOM     15  C   UNL A   1      33.309  26.123  22.196  1.00  0.00     0.174 C 
ATOM     16  C   UNL A   1      34.676  24.996  25.499  1.00  0.00     0.010 A 
ATOM     17  C   UNL A   1      34.218  24.383  23.106  1.00  0.00     0.065 A 
ATOM     18  N   UNL A   1      33.746  24.743  21.954  1.00  0.00    -0.280 NA
ATOM     19  C   UNL A   1      35.179  23.767  25.700  1.00  0.00     0.001 A 
ATOM     20  C   UNL A   1      34.830  23.068  23.385  1.00  0.00     0.028 A 
ATOM     21  C   UNL A   1      35.271  22.803  24.625  1.00  0.00     0.002 A 
ENDBRANCH  12  13
ENDBRANCH  11  12
BRANCH  11  22
ATOM     22  N   UNL A   1      31.140  27.422  24.747  1.00  0.00    -0.249 N 
ATOM     23  C   UNL A   1      30.275  27.136  23.702  1.00  0.00     0.351 C 
ATOM     24  C   UNL A   1      31.131  26.624  25.862  1.00  0.00     0.244 C 
ATOM     25  N   UNL A   1      30.270  25.827  23.291  1.00  0.00    -0.197 NA
ATOM     26  O   UNL A   1      29.670  28.005  23.102  1.00  0.00    -0.246 OA
ATOM     27  C   UNL A   1      30.535  25.239  25.662  1.00  0.00     0.151 C 
ATOM     28  O   UNL A   1      31.479  27.010  26.976  1.00  0.00    -0.273 OA
ATOM     29  C   UNL A   1      30.489  24.913  24.178  1.00  0.00     0.062 C 
ATOM     30  C   UNL A   1      31.328  24.208  26.429  1.00  0.00    -0.007 C 
ATOM     31  C   UNL A   1      30.727  23.523  23.720  1.00  0.00     0.025 C 
ATOM     32  C   UNL A   1      31.701  23.035  25.901  1.00  0.00    -0.003 C 
ATOM     33  C   UNL A   1      31.324  22.668  24.559  1.00  0.00     0.002 C 
ENDBRANCH  11  22
ENDBRANCH   8  11
ENDBRANCH   6   7
ENDBRANCH   4   6
ENDBRANCH   1   2
BRANCH   1  34
ATOM     34  C   UNL A   1      34.382  34.218  29.294  1.00  0.00     0.023 C 
BRANCH  34  35
ATOM     35  C   UNL A   1      34.385  34.137  30.820  1.00  0.00     0.023 C 
BRANCH  35  36
ATOM     36  C   UNL A   1      34.743  32.783  31.415  1.00  0.00     0.116 C 
BRANCH  36  37
ATOM     37  N   UNL A   1      35.240  32.837  32.780  1.00  0.00    -0.352 N 
ATOM     38  C   UNL A   1      36.416  32.328  33.290  1.00  0.00     0.251 C 
ATOM     39  H   UNL A   1      34.658  33.299  33.427  1.00  0.00     0.163 HD
ATOM     40  O   UNL A   1      36.651  32.398  34.492  1.00  0.00    -0.269 OA
BRANCH  38  41
ATOM     41  C   UNL A   1      37.376  31.642  32.390  1.00  0.00     0.039 A 
ATOM     42  C   UNL A   1      38.114  30.542  32.829  1.00  0.00     0.014 A 
ATOM     43  C   UNL A   1      37.571  32.139  31.097  1.00  0.00     0.014 A 
ATOM     44  C   UNL A   1      39.171  30.068  32.059  1.00  0.00     0.010 A 
ATOM     45  C   UNL A   1      38.574  31.595  30.285  1.00  0.00     0.010 A 
ATOM     46  C   UNL A   1      39.420  30.593  30.779  1.00  0.00    -0.014 A 
BRANCH  46  47
ATOM     47  C   UNL A   1      40.569  30.075  29.989  1.00  0.00     0.031 A 
ATOM     48  C   UNL A   1      40.497  28.740  29.297  1.00  0.00     0.074 A 
ATOM     49  C   UNL A   1      41.663  30.847  29.838  1.00  0.00     0.049 A 
ATOM     50  N   UNL A   1      41.390  28.163  28.530  1.00  0.00    -0.248 NA
ATOM     51  C   UNL A   1      39.272  27.947  29.486  1.00  0.00     0.031 C 
ATOM     52  C   UNL A   1      41.851  32.167  30.442  1.00  0.00     0.029 A 
ATOM     53  N   UNL A   1      42.805  30.650  29.103  1.00  0.00    -0.354 N 
ATOM     54  C   UNL A   1      40.847  26.937  28.168  1.00  0.00     0.074 A 
ATOM     55  C   UNL A   1      39.556  26.839  28.814  1.00  0.00     0.031 C 
ATOM     56  C   UNL A   1      43.001  32.693  29.996  1.00  0.00     0.029 A 
ATOM     57  C   UNL A   1      43.664  31.721  29.132  1.00  0.00     0.049 A 
ATOM     58  H   UNL A   1      42.990  29.823  28.603  1.00  0.00     0.167 HD
ATOM     59  C   UNL A   1      41.372  25.981  27.364  1.00  0.00     0.031 A 
ATOM     60  C   UNL A   1      44.857  31.909  28.537  1.00  0.00     0.031 A 
ATOM     61  C   UNL A   1      42.647  26.082  26.704  1.00  0.00     0.049 A 
ATOM     62  C   UNL A   1      45.435  30.821  27.682  1.00  0.00     0.074 A 
ATOM     63  C   UNL A   1      43.244  25.172  25.848  1.00  0.00     0.029 A 
ATOM     64  N   UNL A   1      43.518  27.152  26.823  1.00  0.00    -0.354 N 
ATOM     65  N   UNL A   1      44.906  29.668  27.353  1.00  0.00    -0.248 NA
ATOM     66  C   UNL A   1      46.774  31.053  27.126  1.00  0.00     0.031 C 
ATOM     67  C   UNL A   1      44.501  25.669  25.491  1.00  0.00     0.029 A 
ATOM     68  C   UNL A   1      44.660  26.913  26.078  1.00  0.00     0.049 A 
ATOM     69  H   UNL A   1      43.350  27.962  27.356  1.00  0.00     0.167 HD
ATOM     70  C   UNL A   1      45.845  29.037  26.548  1.00  0.00     0.074 A 
ATOM     71  C   UNL A   1      46.968  29.945  26.421  1.00  0.00     0.031 C 
ATOM     72  C   UNL A   1      45.779  27.814  25.972  1.00  0.00     0.031 A 
BRANCH  59  73
ATOM     73  C   UNL A   1      40.577  24.721  27.158  1.00  0.00    -0.014 A 
ATOM     74  C   UNL A   1      41.042  23.512  27.702  1.00  0.00     0.009 A 
ATOM     75  C   UNL A   1      39.421  24.710  26.365  1.00  0.00     0.009 A 
ATOM     76  C   UNL A   1      40.366  22.316  27.451  1.00  0.00     0.001 A 
ATOM     77  C   UNL A   1      38.733  23.515  26.136  1.00  0.00     0.001 A 
ATOM     78  C   UNL A   1      39.209  22.319  26.673  1.00  0.00     0.000 A 
ENDBRANCH  59  73
BRANCH  60  79
ATOM     79  C   UNL A   1      45.572  33.195  28.739  1.00  0.00    -0.014 A 
ATOM     80  C   UNL A   1      45.360  34.273  27.865  1.00  0.00     0.009 A 
ATOM     81  C   UNL A   1      46.523  33.325  29.762  1.00  0.00     0.009 A 
ATOM     82  C   UNL A   1      46.108  35.445  27.990  1.00  0.00     0.001 A 
ATOM     83  C   UNL A   1      47.251  34.509  29.900  1.00  0.00     0.001 A 
ATOM     84  C   UNL A   1      47.052  35.562  29.008  1.00  0.00     0.000 A 
ENDBRANCH  60  79
BRANCH  72  85
ATOM     85  C   UNL A   1      46.952  27.368  25.147  1.00  0.00    -0.014 A 
ATOM     86  C   UNL A   1      47.968  26.599  25.735  1.00  0.00     0.009 A 
ATOM     87  C   UNL A   1      47.096  27.788  23.817  1.00  0.00     0.009 A 
ATOM     88  C   UNL A   1      49.113  26.267  25.010  1.00  0.00     0.001 A 
ATOM     89  C   UNL A   1      48.232  27.434  23.085  1.00  0.00     0.001 A 
ATOM     90  C   UNL A   1      49.242  26.681  23.684  1.00  0.00     0.000 A 
ENDBRANCH  72  85
ENDBRANCH  46  47
ENDBRANCH  38  41
ENDBRANCH  36  37
ENDBRANCH  35  36
ENDBRANCH  34  35
ENDBRANCH   1  34
TORSDOF 16
ENDMDL
MODEL 3
REMARK VINA RESULT:     -12.1      6.554     11.637
REMARK SMILES O=C(CNC(=O)[C@@H](CC1=c2ccccc2=NC1)N1C(=O)N=C2C=CC=C[C@H]2C1=O)NCCCCNC(=O)c1ccc(-c2c3nc(c(-c4ccccc4)c4ccc([nH]4)c(-c4ccccc4)c4nc(c(-c5ccccc5)c5ccc2[nH]5)C=C4)C=C3)cc1
REMARK SMILES IDX 31 1 30 2 1 3 2 4 3 6 4 7 5 8 6 10 7 11 8 12 9 13 10 14
REMARK SMILES IDX 17 15 11 16 15 17 16 18 12 19 14 20 13 21 18 22 19 23 28 24
REMARK SMILES IDX 21 25 20 26 27 27 29 28 22 29 26 30 23 31 25 32 24 33 32 34
REMARK SMILES IDX 33 35 34 36 35 37 36 38 37 40 38 41 39 42 85 43 40 44 84 45
REMARK SMILES IDX 41 46 42 47 43 48 78 49 44 50 83 51 77 52 79 53 45 54 82 55
REMARK SMILES IDX 76 56 75 57 46 59 68 60 53 61 67 62 54 63 57 64 66 65 80 66
REMARK SMILES IDX 55 67 56 68 65 70 81 71 58 72 47 73 48 74 52 75 49 76 51 77
REMARK SMILES IDX 50 78 69 79 70 80 74 81 71 82 73 83 72 84 59 85 60 86 64 87
REMARK SMILES IDX 61 88 63 89 62 90
REMARK H PARENT 30 5 4 9 35 39 79 58 57 69
REMARK Flexibility Score: inf
ROOT
ATOM      1  C   UNL A   1      41.478  21.571  26.614  1.00  0.00     0.116 C 
ENDROOT
BRANCH   1   2
ATOM      2  N   UNL A   1      40.143  21.459  26.040  1.00  0.00    -0.355 N 
ATOM      3  O   UNL A   1      39.384  23.425  26.941  1.00  0.00    -0.273 OA
ATOM      4  C   UNL A   1      39.198  22.450  26.213  1.00  0.00     0.239 C 
ATOM      5  H   UNL A   1      39.911  20.658  25.516  1.00  0.00     0.163 HD
BRANCH   4   6
ATOM      6  C   UNL A   1      37.897  22.324  25.401  1.00  0.00     0.216 C 
BRANCH   6   7
ATOM      7  N   UNL A   1      36.705  21.795  26.064  1.00  0.00    -0.345 N 
ATOM      8  C   UNL A   1      35.716  21.199  25.285  1.00  0.00     0.244 C 
ATOM      9  H   UNL A   1      36.604  21.859  27.041  1.00  0.00     0.164 HD
ATOM     10  O   UNL A   1      35.866  20.039  24.910  1.00  0.00    -0.273 OA
BRANCH   8  11
ATOM     11  C   UNL A   1      34.363  21.937  25.274  1.00  0.00     0.188 C 
BRANCH  11  12
ATOM     12  C   UNL A   1      34.185  23.030  26.354  1.00  0.00     0.069 C 
BRANCH  12  13
ATOM     13  C   UNL A   1      33.151  24.125  26.346  1.00  0.00    -0.037 C 
ATOM     14  C   UNL A   1      33.123  25.437  26.104  1.00  0.00     0.001 A 
ATOM     15  C   UNL A   1      31.771  23.662  26.753  1.00  0.00     0.174 C 
ATOM     16  C   UNL A   1      34.033  26.454  25.687  1.00  0.00     0.010 A 
ATOM     17  C   UNL A   1      31.739  25.808  26.482  1.00  0.00     0.065 A 
ATOM     18  N   UNL A   1      30.932  24.863  26.848  1.00  0.00    -0.280 NA
ATOM     19  C   UNL A   1      33.635  27.735  25.631  1.00  0.00     0.001 A 
ATOM     20  C   UNL A   1      31.385  27.242  26.444  1.00  0.00     0.028 A 
ATOM     21  C   UNL A   1      32.302  28.130  26.031  1.00  0.00     0.002 A 
ENDBRANCH  12  13
ENDBRANCH  11  12
BRANCH  11  22
ATOM     22  N   UNL A   1      33.700  22.351  24.030  1.00  0.00    -0.249 N 
ATOM     23  C   UNL A   1      32.458  21.789  23.775  1.00  0.00     0.351 C 
ATOM     24  C   UNL A   1      34.172  23.337  23.203  1.00  0.00     0.244 C 
ATOM     25  N   UNL A   1      31.444  22.689  23.559  1.00  0.00    -0.197 NA
ATOM     26  O   UNL A   1      32.252  20.594  23.873  1.00  0.00    -0.246 OA
ATOM     27  C   UNL A   1      33.112  24.056  22.382  1.00  0.00     0.151 C 
ATOM     28  O   UNL A   1      35.367  23.573  23.041  1.00  0.00    -0.273 OA
ATOM     29  C   UNL A   1      31.742  23.811  22.992  1.00  0.00     0.062 C 
ATOM     30  C   UNL A   1      33.423  25.532  22.297  1.00  0.00    -0.007 C 
ATOM     31  C   UNL A   1      30.721  24.886  22.968  1.00  0.00     0.025 C 
ATOM     32  C   UNL A   1      32.498  26.483  22.486  1.00  0.00    -0.003 C 
ATOM     33  C   UNL A   1      31.122  26.143  22.746  1.00  0.00     0.002 C 
ENDBRANCH  11  22
ENDBRANCH   8  11
ENDBRANCH   6   7
ENDBRANCH   4   6
ENDBRANCH   1   2
BRANCH   1  34
ATOM     34  C   UNL A   1      42.105  20.245  27.053  1.00  0.00     0.023 C 
BRANCH  34  35
ATOM     35  C   UNL A   1      42.341  19.221  25.944  1.00  0.00     0.023 C 
BRANCH  35  36
ATOM     36  C   UNL A   1      43.708  18.553  25.932  1.00  0.00     0.116 C 
BRANCH  36  37
ATOM     37  N   UNL A   1      44.371  18.559  24.639  1.00  0.00    -0.352 N 
ATOM     38  C   UNL A   1      44.901  19.629  23.947  1.00  0.00     0.251 C 
ATOM     39  H   UNL A   1      44.453  17.682  24.198  1.00  0.00     0.163 HD
ATOM     40  O   UNL A   1      45.367  19.470  22.824  1.00  0.00    -0.269 OA
BRANCH  38  41
ATOM     41  C   UNL A   1      44.857  20.988  24.541  1.00  0.00     0.039 A 
ATOM     42  C   UNL A   1      44.206  22.037  23.890  1.00  0.00     0.014 A 
ATOM     43  C   UNL A   1      45.520  21.224  25.750  1.00  0.00     0.014 A 
ATOM     44  C   UNL A   1      44.380  23.342  24.340  1.00  0.00     0.010 A 
ATOM     45  C   UNL A   1      45.612  22.528  26.252  1.00  0.00     0.010 A 
ATOM     46  C   UNL A   1      45.091  23.606  25.523  1.00  0.00    -0.014 A 
BRANCH  46  47
ATOM     47  C   UNL A   1      45.272  25.014  25.965  1.00  0.00     0.031 A 
ATOM     48  C   UNL A   1      44.147  25.777  26.613  1.00  0.00     0.074 A 
ATOM     49  C   UNL A   1      46.485  25.589  25.844  1.00  0.00     0.049 A 
ATOM     50  N   UNL A   1      44.153  26.994  27.099  1.00  0.00    -0.248 NA
ATOM     51  C   UNL A   1      42.850  25.094  26.731  1.00  0.00     0.031 C 
ATOM     52  C   UNL A   1      47.663  24.954  25.251  1.00  0.00     0.029 A 
ATOM     53  N   UNL A   1      46.938  26.821  26.246  1.00  0.00    -0.354 N 
ATOM     54  C   UNL A   1      42.862  27.228  27.556  1.00  0.00     0.074 A 
ATOM     55  C   UNL A   1      42.091  26.038  27.272  1.00  0.00     0.031 C 
ATOM     56  C   UNL A   1      48.718  25.767  25.393  1.00  0.00     0.029 A 
ATOM     57  C   UNL A   1      48.280  27.009  26.022  1.00  0.00     0.049 A 
ATOM     58  H   UNL A   1      46.358  27.503  26.654  1.00  0.00     0.167 HD
ATOM     59  C   UNL A   1      42.365  28.332  28.164  1.00  0.00     0.031 A 
ATOM     60  C   UNL A   1      49.077  28.062  26.285  1.00  0.00     0.031 A 
ATOM     61  C   UNL A   1      43.132  29.511  28.466  1.00  0.00     0.049 A 
ATOM     62  C   UNL A   1      48.496  29.286  26.925  1.00  0.00     0.074 A 
ATOM     63  C   UNL A   1      42.715  30.666  29.107  1.00  0.00     0.029 A 
ATOM     64  N   UNL A   1      44.470  29.687  28.153  1.00  0.00    -0.354 N 
ATOM     65  N   UNL A   1      47.272  29.488  27.349  1.00  0.00    -0.248 NA
ATOM     66  C   UNL A   1      49.398  30.430  27.114  1.00  0.00     0.031 C 
ATOM     67  C   UNL A   1      43.787  31.562  29.134  1.00  0.00     0.029 A 
ATOM     68  C   UNL A   1      44.887  30.942  28.562  1.00  0.00     0.049 A 
ATOM     69  H   UNL A   1      45.039  29.020  27.707  1.00  0.00     0.167 HD
ATOM     70  C   UNL A   1      47.257  30.780  27.858  1.00  0.00     0.074 A 
ATOM     71  C   UNL A   1      48.599  31.307  27.710  1.00  0.00     0.031 C 
ATOM     72  C   UNL A   1      46.220  31.464  28.395  1.00  0.00     0.031 A 
BRANCH  59  73
ATOM     73  C   UNL A   1      40.908  28.334  28.536  1.00  0.00    -0.014 A 
ATOM     74  C   UNL A   1      39.973  28.931  27.674  1.00  0.00     0.009 A 
ATOM     75  C   UNL A   1      40.468  27.822  29.766  1.00  0.00     0.009 A 
ATOM     76  C   UNL A   1      38.628  29.020  28.039  1.00  0.00     0.001 A 
ATOM     77  C   UNL A   1      39.117  27.891  30.117  1.00  0.00     0.001 A 
ATOM     78  C   UNL A   1      38.200  28.495  29.257  1.00  0.00     0.000 A 
ENDBRANCH  59  73
BRANCH  60  79
ATOM     79  C   UNL A   1      50.519  27.981  25.939  1.00  0.00    -0.014 A 
ATOM     80  C   UNL A   1      51.453  27.520  26.881  1.00  0.00     0.009 A 
ATOM     81  C   UNL A   1      50.976  28.434  24.693  1.00  0.00     0.009 A 
ATOM     82  C   UNL A   1      52.819  27.543  26.594  1.00  0.00     0.001 A 
ATOM     83  C   UNL A   1      52.342  28.432  24.400  1.00  0.00     0.001 A 
ATOM     84  C   UNL A   1      53.262  27.997  25.354  1.00  0.00     0.000 A 
ENDBRANCH  60  79
BRANCH  72  85
ATOM     85  C   UNL A   1      46.479  32.866  28.867  1.00  0.00    -0.014 A 
ATOM     86  C   UNL A   1      46.342  33.941  27.975  1.00  0.00     0.009 A 
ATOM     87  C   UNL A   1      46.949  33.111  30.165  1.00  0.00     0.009 A 
ATOM     88  C   UNL A   1      46.681  35.235  28.370  1.00  0.00     0.001 A 
ATOM     89  C   UNL A   1      47.264  34.412  30.566  1.00  0.00     0.001 A 
ATOM     90  C   UNL A   1      47.138  35.470  29.667  1.00  0.00     0.000 A 
ENDBRANCH  72  85
ENDBRANCH  46  47
ENDBRANCH  38  41
ENDBRANCH  36  37
ENDBRANCH  35  36
ENDBRANCH  34  35
ENDBRANCH   1  34
TORSDOF 16
ENDMDL
