MODEL 1
REMARK VINA RESULT:     -11.2      0.000      0.000
REMARK SMILES Cc1ccc(C(=O)NCCCCNC(=O)c2ccc(-c3c4nc(c(-c5ccccc5)c5ccc([nH]5)c(-c5ccccc5)c5nc(c(-c6ccccc6)c6ccc3[nH]6)C=C5)C=C4)cc2)cc1N1CC(C)C1
REMARK SMILES IDX 11 1 10 2 9 3 8 4 6 5 7 6 5 8 1 9 2 10 3 11 65 12 4 13 64 14
REMARK SMILES IDX 66 15 67 16 70 17 68 18 69 19 12 20 13 21 14 22 15 24 16 25
REMARK SMILES IDX 17 26 63 27 18 28 62 29 19 30 20 31 21 32 56 33 22 34 61 35
REMARK SMILES IDX 55 36 57 37 23 38 60 39 54 40 53 41 24 43 46 44 31 45 45 46
REMARK SMILES IDX 32 47 35 48 44 49 58 50 33 51 34 52 43 54 59 55 36 56 25 57
REMARK SMILES IDX 26 58 30 59 27 60 29 61 28 62 47 63 48 64 52 65 49 66 51 67
REMARK SMILES IDX 50 68 37 69 38 70 42 71 39 72 41 73 40 74
REMARK H PARENT 8 7 13 23 57 42 35 53
REMARK Flexibility Score: inf
ROOT
ATOM      1  C   UNL A   1      37.384  20.994  25.375  1.00  0.00     0.023 C 
ENDROOT
BRANCH   1   2
ATOM      2  C   UNL A   1      35.884  21.319  25.414  1.00  0.00     0.023 C 
BRANCH   2   3
ATOM      3  C   UNL A   1      35.558  22.792  25.710  1.00  0.00     0.116 C 
BRANCH   3   4
ATOM      4  N   UNL A   1      34.208  22.964  26.211  1.00  0.00    -0.352 N 
ATOM      5  C   UNL A   1      33.246  23.932  26.076  1.00  0.00     0.251 C 
ATOM      6  O   UNL A   1      32.176  23.705  26.650  1.00  0.00    -0.269 OA
ATOM      7  H   UNL A   1      33.913  22.213  26.777  1.00  0.00     0.163 HD
BRANCH   5   8
ATOM      8  C   UNL A   1      33.386  25.206  25.302  1.00  0.00     0.041 A 
ATOM      9  C   UNL A   1      33.789  28.666  22.706  1.00  0.00     0.046 C 
ATOM     10  C   UNL A   1      33.654  27.496  23.640  1.00  0.00    -0.028 A 
ATOM     11  C   UNL A   1      33.492  26.220  23.084  1.00  0.00     0.006 A 
ATOM     12  C   UNL A   1      33.684  27.629  25.038  1.00  0.00     0.040 A 
ATOM     13  C   UNL A   1      33.376  25.094  23.903  1.00  0.00     0.014 A 
ATOM     14  C   UNL A   1      33.516  26.485  25.844  1.00  0.00     0.040 A 
BRANCH  12  15
ATOM     15  N   UNL A   1      33.892  28.891  25.637  1.00  0.00    -0.371 N 
ATOM     16  C   UNL A   1      34.621  29.182  26.839  1.00  0.00     0.121 C 
ATOM     17  C   UNL A   1      32.852  29.843  25.911  1.00  0.00     0.121 C 
ATOM     18  C   UNL A   1      33.439  30.029  27.316  1.00  0.00     0.025 C 
ATOM     19  C   UNL A   1      33.758  31.446  27.746  1.00  0.00     0.011 C 
ENDBRANCH  12  15
ENDBRANCH   5   8
ENDBRANCH   3   4
ENDBRANCH   2   3
ENDBRANCH   1   2
BRANCH   1  20
ATOM     20  C   UNL A   1      38.281  22.225  25.399  1.00  0.00     0.116 C 
BRANCH  20  21
ATOM     21  N   UNL A   1      39.574  22.048  26.043  1.00  0.00    -0.352 N 
ATOM     22  C   UNL A   1      40.439  22.982  26.600  1.00  0.00     0.251 C 
ATOM     23  H   UNL A   1      39.887  21.115  26.092  1.00  0.00     0.163 HD
ATOM     24  O   UNL A   1      41.544  22.626  26.966  1.00  0.00    -0.269 OA
BRANCH  22  25
ATOM     25  C   UNL A   1      39.975  24.368  26.900  1.00  0.00     0.039 A 
ATOM     26  C   UNL A   1      40.498  25.412  26.120  1.00  0.00     0.014 A 
ATOM     27  C   UNL A   1      39.250  24.671  28.043  1.00  0.00     0.014 A 
ATOM     28  C   UNL A   1      40.547  26.702  26.641  1.00  0.00     0.010 A 
ATOM     29  C   UNL A   1      39.422  25.907  28.626  1.00  0.00     0.010 A 
ATOM     30  C   UNL A   1      40.131  26.902  27.950  1.00  0.00    -0.014 A 
BRANCH  30  31
ATOM     31  C   UNL A   1      40.441  28.079  28.743  1.00  0.00     0.031 A 
ATOM     32  C   UNL A   1      39.460  29.174  28.831  1.00  0.00     0.074 A 
ATOM     33  C   UNL A   1      41.539  28.057  29.532  1.00  0.00     0.049 A 
ATOM     34  N   UNL A   1      39.714  30.336  29.324  1.00  0.00    -0.248 NA
ATOM     35  C   UNL A   1      38.105  29.063  28.290  1.00  0.00     0.031 C 
ATOM     36  C   UNL A   1      41.840  28.903  30.683  1.00  0.00     0.029 A 
ATOM     37  N   UNL A   1      42.733  27.374  29.287  1.00  0.00    -0.354 N 
ATOM     38  C   UNL A   1      38.509  30.977  29.479  1.00  0.00     0.074 A 
ATOM     39  C   UNL A   1      37.571  30.221  28.691  1.00  0.00     0.031 C 
ATOM     40  C   UNL A   1      43.167  28.899  30.893  1.00  0.00     0.029 A 
ATOM     41  C   UNL A   1      43.769  28.198  29.771  1.00  0.00     0.049 A 
ATOM     42  H   UNL A   1      42.831  26.493  28.861  1.00  0.00     0.167 HD
ATOM     43  C   UNL A   1      38.413  31.972  30.401  1.00  0.00     0.031 A 
ATOM     44  C   UNL A   1      44.670  28.761  28.909  1.00  0.00     0.031 A 
ATOM     45  C   UNL A   1      39.735  32.403  30.853  1.00  0.00     0.049 A 
ATOM     46  C   UNL A   1      44.644  30.275  28.917  1.00  0.00     0.074 A 
ATOM     47  C   UNL A   1      40.453  32.205  32.020  1.00  0.00     0.029 A 
ATOM     48  N   UNL A   1      40.636  32.897  29.913  1.00  0.00    -0.354 N 
ATOM     49  N   UNL A   1      43.627  30.985  29.325  1.00  0.00    -0.248 NA
ATOM     50  C   UNL A   1      45.752  31.106  28.451  1.00  0.00     0.031 C 
ATOM     51  C   UNL A   1      41.822  32.462  31.732  1.00  0.00     0.029 A 
ATOM     52  C   UNL A   1      41.923  32.869  30.412  1.00  0.00     0.049 A 
ATOM     53  H   UNL A   1      40.390  33.222  29.017  1.00  0.00     0.167 HD
ATOM     54  C   UNL A   1      43.921  32.317  29.208  1.00  0.00     0.074 A 
ATOM     55  C   UNL A   1      45.263  32.342  28.653  1.00  0.00     0.031 C 
ATOM     56  C   UNL A   1      43.041  33.292  29.580  1.00  0.00     0.031 A 
BRANCH  43  57
ATOM     57  C   UNL A   1      37.121  32.376  31.077  1.00  0.00    -0.014 A 
ATOM     58  C   UNL A   1      36.968  32.154  32.458  1.00  0.00     0.009 A 
ATOM     59  C   UNL A   1      35.978  32.853  30.406  1.00  0.00     0.009 A 
ATOM     60  C   UNL A   1      35.747  32.375  33.116  1.00  0.00     0.001 A 
ATOM     61  C   UNL A   1      34.764  33.101  31.059  1.00  0.00     0.001 A 
ATOM     62  C   UNL A   1      34.645  32.852  32.416  1.00  0.00     0.000 A 
ENDBRANCH  43  57
BRANCH  44  63
ATOM     63  C   UNL A   1      44.934  27.918  27.707  1.00  0.00    -0.014 A 
ATOM     64  C   UNL A   1      45.555  26.666  27.898  1.00  0.00     0.009 A 
ATOM     65  C   UNL A   1      44.241  28.144  26.509  1.00  0.00     0.009 A 
ATOM     66  C   UNL A   1      45.365  25.624  26.985  1.00  0.00     0.001 A 
ATOM     67  C   UNL A   1      44.074  27.103  25.585  1.00  0.00     0.001 A 
ATOM     68  C   UNL A   1      44.595  25.835  25.845  1.00  0.00     0.000 A 
ENDBRANCH  44  63
BRANCH  56  69
ATOM     69  C   UNL A   1      43.175  34.759  29.255  1.00  0.00    -0.014 A 
ATOM     70  C   UNL A   1      42.700  35.351  28.077  1.00  0.00     0.009 A 
ATOM     71  C   UNL A   1      43.676  35.634  30.247  1.00  0.00     0.009 A 
ATOM     72  C   UNL A   1      42.769  36.736  27.878  1.00  0.00     0.001 A 
ATOM     73  C   UNL A   1      43.702  37.019  30.072  1.00  0.00     0.001 A 
ATOM     74  C   UNL A   1      43.261  37.571  28.878  1.00  0.00     0.000 A 
ENDBRANCH  56  69
ENDBRANCH  30  31
ENDBRANCH  22  25
ENDBRANCH  20  21
ENDBRANCH   1  20
TORSDOF 12
ENDMDL
MODEL 2
REMARK VINA RESULT:     -11.1      2.952      8.523
REMARK SMILES Cc1ccc(C(=O)NCCCCNC(=O)c2ccc(-c3c4nc(c(-c5ccccc5)c5ccc([nH]5)c(-c5ccccc5)c5nc(c(-c6ccccc6)c6ccc3[nH]6)C=C5)C=C4)cc2)cc1N1CC(C)C1
REMARK SMILES IDX 11 1 10 2 9 3 8 4 6 5 7 6 5 8 1 9 2 10 3 11 65 12 4 13 64 14
REMARK SMILES IDX 66 15 67 16 70 17 68 18 69 19 12 20 13 21 14 22 15 24 16 25
REMARK SMILES IDX 17 26 63 27 18 28 62 29 19 30 20 31 21 32 56 33 22 34 61 35
REMARK SMILES IDX 55 36 57 37 23 38 60 39 54 40 53 41 24 43 46 44 31 45 45 46
REMARK SMILES IDX 32 47 35 48 44 49 58 50 33 51 34 52 43 54 59 55 36 56 25 57
REMARK SMILES IDX 26 58 30 59 27 60 29 61 28 62 47 63 48 64 52 65 49 66 51 67
REMARK SMILES IDX 50 68 37 69 38 70 42 71 39 72 41 73 40 74
REMARK H PARENT 8 7 13 23 57 42 35 53
REMARK Flexibility Score: inf
ROOT
ATOM      1  C   UNL A   1      33.711  28.465  26.437  1.00  0.00     0.023 C 
ENDROOT
BRANCH   1   2
ATOM      2  C   UNL A   1      32.324  28.000  26.904  1.00  0.00     0.023 C 
BRANCH   2   3
ATOM      3  C   UNL A   1      31.591  27.082  25.913  1.00  0.00     0.116 C 
BRANCH   3   4
ATOM      4  N   UNL A   1      31.025  25.915  26.563  1.00  0.00    -0.352 N 
ATOM      5  C   UNL A   1      31.359  24.587  26.619  1.00  0.00     0.251 C 
ATOM      6  O   UNL A   1      30.627  23.882  27.320  1.00  0.00    -0.269 OA
ATOM      7  H   UNL A   1      30.217  26.125  27.084  1.00  0.00     0.163 HD
BRANCH   5   8
ATOM      8  C   UNL A   1      32.518  23.943  25.922  1.00  0.00     0.041 A 
ATOM      9  C   UNL A   1      36.084  22.435  23.953  1.00  0.00     0.046 C 
ATOM     10  C   UNL A   1      34.829  22.919  24.624  1.00  0.00    -0.028 A 
ATOM     11  C   UNL A   1      34.834  24.198  25.195  1.00  0.00     0.006 A 
ATOM     12  C   UNL A   1      33.659  22.145  24.700  1.00  0.00     0.040 A 
ATOM     13  C   UNL A   1      33.691  24.705  25.820  1.00  0.00     0.014 A 
ATOM     14  C   UNL A   1      32.535  22.658  25.377  1.00  0.00     0.040 A 
BRANCH  12  15
ATOM     15  N   UNL A   1      33.598  20.870  24.096  1.00  0.00    -0.371 N 
ATOM     16  C   UNL A   1      32.467  20.250  23.466  1.00  0.00     0.121 C 
ATOM     17  C   UNL A   1      34.054  19.655  24.712  1.00  0.00     0.121 C 
ATOM     18  C   UNL A   1      32.745  18.983  24.277  1.00  0.00     0.025 C 
ATOM     19  C   UNL A   1      32.862  17.693  23.491  1.00  0.00     0.011 C 
ENDBRANCH  12  15
ENDBRANCH   5   8
ENDBRANCH   3   4
ENDBRANCH   2   3
ENDBRANCH   1   2
BRANCH   1  20
ATOM     20  C   UNL A   1      34.282  29.615  27.258  1.00  0.00     0.116 C 
BRANCH  20  21
ATOM     21  N   UNL A   1      33.576  30.882  27.140  1.00  0.00    -0.352 N 
ATOM     22  C   UNL A   1      33.743  32.075  27.834  1.00  0.00     0.251 C 
ATOM     23  H   UNL A   1      32.864  30.897  26.459  1.00  0.00     0.163 HD
ATOM     24  O   UNL A   1      32.943  32.976  27.669  1.00  0.00    -0.269 OA
BRANCH  22  25
ATOM     25  C   UNL A   1      34.970  32.319  28.648  1.00  0.00     0.039 A 
ATOM     26  C   UNL A   1      36.066  32.919  28.009  1.00  0.00     0.014 A 
ATOM     27  C   UNL A   1      35.136  31.770  29.911  1.00  0.00     0.014 A 
ATOM     28  C   UNL A   1      37.352  32.702  28.498  1.00  0.00     0.010 A 
ATOM     29  C   UNL A   1      36.406  31.428  30.320  1.00  0.00     0.010 A 
ATOM     30  C   UNL A   1      37.511  31.839  29.573  1.00  0.00    -0.014 A 
BRANCH  30  31
ATOM     31  C   UNL A   1      38.775  31.239  29.969  1.00  0.00     0.031 A 
ATOM     32  C   UNL A   1      39.189  29.960  29.368  1.00  0.00     0.074 A 
ATOM     33  C   UNL A   1      39.624  31.962  30.733  1.00  0.00     0.049 A 
ATOM     34  N   UNL A   1      40.171  29.243  29.794  1.00  0.00    -0.248 NA
ATOM     35  C   UNL A   1      38.465  29.339  28.257  1.00  0.00     0.031 C 
ATOM     36  C   UNL A   1      41.059  31.767  30.919  1.00  0.00     0.029 A 
ATOM     37  N   UNL A   1      39.280  32.916  31.694  1.00  0.00    -0.354 N 
ATOM     38  C   UNL A   1      40.415  28.289  28.837  1.00  0.00     0.074 A 
ATOM     39  C   UNL A   1      39.250  28.291  27.992  1.00  0.00     0.031 C 
ATOM     40  C   UNL A   1      41.435  32.357  32.066  1.00  0.00     0.029 A 
ATOM     41  C   UNL A   1      40.218  32.786  32.737  1.00  0.00     0.049 A 
ATOM     42  H   UNL A   1      38.531  33.553  31.650  1.00  0.00     0.167 HD
ATOM     43  C   UNL A   1      41.654  27.733  28.771  1.00  0.00     0.031 A 
ATOM     44  C   UNL A   1      39.828  32.348  33.973  1.00  0.00     0.031 A 
ATOM     45  C   UNL A   1      42.434  28.037  29.970  1.00  0.00     0.049 A 
ATOM     46  C   UNL A   1      40.492  31.051  34.387  1.00  0.00     0.074 A 
ATOM     47  C   UNL A   1      43.487  28.897  30.227  1.00  0.00     0.029 A 
ATOM     48  N   UNL A   1      41.944  27.628  31.209  1.00  0.00    -0.354 N 
ATOM     49  N   UNL A   1      41.018  30.200  33.549  1.00  0.00    -0.248 NA
ATOM     50  C   UNL A   1      40.600  30.605  35.775  1.00  0.00     0.031 C 
ATOM     51  C   UNL A   1      43.540  29.104  31.634  1.00  0.00     0.029 A 
ATOM     52  C   UNL A   1      42.560  28.326  32.228  1.00  0.00     0.049 A 
ATOM     53  H   UNL A   1      41.255  26.938  31.339  1.00  0.00     0.167 HD
ATOM     54  C   UNL A   1      41.538  29.138  34.239  1.00  0.00     0.074 A 
ATOM     55  C   UNL A   1      41.249  29.436  35.630  1.00  0.00     0.031 C 
ATOM     56  C   UNL A   1      42.167  28.100  33.613  1.00  0.00     0.031 A 
BRANCH  43  57
ATOM     57  C   UNL A   1      42.245  27.131  27.515  1.00  0.00    -0.014 A 
ATOM     58  C   UNL A   1      42.887  25.881  27.587  1.00  0.00     0.009 A 
ATOM     59  C   UNL A   1      42.323  27.785  26.270  1.00  0.00     0.009 A 
ATOM     60  C   UNL A   1      43.577  25.335  26.492  1.00  0.00     0.001 A 
ATOM     61  C   UNL A   1      42.987  27.236  25.165  1.00  0.00     0.001 A 
ATOM     62  C   UNL A   1      43.624  26.012  25.280  1.00  0.00     0.000 A 
ENDBRANCH  43  57
BRANCH  44  63
ATOM     63  C   UNL A   1      38.431  32.739  34.317  1.00  0.00    -0.014 A 
ATOM     64  C   UNL A   1      38.179  34.090  34.634  1.00  0.00     0.009 A 
ATOM     65  C   UNL A   1      37.349  31.926  33.949  1.00  0.00     0.009 A 
ATOM     66  C   UNL A   1      36.911  34.648  34.444  1.00  0.00     0.001 A 
ATOM     67  C   UNL A   1      36.074  32.484  33.784  1.00  0.00     0.001 A 
ATOM     68  C   UNL A   1      35.866  33.850  33.986  1.00  0.00     0.000 A 
ENDBRANCH  44  63
BRANCH  56  69
ATOM     69  C   UNL A   1      42.538  26.788  34.257  1.00  0.00    -0.014 A 
ATOM     70  C   UNL A   1      41.676  26.040  35.071  1.00  0.00     0.009 A 
ATOM     71  C   UNL A   1      43.770  26.185  33.914  1.00  0.00     0.009 A 
ATOM     72  C   UNL A   1      42.047  24.780  35.559  1.00  0.00     0.001 A 
ATOM     73  C   UNL A   1      44.122  24.909  34.360  1.00  0.00     0.001 A 
ATOM     74  C   UNL A   1      43.265  24.211  35.197  1.00  0.00     0.000 A 
ENDBRANCH  56  69
ENDBRANCH  30  31
ENDBRANCH  22  25
ENDBRANCH  20  21
ENDBRANCH   1  20
TORSDOF 12
ENDMDL
MODEL 3
REMARK VINA RESULT:     -11.1      3.448      8.342
REMARK SMILES Cc1ccc(C(=O)NCCCCNC(=O)c2ccc(-c3c4nc(c(-c5ccccc5)c5ccc([nH]5)c(-c5ccccc5)c5nc(c(-c6ccccc6)c6ccc3[nH]6)C=C5)C=C4)cc2)cc1N1CC(C)C1
REMARK SMILES IDX 11 1 10 2 9 3 8 4 6 5 7 6 5 8 1 9 2 10 3 11 65 12 4 13 64 14
REMARK SMILES IDX 66 15 67 16 70 17 68 18 69 19 12 20 13 21 14 22 15 24 16 25
REMARK SMILES IDX 17 26 63 27 18 28 62 29 19 30 20 31 21 32 56 33 22 34 61 35
REMARK SMILES IDX 55 36 57 37 23 38 60 39 54 40 53 41 24 43 46 44 31 45 45 46
REMARK SMILES IDX 32 47 35 48 44 49 58 50 33 51 34 52 43 54 59 55 36 56 25 57
REMARK SMILES IDX 26 58 30 59 27 60 29 61 28 62 47 63 48 64 52 65 49 66 51 67
REMARK SMILES IDX 50 68 37 69 38 70 42 71 39 72 41 73 40 74
REMARK H PARENT 8 7 13 23 57 42 35 53
REMARK Flexibility Score: inf
ROOT
ATOM      1  C   UNL A   1      34.396  29.083  26.400  1.00  0.00     0.023 C 
ENDROOT
BRANCH   1   2
ATOM      2  C   UNL A   1      33.325  28.578  25.423  1.00  0.00     0.023 C 
BRANCH   2   3
ATOM      3  C   UNL A   1      33.335  27.059  25.192  1.00  0.00     0.116 C 
BRANCH   3   4
ATOM      4  N   UNL A   1      33.264  26.718  23.784  1.00  0.00    -0.352 N 
ATOM      5  C   UNL A   1      32.268  26.718  22.842  1.00  0.00     0.251 C 
ATOM      6  O   UNL A   1      32.609  26.377  21.705  1.00  0.00    -0.269 OA
ATOM      7  H   UNL A   1      34.129  26.420  23.421  1.00  0.00     0.163 HD
BRANCH   5   8
ATOM      8  C   UNL A   1      30.838  27.097  23.076  1.00  0.00     0.041 A 
ATOM      9  C   UNL A   1      26.632  27.808  23.895  1.00  0.00     0.046 C 
ATOM     10  C   UNL A   1      28.090  27.603  23.594  1.00  0.00    -0.028 A 
ATOM     11  C   UNL A   1      28.671  26.376  23.937  1.00  0.00     0.006 A 
ATOM     12  C   UNL A   1      28.888  28.586  22.985  1.00  0.00     0.040 A 
ATOM     13  C   UNL A   1      30.019  26.124  23.668  1.00  0.00     0.014 A 
ATOM     14  C   UNL A   1      30.256  28.327  22.767  1.00  0.00     0.040 A 
BRANCH  12  15
ATOM     15  N   UNL A   1      28.329  29.819  22.581  1.00  0.00    -0.371 N 
ATOM     16  C   UNL A   1      28.119  30.290  21.242  1.00  0.00     0.121 C 
ATOM     17  C   UNL A   1      28.741  31.101  23.081  1.00  0.00     0.121 C 
ATOM     18  C   UNL A   1      28.774  31.615  21.636  1.00  0.00     0.025 C 
ATOM     19  C   UNL A   1      27.983  32.872  21.335  1.00  0.00     0.011 C 
ENDBRANCH  12  15
ENDBRANCH   5   8
ENDBRANCH   3   4
ENDBRANCH   2   3
ENDBRANCH   1   2
BRANCH   1  20
ATOM     20  C   UNL A   1      33.828  29.818  27.609  1.00  0.00     0.116 C 
BRANCH  20  21
ATOM     21  N   UNL A   1      33.217  31.109  27.329  1.00  0.00    -0.352 N 
ATOM     22  C   UNL A   1      33.484  32.365  27.859  1.00  0.00     0.251 C 
ATOM     23  H   UNL A   1      32.499  31.088  26.655  1.00  0.00     0.163 HD
ATOM     24  O   UNL A   1      32.750  33.296  27.580  1.00  0.00    -0.269 OA
BRANCH  22  25
ATOM     25  C   UNL A   1      34.736  32.619  28.629  1.00  0.00     0.039 A 
ATOM     26  C   UNL A   1      35.830  33.158  27.933  1.00  0.00     0.014 A 
ATOM     27  C   UNL A   1      34.922  32.131  29.914  1.00  0.00     0.014 A 
ATOM     28  C   UNL A   1      37.122  32.934  28.401  1.00  0.00     0.010 A 
ATOM     29  C   UNL A   1      36.193  31.779  30.309  1.00  0.00     0.010 A 
ATOM     30  C   UNL A   1      37.289  32.124  29.515  1.00  0.00    -0.014 A 
BRANCH  30  31
ATOM     31  C   UNL A   1      38.547  31.513  29.909  1.00  0.00     0.031 A 
ATOM     32  C   UNL A   1      38.943  30.222  29.320  1.00  0.00     0.074 A 
ATOM     33  C   UNL A   1      39.409  32.234  30.661  1.00  0.00     0.049 A 
ATOM     34  N   UNL A   1      39.918  29.499  29.748  1.00  0.00    -0.248 NA
ATOM     35  C   UNL A   1      38.205  29.598  28.221  1.00  0.00     0.031 C 
ATOM     36  C   UNL A   1      40.843  32.023  30.840  1.00  0.00     0.029 A 
ATOM     37  N   UNL A   1      39.083  33.202  31.613  1.00  0.00    -0.354 N 
ATOM     38  C   UNL A   1      40.145  28.531  28.800  1.00  0.00     0.074 A 
ATOM     39  C   UNL A   1      38.975  28.538  27.962  1.00  0.00     0.031 C 
ATOM     40  C   UNL A   1      41.233  32.622  31.978  1.00  0.00     0.029 A 
ATOM     41  C   UNL A   1      40.026  33.073  32.651  1.00  0.00     0.049 A 
ATOM     42  H   UNL A   1      38.341  33.848  31.567  1.00  0.00     0.167 HD
ATOM     43  C   UNL A   1      41.377  27.960  28.733  1.00  0.00     0.031 A 
ATOM     44  C   UNL A   1      39.639  32.653  33.894  1.00  0.00     0.031 A 
ATOM     45  C   UNL A   1      42.168  28.267  29.924  1.00  0.00     0.049 A 
ATOM     46  C   UNL A   1      40.289  31.353  34.319  1.00  0.00     0.074 A 
ATOM     47  C   UNL A   1      43.233  29.118  30.165  1.00  0.00     0.029 A 
ATOM     48  N   UNL A   1      41.681  27.878  31.170  1.00  0.00    -0.354 N 
ATOM     49  N   UNL A   1      40.800  30.486  33.487  1.00  0.00    -0.248 NA
ATOM     50  C   UNL A   1      40.401  30.921  35.710  1.00  0.00     0.031 C 
ATOM     51  C   UNL A   1      43.297  29.339  31.569  1.00  0.00     0.029 A 
ATOM     52  C   UNL A   1      42.312  28.580  32.178  1.00  0.00     0.049 A 
ATOM     53  H   UNL A   1      40.984  27.198  31.312  1.00  0.00     0.167 HD
ATOM     54  C   UNL A   1      41.312  29.426  34.185  1.00  0.00     0.074 A 
ATOM     55  C   UNL A   1      41.035  29.742  35.575  1.00  0.00     0.031 C 
ATOM     56  C   UNL A   1      41.924  28.374  33.567  1.00  0.00     0.031 A 
BRANCH  43  57
ATOM     57  C   UNL A   1      41.953  27.337  27.481  1.00  0.00    -0.014 A 
ATOM     58  C   UNL A   1      42.752  26.184  27.589  1.00  0.00     0.009 A 
ATOM     59  C   UNL A   1      41.862  27.895  26.190  1.00  0.00     0.009 A 
ATOM     60  C   UNL A   1      43.430  25.641  26.486  1.00  0.00     0.001 A 
ATOM     61  C   UNL A   1      42.514  27.346  25.079  1.00  0.00     0.001 A 
ATOM     62  C   UNL A   1      43.308  26.221  25.229  1.00  0.00     0.000 A 
ENDBRANCH  43  57
BRANCH  44  63
ATOM     63  C   UNL A   1      38.248  33.065  34.243  1.00  0.00    -0.014 A 
ATOM     64  C   UNL A   1      37.963  34.444  34.313  1.00  0.00     0.009 A 
ATOM     65  C   UNL A   1      37.179  32.168  34.101  1.00  0.00     0.009 A 
ATOM     66  C   UNL A   1      36.666  34.921  34.099  1.00  0.00     0.001 A 
ATOM     67  C   UNL A   1      35.877  32.650  33.911  1.00  0.00     0.001 A 
ATOM     68  C   UNL A   1      35.629  34.022  33.864  1.00  0.00     0.000 A 
ENDBRANCH  44  63
BRANCH  56  69
ATOM     69  C   UNL A   1      42.283  27.064  34.223  1.00  0.00    -0.014 A 
ATOM     70  C   UNL A   1      41.399  26.307  35.003  1.00  0.00     0.009 A 
ATOM     71  C   UNL A   1      43.533  26.474  33.926  1.00  0.00     0.009 A 
ATOM     72  C   UNL A   1      41.764  25.050  35.505  1.00  0.00     0.001 A 
ATOM     73  C   UNL A   1      43.881  25.201  34.384  1.00  0.00     0.001 A 
ATOM     74  C   UNL A   1      43.000  24.493  35.188  1.00  0.00     0.000 A 
ENDBRANCH  56  69
ENDBRANCH  30  31
ENDBRANCH  22  25
ENDBRANCH  20  21
ENDBRANCH   1  20
TORSDOF 12
ENDMDL
