MODEL 1
REMARK VINA RESULT:     -12.3      0.000      0.000
REMARK SMILES CCc1cc(C(=O)c2[nH]c3cc(Cl)ccc3c2CC(=O)NCCCCNC(=O)c2ccc(-c3c4nc(c(-c5ccccc5)c5ccc([nH]5)c(-c5ccccc5)c5nc(c(-c6ccccc6)c6ccc3[nH]6)C=C5)C=C4)cc2)ncc1Cl
REMARK SMILES IDX 22 1 21 2 19 3 20 4 18 6 17 7 8 8 9 9 10 10 16 12 11 13
REMARK SMILES IDX 15 14 12 15 14 16 13 17 6 18 7 19 5 20 3 21 4 22 79 23 78 24
REMARK SMILES IDX 80 25 77 26 2 27 1 28 23 29 24 30 25 31 26 32 27 33 28 35
REMARK SMILES IDX 29 36 30 37 76 38 31 39 75 40 32 41 33 42 34 43 69 44 35 45
REMARK SMILES IDX 74 46 68 47 70 48 36 49 73 50 67 51 66 52 37 54 59 55 44 56
REMARK SMILES IDX 58 57 45 58 48 59 57 60 71 61 46 62 47 63 56 65 72 66 49 67
REMARK SMILES IDX 38 68 39 69 43 70 40 71 42 72 41 73 60 74 61 75 65 76 62 77
REMARK SMILES IDX 64 78 63 79 50 80 51 81 55 82 52 83 54 84 53 85
REMARK H PARENT 21 5 9 11 26 34 70 53 48 64
REMARK Flexibility Score: inf
ROOT
ATOM      1  C   UNL A   1      32.260  29.820  27.033  1.00  0.00     0.116 C 
ENDROOT
BRANCH   1   2
ATOM      2  N   UNL A   1      31.625  28.520  27.103  1.00  0.00    -0.356 N 
ATOM      3  C   UNL A   1      32.120  27.294  26.757  1.00  0.00     0.224 C 
ATOM      4  O   UNL A   1      31.446  26.297  27.025  1.00  0.00    -0.275 OA
ATOM      5  H   UNL A   1      30.704  28.519  27.449  1.00  0.00     0.163 HD
BRANCH   3   6
ATOM      6  C   UNL A   1      33.509  27.155  26.154  1.00  0.00     0.138 C 
BRANCH   6   7
ATOM      7  C   UNL A   1      33.626  26.117  25.074  1.00  0.00    -0.002 A 
ATOM      8  C   UNL A   1      33.361  26.275  23.716  1.00  0.00     0.093 A 
ATOM      9  N   UNL A   1      33.699  25.098  23.090  1.00  0.00    -0.351 N 
ATOM     10  C   UNL A   1      34.073  24.149  24.007  1.00  0.00     0.048 A 
ATOM     11  H   UNL A   1      33.676  24.956  22.116  1.00  0.00     0.167 HD
ATOM     12  C   UNL A   1      34.023  24.750  25.263  1.00  0.00     0.004 A 
ATOM     13  C   UNL A   1      34.473  22.821  23.813  1.00  0.00     0.047 A 
ATOM     14  C   UNL A   1      34.380  23.977  26.390  1.00  0.00     0.012 A 
ATOM     15  C   UNL A   1      34.827  22.085  24.947  1.00  0.00     0.043 A 
ATOM     16  C   UNL A   1      34.781  22.647  26.219  1.00  0.00     0.021 A 
ATOM     17  Cl  UNL A   1      35.334  20.449  24.761  1.00  0.00    -0.084 Cl
BRANCH   8  18
ATOM     18  C   UNL A   1      32.928  27.453  22.985  1.00  0.00     0.227 C 
ATOM     19  O   UNL A   1      33.727  28.117  22.335  1.00  0.00    -0.285 OA
BRANCH  18  20
ATOM     20  C   UNL A   1      31.455  27.796  22.983  1.00  0.00     0.113 A 
ATOM     21  C   UNL A   1      29.606  29.339  22.682  1.00  0.00    -0.026 A 
ATOM     22  C   UNL A   1      30.983  29.055  22.604  1.00  0.00     0.037 A 
ATOM     23  C   UNL A   1      28.748  28.324  23.118  1.00  0.00     0.062 A 
ATOM     24  C   UNL A   1      29.299  27.098  23.462  1.00  0.00     0.132 A 
ATOM     25  Cl  UNL A   1      27.045  28.538  23.253  1.00  0.00    -0.082 Cl
ATOM     26  N   UNL A   1      30.622  26.817  23.418  1.00  0.00    -0.251 NA
BRANCH  21  27
ATOM     27  C   UNL A   1      29.127  30.732  22.342  1.00  0.00     0.034 C 
ATOM     28  C   UNL A   1      28.835  31.550  23.593  1.00  0.00     0.009 C 
ENDBRANCH  21  27
ENDBRANCH  18  20
ENDBRANCH   8  18
ENDBRANCH   6   7
ENDBRANCH   3   6
ENDBRANCH   1   2
BRANCH   1  29
ATOM     29  C   UNL A   1      31.582  30.767  26.045  1.00  0.00     0.023 C 
BRANCH  29  30
ATOM     30  C   UNL A   1      31.378  32.202  26.538  1.00  0.00     0.023 C 
BRANCH  30  31
ATOM     31  C   UNL A   1      32.559  32.829  27.272  1.00  0.00     0.116 C 
BRANCH  31  32
ATOM     32  N   UNL A   1      32.323  34.209  27.666  1.00  0.00    -0.352 N 
ATOM     33  C   UNL A   1      32.997  34.978  28.584  1.00  0.00     0.251 C 
ATOM     34  H   UNL A   1      31.572  34.656  27.212  1.00  0.00     0.163 HD
ATOM     35  O   UNL A   1      32.597  36.105  28.856  1.00  0.00    -0.269 OA
BRANCH  33  36
ATOM     36  C   UNL A   1      34.185  34.434  29.277  1.00  0.00     0.039 A 
ATOM     37  C   UNL A   1      34.013  33.858  30.540  1.00  0.00     0.014 A 
ATOM     38  C   UNL A   1      35.455  34.489  28.696  1.00  0.00     0.014 A 
ATOM     39  C   UNL A   1      35.098  33.262  31.185  1.00  0.00     0.010 A 
ATOM     40  C   UNL A   1      36.532  33.870  29.327  1.00  0.00     0.010 A 
ATOM     41  C   UNL A   1      36.356  33.234  30.566  1.00  0.00    -0.014 A 
BRANCH  41  42
ATOM     42  C   UNL A   1      37.489  32.493  31.164  1.00  0.00     0.031 A 
ATOM     43  C   UNL A   1      38.162  32.997  32.404  1.00  0.00     0.074 A 
ATOM     44  C   UNL A   1      37.963  31.401  30.536  1.00  0.00     0.049 A 
ATOM     45  N   UNL A   1      39.259  32.567  32.976  1.00  0.00    -0.248 NA
ATOM     46  C   UNL A   1      37.528  34.136  33.082  1.00  0.00     0.031 C 
ATOM     47  C   UNL A   1      37.406  30.814  29.315  1.00  0.00     0.029 A 
ATOM     48  N   UNL A   1      39.038  30.602  30.831  1.00  0.00    -0.354 N 
ATOM     49  C   UNL A   1      39.462  33.400  34.066  1.00  0.00     0.074 A 
ATOM     50  C   UNL A   1      38.375  34.356  34.081  1.00  0.00     0.031 C 
ATOM     51  C   UNL A   1      38.145  29.749  28.966  1.00  0.00     0.029 A 
ATOM     52  C   UNL A   1      39.241  29.599  29.917  1.00  0.00     0.049 A 
ATOM     53  H   UNL A   1      39.609  30.736  31.622  1.00  0.00     0.167 HD
ATOM     54  C   UNL A   1      40.468  33.372  34.974  1.00  0.00     0.031 A 
ATOM     55  C   UNL A   1      40.215  28.676  29.839  1.00  0.00     0.031 A 
ATOM     56  C   UNL A   1      41.541  32.416  34.981  1.00  0.00     0.049 A 
ATOM     57  C   UNL A   1      41.320  28.670  30.852  1.00  0.00     0.074 A 
ATOM     58  C   UNL A   1      42.588  32.299  35.880  1.00  0.00     0.029 A 
ATOM     59  N   UNL A   1      41.703  31.410  34.043  1.00  0.00    -0.354 N 
ATOM     60  N   UNL A   1      41.503  29.469  31.872  1.00  0.00    -0.248 NA
ATOM     61  C   UNL A   1      42.356  27.641  30.692  1.00  0.00     0.031 C 
ATOM     62  C   UNL A   1      43.391  31.225  35.478  1.00  0.00     0.029 A 
ATOM     63  C   UNL A   1      42.836  30.671  34.336  1.00  0.00     0.049 A 
ATOM     64  H   UNL A   1      41.101  31.244  33.282  1.00  0.00     0.167 HD
ATOM     65  C   UNL A   1      42.677  29.044  32.476  1.00  0.00     0.074 A 
ATOM     66  C   UNL A   1      43.159  27.911  31.713  1.00  0.00     0.031 C 
ATOM     67  C   UNL A   1      43.303  29.552  33.563  1.00  0.00     0.031 A 
BRANCH  54  68
ATOM     68  C   UNL A   1      40.453  34.431  36.031  1.00  0.00    -0.014 A 
ATOM     69  C   UNL A   1      39.777  34.226  37.242  1.00  0.00     0.009 A 
ATOM     70  C   UNL A   1      41.139  35.637  35.821  1.00  0.00     0.009 A 
ATOM     71  C   UNL A   1      39.772  35.221  38.220  1.00  0.00     0.001 A 
ATOM     72  C   UNL A   1      41.137  36.627  36.805  1.00  0.00     0.001 A 
ATOM     73  C   UNL A   1      40.452  36.420  38.001  1.00  0.00     0.000 A 
ENDBRANCH  54  68
BRANCH  55  74
ATOM     74  C   UNL A   1      40.204  27.692  28.733  1.00  0.00    -0.014 A 
ATOM     75  C   UNL A   1      40.832  27.992  27.517  1.00  0.00     0.009 A 
ATOM     76  C   UNL A   1      39.576  26.449  28.896  1.00  0.00     0.009 A 
ATOM     77  C   UNL A   1      40.824  27.063  26.475  1.00  0.00     0.001 A 
ATOM     78  C   UNL A   1      39.577  25.520  27.854  1.00  0.00     0.001 A 
ATOM     79  C   UNL A   1      40.197  25.829  26.644  1.00  0.00     0.000 A 
ENDBRANCH  55  74
BRANCH  67  80
ATOM     80  C   UNL A   1      44.572  28.880  33.985  1.00  0.00    -0.014 A 
ATOM     81  C   UNL A   1      44.541  27.799  34.877  1.00  0.00     0.009 A 
ATOM     82  C   UNL A   1      45.803  29.319  33.477  1.00  0.00     0.009 A 
ATOM     83  C   UNL A   1      45.727  27.178  35.269  1.00  0.00     0.001 A 
ATOM     84  C   UNL A   1      46.987  28.692  33.867  1.00  0.00     0.001 A 
ATOM     85  C   UNL A   1      46.948  27.625  34.763  1.00  0.00     0.000 A 
ENDBRANCH  67  80
ENDBRANCH  41  42
ENDBRANCH  33  36
ENDBRANCH  31  32
ENDBRANCH  30  31
ENDBRANCH  29  30
ENDBRANCH   1  29
TORSDOF 15
ENDMDL
MODEL 2
REMARK VINA RESULT:     -12.2      0.898      5.753
REMARK SMILES CCc1cc(C(=O)c2[nH]c3cc(Cl)ccc3c2CC(=O)NCCCCNC(=O)c2ccc(-c3c4nc(c(-c5ccccc5)c5ccc([nH]5)c(-c5ccccc5)c5nc(c(-c6ccccc6)c6ccc3[nH]6)C=C5)C=C4)cc2)ncc1Cl
REMARK SMILES IDX 22 1 21 2 19 3 20 4 18 6 17 7 8 8 9 9 10 10 16 12 11 13
REMARK SMILES IDX 15 14 12 15 14 16 13 17 6 18 7 19 5 20 3 21 4 22 79 23 78 24
REMARK SMILES IDX 80 25 77 26 2 27 1 28 23 29 24 30 25 31 26 32 27 33 28 35
REMARK SMILES IDX 29 36 30 37 76 38 31 39 75 40 32 41 33 42 34 43 69 44 35 45
REMARK SMILES IDX 74 46 68 47 70 48 36 49 73 50 67 51 66 52 37 54 59 55 44 56
REMARK SMILES IDX 58 57 45 58 48 59 57 60 71 61 46 62 47 63 56 65 72 66 49 67
REMARK SMILES IDX 38 68 39 69 43 70 40 71 42 72 41 73 60 74 61 75 65 76 62 77
REMARK SMILES IDX 64 78 63 79 50 80 51 81 55 82 52 83 54 84 53 85
REMARK H PARENT 21 5 9 11 26 34 70 53 48 64
REMARK Flexibility Score: inf
ROOT
ATOM      1  C   UNL A   1      32.102  29.780  25.839  1.00  0.00     0.116 C 
ENDROOT
BRANCH   1   2
ATOM      2  N   UNL A   1      31.523  28.594  26.437  1.00  0.00    -0.356 N 
ATOM      3  C   UNL A   1      32.079  27.362  26.631  1.00  0.00     0.224 C 
ATOM      4  O   UNL A   1      31.441  26.531  27.283  1.00  0.00    -0.275 OA
ATOM      5  H   UNL A   1      30.593  28.690  26.747  1.00  0.00     0.163 HD
BRANCH   3   6
ATOM      6  C   UNL A   1      33.488  27.056  26.148  1.00  0.00     0.138 C 
BRANCH   6   7
ATOM      7  C   UNL A   1      33.573  26.007  25.075  1.00  0.00    -0.002 A 
ATOM      8  C   UNL A   1      33.310  26.163  23.717  1.00  0.00     0.093 A 
ATOM      9  N   UNL A   1      33.612  24.972  23.099  1.00  0.00    -0.351 N 
ATOM     10  C   UNL A   1      33.961  24.020  24.022  1.00  0.00     0.048 A 
ATOM     11  H   UNL A   1      33.584  24.824  22.126  1.00  0.00     0.167 HD
ATOM     12  C   UNL A   1      33.931  24.631  25.274  1.00  0.00     0.004 A 
ATOM     13  C   UNL A   1      34.322  22.678  23.837  1.00  0.00     0.047 A 
ATOM     14  C   UNL A   1      34.268  23.857  26.406  1.00  0.00     0.012 A 
ATOM     15  C   UNL A   1      34.657  21.941  24.976  1.00  0.00     0.043 A 
ATOM     16  C   UNL A   1      34.630  22.514  26.244  1.00  0.00     0.021 A 
ATOM     17  Cl  UNL A   1      35.117  20.290  24.801  1.00  0.00    -0.084 Cl
BRANCH   8  18
ATOM     18  C   UNL A   1      32.909  27.347  22.977  1.00  0.00     0.227 C 
ATOM     19  O   UNL A   1      33.731  28.000  22.345  1.00  0.00    -0.285 OA
BRANCH  18  20
ATOM     20  C   UNL A   1      31.442  27.711  22.945  1.00  0.00     0.113 A 
ATOM     21  C   UNL A   1      29.601  29.175  22.345  1.00  0.00    -0.026 A 
ATOM     22  C   UNL A   1      30.970  28.851  22.289  1.00  0.00     0.037 A 
ATOM     23  C   UNL A   1      28.748  28.314  23.043  1.00  0.00     0.062 A 
ATOM     24  C   UNL A   1      29.297  27.195  23.654  1.00  0.00     0.132 A 
ATOM     25  Cl  UNL A   1      27.055  28.591  23.183  1.00  0.00    -0.082 Cl
ATOM     26  N   UNL A   1      30.615  26.884  23.633  1.00  0.00    -0.251 NA
BRANCH  21  27
ATOM     27  C   UNL A   1      29.127  30.455  21.695  1.00  0.00     0.034 C 
ATOM     28  C   UNL A   1      28.844  31.541  22.725  1.00  0.00     0.009 C 
ENDBRANCH  21  27
ENDBRANCH  18  20
ENDBRANCH   8  18
ENDBRANCH   6   7
ENDBRANCH   3   6
ENDBRANCH   1   2
BRANCH   1  29
ATOM     29  C   UNL A   1      31.056  30.800  25.393  1.00  0.00     0.023 C 
BRANCH  29  30
ATOM     30  C   UNL A   1      30.983  32.080  26.229  1.00  0.00     0.023 C 
BRANCH  30  31
ATOM     31  C   UNL A   1      32.262  32.473  26.961  1.00  0.00     0.116 C 
BRANCH  31  32
ATOM     32  N   UNL A   1      32.192  33.790  27.574  1.00  0.00    -0.352 N 
ATOM     33  C   UNL A   1      33.078  34.397  28.432  1.00  0.00     0.251 C 
ATOM     34  H   UNL A   1      31.396  34.322  27.343  1.00  0.00     0.163 HD
ATOM     35  O   UNL A   1      32.808  35.487  28.925  1.00  0.00    -0.269 OA
BRANCH  33  36
ATOM     36  C   UNL A   1      34.341  33.721  28.795  1.00  0.00     0.039 A 
ATOM     37  C   UNL A   1      35.495  34.029  28.067  1.00  0.00     0.014 A 
ATOM     38  C   UNL A   1      34.395  32.792  29.839  1.00  0.00     0.014 A 
ATOM     39  C   UNL A   1      36.720  33.472  28.437  1.00  0.00     0.010 A 
ATOM     40  C   UNL A   1      35.622  32.257  30.225  1.00  0.00     0.010 A 
ATOM     41  C   UNL A   1      36.796  32.610  29.541  1.00  0.00    -0.014 A 
BRANCH  41  42
ATOM     42  C   UNL A   1      38.098  32.112  30.037  1.00  0.00     0.031 A 
ATOM     43  C   UNL A   1      38.681  30.837  29.508  1.00  0.00     0.074 A 
ATOM     44  C   UNL A   1      38.719  32.776  31.030  1.00  0.00     0.049 A 
ATOM     45  N   UNL A   1      39.725  30.173  29.934  1.00  0.00    -0.248 NA
ATOM     46  C   UNL A   1      37.994  30.223  28.362  1.00  0.00     0.031 C 
ATOM     47  C   UNL A   1      38.251  34.022  31.641  1.00  0.00     0.029 A 
ATOM     48  N   UNL A   1      39.870  32.479  31.713  1.00  0.00    -0.354 N 
ATOM     49  C   UNL A   1      39.808  29.049  29.125  1.00  0.00     0.074 A 
ATOM     50  C   UNL A   1      38.712  29.122  28.181  1.00  0.00     0.031 C 
ATOM     51  C   UNL A   1      39.108  34.382  32.609  1.00  0.00     0.029 A 
ATOM     52  C   UNL A   1      40.163  33.379  32.707  1.00  0.00     0.049 A 
ATOM     53  H   UNL A   1      40.431  31.697  31.511  1.00  0.00     0.167 HD
ATOM     54  C   UNL A   1      40.715  28.043  29.168  1.00  0.00     0.031 A 
ATOM     55  C   UNL A   1      41.156  33.384  33.613  1.00  0.00     0.031 A 
ATOM     56  C   UNL A   1      41.817  27.970  30.087  1.00  0.00     0.049 A 
ATOM     57  C   UNL A   1      42.144  32.257  33.643  1.00  0.00     0.074 A 
ATOM     58  C   UNL A   1      42.800  26.998  30.182  1.00  0.00     0.029 A 
ATOM     59  N   UNL A   1      42.084  28.908  31.070  1.00  0.00    -0.354 N 
ATOM     60  N   UNL A   1      42.203  31.196  32.877  1.00  0.00    -0.248 NA
ATOM     61  C   UNL A   1      43.191  32.324  34.671  1.00  0.00     0.031 C 
ATOM     62  C   UNL A   1      43.658  27.346  31.233  1.00  0.00     0.029 A 
ATOM     63  C   UNL A   1      43.211  28.537  31.782  1.00  0.00     0.049 A 
ATOM     64  H   UNL A   1      41.551  29.719  31.238  1.00  0.00     0.167 HD
ATOM     65  C   UNL A   1      43.292  30.466  33.332  1.00  0.00     0.074 A 
ATOM     66  C   UNL A   1      43.869  31.208  34.434  1.00  0.00     0.031 C 
ATOM     67  C   UNL A   1      43.767  29.283  32.878  1.00  0.00     0.031 A 
BRANCH  54  68
ATOM     68  C   UNL A   1      40.531  26.926  28.188  1.00  0.00    -0.014 A 
ATOM     69  C   UNL A   1      39.739  25.815  28.509  1.00  0.00     0.009 A 
ATOM     70  C   UNL A   1      41.140  26.997  26.926  1.00  0.00     0.009 A 
ATOM     71  C   UNL A   1      39.575  24.781  27.587  1.00  0.00     0.001 A 
ATOM     72  C   UNL A   1      40.968  25.963  26.004  1.00  0.00     0.001 A 
ATOM     73  C   UNL A   1      40.189  24.855  26.336  1.00  0.00     0.000 A 
ENDBRANCH  54  68
BRANCH  55  74
ATOM     74  C   UNL A   1      41.247  34.489  34.594  1.00  0.00    -0.014 A 
ATOM     75  C   UNL A   1      41.984  35.642  34.290  1.00  0.00     0.009 A 
ATOM     76  C   UNL A   1      40.588  34.398  35.829  1.00  0.00     0.009 A 
ATOM     77  C   UNL A   1      42.067  36.685  35.213  1.00  0.00     0.001 A 
ATOM     78  C   UNL A   1      40.668  35.446  36.745  1.00  0.00     0.001 A 
ATOM     79  C   UNL A   1      41.409  36.587  36.439  1.00  0.00     0.000 A 
ENDBRANCH  55  74
BRANCH  67  80
ATOM     80  C   UNL A   1      44.968  28.728  33.576  1.00  0.00    -0.014 A 
ATOM     81  C   UNL A   1      44.818  27.851  34.660  1.00  0.00     0.009 A 
ATOM     82  C   UNL A   1      46.257  29.069  33.140  1.00  0.00     0.009 A 
ATOM     83  C   UNL A   1      45.941  27.338  35.310  1.00  0.00     0.001 A 
ATOM     84  C   UNL A   1      47.377  28.550  33.788  1.00  0.00     0.001 A 
ATOM     85  C   UNL A   1      47.220  27.688  34.873  1.00  0.00     0.000 A 
ENDBRANCH  67  80
ENDBRANCH  41  42
ENDBRANCH  33  36
ENDBRANCH  31  32
ENDBRANCH  30  31
ENDBRANCH  29  30
ENDBRANCH   1  29
TORSDOF 15
ENDMDL
MODEL 3
REMARK VINA RESULT:     -12.0      4.280      9.367
REMARK SMILES CCc1cc(C(=O)c2[nH]c3cc(Cl)ccc3c2CC(=O)NCCCCNC(=O)c2ccc(-c3c4nc(c(-c5ccccc5)c5ccc([nH]5)c(-c5ccccc5)c5nc(c(-c6ccccc6)c6ccc3[nH]6)C=C5)C=C4)cc2)ncc1Cl
REMARK SMILES IDX 22 1 21 2 19 3 20 4 18 6 17 7 8 8 9 9 10 10 16 12 11 13
REMARK SMILES IDX 15 14 12 15 14 16 13 17 6 18 7 19 5 20 3 21 4 22 79 23 78 24
REMARK SMILES IDX 80 25 77 26 2 27 1 28 23 29 24 30 25 31 26 32 27 33 28 35
REMARK SMILES IDX 29 36 30 37 76 38 31 39 75 40 32 41 33 42 34 43 69 44 35 45
REMARK SMILES IDX 74 46 68 47 70 48 36 49 73 50 67 51 66 52 37 54 59 55 44 56
REMARK SMILES IDX 58 57 45 58 48 59 57 60 71 61 46 62 47 63 56 65 72 66 49 67
REMARK SMILES IDX 38 68 39 69 43 70 40 71 42 72 41 73 60 74 61 75 65 76 62 77
REMARK SMILES IDX 64 78 63 79 50 80 51 81 55 82 52 83 54 84 53 85
REMARK H PARENT 21 5 9 11 26 34 70 53 48 64
REMARK Flexibility Score: inf
ROOT
ATOM      1  C   UNL A   1      36.238  21.530  25.089  1.00  0.00     0.116 C 
ENDROOT
BRANCH   1   2
ATOM      2  N   UNL A   1      35.650  22.349  24.048  1.00  0.00    -0.356 N 
ATOM      3  C   UNL A   1      35.172  23.626  24.118  1.00  0.00     0.224 C 
ATOM      4  O   UNL A   1      34.832  24.179  23.068  1.00  0.00    -0.275 OA
ATOM      5  H   UNL A   1      35.586  21.922  23.163  1.00  0.00     0.163 HD
BRANCH   3   6
ATOM      6  C   UNL A   1      35.157  24.384  25.436  1.00  0.00     0.138 C 
BRANCH   6   7
ATOM      7  C   UNL A   1      33.830  24.989  25.800  1.00  0.00    -0.002 A 
ATOM      8  C   UNL A   1      32.721  24.339  26.334  1.00  0.00     0.093 A 
ATOM      9  N   UNL A   1      31.771  25.296  26.602  1.00  0.00    -0.351 N 
ATOM     10  C   UNL A   1      32.185  26.528  26.162  1.00  0.00     0.048 A 
ATOM     11  H   UNL A   1      30.912  25.122  27.049  1.00  0.00     0.167 HD
ATOM     12  C   UNL A   1      33.466  26.369  25.639  1.00  0.00     0.004 A 
ATOM     13  C   UNL A   1      31.530  27.766  26.213  1.00  0.00     0.047 A 
ATOM     14  C   UNL A   1      34.126  27.507  25.126  1.00  0.00     0.012 A 
ATOM     15  C   UNL A   1      32.213  28.874  25.704  1.00  0.00     0.043 A 
ATOM     16  C   UNL A   1      33.490  28.754  25.166  1.00  0.00     0.021 A 
ATOM     17  Cl  UNL A   1      31.456  30.421  25.752  1.00  0.00    -0.084 Cl
BRANCH   8  18
ATOM     18  C   UNL A   1      32.547  22.943  26.694  1.00  0.00     0.227 C 
ATOM     19  O   UNL A   1      32.416  22.608  27.866  1.00  0.00    -0.285 OA
BRANCH  18  20
ATOM     20  C   UNL A   1      32.454  21.921  25.583  1.00  0.00     0.113 A 
ATOM     21  C   UNL A   1      32.773  19.691  24.679  1.00  0.00    -0.026 A 
ATOM     22  C   UNL A   1      32.819  20.585  25.766  1.00  0.00     0.037 A 
ATOM     23  C   UNL A   1      32.330  20.178  23.445  1.00  0.00     0.062 A 
ATOM     24  C   UNL A   1      31.973  21.516  23.353  1.00  0.00     0.132 A 
ATOM     25  Cl  UNL A   1      32.220  19.190  22.039  1.00  0.00    -0.082 Cl
ATOM     26  N   UNL A   1      32.037  22.394  24.381  1.00  0.00    -0.251 NA
BRANCH  21  27
ATOM     27  C   UNL A   1      33.247  18.270  24.881  1.00  0.00     0.034 C 
ATOM     28  C   UNL A   1      34.702  18.096  24.467  1.00  0.00     0.009 C 
ENDBRANCH  21  27
ENDBRANCH  18  20
ENDBRANCH   8  18
ENDBRANCH   6   7
ENDBRANCH   3   6
ENDBRANCH   1   2
BRANCH   1  29
ATOM     29  C   UNL A   1      37.764  21.506  25.044  1.00  0.00     0.023 C 
BRANCH  29  30
ATOM     30  C   UNL A   1      38.399  20.123  24.875  1.00  0.00     0.023 C 
BRANCH  30  31
ATOM     31  C   UNL A   1      39.151  19.581  26.086  1.00  0.00     0.116 C 
BRANCH  31  32
ATOM     32  N   UNL A   1      40.456  19.030  25.753  1.00  0.00    -0.352 N 
ATOM     33  C   UNL A   1      41.697  19.606  25.871  1.00  0.00     0.251 C 
ATOM     34  H   UNL A   1      40.447  18.114  25.391  1.00  0.00     0.163 HD
ATOM     35  O   UNL A   1      42.690  19.021  25.451  1.00  0.00    -0.269 OA
BRANCH  33  36
ATOM     36  C   UNL A   1      41.837  20.952  26.466  1.00  0.00     0.039 A 
ATOM     37  C   UNL A   1      41.790  21.073  27.859  1.00  0.00     0.014 A 
ATOM     38  C   UNL A   1      42.013  22.086  25.667  1.00  0.00     0.014 A 
ATOM     39  C   UNL A   1      42.002  22.316  28.457  1.00  0.00     0.010 A 
ATOM     40  C   UNL A   1      42.252  23.322  26.265  1.00  0.00     0.010 A 
ATOM     41  C   UNL A   1      42.269  23.442  27.663  1.00  0.00    -0.014 A 
BRANCH  41  42
ATOM     42  C   UNL A   1      42.630  24.742  28.272  1.00  0.00     0.031 A 
ATOM     43  C   UNL A   1      41.593  25.804  28.476  1.00  0.00     0.074 A 
ATOM     44  C   UNL A   1      43.918  24.991  28.568  1.00  0.00     0.049 A 
ATOM     45  N   UNL A   1      41.755  27.048  28.848  1.00  0.00    -0.248 NA
ATOM     46  C   UNL A   1      40.197  25.422  28.219  1.00  0.00     0.031 C 
ATOM     47  C   UNL A   1      45.026  24.048  28.405  1.00  0.00     0.029 A 
ATOM     48  N   UNL A   1      44.515  26.128  29.050  1.00  0.00    -0.354 N 
ATOM     49  C   UNL A   1      40.485  27.607  28.844  1.00  0.00     0.074 A 
ATOM     50  C   UNL A   1      39.563  26.567  28.438  1.00  0.00     0.031 C 
ATOM     51  C   UNL A   1      46.168  24.645  28.781  1.00  0.00     0.029 A 
ATOM     52  C   UNL A   1      45.877  26.019  29.178  1.00  0.00     0.049 A 
ATOM     53  H   UNL A   1      44.015  26.944  29.281  1.00  0.00     0.167 HD
ATOM     54  C   UNL A   1      40.120  28.876  29.148  1.00  0.00     0.031 A 
ATOM     55  C   UNL A   1      46.793  26.929  29.551  1.00  0.00     0.031 A 
ATOM     56  C   UNL A   1      41.024  29.911  29.570  1.00  0.00     0.049 A 
ATOM     57  C   UNL A   1      46.365  28.327  29.878  1.00  0.00     0.074 A 
ATOM     58  C   UNL A   1      40.735  31.218  29.925  1.00  0.00     0.029 A 
ATOM     59  N   UNL A   1      42.394  29.755  29.698  1.00  0.00    -0.354 N 
ATOM     60  N   UNL A   1      45.162  28.843  29.860  1.00  0.00    -0.248 NA
ATOM     61  C   UNL A   1      47.425  29.270  30.261  1.00  0.00     0.031 C 
ATOM     62  C   UNL A   1      41.936  31.857  30.258  1.00  0.00     0.029 A 
ATOM     63  C   UNL A   1      42.966  30.942  30.119  1.00  0.00     0.049 A 
ATOM     64  H   UNL A   1      42.887  28.922  29.517  1.00  0.00     0.167 HD
ATOM     65  C   UNL A   1      45.318  30.171  30.227  1.00  0.00     0.074 A 
ATOM     66  C   UNL A   1      46.730  30.381  30.470  1.00  0.00     0.031 C 
ATOM     67  C   UNL A   1      44.373  31.133  30.348  1.00  0.00     0.031 A 
BRANCH  54  68
ATOM     68  C   UNL A   1      38.668  29.212  29.015  1.00  0.00    -0.014 A 
ATOM     69  C   UNL A   1      38.135  29.606  27.780  1.00  0.00     0.009 A 
ATOM     70  C   UNL A   1      37.823  29.113  30.130  1.00  0.00     0.009 A 
ATOM     71  C   UNL A   1      36.779  29.916  27.668  1.00  0.00     0.001 A 
ATOM     72  C   UNL A   1      36.466  29.417  30.013  1.00  0.00     0.001 A 
ATOM     73  C   UNL A   1      35.946  29.821  28.784  1.00  0.00     0.000 A 
ENDBRANCH  54  68
BRANCH  55  74
ATOM     74  C   UNL A   1      48.223  26.548  29.606  1.00  0.00    -0.014 A 
ATOM     75  C   UNL A   1      48.763  26.003  30.779  1.00  0.00     0.009 A 
ATOM     76  C   UNL A   1      49.046  26.719  28.483  1.00  0.00     0.009 A 
ATOM     77  C   UNL A   1      50.110  25.642  30.829  1.00  0.00     0.001 A 
ATOM     78  C   UNL A   1      50.390  26.349  28.536  1.00  0.00     0.001 A 
ATOM     79  C   UNL A   1      50.922  25.814  29.709  1.00  0.00     0.000 A 
ENDBRANCH  55  74
BRANCH  67  80
ATOM     80  C   UNL A   1      44.845  32.492  30.761  1.00  0.00    -0.014 A 
ATOM     81  C   UNL A   1      44.938  32.830  32.118  1.00  0.00     0.009 A 
ATOM     82  C   UNL A   1      45.213  33.435  29.790  1.00  0.00     0.009 A 
ATOM     83  C   UNL A   1      45.376  34.099  32.498  1.00  0.00     0.001 A 
ATOM     84  C   UNL A   1      45.656  34.701  30.173  1.00  0.00     0.001 A 
ATOM     85  C   UNL A   1      45.735  35.033  31.525  1.00  0.00     0.000 A 
ENDBRANCH  67  80
ENDBRANCH  41  42
ENDBRANCH  33  36
ENDBRANCH  31  32
ENDBRANCH  30  31
ENDBRANCH  29  30
ENDBRANCH   1  29
TORSDOF 15
ENDMDL
