MODEL 1
REMARK VINA RESULT:     -10.5      0.000      0.000
REMARK SMILES CC(C)C[C@@H](CNc1ccccc1C(N)=O)C(=O)NCCCCNC(=O)c1ccc(-c2c3nc(c(-c4ccccc4)c4ccc([nH]4)c(-c4ccccc4)c4nc(c(-c5ccccc5)c5ccc2[nH]5)C=C4)C=C3)cc1
REMARK SMILES IDX 20 1 19 2 17 3 18 4 5 6 4 7 2 8 1 9 3 10 6 11 7 12 8 14 9 15
REMARK SMILES IDX 13 16 10 17 12 18 11 19 14 20 15 21 16 22 21 25 22 26 23 27
REMARK SMILES IDX 24 28 25 29 26 31 27 32 28 33 74 34 29 35 73 36 30 37 31 38
REMARK SMILES IDX 32 39 67 40 33 41 72 42 66 43 68 44 34 45 71 46 65 47 64 48
REMARK SMILES IDX 35 50 57 51 42 52 56 53 43 54 46 55 55 56 69 57 44 58 45 59
REMARK SMILES IDX 54 61 70 62 47 63 36 64 37 65 41 66 38 67 40 68 39 69 58 70
REMARK SMILES IDX 59 71 63 72 60 73 62 74 61 75 48 76 49 77 53 78 50 79 52 80
REMARK SMILES IDX 51 81
REMARK H PARENT 19 5 7 13 15 23 15 24 24 30 68 49 46 60
REMARK Flexibility Score: inf
ROOT
ATOM      1  C   UNL A   1      32.017  27.929  26.341  1.00  0.00     0.116 C 
ENDROOT
BRANCH   1   2
ATOM      2  N   UNL A   1      31.431  26.684  26.778  1.00  0.00    -0.356 N 
ATOM      3  C   UNL A   1      31.827  25.417  26.470  1.00  0.00     0.224 C 
ATOM      4  O   UNL A   1      31.433  24.503  27.202  1.00  0.00    -0.275 OA
ATOM      5  H   UNL A   1      30.650  26.760  27.373  1.00  0.00     0.163 HD
BRANCH   3   6
ATOM      6  C   UNL A   1      32.682  25.112  25.243  1.00  0.00     0.098 C 
BRANCH   6   7
ATOM      7  C   UNL A   1      34.186  25.086  25.600  1.00  0.00     0.018 C 
BRANCH   7   8
ATOM      8  C   UNL A   1      34.900  23.727  25.570  1.00  0.00    -0.017 C 
ATOM      9  C   UNL A   1      36.405  23.880  25.366  1.00  0.00     0.007 C 
ATOM     10  C   UNL A   1      34.633  22.998  26.894  1.00  0.00     0.007 C 
ENDBRANCH   7   8
ENDBRANCH   6   7
BRANCH   6  11
ATOM     11  C   UNL A   1      32.054  24.040  24.327  1.00  0.00     0.126 C 
BRANCH  11  12
ATOM     12  N   UNL A   1      30.929  24.464  23.479  1.00  0.00    -0.384 N 
ATOM     13  H   UNL A   1      30.307  23.797  23.107  1.00  0.00     0.160 HD
BRANCH  12  14
ATOM     14  C   UNL A   1      30.749  25.837  23.207  1.00  0.00     0.047 A 
ATOM     15  C   UNL A   1      29.592  26.437  23.741  1.00  0.00     0.026 A 
ATOM     16  C   UNL A   1      31.540  26.643  22.355  1.00  0.00     0.062 A 
ATOM     17  C   UNL A   1      29.334  27.806  23.639  1.00  0.00     0.002 A 
ATOM     18  C   UNL A   1      31.267  28.027  22.244  1.00  0.00     0.016 A 
ATOM     19  C   UNL A   1      30.195  28.612  22.917  1.00  0.00     0.001 A 
BRANCH  16  20
ATOM     20  C   UNL A   1      32.563  26.058  21.434  1.00  0.00     0.250 C 
ATOM     21  N   UNL A   1      32.136  25.579  20.223  1.00  0.00    -0.366 N 
ATOM     22  O   UNL A   1      33.745  25.955  21.737  1.00  0.00    -0.269 OA
ATOM     23  H   UNL A   1      31.188  25.657  19.969  1.00  0.00     0.159 HD
ATOM     24  H   UNL A   1      32.777  25.156  19.607  1.00  0.00     0.159 HD
ENDBRANCH  16  20
ENDBRANCH  12  14
ENDBRANCH  11  12
ENDBRANCH   6  11
ENDBRANCH   3   6
ENDBRANCH   1   2
BRANCH   1  25
ATOM     25  C   UNL A   1      31.782  29.093  27.288  1.00  0.00     0.023 C 
BRANCH  25  26
ATOM     26  C   UNL A   1      31.792  30.455  26.599  1.00  0.00     0.023 C 
BRANCH  26  27
ATOM     27  C   UNL A   1      32.909  31.402  27.033  1.00  0.00     0.116 C 
BRANCH  27  28
ATOM     28  N   UNL A   1      32.446  32.743  27.369  1.00  0.00    -0.352 N 
ATOM     29  C   UNL A   1      33.062  33.686  28.159  1.00  0.00     0.251 C 
ATOM     30  H   UNL A   1      31.581  33.008  26.979  1.00  0.00     0.163 HD
ATOM     31  O   UNL A   1      32.513  34.747  28.423  1.00  0.00    -0.269 OA
BRANCH  29  32
ATOM     32  C   UNL A   1      34.388  33.371  28.721  1.00  0.00     0.039 A 
ATOM     33  C   UNL A   1      34.459  32.705  29.946  1.00  0.00     0.014 A 
ATOM     34  C   UNL A   1      35.545  33.649  27.988  1.00  0.00     0.014 A 
ATOM     35  C   UNL A   1      35.693  32.238  30.399  1.00  0.00     0.010 A 
ATOM     36  C   UNL A   1      36.759  33.114  28.403  1.00  0.00     0.010 A 
ATOM     37  C   UNL A   1      36.844  32.397  29.608  1.00  0.00    -0.014 A 
BRANCH  37  38
ATOM     38  C   UNL A   1      38.142  31.803  30.013  1.00  0.00     0.031 A 
ATOM     39  C   UNL A   1      39.063  32.556  30.931  1.00  0.00     0.074 A 
ATOM     40  C   UNL A   1      38.523  30.615  29.500  1.00  0.00     0.049 A 
ATOM     41  N   UNL A   1      40.258  32.227  31.352  1.00  0.00    -0.248 NA
ATOM     42  C   UNL A   1      38.591  33.862  31.417  1.00  0.00     0.031 C 
ATOM     43  C   UNL A   1      37.740  29.805  28.563  1.00  0.00     0.029 A 
ATOM     44  N   UNL A   1      39.671  29.888  29.690  1.00  0.00    -0.354 N 
ATOM     45  C   UNL A   1      40.683  33.288  32.140  1.00  0.00     0.074 A 
ATOM     46  C   UNL A   1      39.645  34.294  32.092  1.00  0.00     0.031 C 
ATOM     47  C   UNL A   1      38.419  28.680  28.284  1.00  0.00     0.029 A 
ATOM     48  C   UNL A   1      39.699  28.708  28.986  1.00  0.00     0.049 A 
ATOM     49  H   UNL A   1      40.405  30.183  30.276  1.00  0.00     0.167 HD
ATOM     50  C   UNL A   1      41.825  33.407  32.858  1.00  0.00     0.031 A 
ATOM     51  C   UNL A   1      40.649  27.759  28.908  1.00  0.00     0.031 A 
ATOM     52  C   UNL A   1      42.858  32.407  32.907  1.00  0.00     0.049 A 
ATOM     53  C   UNL A   1      41.919  27.924  29.696  1.00  0.00     0.074 A 
ATOM     54  C   UNL A   1      44.027  32.412  33.646  1.00  0.00     0.029 A 
ATOM     55  N   UNL A   1      42.846  31.224  32.183  1.00  0.00    -0.354 N 
ATOM     56  N   UNL A   1      42.275  28.900  30.495  1.00  0.00    -0.248 NA
ATOM     57  C   UNL A   1      42.914  26.847  29.580  1.00  0.00     0.031 C 
ATOM     58  C   UNL A   1      44.750  31.258  33.325  1.00  0.00     0.029 A 
ATOM     59  C   UNL A   1      44.001  30.504  32.437  1.00  0.00     0.049 A 
ATOM     60  H   UNL A   1      42.123  30.939  31.579  1.00  0.00     0.167 HD
ATOM     61  C   UNL A   1      43.519  28.544  30.999  1.00  0.00     0.074 A 
ATOM     62  C   UNL A   1      43.848  27.254  30.428  1.00  0.00     0.031 C 
ATOM     63  C   UNL A   1      44.316  29.223  31.859  1.00  0.00     0.031 A 
BRANCH  50  64
ATOM     64  C   UNL A   1      42.017  34.676  33.641  1.00  0.00    -0.014 A 
ATOM     65  C   UNL A   1      41.512  34.809  34.946  1.00  0.00     0.009 A 
ATOM     66  C   UNL A   1      42.732  35.744  33.080  1.00  0.00     0.009 A 
ATOM     67  C   UNL A   1      41.684  36.000  35.654  1.00  0.00     0.001 A 
ATOM     68  C   UNL A   1      42.930  36.922  33.802  1.00  0.00     0.001 A 
ATOM     69  C   UNL A   1      42.397  37.054  35.083  1.00  0.00     0.000 A 
ENDBRANCH  50  64
BRANCH  51  70
ATOM     70  C   UNL A   1      40.434  26.556  28.060  1.00  0.00    -0.014 A 
ATOM     71  C   UNL A   1      39.679  25.474  28.537  1.00  0.00     0.009 A 
ATOM     72  C   UNL A   1      40.988  26.481  26.772  1.00  0.00     0.009 A 
ATOM     73  C   UNL A   1      39.506  24.330  27.753  1.00  0.00     0.001 A 
ATOM     74  C   UNL A   1      40.788  25.350  25.978  1.00  0.00     0.001 A 
ATOM     75  C   UNL A   1      40.056  24.271  26.473  1.00  0.00     0.000 A 
ENDBRANCH  51  70
BRANCH  63  76
ATOM     76  C   UNL A   1      45.608  28.568  32.264  1.00  0.00    -0.014 A 
ATOM     77  C   UNL A   1      46.800  28.803  31.562  1.00  0.00     0.009 A 
ATOM     78  C   UNL A   1      45.637  27.735  33.394  1.00  0.00     0.009 A 
ATOM     79  C   UNL A   1      47.988  28.190  31.964  1.00  0.00     0.001 A 
ATOM     80  C   UNL A   1      46.832  27.149  33.812  1.00  0.00     0.001 A 
ATOM     81  C   UNL A   1      48.004  27.368  33.091  1.00  0.00     0.000 A 
ENDBRANCH  63  76
ENDBRANCH  37  38
ENDBRANCH  29  32
ENDBRANCH  27  28
ENDBRANCH  26  27
ENDBRANCH  25  26
ENDBRANCH   1  25
TORSDOF 17
ENDMDL
MODEL 2
REMARK VINA RESULT:     -10.4      4.727      7.761
REMARK SMILES CC(C)C[C@@H](CNc1ccccc1C(N)=O)C(=O)NCCCCNC(=O)c1ccc(-c2c3nc(c(-c4ccccc4)c4ccc([nH]4)c(-c4ccccc4)c4nc(c(-c5ccccc5)c5ccc2[nH]5)C=C4)C=C3)cc1
REMARK SMILES IDX 20 1 19 2 17 3 18 4 5 6 4 7 2 8 1 9 3 10 6 11 7 12 8 14 9 15
REMARK SMILES IDX 13 16 10 17 12 18 11 19 14 20 15 21 16 22 21 25 22 26 23 27
REMARK SMILES IDX 24 28 25 29 26 31 27 32 28 33 74 34 29 35 73 36 30 37 31 38
REMARK SMILES IDX 32 39 67 40 33 41 72 42 66 43 68 44 34 45 71 46 65 47 64 48
REMARK SMILES IDX 35 50 57 51 42 52 56 53 43 54 46 55 55 56 69 57 44 58 45 59
REMARK SMILES IDX 54 61 70 62 47 63 36 64 37 65 41 66 38 67 40 68 39 69 58 70
REMARK SMILES IDX 59 71 63 72 60 73 62 74 61 75 48 76 49 77 53 78 50 79 52 80
REMARK SMILES IDX 51 81
REMARK H PARENT 19 5 7 13 15 23 15 24 24 30 68 49 46 60
REMARK Flexibility Score: inf
ROOT
ATOM      1  C   UNL A   1      35.208  34.855  34.523  1.00  0.00     0.116 C 
ENDROOT
BRANCH   1   2
ATOM      2  N   UNL A   1      35.593  33.785  35.412  1.00  0.00    -0.356 N 
ATOM      3  C   UNL A   1      36.852  33.389  35.753  1.00  0.00     0.224 C 
ATOM      4  O   UNL A   1      36.977  32.704  36.772  1.00  0.00    -0.275 OA
ATOM      5  H   UNL A   1      34.855  33.278  35.823  1.00  0.00     0.163 HD
BRANCH   3   6
ATOM      6  C   UNL A   1      38.067  33.728  34.893  1.00  0.00     0.098 C 
BRANCH   6   7
ATOM      7  C   UNL A   1      38.908  34.857  35.530  1.00  0.00     0.018 C 
BRANCH   7   8
ATOM      8  C   UNL A   1      39.310  34.700  37.003  1.00  0.00    -0.017 C 
ATOM      9  C   UNL A   1      40.456  33.707  37.179  1.00  0.00     0.007 C 
ATOM     10  C   UNL A   1      39.730  36.072  37.550  1.00  0.00     0.007 C 
ENDBRANCH   7   8
ENDBRANCH   6   7
BRANCH   6  11
ATOM     11  C   UNL A   1      38.733  32.477  34.279  1.00  0.00     0.126 C 
BRANCH  11  12
ATOM     12  N   UNL A   1      37.997  31.208  34.390  1.00  0.00    -0.384 N 
ATOM     13  H   UNL A   1      37.192  31.147  34.954  1.00  0.00     0.160 HD
BRANCH  12  14
ATOM     14  C   UNL A   1      38.455  30.080  33.677  1.00  0.00     0.047 A 
ATOM     15  C   UNL A   1      37.516  29.440  32.844  1.00  0.00     0.026 A 
ATOM     16  C   UNL A   1      39.716  29.453  33.803  1.00  0.00     0.062 A 
ATOM     17  C   UNL A   1      37.852  28.375  32.005  1.00  0.00     0.002 A 
ATOM     18  C   UNL A   1      40.048  28.366  32.959  1.00  0.00     0.016 A 
ATOM     19  C   UNL A   1      39.135  27.858  32.036  1.00  0.00     0.001 A 
BRANCH  16  20
ATOM     20  C   UNL A   1      40.663  29.789  34.910  1.00  0.00     0.250 C 
ATOM     21  N   UNL A   1      41.957  30.095  34.576  1.00  0.00    -0.366 N 
ATOM     22  O   UNL A   1      40.339  29.759  36.091  1.00  0.00    -0.269 OA
ATOM     23  H   UNL A   1      42.228  30.122  33.630  1.00  0.00     0.159 HD
ATOM     24  H   UNL A   1      42.615  30.287  35.283  1.00  0.00     0.159 HD
ENDBRANCH  16  20
ENDBRANCH  12  14
ENDBRANCH  11  12
ENDBRANCH   6  11
ENDBRANCH   3   6
ENDBRANCH   1   2
BRANCH   1  25
ATOM     25  C   UNL A   1      34.951  34.412  33.093  1.00  0.00     0.023 C 
BRANCH  25  26
ATOM     26  C   UNL A   1      33.655  34.964  32.504  1.00  0.00     0.023 C 
BRANCH  26  27
ATOM     27  C   UNL A   1      33.819  35.846  31.268  1.00  0.00     0.116 C 
BRANCH  27  28
ATOM     28  N   UNL A   1      32.955  35.468  30.157  1.00  0.00    -0.352 N 
ATOM     29  C   UNL A   1      33.201  34.555  29.157  1.00  0.00     0.251 C 
ATOM     30  H   UNL A   1      32.082  35.923  30.117  1.00  0.00     0.163 HD
ATOM     31  O   UNL A   1      32.413  34.399  28.234  1.00  0.00    -0.269 OA
BRANCH  29  32
ATOM     32  C   UNL A   1      34.465  33.796  29.196  1.00  0.00     0.039 A 
ATOM     33  C   UNL A   1      35.570  34.293  28.504  1.00  0.00     0.014 A 
ATOM     34  C   UNL A   1      34.572  32.655  29.994  1.00  0.00     0.014 A 
ATOM     35  C   UNL A   1      36.815  33.689  28.681  1.00  0.00     0.010 A 
ATOM     36  C   UNL A   1      35.827  32.105  30.231  1.00  0.00     0.010 A 
ATOM     37  C   UNL A   1      36.961  32.621  29.583  1.00  0.00    -0.014 A 
BRANCH  37  38
ATOM     38  C   UNL A   1      38.296  32.044  29.879  1.00  0.00     0.031 A 
ATOM     39  C   UNL A   1      39.305  32.837  30.659  1.00  0.00     0.074 A 
ATOM     40  C   UNL A   1      38.624  30.832  29.387  1.00  0.00     0.049 A 
ATOM     41  N   UNL A   1      40.538  32.525  30.969  1.00  0.00    -0.248 NA
ATOM     42  C   UNL A   1      38.883  34.166  31.129  1.00  0.00     0.031 C 
ATOM     43  C   UNL A   1      37.750  29.980  28.576  1.00  0.00     0.029 A 
ATOM     44  N   UNL A   1      39.787  30.111  29.491  1.00  0.00    -0.354 N 
ATOM     45  C   UNL A   1      41.041  33.622  31.657  1.00  0.00     0.074 A 
ATOM     46  C   UNL A   1      40.001  34.628  31.669  1.00  0.00     0.031 C 
ATOM     47  C   UNL A   1      38.399  28.841  28.282  1.00  0.00     0.029 A 
ATOM     48  C   UNL A   1      39.745  28.899  28.845  1.00  0.00     0.049 A 
ATOM     49  H   UNL A   1      40.578  30.433  29.982  1.00  0.00     0.167 HD
ATOM     50  C   UNL A   1      42.251  33.772  32.246  1.00  0.00     0.031 A 
ATOM     51  C   UNL A   1      40.684  27.945  28.714  1.00  0.00     0.031 A 
ATOM     52  C   UNL A   1      43.285  32.773  32.235  1.00  0.00     0.049 A 
ATOM     53  C   UNL A   1      42.029  28.144  29.357  1.00  0.00     0.074 A 
ATOM     54  C   UNL A   1      44.525  32.810  32.847  1.00  0.00     0.029 A 
ATOM     55  N   UNL A   1      43.201  31.557  31.574  1.00  0.00    -0.354 N 
ATOM     56  N   UNL A   1      42.463  29.156  30.067  1.00  0.00    -0.248 NA
ATOM     57  C   UNL A   1      43.009  27.061  29.190  1.00  0.00     0.031 C 
ATOM     58  C   UNL A   1      45.214  31.640  32.509  1.00  0.00     0.029 A 
ATOM     59  C   UNL A   1      44.378  30.846  31.740  1.00  0.00     0.049 A 
ATOM     60  H   UNL A   1      42.420  31.245  31.062  1.00  0.00     0.167 HD
ATOM     61  C   UNL A   1      43.754  28.821  30.456  1.00  0.00     0.074 A 
ATOM     62  C   UNL A   1      44.025  27.505  29.915  1.00  0.00     0.031 C 
ATOM     63  C   UNL A   1      44.634  29.539  31.195  1.00  0.00     0.031 A 
BRANCH  50  64
ATOM     64  C   UNL A   1      42.520  35.076  32.944  1.00  0.00    -0.014 A 
ATOM     65  C   UNL A   1      42.060  35.311  34.251  1.00  0.00     0.009 A 
ATOM     66  C   UNL A   1      43.264  36.075  32.298  1.00  0.00     0.009 A 
ATOM     67  C   UNL A   1      42.304  36.534  34.878  1.00  0.00     0.001 A 
ATOM     68  C   UNL A   1      43.534  37.285  32.940  1.00  0.00     0.001 A 
ATOM     69  C   UNL A   1      43.045  37.518  34.224  1.00  0.00     0.000 A 
ENDBRANCH  50  64
BRANCH  51  70
ATOM     70  C   UNL A   1      40.385  26.703  27.951  1.00  0.00    -0.014 A 
ATOM     71  C   UNL A   1      40.830  26.554  26.629  1.00  0.00     0.009 A 
ATOM     72  C   UNL A   1      39.646  25.665  28.540  1.00  0.00     0.009 A 
ATOM     73  C   UNL A   1      40.520  25.401  25.903  1.00  0.00     0.001 A 
ATOM     74  C   UNL A   1      39.363  24.500  27.822  1.00  0.00     0.001 A 
ATOM     75  C   UNL A   1      39.791  24.374  26.501  1.00  0.00     0.000 A 
ENDBRANCH  51  70
BRANCH  63  76
ATOM     76  C   UNL A   1      45.963  28.900  31.494  1.00  0.00    -0.014 A 
ATOM     77  C   UNL A   1      47.073  29.092  30.657  1.00  0.00     0.009 A 
ATOM     78  C   UNL A   1      46.113  28.129  32.658  1.00  0.00     0.009 A 
ATOM     79  C   UNL A   1      48.298  28.496  30.962  1.00  0.00     0.001 A 
ATOM     80  C   UNL A   1      47.347  27.560  32.977  1.00  0.00     0.001 A 
ATOM     81  C   UNL A   1      48.435  27.735  32.124  1.00  0.00     0.000 A 
ENDBRANCH  63  76
ENDBRANCH  37  38
ENDBRANCH  29  32
ENDBRANCH  27  28
ENDBRANCH  26  27
ENDBRANCH  25  26
ENDBRANCH   1  25
TORSDOF 17
ENDMDL
MODEL 3
REMARK VINA RESULT:     -10.3      4.670      9.723
REMARK SMILES CC(C)C[C@@H](CNc1ccccc1C(N)=O)C(=O)NCCCCNC(=O)c1ccc(-c2c3nc(c(-c4ccccc4)c4ccc([nH]4)c(-c4ccccc4)c4nc(c(-c5ccccc5)c5ccc2[nH]5)C=C4)C=C3)cc1
REMARK SMILES IDX 20 1 19 2 17 3 18 4 5 6 4 7 2 8 1 9 3 10 6 11 7 12 8 14 9 15
REMARK SMILES IDX 13 16 10 17 12 18 11 19 14 20 15 21 16 22 21 25 22 26 23 27
REMARK SMILES IDX 24 28 25 29 26 31 27 32 28 33 74 34 29 35 73 36 30 37 31 38
REMARK SMILES IDX 32 39 67 40 33 41 72 42 66 43 68 44 34 45 71 46 65 47 64 48
REMARK SMILES IDX 35 50 57 51 42 52 56 53 43 54 46 55 55 56 69 57 44 58 45 59
REMARK SMILES IDX 54 61 70 62 47 63 36 64 37 65 41 66 38 67 40 68 39 69 58 70
REMARK SMILES IDX 59 71 63 72 60 73 62 74 61 75 48 76 49 77 53 78 50 79 52 80
REMARK SMILES IDX 51 81
REMARK H PARENT 19 5 7 13 15 23 15 24 24 30 68 49 46 60
REMARK Flexibility Score: inf
ROOT
ATOM      1  C   UNL A   1      35.173  34.974  34.233  1.00  0.00     0.116 C 
ENDROOT
BRANCH   1   2
ATOM      2  N   UNL A   1      35.479  33.907  35.157  1.00  0.00    -0.356 N 
ATOM      3  C   UNL A   1      36.705  33.498  35.590  1.00  0.00     0.224 C 
ATOM      4  O   UNL A   1      36.748  32.822  36.622  1.00  0.00    -0.275 OA
ATOM      5  H   UNL A   1      34.707  33.415  35.520  1.00  0.00     0.163 HD
BRANCH   3   6
ATOM      6  C   UNL A   1      37.983  33.811  34.815  1.00  0.00     0.098 C 
BRANCH   6   7
ATOM      7  C   UNL A   1      38.823  34.891  35.531  1.00  0.00     0.018 C 
BRANCH   7   8
ATOM      8  C   UNL A   1      39.177  34.655  37.006  1.00  0.00    -0.017 C 
ATOM      9  C   UNL A   1      40.289  33.621  37.166  1.00  0.00     0.007 C 
ATOM     10  C   UNL A   1      39.621  35.987  37.629  1.00  0.00     0.007 C 
ENDBRANCH   7   8
ENDBRANCH   6   7
BRANCH   6  11
ATOM     11  C   UNL A   1      38.639  32.551  34.210  1.00  0.00     0.126 C 
BRANCH  11  12
ATOM     12  N   UNL A   1      37.802  31.346  34.110  1.00  0.00    -0.384 N 
ATOM     13  H   UNL A   1      36.889  31.342  34.481  1.00  0.00     0.160 HD
BRANCH  12  14
ATOM     14  C   UNL A   1      38.319  30.196  33.477  1.00  0.00     0.047 A 
ATOM     15  C   UNL A   1      37.428  29.477  32.656  1.00  0.00     0.026 A 
ATOM     16  C   UNL A   1      39.596  29.622  33.673  1.00  0.00     0.062 A 
ATOM     17  C   UNL A   1      37.825  28.379  31.889  1.00  0.00     0.002 A 
ATOM     18  C   UNL A   1      39.991  28.503  32.903  1.00  0.00     0.016 A 
ATOM     19  C   UNL A   1      39.123  27.911  31.985  1.00  0.00     0.001 A 
BRANCH  16  20
ATOM     20  C   UNL A   1      40.498  30.055  34.785  1.00  0.00     0.250 C 
ATOM     21  N   UNL A   1      40.125  29.749  36.069  1.00  0.00    -0.366 N 
ATOM     22  O   UNL A   1      41.521  30.701  34.595  1.00  0.00    -0.269 OA
ATOM     23  H   UNL A   1      39.305  29.230  36.232  1.00  0.00     0.159 HD
ATOM     24  H   UNL A   1      40.678  30.049  36.826  1.00  0.00     0.159 HD
ENDBRANCH  16  20
ENDBRANCH  12  14
ENDBRANCH  11  12
ENDBRANCH   6  11
ENDBRANCH   3   6
ENDBRANCH   1   2
BRANCH   1  25
ATOM     25  C   UNL A   1      34.935  34.510  32.806  1.00  0.00     0.023 C 
BRANCH  25  26
ATOM     26  C   UNL A   1      33.618  35.005  32.213  1.00  0.00     0.023 C 
BRANCH  26  27
ATOM     27  C   UNL A   1      33.738  35.776  30.901  1.00  0.00     0.116 C 
BRANCH  27  28
ATOM     28  N   UNL A   1      32.878  35.267  29.839  1.00  0.00    -0.352 N 
ATOM     29  C   UNL A   1      33.157  34.294  28.907  1.00  0.00     0.251 C 
ATOM     30  H   UNL A   1      31.981  35.671  29.783  1.00  0.00     0.163 HD
ATOM     31  O   UNL A   1      32.364  34.025  28.016  1.00  0.00    -0.269 OA
BRANCH  29  32
ATOM     32  C   UNL A   1      34.461  33.608  28.979  1.00  0.00     0.039 A 
ATOM     33  C   UNL A   1      35.518  34.091  28.206  1.00  0.00     0.014 A 
ATOM     34  C   UNL A   1      34.652  32.558  29.880  1.00  0.00     0.014 A 
ATOM     35  C   UNL A   1      36.799  33.572  28.401  1.00  0.00     0.010 A 
ATOM     36  C   UNL A   1      35.940  32.099  30.128  1.00  0.00     0.010 A 
ATOM     37  C   UNL A   1      37.027  32.607  29.397  1.00  0.00    -0.014 A 
BRANCH  37  38
ATOM     38  C   UNL A   1      38.398  32.130  29.704  1.00  0.00     0.031 A 
ATOM     39  C   UNL A   1      38.850  30.777  29.234  1.00  0.00     0.074 A 
ATOM     40  C   UNL A   1      39.215  32.887  30.464  1.00  0.00     0.049 A 
ATOM     41  N   UNL A   1      39.987  30.165  29.449  1.00  0.00    -0.248 NA
ATOM     42  C   UNL A   1      37.886  29.995  28.441  1.00  0.00     0.031 C 
ATOM     43  C   UNL A   1      38.881  34.200  31.022  1.00  0.00     0.029 A 
ATOM     44  N   UNL A   1      40.493  32.654  30.907  1.00  0.00    -0.354 N 
ATOM     45  C   UNL A   1      39.870  28.927  28.831  1.00  0.00     0.074 A 
ATOM     46  C   UNL A   1      38.534  28.851  28.282  1.00  0.00     0.031 C 
ATOM     47  C   UNL A   1      39.937  34.667  31.706  1.00  0.00     0.029 A 
ATOM     48  C   UNL A   1      41.006  33.673  31.673  1.00  0.00     0.049 A 
ATOM     49  H   UNL A   1      40.995  31.834  30.695  1.00  0.00     0.167 HD
ATOM     50  C   UNL A   1      40.799  27.949  28.709  1.00  0.00     0.031 A 
ATOM     51  C   UNL A   1      42.198  33.792  32.286  1.00  0.00     0.031 A 
ATOM     52  C   UNL A   1      42.128  28.023  29.253  1.00  0.00     0.049 A 
ATOM     53  C   UNL A   1      43.204  32.682  32.157  1.00  0.00     0.074 A 
ATOM     54  C   UNL A   1      43.158  27.107  29.139  1.00  0.00     0.029 A 
ATOM     55  N   UNL A   1      42.609  29.074  30.019  1.00  0.00    -0.354 N 
ATOM     56  N   UNL A   1      43.105  31.548  31.506  1.00  0.00    -0.248 NA
ATOM     57  C   UNL A   1      44.493  32.875  32.837  1.00  0.00     0.031 C 
ATOM     58  C   UNL A   1      44.245  27.577  29.884  1.00  0.00     0.029 A 
ATOM     59  C   UNL A   1      43.913  28.817  30.408  1.00  0.00     0.049 A 
ATOM     60  H   UNL A   1      42.100  29.884  30.252  1.00  0.00     0.167 HD
ATOM     61  C   UNL A   1      44.326  30.906  31.674  1.00  0.00     0.074 A 
ATOM     62  C   UNL A   1      45.154  31.786  32.474  1.00  0.00     0.031 C 
ATOM     63  C   UNL A   1      44.725  29.699  31.206  1.00  0.00     0.031 A 
BRANCH  50  64
ATOM     64  C   UNL A   1      40.397  26.707  27.964  1.00  0.00    -0.014 A 
ATOM     65  C   UNL A   1      40.803  26.490  26.636  1.00  0.00     0.009 A 
ATOM     66  C   UNL A   1      39.622  25.727  28.603  1.00  0.00     0.009 A 
ATOM     67  C   UNL A   1      40.407  25.339  25.953  1.00  0.00     0.001 A 
ATOM     68  C   UNL A   1      39.255  24.561  27.928  1.00  0.00     0.001 A 
ATOM     69  C   UNL A   1      39.637  24.373  26.601  1.00  0.00     0.000 A 
ENDBRANCH  50  64
BRANCH  51  70
ATOM     70  C   UNL A   1      42.515  35.015  33.070  1.00  0.00    -0.014 A 
ATOM     71  C   UNL A   1      42.117  35.126  34.411  1.00  0.00     0.009 A 
ATOM     72  C   UNL A   1      43.211  36.081  32.478  1.00  0.00     0.009 A 
ATOM     73  C   UNL A   1      42.386  36.290  35.136  1.00  0.00     0.001 A 
ATOM     74  C   UNL A   1      43.506  37.231  33.214  1.00  0.00     0.001 A 
ATOM     75  C   UNL A   1      43.084  37.339  34.539  1.00  0.00     0.000 A 
ENDBRANCH  51  70
BRANCH  63  76
ATOM     76  C   UNL A   1      46.133  29.271  31.517  1.00  0.00    -0.014 A 
ATOM     77  C   UNL A   1      46.428  28.487  32.642  1.00  0.00     0.009 A 
ATOM     78  C   UNL A   1      47.172  29.626  30.643  1.00  0.00     0.009 A 
ATOM     79  C   UNL A   1      47.742  28.094  32.903  1.00  0.00     0.001 A 
ATOM     80  C   UNL A   1      48.480  29.206  30.889  1.00  0.00     0.001 A 
ATOM     81  C   UNL A   1      48.766  28.450  32.025  1.00  0.00     0.000 A 
ENDBRANCH  63  76
ENDBRANCH  37  38
ENDBRANCH  29  32
ENDBRANCH  27  28
ENDBRANCH  26  27
ENDBRANCH  25  26
ENDBRANCH   1  25
TORSDOF 17
ENDMDL
