MODEL 1
REMARK VINA RESULT:     -10.6      0.000      0.000
REMARK SMILES Cc1nnc(SCC[C@H]2CCC[C@]2([NH3+])C(=O)NCCCCNC(=O)c2ccc(-c3c4nc(c(-c5ccccc5)c5ccc([nH]5)c(-c5ccccc5)c5nc(c(-c6ccccc6)c6ccc3[nH]6)C=C5)C=C4)cc2)o1
REMARK SMILES IDX 18 1 17 2 15 3 16 4 13 6 9 7 10 8 11 9 12 10 8 11 7 12 6 13
REMARK SMILES IDX 5 14 1 15 2 16 3 17 73 18 4 19 14 20 19 24 20 25 21 26 22 27
REMARK SMILES IDX 23 28 24 30 25 31 26 32 72 33 27 34 71 35 28 36 29 37 30 38
REMARK SMILES IDX 65 39 31 40 70 41 64 42 66 43 32 44 69 45 63 46 62 47 33 49
REMARK SMILES IDX 55 50 40 51 54 52 41 53 44 54 53 55 67 56 42 57 43 58 52 60
REMARK SMILES IDX 68 61 45 62 34 63 35 64 39 65 36 66 38 67 37 68 56 69 57 70
REMARK SMILES IDX 61 71 58 72 60 73 59 74 46 75 47 76 51 77 48 78 50 79 49 80
REMARK H PARENT 17 5 14 21 14 22 14 23 22 29 66 48 44 59
REMARK Flexibility Score: inf
ROOT
ATOM      1  C   UNL A   1      36.552  22.297  25.650  1.00  0.00     0.116 C 
ENDROOT
BRANCH   1   2
ATOM      2  N   UNL A   1      35.526  21.704  26.485  1.00  0.00    -0.351 N 
ATOM      3  C   UNL A   1      34.161  21.727  26.419  1.00  0.00     0.281 C 
ATOM      4  O   UNL A   1      33.585  20.864  27.097  1.00  0.00    -0.268 OA
ATOM      5  H   UNL A   1      35.879  21.186  27.244  1.00  0.00     0.163 HD
BRANCH   3   6
ATOM      6  C   UNL A   1      33.323  22.681  25.479  1.00  0.00     0.176 C 
ATOM      7  C   UNL A   1      33.573  24.188  25.698  1.00  0.00     0.061 C 
ATOM      8  C   UNL A   1      32.340  24.669  26.518  1.00  0.00     0.011 C 
ATOM      9  C   UNL A   1      31.483  23.446  26.824  1.00  0.00     0.008 C 
ATOM     10  C   UNL A   1      31.808  22.497  25.703  1.00  0.00     0.079 C 
BRANCH   7  11
ATOM     11  C   UNL A   1      33.839  25.050  24.420  1.00  0.00     0.022 C 
BRANCH  11  12
ATOM     12  C   UNL A   1      32.803  26.130  23.951  1.00  0.00     0.080 C 
BRANCH  12  13
ATOM     13  S   UNL A   1      31.275  25.696  23.020  1.00  0.00    -0.065 SA
BRANCH  13  14
ATOM     14  C   UNL A   1      30.381  27.184  22.802  1.00  0.00     0.276 A 
ATOM     15  C   UNL A   1      27.320  28.904  23.084  1.00  0.00     0.113 C 
ATOM     16  C   UNL A   1      28.742  28.563  22.860  1.00  0.00     0.214 A 
ATOM     17  N   UNL A   1      29.625  29.078  22.031  1.00  0.00    -0.112 NA
ATOM     18  O   UNL A   1      29.220  27.451  23.497  1.00  0.00    -0.416 OA
ATOM     19  N   UNL A   1      30.697  28.185  22.003  1.00  0.00    -0.101 NA
ENDBRANCH  13  14
ENDBRANCH  12  13
ENDBRANCH  11  12
ENDBRANCH   7  11
BRANCH   6  20
ATOM     20  N   UNL A   1      33.500  22.226  24.110  1.00  0.00    -0.345 N 
ATOM     21  H   UNL A   1      32.597  21.944  23.726  1.00  0.00     0.345 HD
ATOM     22  H   UNL A   1      34.138  21.430  24.096  1.00  0.00     0.345 HD
ATOM     23  H   UNL A   1      33.887  22.982  23.547  1.00  0.00     0.345 HD
ENDBRANCH   6  20
ENDBRANCH   3   6
ENDBRANCH   1   2
BRANCH   1  24
ATOM     24  C   UNL A   1      36.964  21.457  24.444  1.00  0.00     0.023 C 
BRANCH  24  25
ATOM     25  C   UNL A   1      37.778  20.218  24.819  1.00  0.00     0.023 C 
BRANCH  25  26
ATOM     26  C   UNL A   1      38.889  20.441  25.848  1.00  0.00     0.116 C 
BRANCH  26  27
ATOM     27  N   UNL A   1      39.954  19.451  25.782  1.00  0.00    -0.352 N 
ATOM     28  C   UNL A   1      41.290  19.594  26.071  1.00  0.00     0.251 C 
ATOM     29  H   UNL A   1      39.679  18.552  25.490  1.00  0.00     0.163 HD
ATOM     30  O   UNL A   1      42.079  18.676  25.850  1.00  0.00    -0.269 OA
BRANCH  28  31
ATOM     31  C   UNL A   1      41.793  20.878  26.608  1.00  0.00     0.039 A 
ATOM     32  C   UNL A   1      42.271  21.843  25.719  1.00  0.00     0.014 A 
ATOM     33  C   UNL A   1      41.761  21.144  27.980  1.00  0.00     0.014 A 
ATOM     34  C   UNL A   1      42.633  23.105  26.195  1.00  0.00     0.010 A 
ATOM     35  C   UNL A   1      42.043  22.428  28.442  1.00  0.00     0.010 A 
ATOM     36  C   UNL A   1      42.475  23.426  27.554  1.00  0.00    -0.014 A 
BRANCH  36  37
ATOM     37  C   UNL A   1      42.745  24.798  28.061  1.00  0.00     0.031 A 
ATOM     38  C   UNL A   1      44.140  25.199  28.458  1.00  0.00     0.074 A 
ATOM     39  C   UNL A   1      41.728  25.671  28.211  1.00  0.00     0.049 A 
ATOM     40  N   UNL A   1      44.560  26.330  28.970  1.00  0.00    -0.248 NA
ATOM     41  C   UNL A   1      45.200  24.196  28.271  1.00  0.00     0.031 C 
ATOM     42  C   UNL A   1      40.324  25.403  27.891  1.00  0.00     0.029 A 
ATOM     43  N   UNL A   1      41.719  26.963  28.675  1.00  0.00    -0.354 N 
ATOM     44  C   UNL A   1      45.926  26.172  29.167  1.00  0.00     0.074 A 
ATOM     45  C   UNL A   1      46.255  24.818  28.778  1.00  0.00     0.031 C 
ATOM     46  C   UNL A   1      39.598  26.506  28.139  1.00  0.00     0.029 A 
ATOM     47  C   UNL A   1      40.472  27.542  28.678  1.00  0.00     0.049 A 
ATOM     48  H   UNL A   1      42.530  27.432  28.978  1.00  0.00     0.167 HD
ATOM     49  C   UNL A   1      46.833  27.077  29.606  1.00  0.00     0.031 A 
ATOM     50  C   UNL A   1      40.074  28.765  29.079  1.00  0.00     0.031 A 
ATOM     51  C   UNL A   1      46.512  28.423  29.999  1.00  0.00     0.049 A 
ATOM     52  C   UNL A   1      41.096  29.729  29.619  1.00  0.00     0.074 A 
ATOM     53  C   UNL A   1      47.367  29.419  30.439  1.00  0.00     0.029 A 
ATOM     54  N   UNL A   1      45.236  28.961  30.000  1.00  0.00    -0.354 N 
ATOM     55  N   UNL A   1      42.392  29.579  29.747  1.00  0.00    -0.248 NA
ATOM     56  C   UNL A   1      40.596  31.039  30.062  1.00  0.00     0.031 C 
ATOM     57  C   UNL A   1      46.601  30.546  30.753  1.00  0.00     0.029 A 
ATOM     58  C   UNL A   1      45.278  30.271  30.449  1.00  0.00     0.049 A 
ATOM     59  H   UNL A   1      44.421  28.485  29.723  1.00  0.00     0.167 HD
ATOM     60  C   UNL A   1      42.865  30.786  30.246  1.00  0.00     0.074 A 
ATOM     61  C   UNL A   1      41.721  31.663  30.381  1.00  0.00     0.031 C 
ATOM     62  C   UNL A   1      44.134  31.138  30.566  1.00  0.00     0.031 A 
BRANCH  49  63
ATOM     63  C   UNL A   1      48.271  26.640  29.673  1.00  0.00    -0.014 A 
ATOM     64  C   UNL A   1      48.776  25.993  30.811  1.00  0.00     0.009 A 
ATOM     65  C   UNL A   1      49.117  26.832  28.569  1.00  0.00     0.009 A 
ATOM     66  C   UNL A   1      50.108  25.575  30.857  1.00  0.00     0.001 A 
ATOM     67  C   UNL A   1      50.440  26.386  28.606  1.00  0.00     0.001 A 
ATOM     68  C   UNL A   1      50.936  25.766  29.752  1.00  0.00     0.000 A 
ENDBRANCH  49  63
BRANCH  50  69
ATOM     69  C   UNL A   1      38.644  29.164  28.990  1.00  0.00    -0.014 A 
ATOM     70  C   UNL A   1      38.135  29.739  27.814  1.00  0.00     0.009 A 
ATOM     71  C   UNL A   1      37.792  29.024  30.097  1.00  0.00     0.009 A 
ATOM     72  C   UNL A   1      36.819  30.205  27.764  1.00  0.00     0.001 A 
ATOM     73  C   UNL A   1      36.466  29.459  30.031  1.00  0.00     0.001 A 
ATOM     74  C   UNL A   1      35.985  30.063  28.872  1.00  0.00     0.000 A 
ENDBRANCH  50  69
BRANCH  62  75
ATOM     75  C   UNL A   1      44.362  32.547  31.038  1.00  0.00    -0.014 A 
ATOM     76  C   UNL A   1      44.612  33.592  30.136  1.00  0.00     0.009 A 
ATOM     77  C   UNL A   1      44.290  32.836  32.410  1.00  0.00     0.009 A 
ATOM     78  C   UNL A   1      44.825  34.892  30.602  1.00  0.00     0.001 A 
ATOM     79  C   UNL A   1      44.469  34.141  32.871  1.00  0.00     0.001 A 
ATOM     80  C   UNL A   1      44.747  35.165  31.968  1.00  0.00     0.000 A 
ENDBRANCH  62  75
ENDBRANCH  36  37
ENDBRANCH  28  31
ENDBRANCH  26  27
ENDBRANCH  25  26
ENDBRANCH  24  25
ENDBRANCH   1  24
TORSDOF 16
ENDMDL
MODEL 2
REMARK VINA RESULT:     -10.4      3.804      9.275
REMARK SMILES Cc1nnc(SCC[C@H]2CCC[C@]2([NH3+])C(=O)NCCCCNC(=O)c2ccc(-c3c4nc(c(-c5ccccc5)c5ccc([nH]5)c(-c5ccccc5)c5nc(c(-c6ccccc6)c6ccc3[nH]6)C=C5)C=C4)cc2)o1
REMARK SMILES IDX 18 1 17 2 15 3 16 4 13 6 9 7 10 8 11 9 12 10 8 11 7 12 6 13
REMARK SMILES IDX 5 14 1 15 2 16 3 17 73 18 4 19 14 20 19 24 20 25 21 26 22 27
REMARK SMILES IDX 23 28 24 30 25 31 26 32 72 33 27 34 71 35 28 36 29 37 30 38
REMARK SMILES IDX 65 39 31 40 70 41 64 42 66 43 32 44 69 45 63 46 62 47 33 49
REMARK SMILES IDX 55 50 40 51 54 52 41 53 44 54 53 55 67 56 42 57 43 58 52 60
REMARK SMILES IDX 68 61 45 62 34 63 35 64 39 65 36 66 38 67 37 68 56 69 57 70
REMARK SMILES IDX 61 71 58 72 60 73 59 74 46 75 47 76 51 77 48 78 50 79 49 80
REMARK H PARENT 17 5 14 21 14 22 14 23 22 29 66 48 44 59
REMARK Flexibility Score: inf
ROOT
ATOM      1  C   UNL A   1      32.943  29.680  25.940  1.00  0.00     0.116 C 
ENDROOT
BRANCH   1   2
ATOM      2  N   UNL A   1      33.685  29.515  24.705  1.00  0.00    -0.351 N 
ATOM      3  C   UNL A   1      33.728  28.503  23.787  1.00  0.00     0.281 C 
ATOM      4  O   UNL A   1      34.219  28.807  22.691  1.00  0.00    -0.268 OA
ATOM      5  H   UNL A   1      34.269  30.277  24.486  1.00  0.00     0.163 HD
BRANCH   3   6
ATOM      6  C   UNL A   1      33.109  27.066  24.004  1.00  0.00     0.176 C 
ATOM      7  C   UNL A   1      33.387  26.063  22.865  1.00  0.00     0.061 C 
ATOM      8  C   UNL A   1      32.055  26.013  22.060  1.00  0.00     0.011 C 
ATOM      9  C   UNL A   1      31.102  27.030  22.680  1.00  0.00     0.008 C 
ATOM     10  C   UNL A   1      31.571  27.130  24.105  1.00  0.00     0.079 C 
BRANCH   7  11
ATOM     11  C   UNL A   1      33.907  24.649  23.285  1.00  0.00     0.022 C 
BRANCH  11  12
ATOM     12  C   UNL A   1      32.970  23.394  23.209  1.00  0.00     0.080 C 
BRANCH  12  13
ATOM     13  S   UNL A   1      32.251  22.605  24.710  1.00  0.00    -0.065 SA
BRANCH  13  14
ATOM     14  C   UNL A   1      32.366  20.875  24.470  1.00  0.00     0.276 A 
ATOM     15  C   UNL A   1      32.314  18.155  22.233  1.00  0.00     0.113 C 
ATOM     16  C   UNL A   1      32.439  18.996  23.444  1.00  0.00     0.214 A 
ATOM     17  N   UNL A   1      32.207  18.714  24.709  1.00  0.00    -0.112 NA
ATOM     18  O   UNL A   1      32.701  20.324  23.251  1.00  0.00    -0.416 OA
ATOM     19  N   UNL A   1      32.171  19.938  25.378  1.00  0.00    -0.101 NA
ENDBRANCH  13  14
ENDBRANCH  12  13
ENDBRANCH  11  12
ENDBRANCH   7  11
BRANCH   6  20
ATOM     20  N   UNL A   1      33.497  26.610  25.328  1.00  0.00    -0.345 N 
ATOM     21  H   UNL A   1      34.464  26.283  25.306  1.00  0.00     0.345 HD
ATOM     22  H   UNL A   1      32.887  25.845  25.616  1.00  0.00     0.345 HD
ATOM     23  H   UNL A   1      33.414  27.380  25.992  1.00  0.00     0.345 HD
ENDBRANCH   6  20
ENDBRANCH   3   6
ENDBRANCH   1   2
BRANCH   1  24
ATOM     24  C   UNL A   1      31.647  30.476  25.809  1.00  0.00     0.023 C 
BRANCH  24  25
ATOM     25  C   UNL A   1      31.499  31.568  26.868  1.00  0.00     0.023 C 
BRANCH  25  26
ATOM     26  C   UNL A   1      32.751  32.407  27.135  1.00  0.00     0.116 C 
BRANCH  26  27
ATOM     27  N   UNL A   1      32.462  33.778  27.534  1.00  0.00    -0.352 N 
ATOM     28  C   UNL A   1      33.128  34.577  28.432  1.00  0.00     0.251 C 
ATOM     29  H   UNL A   1      31.680  34.189  27.100  1.00  0.00     0.163 HD
ATOM     30  O   UNL A   1      32.679  35.681  28.738  1.00  0.00    -0.269 OA
BRANCH  28  31
ATOM     31  C   UNL A   1      34.370  34.090  29.071  1.00  0.00     0.039 A 
ATOM     32  C   UNL A   1      34.277  33.324  30.235  1.00  0.00     0.014 A 
ATOM     33  C   UNL A   1      35.621  34.357  28.507  1.00  0.00     0.014 A 
ATOM     34  C   UNL A   1      35.428  32.751  30.782  1.00  0.00     0.010 A 
ATOM     35  C   UNL A   1      36.755  33.719  29.004  1.00  0.00     0.010 A 
ATOM     36  C   UNL A   1      36.671  32.903  30.143  1.00  0.00    -0.014 A 
BRANCH  36  37
ATOM     37  C   UNL A   1      37.887  32.208  30.644  1.00  0.00     0.031 A 
ATOM     38  C   UNL A   1      38.682  32.794  31.780  1.00  0.00     0.074 A 
ATOM     39  C   UNL A   1      38.306  31.073  30.047  1.00  0.00     0.049 A 
ATOM     40  N   UNL A   1      39.797  32.362  32.316  1.00  0.00    -0.248 NA
ATOM     41  C   UNL A   1      38.170  34.035  32.381  1.00  0.00     0.031 C 
ATOM     42  C   UNL A   1      37.645  30.412  28.919  1.00  0.00     0.029 A 
ATOM     43  N   UNL A   1      39.393  30.275  30.306  1.00  0.00    -0.354 N 
ATOM     44  C   UNL A   1      40.116  33.276  33.312  1.00  0.00     0.074 A 
ATOM     45  C   UNL A   1      39.114  34.318  33.265  1.00  0.00     0.031 C 
ATOM     46  C   UNL A   1      38.322  29.295  28.606  1.00  0.00     0.029 A 
ATOM     47  C   UNL A   1      39.489  29.184  29.475  1.00  0.00     0.049 A 
ATOM     48  H   UNL A   1      40.044  30.466  31.020  1.00  0.00     0.167 HD
ATOM     49  C   UNL A   1      41.135  33.242  34.204  1.00  0.00     0.031 A 
ATOM     50  C   UNL A   1      40.416  28.209  29.412  1.00  0.00     0.031 A 
ATOM     51  C   UNL A   1      42.138  32.211  34.253  1.00  0.00     0.049 A 
ATOM     52  C   UNL A   1      41.571  28.230  30.378  1.00  0.00     0.074 A 
ATOM     53  C   UNL A   1      43.197  32.081  35.134  1.00  0.00     0.029 A 
ATOM     54  N   UNL A   1      42.204  31.134  33.384  1.00  0.00    -0.354 N 
ATOM     55  N   UNL A   1      41.825  29.074  31.348  1.00  0.00    -0.248 NA
ATOM     56  C   UNL A   1      42.562  27.152  30.244  1.00  0.00     0.031 C 
ATOM     57  C   UNL A   1      43.935  30.951  34.767  1.00  0.00     0.029 A 
ATOM     58  C   UNL A   1      43.298  30.344  33.697  1.00  0.00     0.049 A 
ATOM     59  H   UNL A   1      41.569  30.957  32.653  1.00  0.00     0.167 HD
ATOM     60  C   UNL A   1      42.981  28.608  31.962  1.00  0.00     0.074 A 
ATOM     61  C   UNL A   1      43.367  27.398  31.267  1.00  0.00     0.031 C 
ATOM     62  C   UNL A   1      43.663  29.135  33.007  1.00  0.00     0.031 A 
BRANCH  49  63
ATOM     63  C   UNL A   1      41.208  34.353  35.215  1.00  0.00    -0.014 A 
ATOM     64  C   UNL A   1      41.925  35.529  34.944  1.00  0.00     0.009 A 
ATOM     65  C   UNL A   1      40.514  34.246  36.430  1.00  0.00     0.009 A 
ATOM     66  C   UNL A   1      41.972  36.563  35.881  1.00  0.00     0.001 A 
ATOM     67  C   UNL A   1      40.538  35.294  37.353  1.00  0.00     0.001 A 
ATOM     68  C   UNL A   1      41.273  36.447  37.081  1.00  0.00     0.000 A 
ENDBRANCH  49  63
BRANCH  50  69
ATOM     69  C   UNL A   1      40.306  27.121  28.404  1.00  0.00    -0.014 A 
ATOM     70  C   UNL A   1      40.883  27.266  27.132  1.00  0.00     0.009 A 
ATOM     71  C   UNL A   1      39.579  25.954  28.686  1.00  0.00     0.009 A 
ATOM     72  C   UNL A   1      40.696  26.288  26.152  1.00  0.00     0.001 A 
ATOM     73  C   UNL A   1      39.424  24.961  27.716  1.00  0.00     0.001 A 
ATOM     74  C   UNL A   1      39.968  25.136  26.445  1.00  0.00     0.000 A 
ENDBRANCH  50  69
BRANCH  62  75
ATOM     75  C   UNL A   1      44.864  28.376  33.500  1.00  0.00    -0.014 A 
ATOM     76  C   UNL A   1      46.151  28.636  33.005  1.00  0.00     0.009 A 
ATOM     77  C   UNL A   1      44.706  27.406  34.502  1.00  0.00     0.009 A 
ATOM     78  C   UNL A   1      47.249  27.913  33.477  1.00  0.00     0.001 A 
ATOM     79  C   UNL A   1      45.808  26.708  34.997  1.00  0.00     0.001 A 
ATOM     80  C   UNL A   1      47.077  26.955  34.476  1.00  0.00     0.000 A 
ENDBRANCH  62  75
ENDBRANCH  36  37
ENDBRANCH  28  31
ENDBRANCH  26  27
ENDBRANCH  25  26
ENDBRANCH  24  25
ENDBRANCH   1  24
TORSDOF 16
ENDMDL
MODEL 3
REMARK VINA RESULT:     -10.3      2.212      7.870
REMARK SMILES Cc1nnc(SCC[C@H]2CCC[C@]2([NH3+])C(=O)NCCCCNC(=O)c2ccc(-c3c4nc(c(-c5ccccc5)c5ccc([nH]5)c(-c5ccccc5)c5nc(c(-c6ccccc6)c6ccc3[nH]6)C=C5)C=C4)cc2)o1
REMARK SMILES IDX 18 1 17 2 15 3 16 4 13 6 9 7 10 8 11 9 12 10 8 11 7 12 6 13
REMARK SMILES IDX 5 14 1 15 2 16 3 17 73 18 4 19 14 20 19 24 20 25 21 26 22 27
REMARK SMILES IDX 23 28 24 30 25 31 26 32 72 33 27 34 71 35 28 36 29 37 30 38
REMARK SMILES IDX 65 39 31 40 70 41 64 42 66 43 32 44 69 45 63 46 62 47 33 49
REMARK SMILES IDX 55 50 40 51 54 52 41 53 44 54 53 55 67 56 42 57 43 58 52 60
REMARK SMILES IDX 68 61 45 62 34 63 35 64 39 65 36 66 38 67 37 68 56 69 57 70
REMARK SMILES IDX 61 71 58 72 60 73 59 74 46 75 47 76 51 77 48 78 50 79 49 80
REMARK H PARENT 17 5 14 21 14 22 14 23 22 29 66 48 44 59
REMARK Flexibility Score: inf
ROOT
ATOM      1  C   UNL A   1      33.917  28.192  23.387  1.00  0.00     0.116 C 
ENDROOT
BRANCH   1   2
ATOM      2  N   UNL A   1      33.043  27.577  22.407  1.00  0.00    -0.351 N 
ATOM      3  C   UNL A   1      32.349  26.398  22.406  1.00  0.00     0.281 C 
ATOM      4  O   UNL A   1      31.453  26.316  21.555  1.00  0.00    -0.268 OA
ATOM      5  H   UNL A   1      32.928  28.107  21.586  1.00  0.00     0.163 HD
BRANCH   3   6
ATOM      6  C   UNL A   1      32.548  25.238  23.459  1.00  0.00     0.176 C 
ATOM      7  C   UNL A   1      34.013  24.985  23.875  1.00  0.00     0.061 C 
ATOM      8  C   UNL A   1      34.427  23.713  23.079  1.00  0.00     0.011 C 
ATOM      9  C   UNL A   1      33.257  23.330  22.179  1.00  0.00     0.008 C 
ATOM     10  C   UNL A   1      32.060  23.886  22.900  1.00  0.00     0.079 C 
BRANCH   7  11
ATOM     11  C   UNL A   1      34.300  24.875  25.408  1.00  0.00     0.022 C 
BRANCH  11  12
ATOM     12  C   UNL A   1      34.377  23.475  26.111  1.00  0.00     0.080 C 
BRANCH  12  13
ATOM     13  S   UNL A   1      32.896  22.408  26.353  1.00  0.00    -0.065 SA
BRANCH  13  14
ATOM     14  C   UNL A   1      33.231  20.894  25.543  1.00  0.00     0.276 A 
ATOM     15  C   UNL A   1      32.362  17.520  25.028  1.00  0.00     0.113 C 
ATOM     16  C   UNL A   1      32.999  18.851  24.938  1.00  0.00     0.214 A 
ATOM     17  N   UNL A   1      34.231  19.190  24.618  1.00  0.00    -0.112 NA
ATOM     18  O   UNL A   1      32.269  19.919  25.381  1.00  0.00    -0.416 OA
ATOM     19  N   UNL A   1      34.377  20.524  25.002  1.00  0.00    -0.101 NA
ENDBRANCH  13  14
ENDBRANCH  12  13
ENDBRANCH  11  12
ENDBRANCH   7  11
BRANCH   6  20
ATOM     20  N   UNL A   1      31.633  25.476  24.563  1.00  0.00    -0.345 N 
ATOM     21  H   UNL A   1      31.956  24.969  25.388  1.00  0.00     0.345 HD
ATOM     22  H   UNL A   1      30.701  25.150  24.308  1.00  0.00     0.345 HD
ATOM     23  H   UNL A   1      31.600  26.474  24.769  1.00  0.00     0.345 HD
ENDBRANCH   6  20
ENDBRANCH   3   6
ENDBRANCH   1   2
BRANCH   1  24
ATOM     24  C   UNL A   1      33.225  28.645  24.669  1.00  0.00     0.023 C 
BRANCH  24  25
ATOM     25  C   UNL A   1      34.123  28.563  25.903  1.00  0.00     0.023 C 
BRANCH  25  26
ATOM     26  C   UNL A   1      33.433  28.825  27.245  1.00  0.00     0.116 C 
BRANCH  26  27
ATOM     27  N   UNL A   1      33.495  30.216  27.671  1.00  0.00    -0.352 N 
ATOM     28  C   UNL A   1      34.531  30.895  28.267  1.00  0.00     0.251 C 
ATOM     29  H   UNL A   1      32.680  30.745  27.510  1.00  0.00     0.163 HD
ATOM     30  O   UNL A   1      34.374  32.047  28.669  1.00  0.00    -0.269 OA
BRANCH  28  31
ATOM     31  C   UNL A   1      35.832  30.220  28.469  1.00  0.00     0.039 A 
ATOM     32  C   UNL A   1      36.779  30.257  27.443  1.00  0.00     0.014 A 
ATOM     33  C   UNL A   1      36.132  29.583  29.676  1.00  0.00     0.014 A 
ATOM     34  C   UNL A   1      38.057  29.734  27.660  1.00  0.00     0.010 A 
ATOM     35  C   UNL A   1      37.430  29.138  29.921  1.00  0.00     0.010 A 
ATOM     36  C   UNL A   1      38.409  29.215  28.918  1.00  0.00    -0.014 A 
BRANCH  36  37
ATOM     37  C   UNL A   1      39.796  28.759  29.204  1.00  0.00     0.031 A 
ATOM     38  C   UNL A   1      40.767  29.673  29.901  1.00  0.00     0.074 A 
ATOM     39  C   UNL A   1      40.199  27.538  28.795  1.00  0.00     0.049 A 
ATOM     40  N   UNL A   1      42.030  29.473  30.187  1.00  0.00    -0.248 NA
ATOM     41  C   UNL A   1      40.261  30.991  30.316  1.00  0.00     0.031 C 
ATOM     42  C   UNL A   1      39.369  26.563  28.085  1.00  0.00     0.029 A 
ATOM     43  N   UNL A   1      41.415  26.911  28.915  1.00  0.00    -0.354 N 
ATOM     44  C   UNL A   1      42.465  30.635  30.811  1.00  0.00     0.074 A 
ATOM     45  C   UNL A   1      41.352  31.559  30.807  1.00  0.00     0.031 C 
ATOM     46  C   UNL A   1      40.089  25.451  27.862  1.00  0.00     0.029 A 
ATOM     47  C   UNL A   1      41.443  25.650  28.369  1.00  0.00     0.049 A 
ATOM     48  H   UNL A   1      42.194  27.326  29.352  1.00  0.00     0.167 HD
ATOM     49  C   UNL A   1      43.673  30.904  31.362  1.00  0.00     0.031 A 
ATOM     50  C   UNL A   1      42.447  24.757  28.276  1.00  0.00     0.031 A 
ATOM     51  C   UNL A   1      44.786  29.992  31.365  1.00  0.00     0.049 A 
ATOM     52  C   UNL A   1      43.796  25.108  28.845  1.00  0.00     0.074 A 
ATOM     53  C   UNL A   1      46.043  30.168  31.917  1.00  0.00     0.029 A 
ATOM     54  N   UNL A   1      44.775  28.732  30.788  1.00  0.00    -0.354 N 
ATOM     55  N   UNL A   1      44.173  26.191  29.480  1.00  0.00    -0.248 NA
ATOM     56  C   UNL A   1      44.858  24.102  28.692  1.00  0.00     0.031 C 
ATOM     57  C   UNL A   1      46.809  29.035  31.631  1.00  0.00     0.029 A 
ATOM     58  C   UNL A   1      46.009  28.128  30.956  1.00  0.00     0.049 A 
ATOM     59  H   UNL A   1      44.004  28.328  30.328  1.00  0.00     0.167 HD
ATOM     60  C   UNL A   1      45.500  25.981  29.834  1.00  0.00     0.074 A 
ATOM     61  C   UNL A   1      45.857  24.660  29.360  1.00  0.00     0.031 C 
ATOM     62  C   UNL A   1      46.348  26.807  30.492  1.00  0.00     0.031 A 
BRANCH  49  63
ATOM     63  C   UNL A   1      43.849  32.243  32.024  1.00  0.00    -0.014 A 
ATOM     64  C   UNL A   1      44.376  33.334  31.315  1.00  0.00     0.009 A 
ATOM     65  C   UNL A   1      43.440  32.431  33.353  1.00  0.00     0.009 A 
ATOM     66  C   UNL A   1      44.520  34.579  31.932  1.00  0.00     0.001 A 
ATOM     67  C   UNL A   1      43.557  33.684  33.959  1.00  0.00     0.001 A 
ATOM     68  C   UNL A   1      44.104  34.753  33.251  1.00  0.00     0.000 A 
ENDBRANCH  49  63
BRANCH  50  69
ATOM     69  C   UNL A   1      42.233  23.438  27.622  1.00  0.00    -0.014 A 
ATOM     70  C   UNL A   1      42.583  23.245  26.276  1.00  0.00     0.009 A 
ATOM     71  C   UNL A   1      41.629  22.382  28.321  1.00  0.00     0.009 A 
ATOM     72  C   UNL A   1      42.291  22.039  25.633  1.00  0.00     0.001 A 
ATOM     73  C   UNL A   1      41.371  21.165  27.686  1.00  0.00     0.001 A 
ATOM     74  C   UNL A   1      41.687  21.000  26.339  1.00  0.00     0.000 A 
ENDBRANCH  50  69
BRANCH  62  75
ATOM     75  C   UNL A   1      47.727  26.287  30.790  1.00  0.00    -0.014 A 
ATOM     76  C   UNL A   1      48.045  25.721  32.034  1.00  0.00     0.009 A 
ATOM     77  C   UNL A   1      48.714  26.334  29.793  1.00  0.00     0.009 A 
ATOM     78  C   UNL A   1      49.335  25.249  32.286  1.00  0.00     0.001 A 
ATOM     79  C   UNL A   1      49.993  25.832  30.035  1.00  0.00     0.001 A 
ATOM     80  C   UNL A   1      50.305  25.300  31.285  1.00  0.00     0.000 A 
ENDBRANCH  62  75
ENDBRANCH  36  37
ENDBRANCH  28  31
ENDBRANCH  26  27
ENDBRANCH  25  26
ENDBRANCH  24  25
ENDBRANCH   1  24
TORSDOF 16
ENDMDL
