MODEL 1
REMARK VINA RESULT:     -11.1      0.000      0.000
REMARK SMILES Cc1cc(C(=O)N(C)[C@H]2CCSC2)sc1/C=C/C(=O)NCCCCNC(=O)c1ccc(-c2c3nc(c(-c4ccccc4)c4ccc([nH]4)c(-c4ccccc4)c4nc(c(-c5ccccc5)c5ccc2[nH]5)C=C4)C=C3)cc1
REMARK SMILES IDX 21 1 20 2 18 3 19 4 17 6 16 7 15 8 1 9 2 10 3 11 4 12 14 13
REMARK SMILES IDX 5 14 6 15 7 16 8 17 9 18 10 19 13 20 11 21 12 22 22 23 23 24
REMARK SMILES IDX 24 25 25 26 26 27 27 29 28 30 29 31 75 32 30 33 74 34 31 35
REMARK SMILES IDX 32 36 33 37 68 38 34 39 73 40 67 41 69 42 35 43 72 44 66 45
REMARK SMILES IDX 65 46 36 48 58 49 43 50 57 51 44 52 47 53 56 54 70 55 45 56
REMARK SMILES IDX 46 57 55 59 71 60 48 61 37 62 38 63 42 64 39 65 41 66 40 67
REMARK SMILES IDX 59 68 60 69 64 70 61 71 63 72 62 73 49 74 50 75 54 76 51 77
REMARK SMILES IDX 53 78 52 79
REMARK H PARENT 20 5 25 28 69 47 47 58
REMARK Flexibility Score: inf
ROOT
ATOM      1  C   UNL A   1      35.582  21.125  24.842  1.00  0.00     0.116 C 
ENDROOT
BRANCH   1   2
ATOM      2  N   UNL A   1      35.212  21.323  26.231  1.00  0.00    -0.353 N 
ATOM      3  C   UNL A   1      34.169  22.009  26.771  1.00  0.00     0.244 C 
ATOM      4  O   UNL A   1      33.988  21.988  27.986  1.00  0.00    -0.270 OA
ATOM      5  H   UNL A   1      35.809  20.891  26.885  1.00  0.00     0.163 HD
BRANCH   3   6
ATOM      6  C   UNL A   1      33.198  22.710  25.903  1.00  0.00     0.072 C 
ATOM      7  C   UNL A   1      33.336  23.988  25.524  1.00  0.00     0.025 C 
BRANCH   7   8
ATOM      8  C   UNL A   1      32.391  24.681  24.711  1.00  0.00     0.031 A 
ATOM      9  C   UNL A   1      33.133  23.917  22.361  1.00  0.00     0.046 C 
ATOM     10  C   UNL A   1      32.326  24.730  23.323  1.00  0.00    -0.032 A 
ATOM     11  C   UNL A   1      31.377  25.715  22.891  1.00  0.00     0.029 A 
ATOM     12  C   UNL A   1      30.719  26.363  23.925  1.00  0.00     0.093 A 
ATOM     13  S   UNL A   1      31.139  25.631  25.400  1.00  0.00    -0.130 S 
BRANCH  12  14
ATOM     14  C   UNL A   1      29.730  27.429  23.730  1.00  0.00     0.263 C 
ATOM     15  O   UNL A   1      28.559  27.110  23.497  1.00  0.00    -0.268 OA
BRANCH  14  16
ATOM     16  N   UNL A   1      30.045  28.805  23.782  1.00  0.00    -0.337 N 
ATOM     17  C   UNL A   1      31.321  29.365  24.214  1.00  0.00     0.147 C 
BRANCH  16  18
ATOM     18  C   UNL A   1      29.060  29.732  23.189  1.00  0.00     0.095 C 
ATOM     19  C   UNL A   1      29.015  31.125  23.826  1.00  0.00     0.037 C 
ATOM     20  C   UNL A   1      29.288  29.936  21.686  1.00  0.00     0.094 C 
ATOM     21  C   UNL A   1      28.048  31.937  22.980  1.00  0.00     0.072 C 
ATOM     22  S   UNL A   1      28.435  31.484  21.266  1.00  0.00    -0.160 SA
ENDBRANCH  16  18
ENDBRANCH  14  16
ENDBRANCH  12  14
ENDBRANCH   7   8
ENDBRANCH   3   6
ENDBRANCH   1   2
BRANCH   1  23
ATOM     23  C   UNL A   1      37.090  21.300  24.649  1.00  0.00     0.023 C 
BRANCH  23  24
ATOM     24  C   UNL A   1      37.917  20.058  24.992  1.00  0.00     0.023 C 
BRANCH  24  25
ATOM     25  C   UNL A   1      39.211  20.338  25.746  1.00  0.00     0.116 C 
BRANCH  25  26
ATOM     26  N   UNL A   1      40.105  19.193  25.809  1.00  0.00    -0.352 N 
ATOM     27  C   UNL A   1      41.452  19.184  26.085  1.00  0.00     0.251 C 
ATOM     28  H   UNL A   1      39.695  18.316  25.631  1.00  0.00     0.163 HD
ATOM     29  O   UNL A   1      42.100  18.149  26.010  1.00  0.00    -0.269 OA
BRANCH  27  30
ATOM     30  C   UNL A   1      42.115  20.457  26.427  1.00  0.00     0.039 A 
ATOM     31  C   UNL A   1      42.708  21.201  25.405  1.00  0.00     0.014 A 
ATOM     32  C   UNL A   1      42.099  20.936  27.740  1.00  0.00     0.014 A 
ATOM     33  C   UNL A   1      43.225  22.465  25.687  1.00  0.00     0.010 A 
ATOM     34  C   UNL A   1      42.556  22.221  28.006  1.00  0.00     0.010 A 
ATOM     35  C   UNL A   1      43.118  22.999  26.982  1.00  0.00    -0.014 A 
BRANCH  35  36
ATOM     36  C   UNL A   1      43.580  24.374  27.286  1.00  0.00     0.031 A 
ATOM     37  C   UNL A   1      42.593  25.420  27.721  1.00  0.00     0.074 A 
ATOM     38  C   UNL A   1      44.874  24.699  27.099  1.00  0.00     0.049 A 
ATOM     39  N   UNL A   1      42.792  26.690  27.963  1.00  0.00    -0.248 NA
ATOM     40  C   UNL A   1      41.195  24.987  27.877  1.00  0.00     0.031 C 
ATOM     41  C   UNL A   1      45.921  23.784  26.637  1.00  0.00     0.029 A 
ATOM     42  N   UNL A   1      45.525  25.894  27.266  1.00  0.00    -0.354 N 
ATOM     43  C   UNL A   1      41.544  27.211  28.277  1.00  0.00     0.074 A 
ATOM     44  C   UNL A   1      40.589  26.132  28.154  1.00  0.00     0.031 C 
ATOM     45  C   UNL A   1      47.088  24.446  26.581  1.00  0.00     0.029 A 
ATOM     46  C   UNL A   1      46.865  25.836  26.968  1.00  0.00     0.049 A 
ATOM     47  H   UNL A   1      45.076  26.715  27.570  1.00  0.00     0.167 HD
ATOM     48  C   UNL A   1      41.223  28.472  28.653  1.00  0.00     0.031 A 
ATOM     49  C   UNL A   1      47.808  26.796  27.001  1.00  0.00     0.031 A 
ATOM     50  C   UNL A   1      42.174  29.541  28.794  1.00  0.00     0.049 A 
ATOM     51  C   UNL A   1      47.429  28.185  27.429  1.00  0.00     0.074 A 
ATOM     52  C   UNL A   1      41.956  30.838  29.226  1.00  0.00     0.029 A 
ATOM     53  N   UNL A   1      43.525  29.435  28.506  1.00  0.00    -0.354 N 
ATOM     54  N   UNL A   1      46.255  28.645  27.788  1.00  0.00    -0.248 NA
ATOM     55  C   UNL A   1      48.507  29.182  27.470  1.00  0.00     0.031 C 
ATOM     56  C   UNL A   1      43.171  31.527  29.165  1.00  0.00     0.029 A 
ATOM     57  C   UNL A   1      44.153  30.646  28.737  1.00  0.00     0.049 A 
ATOM     58  H   UNL A   1      43.973  28.618  28.185  1.00  0.00     0.167 HD
ATOM     59  C   UNL A   1      46.459  29.977  28.124  1.00  0.00     0.074 A 
ATOM     60  C   UNL A   1      47.870  30.247  27.936  1.00  0.00     0.031 C 
ATOM     61  C   UNL A   1      45.558  30.894  28.551  1.00  0.00     0.031 A 
BRANCH  48  62
ATOM     62  C   UNL A   1      39.776  28.759  28.934  1.00  0.00    -0.014 A 
ATOM     63  C   UNL A   1      39.230  28.549  30.211  1.00  0.00     0.009 A 
ATOM     64  C   UNL A   1      38.953  29.269  27.919  1.00  0.00     0.009 A 
ATOM     65  C   UNL A   1      37.880  28.809  30.454  1.00  0.00     0.001 A 
ATOM     66  C   UNL A   1      37.610  29.554  28.172  1.00  0.00     0.001 A 
ATOM     67  C   UNL A   1      37.073  29.315  29.436  1.00  0.00     0.000 A 
ENDBRANCH  48  62
BRANCH  49  68
ATOM     68  C   UNL A   1      49.212  26.471  26.642  1.00  0.00    -0.014 A 
ATOM     69  C   UNL A   1      50.087  25.945  27.605  1.00  0.00     0.009 A 
ATOM     70  C   UNL A   1      49.686  26.685  25.339  1.00  0.00     0.009 A 
ATOM     71  C   UNL A   1      51.414  25.664  27.278  1.00  0.00     0.001 A 
ATOM     72  C   UNL A   1      51.008  26.379  25.008  1.00  0.00     0.001 A 
ATOM     73  C   UNL A   1      51.872  25.877  25.979  1.00  0.00     0.000 A 
ENDBRANCH  49  68
BRANCH  61  74
ATOM     74  C   UNL A   1      46.077  32.263  28.886  1.00  0.00    -0.014 A 
ATOM     75  C   UNL A   1      46.106  33.284  27.924  1.00  0.00     0.009 A 
ATOM     76  C   UNL A   1      46.497  32.544  30.195  1.00  0.00     0.009 A 
ATOM     77  C   UNL A   1      46.573  34.556  28.263  1.00  0.00     0.001 A 
ATOM     78  C   UNL A   1      46.940  33.822  30.536  1.00  0.00     0.001 A 
ATOM     79  C   UNL A   1      46.984  34.824  29.568  1.00  0.00     0.000 A 
ENDBRANCH  61  74
ENDBRANCH  35  36
ENDBRANCH  27  30
ENDBRANCH  25  26
ENDBRANCH  24  25
ENDBRANCH  23  24
ENDBRANCH   1  23
TORSDOF 15
ENDMDL
MODEL 2
REMARK VINA RESULT:     -10.8      3.226      8.482
REMARK SMILES Cc1cc(C(=O)N(C)[C@H]2CCSC2)sc1/C=C/C(=O)NCCCCNC(=O)c1ccc(-c2c3nc(c(-c4ccccc4)c4ccc([nH]4)c(-c4ccccc4)c4nc(c(-c5ccccc5)c5ccc2[nH]5)C=C4)C=C3)cc1
REMARK SMILES IDX 21 1 20 2 18 3 19 4 17 6 16 7 15 8 1 9 2 10 3 11 4 12 14 13
REMARK SMILES IDX 5 14 6 15 7 16 8 17 9 18 10 19 13 20 11 21 12 22 22 23 23 24
REMARK SMILES IDX 24 25 25 26 26 27 27 29 28 30 29 31 75 32 30 33 74 34 31 35
REMARK SMILES IDX 32 36 33 37 68 38 34 39 73 40 67 41 69 42 35 43 72 44 66 45
REMARK SMILES IDX 65 46 36 48 58 49 43 50 57 51 44 52 47 53 56 54 70 55 45 56
REMARK SMILES IDX 46 57 55 59 71 60 48 61 37 62 38 63 42 64 39 65 41 66 40 67
REMARK SMILES IDX 59 68 60 69 64 70 61 71 63 72 62 73 49 74 50 75 54 76 51 77
REMARK SMILES IDX 53 78 52 79
REMARK H PARENT 20 5 25 28 69 47 47 58
REMARK Flexibility Score: inf
ROOT
ATOM      1  C   UNL A   1      31.652  28.897  24.020  1.00  0.00     0.116 C 
ENDROOT
BRANCH   1   2
ATOM      2  N   UNL A   1      32.597  28.735  22.931  1.00  0.00    -0.353 N 
ATOM      3  C   UNL A   1      33.283  27.634  22.523  1.00  0.00     0.244 C 
ATOM      4  O   UNL A   1      33.985  27.690  21.517  1.00  0.00    -0.270 OA
ATOM      5  H   UNL A   1      32.769  29.550  22.406  1.00  0.00     0.163 HD
BRANCH   3   6
ATOM      6  C   UNL A   1      33.125  26.343  23.228  1.00  0.00     0.072 C 
ATOM      7  C   UNL A   1      32.172  25.450  22.927  1.00  0.00     0.025 C 
BRANCH   7   8
ATOM      8  C   UNL A   1      31.994  24.215  23.618  1.00  0.00     0.031 A 
ATOM      9  C   UNL A   1      30.443  24.963  25.540  1.00  0.00     0.046 C 
ATOM     10  C   UNL A   1      31.308  23.987  24.805  1.00  0.00    -0.032 A 
ATOM     11  C   UNL A   1      31.553  22.660  25.290  1.00  0.00     0.029 A 
ATOM     12  C   UNL A   1      32.373  21.898  24.472  1.00  0.00     0.093 A 
ATOM     13  S   UNL A   1      32.680  22.754  23.036  1.00  0.00    -0.130 S 
BRANCH  12  14
ATOM     14  C   UNL A   1      32.790  20.525  24.775  1.00  0.00     0.263 C 
ATOM     15  O   UNL A   1      31.916  19.678  24.995  1.00  0.00    -0.268 OA
BRANCH  14  16
ATOM     16  N   UNL A   1      34.141  20.116  24.843  1.00  0.00    -0.337 N 
ATOM     17  C   UNL A   1      34.620  18.750  24.667  1.00  0.00     0.147 C 
BRANCH  16  18
ATOM     18  C   UNL A   1      35.153  21.188  24.929  1.00  0.00     0.095 C 
ATOM     19  C   UNL A   1      35.124  22.005  26.224  1.00  0.00     0.037 C 
ATOM     20  C   UNL A   1      36.580  20.649  24.773  1.00  0.00     0.094 C 
ATOM     21  C   UNL A   1      36.320  22.940  26.151  1.00  0.00     0.072 C 
ATOM     22  S   UNL A   1      37.665  21.924  25.481  1.00  0.00    -0.160 SA
ENDBRANCH  16  18
ENDBRANCH  14  16
ENDBRANCH  12  14
ENDBRANCH   7   8
ENDBRANCH   3   6
ENDBRANCH   1   2
BRANCH   1  23
ATOM     23  C   UNL A   1      32.363  29.340  25.299  1.00  0.00     0.023 C 
BRANCH  23  24
ATOM     24  C   UNL A   1      32.955  28.191  26.120  1.00  0.00     0.023 C 
BRANCH  24  25
ATOM     25  C   UNL A   1      33.497  28.594  27.487  1.00  0.00     0.116 C 
BRANCH  25  26
ATOM     26  N   UNL A   1      33.487  30.030  27.714  1.00  0.00    -0.352 N 
ATOM     27  C   UNL A   1      34.518  30.826  28.154  1.00  0.00     0.251 C 
ATOM     28  H   UNL A   1      32.636  30.490  27.530  1.00  0.00     0.163 HD
ATOM     29  O   UNL A   1      34.338  32.012  28.391  1.00  0.00    -0.269 OA
BRANCH  27  30
ATOM     30  C   UNL A   1      35.840  30.210  28.383  1.00  0.00     0.039 A 
ATOM     31  C   UNL A   1      36.786  30.250  27.357  1.00  0.00     0.014 A 
ATOM     32  C   UNL A   1      36.157  29.649  29.623  1.00  0.00     0.014 A 
ATOM     33  C   UNL A   1      38.081  29.789  27.599  1.00  0.00     0.010 A 
ATOM     34  C   UNL A   1      37.463  29.251  29.883  1.00  0.00     0.010 A 
ATOM     35  C   UNL A   1      38.437  29.323  28.875  1.00  0.00    -0.014 A 
BRANCH  35  36
ATOM     36  C   UNL A   1      39.828  28.911  29.181  1.00  0.00     0.031 A 
ATOM     37  C   UNL A   1      40.324  27.560  28.752  1.00  0.00     0.074 A 
ATOM     38  C   UNL A   1      40.617  29.723  29.911  1.00  0.00     0.049 A 
ATOM     39  N   UNL A   1      41.480  26.993  28.988  1.00  0.00    -0.248 NA
ATOM     40  C   UNL A   1      39.390  26.725  27.980  1.00  0.00     0.031 C 
ATOM     41  C   UNL A   1      40.236  31.040  30.426  1.00  0.00     0.029 A 
ATOM     42  N   UNL A   1      41.903  29.552  30.354  1.00  0.00    -0.354 N 
ATOM     43  C   UNL A   1      41.403  25.732  28.415  1.00  0.00     0.074 A 
ATOM     44  C   UNL A   1      40.074  25.598  27.857  1.00  0.00     0.031 C 
ATOM     45  C   UNL A   1      41.274  31.568  31.094  1.00  0.00     0.029 A 
ATOM     46  C   UNL A   1      42.379  30.614  31.085  1.00  0.00     0.049 A 
ATOM     47  H   UNL A   1      42.436  28.745  30.168  1.00  0.00     0.167 HD
ATOM     48  C   UNL A   1      42.358  24.775  28.342  1.00  0.00     0.031 A 
ATOM     49  C   UNL A   1      43.571  30.797  31.682  1.00  0.00     0.031 A 
ATOM     50  C   UNL A   1      43.684  24.913  28.878  1.00  0.00     0.049 A 
ATOM     51  C   UNL A   1      44.618  29.724  31.579  1.00  0.00     0.074 A 
ATOM     52  C   UNL A   1      44.742  24.024  28.804  1.00  0.00     0.029 A 
ATOM     53  N   UNL A   1      44.134  26.014  29.590  1.00  0.00    -0.354 N 
ATOM     54  N   UNL A   1      44.551  28.563  30.976  1.00  0.00    -0.248 NA
ATOM     55  C   UNL A   1      45.908  29.994  32.230  1.00  0.00     0.031 C 
ATOM     56  C   UNL A   1      45.822  24.573  29.501  1.00  0.00     0.029 A 
ATOM     57  C   UNL A   1      45.450  25.823  29.972  1.00  0.00     0.049 A 
ATOM     58  H   UNL A   1      43.598  26.815  29.792  1.00  0.00     0.167 HD
ATOM     59  C   UNL A   1      45.798  27.976  31.148  1.00  0.00     0.074 A 
ATOM     60  C   UNL A   1      46.603  28.914  31.904  1.00  0.00     0.031 C 
ATOM     61  C   UNL A   1      46.237  26.768  30.718  1.00  0.00     0.031 A 
BRANCH  48  62
ATOM     62  C   UNL A   1      41.994  23.490  27.655  1.00  0.00    -0.014 A 
ATOM     63  C   UNL A   1      42.305  23.276  26.303  1.00  0.00     0.009 A 
ATOM     64  C   UNL A   1      41.354  22.469  28.375  1.00  0.00     0.009 A 
ATOM     65  C   UNL A   1      41.949  22.080  25.676  1.00  0.00     0.001 A 
ATOM     66  C   UNL A   1      41.023  21.263  27.752  1.00  0.00     0.001 A 
ATOM     67  C   UNL A   1      41.313  21.074  26.402  1.00  0.00     0.000 A 
ENDBRANCH  48  62
BRANCH  49  68
ATOM     68  C   UNL A   1      43.851  32.061  32.410  1.00  0.00    -0.014 A 
ATOM     69  C   UNL A   1      43.557  32.171  33.778  1.00  0.00     0.009 A 
ATOM     70  C   UNL A   1      44.410  33.163  31.745  1.00  0.00     0.009 A 
ATOM     71  C   UNL A   1      43.794  33.366  34.459  1.00  0.00     0.001 A 
ATOM     72  C   UNL A   1      44.669  34.349  32.435  1.00  0.00     0.001 A 
ATOM     73  C   UNL A   1      44.354  34.452  33.788  1.00  0.00     0.000 A 
ENDBRANCH  49  68
BRANCH  61  74
ATOM     74  C   UNL A   1      47.664  26.411  31.018  1.00  0.00    -0.014 A 
ATOM     75  C   UNL A   1      48.695  26.722  30.119  1.00  0.00     0.009 A 
ATOM     76  C   UNL A   1      47.983  25.798  32.239  1.00  0.00     0.009 A 
ATOM     77  C   UNL A   1      50.018  26.400  30.428  1.00  0.00     0.001 A 
ATOM     78  C   UNL A   1      49.308  25.499  32.555  1.00  0.00     0.001 A 
ATOM     79  C   UNL A   1      50.324  25.794  31.646  1.00  0.00     0.000 A 
ENDBRANCH  61  74
ENDBRANCH  35  36
ENDBRANCH  27  30
ENDBRANCH  25  26
ENDBRANCH  24  25
ENDBRANCH  23  24
ENDBRANCH   1  23
TORSDOF 15
ENDMDL
MODEL 3
REMARK VINA RESULT:     -10.7      2.124      6.360
REMARK SMILES Cc1cc(C(=O)N(C)[C@H]2CCSC2)sc1/C=C/C(=O)NCCCCNC(=O)c1ccc(-c2c3nc(c(-c4ccccc4)c4ccc([nH]4)c(-c4ccccc4)c4nc(c(-c5ccccc5)c5ccc2[nH]5)C=C4)C=C3)cc1
REMARK SMILES IDX 21 1 20 2 18 3 19 4 17 6 16 7 15 8 1 9 2 10 3 11 4 12 14 13
REMARK SMILES IDX 5 14 6 15 7 16 8 17 9 18 10 19 13 20 11 21 12 22 22 23 23 24
REMARK SMILES IDX 24 25 25 26 26 27 27 29 28 30 29 31 75 32 30 33 74 34 31 35
REMARK SMILES IDX 32 36 33 37 68 38 34 39 73 40 67 41 69 42 35 43 72 44 66 45
REMARK SMILES IDX 65 46 36 48 58 49 43 50 57 51 44 52 47 53 56 54 70 55 45 56
REMARK SMILES IDX 46 57 55 59 71 60 48 61 37 62 38 63 42 64 39 65 41 66 40 67
REMARK SMILES IDX 59 68 60 69 64 70 61 71 63 72 62 73 49 74 50 75 54 76 51 77
REMARK SMILES IDX 53 78 52 79
REMARK H PARENT 20 5 25 28 69 47 47 58
REMARK Flexibility Score: inf
ROOT
ATOM      1  C   UNL A   1      37.239  21.966  25.370  1.00  0.00     0.116 C 
ENDROOT
BRANCH   1   2
ATOM      2  N   UNL A   1      36.387  20.797  25.262  1.00  0.00    -0.353 N 
ATOM      3  C   UNL A   1      35.087  20.692  24.873  1.00  0.00     0.244 C 
ATOM      4  O   UNL A   1      34.567  19.584  24.774  1.00  0.00    -0.270 OA
ATOM      5  H   UNL A   1      36.816  19.945  25.507  1.00  0.00     0.163 HD
BRANCH   3   6
ATOM      6  C   UNL A   1      34.319  21.894  24.483  1.00  0.00     0.072 C 
ATOM      7  C   UNL A   1      33.286  22.372  25.191  1.00  0.00     0.025 C 
BRANCH   7   8
ATOM      8  C   UNL A   1      32.521  23.513  24.809  1.00  0.00     0.031 A 
ATOM      9  C   UNL A   1      30.344  23.095  26.129  1.00  0.00     0.046 C 
ATOM     10  C   UNL A   1      31.206  23.816  25.141  1.00  0.00    -0.032 A 
ATOM     11  C   UNL A   1      30.730  24.932  24.376  1.00  0.00     0.029 A 
ATOM     12  C   UNL A   1      31.673  25.476  23.517  1.00  0.00     0.093 A 
ATOM     13  S   UNL A   1      33.175  24.732  23.793  1.00  0.00    -0.130 S 
BRANCH  12  14
ATOM     14  C   UNL A   1      31.408  26.600  22.612  1.00  0.00     0.263 C 
ATOM     15  O   UNL A   1      31.252  26.363  21.408  1.00  0.00    -0.268 OA
BRANCH  14  16
ATOM     16  N   UNL A   1      31.333  27.945  23.038  1.00  0.00    -0.337 N 
ATOM     17  C   UNL A   1      30.568  28.998  22.381  1.00  0.00     0.147 C 
BRANCH  16  18
ATOM     18  C   UNL A   1      31.940  28.259  24.347  1.00  0.00     0.095 C 
ATOM     19  C   UNL A   1      33.451  28.512  24.317  1.00  0.00     0.037 C 
ATOM     20  C   UNL A   1      31.295  29.485  25.005  1.00  0.00     0.094 C 
ATOM     21  C   UNL A   1      33.827  28.946  25.725  1.00  0.00     0.072 C 
ATOM     22  S   UNL A   1      32.498  30.070  26.236  1.00  0.00    -0.160 SA
ENDBRANCH  16  18
ENDBRANCH  14  16
ENDBRANCH  12  14
ENDBRANCH   7   8
ENDBRANCH   3   6
ENDBRANCH   1   2
BRANCH   1  23
ATOM     23  C   UNL A   1      38.664  21.568  25.756  1.00  0.00     0.023 C 
BRANCH  23  24
ATOM     24  C   UNL A   1      39.054  20.145  25.345  1.00  0.00     0.023 C 
BRANCH  24  25
ATOM     25  C   UNL A   1      39.864  19.378  26.384  1.00  0.00     0.116 C 
BRANCH  25  26
ATOM     26  N   UNL A   1      41.162  18.937  25.897  1.00  0.00    -0.352 N 
ATOM     27  C   UNL A   1      42.332  19.655  25.834  1.00  0.00     0.251 C 
ATOM     28  H   UNL A   1      41.207  18.009  25.571  1.00  0.00     0.163 HD
ATOM     29  O   UNL A   1      43.331  19.182  25.309  1.00  0.00    -0.269 OA
BRANCH  27  30
ATOM     30  C   UNL A   1      42.350  21.030  26.369  1.00  0.00     0.039 A 
ATOM     31  C   UNL A   1      42.231  21.216  27.748  1.00  0.00     0.014 A 
ATOM     32  C   UNL A   1      42.538  22.122  25.517  1.00  0.00     0.014 A 
ATOM     33  C   UNL A   1      42.374  22.496  28.283  1.00  0.00     0.010 A 
ATOM     34  C   UNL A   1      42.745  23.386  26.057  1.00  0.00     0.010 A 
ATOM     35  C   UNL A   1      42.670  23.583  27.444  1.00  0.00    -0.014 A 
BRANCH  35  36
ATOM     36  C   UNL A   1      42.914  24.936  27.998  1.00  0.00     0.031 A 
ATOM     37  C   UNL A   1      44.292  25.327  28.450  1.00  0.00     0.074 A 
ATOM     38  C   UNL A   1      41.881  25.785  28.162  1.00  0.00     0.049 A 
ATOM     39  N   UNL A   1      44.688  26.434  29.024  1.00  0.00    -0.248 NA
ATOM     40  C   UNL A   1      45.359  24.332  28.257  1.00  0.00     0.031 C 
ATOM     41  C   UNL A   1      40.488  25.506  27.805  1.00  0.00     0.029 A 
ATOM     42  N   UNL A   1      41.843  27.052  28.683  1.00  0.00    -0.354 N 
ATOM     43  C   UNL A   1      46.042  26.260  29.279  1.00  0.00     0.074 A 
ATOM     44  C   UNL A   1      46.390  24.927  28.838  1.00  0.00     0.031 C 
ATOM     45  C   UNL A   1      39.736  26.581  28.095  1.00  0.00     0.029 A 
ATOM     46  C   UNL A   1      40.587  27.607  28.689  1.00  0.00     0.049 A 
ATOM     47  H   UNL A   1      42.640  27.521  29.021  1.00  0.00     0.167 HD
ATOM     48  C   UNL A   1      46.921  27.138  29.816  1.00  0.00     0.031 A 
ATOM     49  C   UNL A   1      40.166  28.809  29.127  1.00  0.00     0.031 A 
ATOM     50  C   UNL A   1      46.581  28.470  30.237  1.00  0.00     0.049 A 
ATOM     51  C   UNL A   1      41.163  29.769  29.712  1.00  0.00     0.074 A 
ATOM     52  C   UNL A   1      47.413  29.455  30.739  1.00  0.00     0.029 A 
ATOM     53  N   UNL A   1      45.302  29.002  30.204  1.00  0.00    -0.354 N 
ATOM     54  N   UNL A   1      42.453  29.613  29.886  1.00  0.00    -0.248 NA
ATOM     55  C   UNL A   1      40.647  31.074  30.148  1.00  0.00     0.031 C 
ATOM     56  C   UNL A   1      46.630  30.573  31.043  1.00  0.00     0.029 A 
ATOM     57  C   UNL A   1      45.318  30.298  30.689  1.00  0.00     0.049 A 
ATOM     58  H   UNL A   1      44.500  28.529  29.882  1.00  0.00     0.167 HD
ATOM     59  C   UNL A   1      42.908  30.810  30.424  1.00  0.00     0.074 A 
ATOM     60  C   UNL A   1      41.758  31.684  30.538  1.00  0.00     0.031 C 
ATOM     61  C   UNL A   1      44.166  31.154  30.790  1.00  0.00     0.031 A 
BRANCH  48  62
ATOM     62  C   UNL A   1      48.341  26.676  29.980  1.00  0.00    -0.014 A 
ATOM     63  C   UNL A   1      49.309  26.947  29.000  1.00  0.00     0.009 A 
ATOM     64  C   UNL A   1      48.723  25.984  31.140  1.00  0.00     0.009 A 
ATOM     65  C   UNL A   1      50.623  26.501  29.161  1.00  0.00     0.001 A 
ATOM     66  C   UNL A   1      50.043  25.562  31.311  1.00  0.00     0.001 A 
ATOM     67  C   UNL A   1      50.989  25.813  30.317  1.00  0.00     0.000 A 
ENDBRANCH  48  62
BRANCH  49  68
ATOM     68  C   UNL A   1      38.735  29.185  29.006  1.00  0.00    -0.014 A 
ATOM     69  C   UNL A   1      37.861  29.008  30.090  1.00  0.00     0.009 A 
ATOM     70  C   UNL A   1      38.233  29.720  27.810  1.00  0.00     0.009 A 
ATOM     71  C   UNL A   1      36.509  29.335  29.971  1.00  0.00     0.001 A 
ATOM     72  C   UNL A   1      36.885  30.069  27.702  1.00  0.00     0.001 A 
ATOM     73  C   UNL A   1      36.024  29.869  28.779  1.00  0.00     0.000 A 
ENDBRANCH  49  68
BRANCH  61  74
ATOM     74  C   UNL A   1      44.373  32.548  31.308  1.00  0.00    -0.014 A 
ATOM     75  C   UNL A   1      44.674  33.609  30.440  1.00  0.00     0.009 A 
ATOM     76  C   UNL A   1      44.215  32.809  32.678  1.00  0.00     0.009 A 
ATOM     77  C   UNL A   1      44.840  34.902  30.942  1.00  0.00     0.001 A 
ATOM     78  C   UNL A   1      44.358  34.106  33.171  1.00  0.00     0.001 A 
ATOM     79  C   UNL A   1      44.677  35.149  32.304  1.00  0.00     0.000 A 
ENDBRANCH  61  74
ENDBRANCH  35  36
ENDBRANCH  27  30
ENDBRANCH  25  26
ENDBRANCH  24  25
ENDBRANCH  23  24
ENDBRANCH   1  23
TORSDOF 15
ENDMDL
