MODEL 1
REMARK VINA RESULT:     -12.2      0.000      0.000
REMARK SMILES COc1cccc([C@H](CC(=O)NCCCCNC(=O)c2ccc(-c3c4nc(c(-c5ccccc5)c5ccc([nH]5)c(-c5ccccc5)c5nc(c(-c6ccccc6)c6ccc3[nH]6)C=C5)C=C4)cc2)NS(=O)(=O)c2ccc3c(c2)C[C@@H](C)N3C(C)=O)c1
REMARK SMILES IDX 13 1 12 2 10 3 11 4 9 6 8 7 7 8 3 9 4 10 85 11 5 12 6 13
REMARK SMILES IDX 2 14 1 15 68 16 69 18 70 19 71 20 72 21 73 22 77 23 74 24
REMARK SMILES IDX 76 25 75 26 78 27 81 28 79 29 80 30 82 31 83 32 84 33 14 34
REMARK SMILES IDX 15 35 16 36 17 37 18 38 19 40 20 41 21 42 67 43 22 44 66 45
REMARK SMILES IDX 23 46 24 47 25 48 60 49 26 50 65 51 59 52 61 53 27 54 64 55
REMARK SMILES IDX 58 56 57 57 28 59 50 60 35 61 49 62 36 63 39 64 48 65 62 66
REMARK SMILES IDX 37 67 38 68 47 70 63 71 40 72 29 73 30 74 34 75 31 76 33 77
REMARK SMILES IDX 32 78 51 79 52 80 56 81 53 82 55 83 54 84 41 85 42 86 46 87
REMARK SMILES IDX 43 88 45 89 44 90
REMARK H PARENT 12 5 68 17 17 39 61 58 39 69
REMARK Flexibility Score: inf
ROOT
ATOM      1  C   UNL A   1      31.795  29.707  25.584  1.00  0.00     0.116 C 
ENDROOT
BRANCH   1   2
ATOM      2  N   UNL A   1      32.612  28.508  25.601  1.00  0.00    -0.356 N 
ATOM      3  C   UNL A   1      32.235  27.211  25.398  1.00  0.00     0.221 C 
ATOM      4  O   UNL A   1      33.071  26.319  25.530  1.00  0.00    -0.275 OA
ATOM      5  H   UNL A   1      33.569  28.647  25.783  1.00  0.00     0.163 HD
BRANCH   3   6
ATOM      6  C   UNL A   1      30.808  26.901  25.011  1.00  0.00     0.124 C 
BRANCH   6   7
ATOM      7  C   UNL A   1      30.619  26.936  23.487  1.00  0.00     0.109 C 
BRANCH   7   8
ATOM      8  C   UNL A   1      29.582  27.981  23.131  1.00  0.00    -0.026 A 
ATOM      9  C   UNL A   1      28.959  30.109  22.159  1.00  0.00     0.119 A 
ATOM     10  C   UNL A   1      27.628  29.895  22.510  1.00  0.00     0.046 A 
ATOM     11  C   UNL A   1      29.941  29.179  22.500  1.00  0.00     0.051 A 
ATOM     12  C   UNL A   1      27.259  28.711  23.141  1.00  0.00     0.004 A 
ATOM     13  C   UNL A   1      28.228  27.754  23.435  1.00  0.00     0.005 A 
BRANCH   9  14
ATOM     14  O   UNL A   1      29.249  31.276  21.505  1.00  0.00    -0.497 OA
ATOM     15  C   UNL A   1      28.134  31.747  20.747  1.00  0.00     0.278 C 
ENDBRANCH   9  14
ENDBRANCH   7   8
BRANCH   7  16
ATOM     16  N   UNL A   1      31.921  27.102  22.835  1.00  0.00    -0.203 NA
ATOM     17  H   UNL A   1      32.595  27.211  23.592  1.00  0.00     0.142 HD
BRANCH  16  18
ATOM     18  S   UNL A   1      32.592  25.996  21.792  1.00  0.00     0.241 S 
ATOM     19  O   UNL A   1      31.696  25.747  20.687  1.00  0.00    -0.207 OA
ATOM     20  O   UNL A   1      33.940  26.474  21.567  1.00  0.00    -0.207 OA
BRANCH  18  21
ATOM     21  C   UNL A   1      32.761  24.464  22.668  1.00  0.00     0.082 A 
ATOM     22  C   UNL A   1      31.673  23.675  23.087  1.00  0.00     0.024 A 
ATOM     23  C   UNL A   1      34.078  24.101  22.969  1.00  0.00     0.027 A 
ATOM     24  C   UNL A   1      31.894  22.479  23.787  1.00  0.00     0.028 A 
ATOM     25  C   UNL A   1      34.271  22.980  23.742  1.00  0.00    -0.021 A 
ATOM     26  C   UNL A   1      33.194  22.173  24.134  1.00  0.00     0.047 A 
ATOM     27  C   UNL A   1      35.568  22.419  24.245  1.00  0.00     0.063 C 
ATOM     28  N   UNL A   1      33.704  21.094  24.878  1.00  0.00    -0.309 N 
ATOM     29  C   UNL A   1      35.032  21.534  25.381  1.00  0.00     0.092 C 
ATOM     30  C   UNL A   1      34.853  22.364  26.672  1.00  0.00     0.032 C 
BRANCH  28  31
ATOM     31  C   UNL A   1      33.204  19.812  24.767  1.00  0.00     0.224 C 
ATOM     32  C   UNL A   1      34.250  18.765  24.451  1.00  0.00     0.115 C 
ATOM     33  O   UNL A   1      32.008  19.523  24.749  1.00  0.00    -0.275 OA
ENDBRANCH  28  31
ENDBRANCH  18  21
ENDBRANCH  16  18
ENDBRANCH   7  16
ENDBRANCH   6   7
ENDBRANCH   3   6
ENDBRANCH   1   2
BRANCH   1  34
ATOM     34  C   UNL A   1      31.824  30.418  26.938  1.00  0.00     0.023 C 
BRANCH  34  35
ATOM     35  C   UNL A   1      31.431  31.892  26.888  1.00  0.00     0.023 C 
BRANCH  35  36
ATOM     36  C   UNL A   1      32.608  32.855  26.879  1.00  0.00     0.116 C 
BRANCH  36  37
ATOM     37  N   UNL A   1      32.385  34.039  27.694  1.00  0.00    -0.352 N 
ATOM     38  C   UNL A   1      33.140  34.510  28.740  1.00  0.00     0.251 C 
ATOM     39  H   UNL A   1      31.587  34.571  27.468  1.00  0.00     0.163 HD
ATOM     40  O   UNL A   1      32.756  35.465  29.407  1.00  0.00    -0.269 OA
BRANCH  38  41
ATOM     41  C   UNL A   1      34.405  33.829  29.073  1.00  0.00     0.039 A 
ATOM     42  C   UNL A   1      35.584  34.263  28.462  1.00  0.00     0.014 A 
ATOM     43  C   UNL A   1      34.429  32.801  30.018  1.00  0.00     0.014 A 
ATOM     44  C   UNL A   1      36.803  33.708  28.853  1.00  0.00     0.010 A 
ATOM     45  C   UNL A   1      35.650  32.300  30.458  1.00  0.00     0.010 A 
ATOM     46  C   UNL A   1      36.846  32.749  29.878  1.00  0.00    -0.014 A 
BRANCH  46  47
ATOM     47  C   UNL A   1      38.135  32.203  30.366  1.00  0.00     0.031 A 
ATOM     48  C   UNL A   1      38.664  30.914  29.803  1.00  0.00     0.074 A 
ATOM     49  C   UNL A   1      38.787  32.826  31.364  1.00  0.00     0.049 A 
ATOM     50  N   UNL A   1      39.730  30.240  30.149  1.00  0.00    -0.248 NA
ATOM     51  C   UNL A   1      37.877  30.287  28.728  1.00  0.00     0.031 C 
ATOM     52  C   UNL A   1      38.352  34.059  32.026  1.00  0.00     0.029 A 
ATOM     53  N   UNL A   1      39.956  32.501  32.004  1.00  0.00    -0.354 N 
ATOM     54  C   UNL A   1      39.728  29.101  29.355  1.00  0.00     0.074 A 
ATOM     55  C   UNL A   1      38.535  29.153  28.539  1.00  0.00     0.031 C 
ATOM     56  C   UNL A   1      39.256  34.399  32.959  1.00  0.00     0.029 A 
ATOM     57  C   UNL A   1      40.312  33.393  32.988  1.00  0.00     0.049 A 
ATOM     58  H   UNL A   1      40.489  31.704  31.781  1.00  0.00     0.167 HD
ATOM     59  C   UNL A   1      40.648  28.109  29.296  1.00  0.00     0.031 A 
ATOM     60  C   UNL A   1      41.368  33.395  33.821  1.00  0.00     0.031 A 
ATOM     61  C   UNL A   1      41.846  28.070  30.090  1.00  0.00     0.049 A 
ATOM     62  C   UNL A   1      42.379  32.286  33.728  1.00  0.00     0.074 A 
ATOM     63  C   UNL A   1      42.871  27.141  30.056  1.00  0.00     0.029 A 
ATOM     64  N   UNL A   1      42.180  29.002  31.058  1.00  0.00    -0.354 N 
ATOM     65  N   UNL A   1      42.397  31.252  32.925  1.00  0.00    -0.248 NA
ATOM     66  C   UNL A   1      43.519  32.354  34.653  1.00  0.00     0.031 C 
ATOM     67  C   UNL A   1      43.809  27.492  31.032  1.00  0.00     0.029 A 
ATOM     68  C   UNL A   1      43.388  28.662  31.642  1.00  0.00     0.049 A 
ATOM     69  H   UNL A   1      41.639  29.790  31.295  1.00  0.00     0.167 HD
ATOM     70  C   UNL A   1      43.562  30.559  33.227  1.00  0.00     0.074 A 
ATOM     71  C   UNL A   1      44.229  31.299  34.279  1.00  0.00     0.031 C 
ATOM     72  C   UNL A   1      44.037  29.413  32.684  1.00  0.00     0.031 A 
BRANCH  59  73
ATOM     73  C   UNL A   1      40.388  26.983  28.337  1.00  0.00    -0.014 A 
ATOM     74  C   UNL A   1      39.631  25.864  28.719  1.00  0.00     0.009 A 
ATOM     75  C   UNL A   1      40.878  27.058  27.024  1.00  0.00     0.009 A 
ATOM     76  C   UNL A   1      39.400  24.826  27.815  1.00  0.00     0.001 A 
ATOM     77  C   UNL A   1      40.623  26.030  26.115  1.00  0.00     0.001 A 
ATOM     78  C   UNL A   1      39.891  24.911  26.513  1.00  0.00     0.000 A 
ENDBRANCH  59  73
BRANCH  60  79
ATOM     79  C   UNL A   1      41.541  34.497  34.802  1.00  0.00    -0.014 A 
ATOM     80  C   UNL A   1      42.249  35.655  34.448  1.00  0.00     0.009 A 
ATOM     81  C   UNL A   1      41.009  34.392  36.096  1.00  0.00     0.009 A 
ATOM     82  C   UNL A   1      42.445  36.676  35.379  1.00  0.00     0.001 A 
ATOM     83  C   UNL A   1      41.185  35.428  37.017  1.00  0.00     0.001 A 
ATOM     84  C   UNL A   1      41.909  36.564  36.662  1.00  0.00     0.000 A 
ENDBRANCH  60  79
BRANCH  72  85
ATOM     85  C   UNL A   1      45.357  28.911  33.192  1.00  0.00    -0.014 A 
ATOM     86  C   UNL A   1      45.426  28.001  34.258  1.00  0.00     0.009 A 
ATOM     87  C   UNL A   1      46.543  29.324  32.566  1.00  0.00     0.009 A 
ATOM     88  C   UNL A   1      46.664  27.537  34.708  1.00  0.00     0.001 A 
ATOM     89  C   UNL A   1      47.777  28.840  33.003  1.00  0.00     0.001 A 
ATOM     90  C   UNL A   1      47.837  27.953  34.078  1.00  0.00     0.000 A 
ENDBRANCH  72  85
ENDBRANCH  46  47
ENDBRANCH  38  41
ENDBRANCH  36  37
ENDBRANCH  35  36
ENDBRANCH  34  35
ENDBRANCH   1  34
TORSDOF 18
ENDMDL
MODEL 2
REMARK VINA RESULT:     -12.1      4.159      9.970
REMARK SMILES COc1cccc([C@H](CC(=O)NCCCCNC(=O)c2ccc(-c3c4nc(c(-c5ccccc5)c5ccc([nH]5)c(-c5ccccc5)c5nc(c(-c6ccccc6)c6ccc3[nH]6)C=C5)C=C4)cc2)NS(=O)(=O)c2ccc3c(c2)C[C@@H](C)N3C(C)=O)c1
REMARK SMILES IDX 13 1 12 2 10 3 11 4 9 6 8 7 7 8 3 9 4 10 85 11 5 12 6 13
REMARK SMILES IDX 2 14 1 15 68 16 69 18 70 19 71 20 72 21 73 22 77 23 74 24
REMARK SMILES IDX 76 25 75 26 78 27 81 28 79 29 80 30 82 31 83 32 84 33 14 34
REMARK SMILES IDX 15 35 16 36 17 37 18 38 19 40 20 41 21 42 67 43 22 44 66 45
REMARK SMILES IDX 23 46 24 47 25 48 60 49 26 50 65 51 59 52 61 53 27 54 64 55
REMARK SMILES IDX 58 56 57 57 28 59 50 60 35 61 49 62 36 63 39 64 48 65 62 66
REMARK SMILES IDX 37 67 38 68 47 70 63 71 40 72 29 73 30 74 34 75 31 76 33 77
REMARK SMILES IDX 32 78 51 79 52 80 56 81 53 82 55 83 54 84 41 85 42 86 46 87
REMARK SMILES IDX 43 88 45 89 44 90
REMARK H PARENT 12 5 68 17 17 39 61 58 39 69
REMARK Flexibility Score: inf
ROOT
ATOM      1  C   UNL A   1      35.965  21.496  24.209  1.00  0.00     0.116 C 
ENDROOT
BRANCH   1   2
ATOM      2  N   UNL A   1      35.438  22.810  24.529  1.00  0.00    -0.356 N 
ATOM      3  C   UNL A   1      34.282  23.396  24.103  1.00  0.00     0.221 C 
ATOM      4  O   UNL A   1      34.047  24.559  24.430  1.00  0.00    -0.275 OA
ATOM      5  H   UNL A   1      35.991  23.353  25.136  1.00  0.00     0.163 HD
BRANCH   3   6
ATOM      6  C   UNL A   1      33.315  22.609  23.251  1.00  0.00     0.124 C 
BRANCH   6   7
ATOM      7  C   UNL A   1      32.251  21.908  24.109  1.00  0.00     0.109 C 
BRANCH   7   8
ATOM      8  C   UNL A   1      32.368  20.408  23.932  1.00  0.00    -0.026 A 
ATOM      9  C   UNL A   1      32.728  18.187  24.825  1.00  0.00     0.119 A 
ATOM     10  C   UNL A   1      32.593  17.638  23.552  1.00  0.00     0.046 A 
ATOM     11  C   UNL A   1      32.655  19.567  25.015  1.00  0.00     0.051 A 
ATOM     12  C   UNL A   1      32.312  18.464  22.468  1.00  0.00     0.004 A 
ATOM     13  C   UNL A   1      32.185  19.838  22.660  1.00  0.00     0.005 A 
BRANCH   9  14
ATOM     14  O   UNL A   1      32.964  17.317  25.855  1.00  0.00    -0.497 OA
ATOM     15  C   UNL A   1      33.452  16.060  25.382  1.00  0.00     0.278 C 
ENDBRANCH   9  14
ENDBRANCH   7   8
BRANCH   7  16
ATOM     16  N   UNL A   1      32.346  22.383  25.491  1.00  0.00    -0.203 NA
ATOM     17  H   UNL A   1      33.189  22.956  25.528  1.00  0.00     0.142 HD
BRANCH  16  18
ATOM     18  S   UNL A   1      31.168  23.267  26.260  1.00  0.00     0.241 S 
ATOM     19  O   UNL A   1      29.917  22.547  26.249  1.00  0.00    -0.207 OA
ATOM     20  O   UNL A   1      31.777  23.688  27.504  1.00  0.00    -0.207 OA
BRANCH  18  21
ATOM     21  C   UNL A   1      30.911  24.750  25.321  1.00  0.00     0.082 A 
ATOM     22  C   UNL A   1      30.515  24.766  23.970  1.00  0.00     0.024 A 
ATOM     23  C   UNL A   1      31.183  25.937  26.011  1.00  0.00     0.027 A 
ATOM     24  C   UNL A   1      30.345  25.984  23.297  1.00  0.00     0.028 A 
ATOM     25  C   UNL A   1      31.108  27.116  25.307  1.00  0.00    -0.021 A 
ATOM     26  C   UNL A   1      30.682  27.140  23.972  1.00  0.00     0.047 A 
ATOM     27  C   UNL A   1      31.404  28.503  25.797  1.00  0.00     0.063 C 
ATOM     28  N   UNL A   1      30.678  28.478  23.538  1.00  0.00    -0.309 N 
ATOM     29  C   UNL A   1      31.603  29.206  24.446  1.00  0.00     0.092 C 
ATOM     30  C   UNL A   1      33.059  29.033  23.956  1.00  0.00     0.032 C 
BRANCH  28  31
ATOM     31  C   UNL A   1      29.693  28.989  22.716  1.00  0.00     0.224 C 
ATOM     32  C   UNL A   1      28.284  28.659  23.157  1.00  0.00     0.115 C 
ATOM     33  O   UNL A   1      29.895  29.523  21.626  1.00  0.00    -0.275 OA
ENDBRANCH  28  31
ENDBRANCH  18  21
ENDBRANCH  16  18
ENDBRANCH   7  16
ENDBRANCH   6   7
ENDBRANCH   3   6
ENDBRANCH   1   2
BRANCH   1  34
ATOM     34  C   UNL A   1      36.732  20.901  25.391  1.00  0.00     0.023 C 
BRANCH  34  35
ATOM     35  C   UNL A   1      37.958  20.078  25.001  1.00  0.00     0.023 C 
BRANCH  35  36
ATOM     36  C   UNL A   1      39.181  20.327  25.870  1.00  0.00     0.116 C 
BRANCH  36  37
ATOM     37  N   UNL A   1      40.102  19.202  25.895  1.00  0.00    -0.352 N 
ATOM     38  C   UNL A   1      41.461  19.215  26.090  1.00  0.00     0.251 C 
ATOM     39  H   UNL A   1      39.699  18.314  25.752  1.00  0.00     0.163 HD
ATOM     40  O   UNL A   1      42.120  18.188  25.968  1.00  0.00    -0.269 OA
BRANCH  38  41
ATOM     41  C   UNL A   1      42.125  20.492  26.414  1.00  0.00     0.039 A 
ATOM     42  C   UNL A   1      42.614  21.280  25.370  1.00  0.00     0.014 A 
ATOM     43  C   UNL A   1      42.218  20.927  27.739  1.00  0.00     0.014 A 
ATOM     44  C   UNL A   1      43.139  22.542  25.651  1.00  0.00     0.010 A 
ATOM     45  C   UNL A   1      42.673  22.212  28.009  1.00  0.00     0.010 A 
ATOM     46  C   UNL A   1      43.138  23.030  26.967  1.00  0.00    -0.014 A 
BRANCH  46  47
ATOM     47  C   UNL A   1      43.617  24.397  27.280  1.00  0.00     0.031 A 
ATOM     48  C   UNL A   1      42.641  25.449  27.727  1.00  0.00     0.074 A 
ATOM     49  C   UNL A   1      44.912  24.709  27.089  1.00  0.00     0.049 A 
ATOM     50  N   UNL A   1      42.852  26.716  27.976  1.00  0.00    -0.248 NA
ATOM     51  C   UNL A   1      41.239  25.029  27.889  1.00  0.00     0.031 C 
ATOM     52  C   UNL A   1      45.948  23.788  26.615  1.00  0.00     0.029 A 
ATOM     53  N   UNL A   1      45.577  25.896  27.265  1.00  0.00    -0.354 N 
ATOM     54  C   UNL A   1      41.610  27.247  28.299  1.00  0.00     0.074 A 
ATOM     55  C   UNL A   1      40.645  26.178  28.174  1.00  0.00     0.031 C 
ATOM     56  C   UNL A   1      47.123  24.438  26.564  1.00  0.00     0.029 A 
ATOM     57  C   UNL A   1      46.917  25.825  26.965  1.00  0.00     0.049 A 
ATOM     58  H   UNL A   1      45.138  26.719  27.577  1.00  0.00     0.167 HD
ATOM     59  C   UNL A   1      41.304  28.508  28.683  1.00  0.00     0.031 A 
ATOM     60  C   UNL A   1      47.869  26.775  27.004  1.00  0.00     0.031 A 
ATOM     61  C   UNL A   1      42.267  29.565  28.831  1.00  0.00     0.049 A 
ATOM     62  C   UNL A   1      47.503  28.165  27.443  1.00  0.00     0.074 A 
ATOM     63  C   UNL A   1      42.064  30.859  29.277  1.00  0.00     0.029 A 
ATOM     64  N   UNL A   1      43.615  29.448  28.537  1.00  0.00    -0.354 N 
ATOM     65  N   UNL A   1      46.336  28.633  27.810  1.00  0.00    -0.248 NA
ATOM     66  C   UNL A   1      48.591  29.152  27.482  1.00  0.00     0.031 C 
ATOM     67  C   UNL A   1      43.286  31.536  29.218  1.00  0.00     0.029 A 
ATOM     68  C   UNL A   1      44.256  30.652  28.776  1.00  0.00     0.049 A 
ATOM     69  H   UNL A   1      44.054  28.630  28.207  1.00  0.00     0.167 HD
ATOM     70  C   UNL A   1      46.553  29.962  28.149  1.00  0.00     0.074 A 
ATOM     71  C   UNL A   1      47.965  30.220  27.956  1.00  0.00     0.031 C 
ATOM     72  C   UNL A   1      45.662  30.887  28.581  1.00  0.00     0.031 A 
BRANCH  59  73
ATOM     73  C   UNL A   1      39.861  28.810  28.971  1.00  0.00    -0.014 A 
ATOM     74  C   UNL A   1      39.320  28.615  30.252  1.00  0.00     0.009 A 
ATOM     75  C   UNL A   1      39.040  29.328  27.957  1.00  0.00     0.009 A 
ATOM     76  C   UNL A   1      37.977  28.901  30.502  1.00  0.00     0.001 A 
ATOM     77  C   UNL A   1      37.704  29.637  28.218  1.00  0.00     0.001 A 
ATOM     78  C   UNL A   1      37.172  29.416  29.488  1.00  0.00     0.000 A 
ENDBRANCH  59  73
BRANCH  60  79
ATOM     79  C   UNL A   1      49.270  26.441  26.640  1.00  0.00    -0.014 A 
ATOM     80  C   UNL A   1      50.151  25.934  27.606  1.00  0.00     0.009 A 
ATOM     81  C   UNL A   1      49.734  26.634  25.330  1.00  0.00     0.009 A 
ATOM     82  C   UNL A   1      51.478  25.653  27.276  1.00  0.00     0.001 A 
ATOM     83  C   UNL A   1      51.056  26.328  24.997  1.00  0.00     0.001 A 
ATOM     84  C   UNL A   1      51.928  25.847  25.971  1.00  0.00     0.000 A 
ENDBRANCH  60  79
BRANCH  72  85
ATOM     85  C   UNL A   1      46.196  32.251  28.908  1.00  0.00    -0.014 A 
ATOM     86  C   UNL A   1      46.693  32.548  30.186  1.00  0.00     0.009 A 
ATOM     87  C   UNL A   1      46.239  33.237  27.910  1.00  0.00     0.009 A 
ATOM     88  C   UNL A   1      47.197  33.820  30.467  1.00  0.00     0.001 A 
ATOM     89  C   UNL A   1      46.766  34.499  28.188  1.00  0.00     0.001 A 
ATOM     90  C   UNL A   1      47.237  34.792  29.467  1.00  0.00     0.000 A 
ENDBRANCH  72  85
ENDBRANCH  46  47
ENDBRANCH  38  41
ENDBRANCH  36  37
ENDBRANCH  35  36
ENDBRANCH  34  35
ENDBRANCH   1  34
TORSDOF 18
ENDMDL
MODEL 3
REMARK VINA RESULT:     -11.9      4.146      9.696
REMARK SMILES COc1cccc([C@H](CC(=O)NCCCCNC(=O)c2ccc(-c3c4nc(c(-c5ccccc5)c5ccc([nH]5)c(-c5ccccc5)c5nc(c(-c6ccccc6)c6ccc3[nH]6)C=C5)C=C4)cc2)NS(=O)(=O)c2ccc3c(c2)C[C@@H](C)N3C(C)=O)c1
REMARK SMILES IDX 13 1 12 2 10 3 11 4 9 6 8 7 7 8 3 9 4 10 85 11 5 12 6 13
REMARK SMILES IDX 2 14 1 15 68 16 69 18 70 19 71 20 72 21 73 22 77 23 74 24
REMARK SMILES IDX 76 25 75 26 78 27 81 28 79 29 80 30 82 31 83 32 84 33 14 34
REMARK SMILES IDX 15 35 16 36 17 37 18 38 19 40 20 41 21 42 67 43 22 44 66 45
REMARK SMILES IDX 23 46 24 47 25 48 60 49 26 50 65 51 59 52 61 53 27 54 64 55
REMARK SMILES IDX 58 56 57 57 28 59 50 60 35 61 49 62 36 63 39 64 48 65 62 66
REMARK SMILES IDX 37 67 38 68 47 70 63 71 40 72 29 73 30 74 34 75 31 76 33 77
REMARK SMILES IDX 32 78 51 79 52 80 56 81 53 82 55 83 54 84 41 85 42 86 46 87
REMARK SMILES IDX 43 88 45 89 44 90
REMARK H PARENT 12 5 68 17 17 39 61 58 39 69
REMARK Flexibility Score: inf
ROOT
ATOM      1  C   UNL A   1      36.213  21.060  24.965  1.00  0.00     0.116 C 
ENDROOT
BRANCH   1   2
ATOM      2  N   UNL A   1      35.585  22.245  24.410  1.00  0.00    -0.356 N 
ATOM      3  C   UNL A   1      34.329  22.731  24.629  1.00  0.00     0.221 C 
ATOM      4  O   UNL A   1      33.953  23.719  23.999  1.00  0.00    -0.275 OA
ATOM      5  H   UNL A   1      36.142  22.770  23.790  1.00  0.00     0.163 HD
BRANCH   3   6
ATOM      6  C   UNL A   1      33.433  22.056  25.640  1.00  0.00     0.124 C 
BRANCH   6   7
ATOM      7  C   UNL A   1      32.151  21.519  24.985  1.00  0.00     0.109 C 
BRANCH   7   8
ATOM      8  C   UNL A   1      32.385  20.102  24.506  1.00  0.00    -0.026 A 
ATOM      9  C   UNL A   1      32.985  17.793  24.921  1.00  0.00     0.119 A 
ATOM     10  C   UNL A   1      32.824  17.494  23.570  1.00  0.00     0.046 A 
ATOM     11  C   UNL A   1      32.806  19.095  25.386  1.00  0.00     0.051 A 
ATOM     12  C   UNL A   1      32.410  18.485  22.685  1.00  0.00     0.004 A 
ATOM     13  C   UNL A   1      32.177  19.776  23.154  1.00  0.00     0.005 A 
BRANCH   9  14
ATOM     14  O   UNL A   1      33.354  16.764  25.744  1.00  0.00    -0.497 OA
ATOM     15  C   UNL A   1      32.431  15.676  25.676  1.00  0.00     0.278 C 
ENDBRANCH   9  14
ENDBRANCH   7   8
BRANCH   7  16
ATOM     16  N   UNL A   1      31.023  21.690  25.904  1.00  0.00    -0.203 NA
ATOM     17  H   UNL A   1      31.056  20.888  26.532  1.00  0.00     0.142 HD
BRANCH  16  18
ATOM     18  S   UNL A   1      30.805  23.017  26.880  1.00  0.00     0.241 S 
ATOM     19  O   UNL A   1      29.495  22.977  27.488  1.00  0.00    -0.207 OA
ATOM     20  O   UNL A   1      32.002  23.079  27.689  1.00  0.00    -0.207 OA
BRANCH  18  21
ATOM     21  C   UNL A   1      30.843  24.457  25.847  1.00  0.00     0.082 A 
ATOM     22  C   UNL A   1      30.516  24.451  24.478  1.00  0.00     0.024 A 
ATOM     23  C   UNL A   1      31.282  25.624  26.482  1.00  0.00     0.027 A 
ATOM     24  C   UNL A   1      30.584  25.635  23.728  1.00  0.00     0.028 A 
ATOM     25  C   UNL A   1      31.439  26.751  25.709  1.00  0.00    -0.021 A 
ATOM     26  C   UNL A   1      31.082  26.759  24.354  1.00  0.00     0.047 A 
ATOM     27  C   UNL A   1      31.943  28.099  26.136  1.00  0.00     0.063 C 
ATOM     28  N   UNL A   1      31.323  28.048  23.846  1.00  0.00    -0.309 N 
ATOM     29  C   UNL A   1      32.317  28.670  24.760  1.00  0.00     0.092 C 
ATOM     30  C   UNL A   1      33.743  28.226  24.360  1.00  0.00     0.032 C 
BRANCH  28  31
ATOM     31  C   UNL A   1      30.477  28.662  22.944  1.00  0.00     0.224 C 
ATOM     32  C   UNL A   1      29.790  29.899  23.482  1.00  0.00     0.115 C 
ATOM     33  O   UNL A   1      30.150  28.192  21.855  1.00  0.00    -0.275 OA
ENDBRANCH  28  31
ENDBRANCH  18  21
ENDBRANCH  16  18
ENDBRANCH   7  16
ENDBRANCH   6   7
ENDBRANCH   3   6
ENDBRANCH   1   2
BRANCH   1  34
ATOM     34  C   UNL A   1      37.702  21.006  24.622  1.00  0.00     0.023 C 
BRANCH  34  35
ATOM     35  C   UNL A   1      38.402  19.713  25.032  1.00  0.00     0.023 C 
BRANCH  35  36
ATOM     36  C   UNL A   1      39.497  19.896  26.071  1.00  0.00     0.116 C 
BRANCH  36  37
ATOM     37  N   UNL A   1      40.545  18.891  25.978  1.00  0.00    -0.352 N 
ATOM     38  C   UNL A   1      41.903  19.062  26.085  1.00  0.00     0.251 C 
ATOM     39  H   UNL A   1      40.241  17.968  25.817  1.00  0.00     0.163 HD
ATOM     40  O   UNL A   1      42.669  18.129  25.867  1.00  0.00    -0.269 OA
BRANCH  38  41
ATOM     41  C   UNL A   1      42.432  20.395  26.429  1.00  0.00     0.039 A 
ATOM     42  C   UNL A   1      42.956  21.194  25.412  1.00  0.00     0.014 A 
ATOM     43  C   UNL A   1      42.363  20.868  27.743  1.00  0.00     0.014 A 
ATOM     44  C   UNL A   1      43.352  22.501  25.701  1.00  0.00     0.010 A 
ATOM     45  C   UNL A   1      42.690  22.191  28.015  1.00  0.00     0.010 A 
ATOM     46  C   UNL A   1      43.187  23.018  26.996  1.00  0.00    -0.014 A 
BRANCH  46  47
ATOM     47  C   UNL A   1      43.526  24.427  27.310  1.00  0.00     0.031 A 
ATOM     48  C   UNL A   1      44.954  24.890  27.232  1.00  0.00     0.074 A 
ATOM     49  C   UNL A   1      42.562  25.264  27.736  1.00  0.00     0.049 A 
ATOM     50  N   UNL A   1      45.458  26.058  27.537  1.00  0.00    -0.248 NA
ATOM     51  C   UNL A   1      45.948  23.904  26.777  1.00  0.00     0.031 C 
ATOM     52  C   UNL A   1      41.147  24.921  27.897  1.00  0.00     0.029 A 
ATOM     53  N   UNL A   1      42.631  26.579  28.119  1.00  0.00    -0.354 N 
ATOM     54  C   UNL A   1      46.827  25.939  27.336  1.00  0.00     0.074 A 
ATOM     55  C   UNL A   1      47.080  24.576  26.923  1.00  0.00     0.031 C 
ATOM     56  C   UNL A   1      40.478  26.006  28.321  1.00  0.00     0.029 A 
ATOM     57  C   UNL A   1      41.419  27.107  28.495  1.00  0.00     0.049 A 
ATOM     58  H   UNL A   1      43.468  27.096  28.125  1.00  0.00     0.167 HD
ATOM     59  C   UNL A   1      47.786  26.885  27.465  1.00  0.00     0.031 A 
ATOM     60  C   UNL A   1      41.104  28.339  28.936  1.00  0.00     0.031 A 
ATOM     61  C   UNL A   1      47.532  28.247  27.851  1.00  0.00     0.049 A 
ATOM     62  C   UNL A   1      42.187  29.373  29.061  1.00  0.00     0.074 A 
ATOM     63  C   UNL A   1      48.429  29.296  27.947  1.00  0.00     0.029 A 
ATOM     64  N   UNL A   1      46.290  28.746  28.203  1.00  0.00    -0.354 N 
ATOM     65  N   UNL A   1      43.466  29.263  28.802  1.00  0.00    -0.248 NA
ATOM     66  C   UNL A   1      41.777  30.704  29.531  1.00  0.00     0.031 C 
ATOM     67  C   UNL A   1      47.732  30.424  28.394  1.00  0.00     0.029 A 
ATOM     68  C   UNL A   1      46.397  30.086  28.534  1.00  0.00     0.049 A 
ATOM     69  H   UNL A   1      45.453  28.225  28.216  1.00  0.00     0.167 HD
ATOM     70  C   UNL A   1      44.011  30.516  29.051  1.00  0.00     0.074 A 
ATOM     71  C   UNL A   1      42.920  31.373  29.469  1.00  0.00     0.031 C 
ATOM     72  C   UNL A   1      45.299  30.921  28.944  1.00  0.00     0.031 A 
BRANCH  59  73
ATOM     73  C   UNL A   1      49.203  26.474  27.183  1.00  0.00    -0.014 A 
ATOM     74  C   UNL A   1      49.730  26.528  25.883  1.00  0.00     0.009 A 
ATOM     75  C   UNL A   1      50.032  26.060  28.237  1.00  0.00     0.009 A 
ATOM     76  C   UNL A   1      51.049  26.142  25.639  1.00  0.00     0.001 A 
ATOM     77  C   UNL A   1      51.358  25.699  27.994  1.00  0.00     0.001 A 
ATOM     78  C   UNL A   1      51.864  25.733  26.694  1.00  0.00     0.000 A 
ENDBRANCH  59  73
BRANCH  60  79
ATOM     79  C   UNL A   1      39.696  28.673  29.270  1.00  0.00    -0.014 A 
ATOM     80  C   UNL A   1      39.197  28.430  30.558  1.00  0.00     0.009 A 
ATOM     81  C   UNL A   1      38.844  29.227  28.302  1.00  0.00     0.009 A 
ATOM     82  C   UNL A   1      37.864  28.710  30.864  1.00  0.00     0.001 A 
ATOM     83  C   UNL A   1      37.518  29.529  28.620  1.00  0.00     0.001 A 
ATOM     84  C   UNL A   1      37.026  29.262  29.896  1.00  0.00     0.000 A 
ENDBRANCH  60  79
BRANCH  72  85
ATOM     85  C   UNL A   1      45.590  32.362  29.248  1.00  0.00    -0.014 A 
ATOM     86  C   UNL A   1      45.962  32.770  30.538  1.00  0.00     0.009 A 
ATOM     87  C   UNL A   1      45.531  33.314  28.219  1.00  0.00     0.009 A 
ATOM     88  C   UNL A   1      46.240  34.114  30.797  1.00  0.00     0.001 A 
ATOM     89  C   UNL A   1      45.833  34.651  28.476  1.00  0.00     0.001 A 
ATOM     90  C   UNL A   1      46.180  35.052  29.767  1.00  0.00     0.000 A 
ENDBRANCH  72  85
ENDBRANCH  46  47
ENDBRANCH  38  41
ENDBRANCH  36  37
ENDBRANCH  35  36
ENDBRANCH  34  35
ENDBRANCH   1  34
TORSDOF 18
ENDMDL
