MODEL 1
REMARK VINA RESULT:     -11.4      0.000      0.000
REMARK SMILES Cc1nn(C)c(=O)c(C(=O)N2CCCC[C@H]2C(=O)NCCCCNC(=O)c2ccc(-c3c4nc(c(-c5ccccc5)c5ccc([nH]5)c(-c5ccccc5)c5nc(c(-c6ccccc6)c6ccc3[nH]6)C=C5)C=C4)cc2)c1C
REMARK SMILES IDX 21 1 20 2 19 3 17 4 18 5 16 7 11 8 12 9 13 10 15 11 14 12
REMARK SMILES IDX 9 13 10 14 8 15 1 16 2 17 3 18 75 19 4 20 76 21 5 22 6 23
REMARK SMILES IDX 7 24 22 25 23 26 24 27 25 28 26 30 27 31 28 32 74 33 29 34
REMARK SMILES IDX 73 35 30 36 31 37 32 38 67 39 33 40 72 41 66 42 68 43 34 44
REMARK SMILES IDX 71 45 65 46 64 47 35 49 57 50 42 51 56 52 43 53 46 54 55 55
REMARK SMILES IDX 69 56 44 57 45 58 54 60 70 61 47 62 36 63 37 64 41 65 38 66
REMARK SMILES IDX 40 67 39 68 58 69 59 70 63 71 60 72 62 73 61 74 48 75 49 76
REMARK SMILES IDX 53 77 50 78 52 79 51 80
REMARK H PARENT 19 6 24 29 68 48 46 59
REMARK Flexibility Score: inf
ROOT
ATOM      1  C   UNL A   1      33.603  28.195  24.822  1.00  0.00     0.023 C 
ENDROOT
BRANCH   1   2
ATOM      2  C   UNL A   1      32.412  27.514  24.152  1.00  0.00     0.116 C 
BRANCH   2   3
ATOM      3  N   UNL A   1      31.352  27.165  25.075  1.00  0.00    -0.354 N 
ATOM      4  C   UNL A   1      30.965  25.943  25.550  1.00  0.00     0.242 C 
ATOM      5  O   UNL A   1      30.177  25.952  26.500  1.00  0.00    -0.273 OA
ATOM      6  H   UNL A   1      30.828  27.928  25.414  1.00  0.00     0.163 HD
BRANCH   4   7
ATOM      7  C   UNL A   1      31.518  24.625  24.943  1.00  0.00     0.174 C 
ATOM      8  N   UNL A   1      32.938  24.369  25.267  1.00  0.00    -0.326 N 
ATOM      9  C   UNL A   1      33.240  24.007  26.649  1.00  0.00     0.120 C 
ATOM     10  C   UNL A   1      32.475  22.764  27.066  1.00  0.00     0.022 C 
ATOM     11  C   UNL A   1      30.655  23.435  25.437  1.00  0.00     0.035 C 
ATOM     12  C   UNL A   1      30.978  22.978  26.868  1.00  0.00     0.004 C 
BRANCH   8  13
ATOM     13  C   UNL A   1      33.919  24.118  24.314  1.00  0.00     0.260 C 
ATOM     14  O   UNL A   1      34.087  24.837  23.330  1.00  0.00    -0.269 OA
BRANCH  13  15
ATOM     15  C   UNL A   1      34.613  22.804  24.364  1.00  0.00     0.111 A 
ATOM     16  C   UNL A   1      37.876  21.214  25.372  1.00  0.00     0.069 C 
ATOM     17  C   UNL A   1      36.399  21.388  25.108  1.00  0.00     0.062 A 
ATOM     18  N   UNL A   1      35.710  20.298  25.001  1.00  0.00    -0.175 NA
ATOM     19  C   UNL A   1      35.843  22.756  24.913  1.00  0.00    -0.010 A 
ATOM     20  N   UNL A   1      34.400  20.396  24.625  1.00  0.00    -0.232 N 
ATOM     21  C   UNL A   1      36.609  23.937  25.432  1.00  0.00     0.047 C 
ATOM     22  C   UNL A   1      33.648  19.154  24.651  1.00  0.00     0.178 C 
ATOM     23  C   UNL A   1      33.834  21.560  24.122  1.00  0.00     0.279 A 
ATOM     24  O   UNL A   1      32.763  21.596  23.522  1.00  0.00    -0.267 OA
ENDBRANCH  13  15
ENDBRANCH   8  13
ENDBRANCH   4   7
ENDBRANCH   2   3
ENDBRANCH   1   2
BRANCH   1  25
ATOM     25  C   UNL A   1      33.293  29.396  25.723  1.00  0.00     0.023 C 
BRANCH  25  26
ATOM     26  C   UNL A   1      33.491  29.205  27.225  1.00  0.00     0.116 C 
BRANCH  26  27
ATOM     27  N   UNL A   1      33.663  30.444  27.965  1.00  0.00    -0.352 N 
ATOM     28  C   UNL A   1      34.789  30.952  28.570  1.00  0.00     0.251 C 
ATOM     29  H   UNL A   1      32.856  31.001  28.045  1.00  0.00     0.163 HD
ATOM     30  O   UNL A   1      34.750  32.062  29.097  1.00  0.00    -0.269 OA
BRANCH  28  31
ATOM     31  C   UNL A   1      36.022  30.144  28.664  1.00  0.00     0.039 A 
ATOM     32  C   UNL A   1      36.837  30.079  27.529  1.00  0.00     0.014 A 
ATOM     33  C   UNL A   1      36.411  29.508  29.846  1.00  0.00     0.014 A 
ATOM     34  C   UNL A   1      38.095  29.485  27.613  1.00  0.00     0.010 A 
ATOM     35  C   UNL A   1      37.688  28.953  29.943  1.00  0.00     0.010 A 
ATOM     36  C   UNL A   1      38.552  28.975  28.838  1.00  0.00    -0.014 A 
BRANCH  36  37
ATOM     37  C   UNL A   1      39.971  28.576  28.986  1.00  0.00     0.031 A 
ATOM     38  C   UNL A   1      40.430  27.197  28.629  1.00  0.00     0.074 A 
ATOM     39  C   UNL A   1      40.846  29.480  29.468  1.00  0.00     0.049 A 
ATOM     40  N   UNL A   1      41.642  26.704  28.661  1.00  0.00    -0.248 NA
ATOM     41  C   UNL A   1      39.400  26.247  28.185  1.00  0.00     0.031 C 
ATOM     42  C   UNL A   1      40.511  30.848  29.873  1.00  0.00     0.029 A 
ATOM     43  N   UNL A   1      42.198  29.393  29.685  1.00  0.00    -0.354 N 
ATOM     44  C   UNL A   1      41.524  25.390  28.232  1.00  0.00     0.074 A 
ATOM     45  C   UNL A   1      40.118  25.149  27.987  1.00  0.00     0.031 C 
ATOM     46  C   UNL A   1      41.632  31.483  30.250  1.00  0.00     0.029 A 
ATOM     47  C   UNL A   1      42.757  30.562  30.143  1.00  0.00     0.049 A 
ATOM     48  H   UNL A   1      42.717  28.571  29.529  1.00  0.00     0.167 HD
ATOM     49  C   UNL A   1      42.503  24.474  28.041  1.00  0.00     0.031 A 
ATOM     50  C   UNL A   1      44.037  30.863  30.435  1.00  0.00     0.031 A 
ATOM     51  C   UNL A   1      43.899  24.709  28.299  1.00  0.00     0.049 A 
ATOM     52  C   UNL A   1      45.096  29.815  30.254  1.00  0.00     0.074 A 
ATOM     53  C   UNL A   1      44.967  23.847  28.117  1.00  0.00     0.029 A 
ATOM     54  N   UNL A   1      44.420  25.893  28.799  1.00  0.00    -0.354 N 
ATOM     55  N   UNL A   1      44.973  28.591  29.802  1.00  0.00    -0.248 NA
ATOM     56  C   UNL A   1      46.469  30.191  30.619  1.00  0.00     0.031 C 
ATOM     57  C   UNL A   1      46.130  24.496  28.544  1.00  0.00     0.029 A 
ATOM     58  C   UNL A   1      45.791  25.776  28.952  1.00  0.00     0.049 A 
ATOM     59  H   UNL A   1      43.893  26.696  29.013  1.00  0.00     0.167 HD
ATOM     60  C   UNL A   1      46.253  28.055  29.814  1.00  0.00     0.074 A 
ATOM     61  C   UNL A   1      47.139  29.091  30.303  1.00  0.00     0.031 C 
ATOM     62  C   UNL A   1      46.656  26.814  29.449  1.00  0.00     0.031 A 
BRANCH  49  63
ATOM     63  C   UNL A   1      42.091  23.125  27.529  1.00  0.00    -0.014 A 
ATOM     64  C   UNL A   1      41.544  22.164  28.394  1.00  0.00     0.009 A 
ATOM     65  C   UNL A   1      42.211  22.823  26.164  1.00  0.00     0.009 A 
ATOM     66  C   UNL A   1      41.154  20.916  27.907  1.00  0.00     0.001 A 
ATOM     67  C   UNL A   1      41.799  21.582  25.676  1.00  0.00     0.001 A 
ATOM     68  C   UNL A   1      41.278  20.627  26.549  1.00  0.00     0.000 A 
ENDBRANCH  49  63
BRANCH  50  69
ATOM     69  C   UNL A   1      44.386  32.229  30.898  1.00  0.00    -0.014 A 
ATOM     70  C   UNL A   1      44.382  32.534  32.267  1.00  0.00     0.009 A 
ATOM     71  C   UNL A   1      44.740  33.228  29.978  1.00  0.00     0.009 A 
ATOM     72  C   UNL A   1      44.714  33.818  32.707  1.00  0.00     0.001 A 
ATOM     73  C   UNL A   1      45.091  34.505  30.423  1.00  0.00     0.001 A 
ATOM     74  C   UNL A   1      45.073  34.800  31.785  1.00  0.00     0.000 A 
ENDBRANCH  50  69
BRANCH  62  75
ATOM     75  C   UNL A   1      48.121  26.509  29.559  1.00  0.00    -0.014 A 
ATOM     76  C   UNL A   1      48.653  25.941  30.726  1.00  0.00     0.009 A 
ATOM     77  C   UNL A   1      48.965  26.734  28.461  1.00  0.00     0.009 A 
ATOM     78  C   UNL A   1      50.009  25.620  30.798  1.00  0.00     0.001 A 
ATOM     79  C   UNL A   1      50.316  26.392  28.528  1.00  0.00     0.001 A 
ATOM     80  C   UNL A   1      50.838  25.841  29.697  1.00  0.00     0.000 A 
ENDBRANCH  62  75
ENDBRANCH  36  37
ENDBRANCH  28  31
ENDBRANCH  26  27
ENDBRANCH  25  26
ENDBRANCH   1  25
TORSDOF 13
ENDMDL
MODEL 2
REMARK VINA RESULT:     -11.4      1.667      7.598
REMARK SMILES Cc1nn(C)c(=O)c(C(=O)N2CCCC[C@H]2C(=O)NCCCCNC(=O)c2ccc(-c3c4nc(c(-c5ccccc5)c5ccc([nH]5)c(-c5ccccc5)c5nc(c(-c6ccccc6)c6ccc3[nH]6)C=C5)C=C4)cc2)c1C
REMARK SMILES IDX 21 1 20 2 19 3 17 4 18 5 16 7 11 8 12 9 13 10 15 11 14 12
REMARK SMILES IDX 9 13 10 14 8 15 1 16 2 17 3 18 75 19 4 20 76 21 5 22 6 23
REMARK SMILES IDX 7 24 22 25 23 26 24 27 25 28 26 30 27 31 28 32 74 33 29 34
REMARK SMILES IDX 73 35 30 36 31 37 32 38 67 39 33 40 72 41 66 42 68 43 34 44
REMARK SMILES IDX 71 45 65 46 64 47 35 49 57 50 42 51 56 52 43 53 46 54 55 55
REMARK SMILES IDX 69 56 44 57 45 58 54 60 70 61 47 62 36 63 37 64 41 65 38 66
REMARK SMILES IDX 40 67 39 68 58 69 59 70 63 71 60 72 62 73 61 74 48 75 49 76
REMARK SMILES IDX 53 77 50 78 52 79 51 80
REMARK H PARENT 19 6 24 29 68 48 46 59
REMARK Flexibility Score: inf
ROOT
ATOM      1  C   UNL A   1      36.972  22.756  24.475  1.00  0.00     0.023 C 
ENDROOT
BRANCH   1   2
ATOM      2  C   UNL A   1      36.231  23.058  23.175  1.00  0.00     0.116 C 
BRANCH   2   3
ATOM      3  N   UNL A   1      34.837  22.667  23.199  1.00  0.00    -0.354 N 
ATOM      4  C   UNL A   1      33.723  23.396  23.510  1.00  0.00     0.242 C 
ATOM      5  O   UNL A   1      32.638  22.879  23.232  1.00  0.00    -0.273 OA
ATOM      6  H   UNL A   1      34.664  21.728  22.953  1.00  0.00     0.163 HD
BRANCH   4   7
ATOM      7  C   UNL A   1      33.831  24.809  24.147  1.00  0.00     0.174 C 
ATOM      8  N   UNL A   1      32.635  25.652  23.933  1.00  0.00    -0.326 N 
ATOM      9  C   UNL A   1      31.429  25.276  24.663  1.00  0.00     0.120 C 
ATOM     10  C   UNL A   1      31.681  25.263  26.160  1.00  0.00     0.022 C 
ATOM     11  C   UNL A   1      34.091  24.663  25.668  1.00  0.00     0.035 C 
ATOM     12  C   UNL A   1      32.838  24.326  26.490  1.00  0.00     0.004 C 
BRANCH   8  13
ATOM     13  C   UNL A   1      32.673  26.927  23.378  1.00  0.00     0.260 C 
ATOM     14  O   UNL A   1      33.427  27.226  22.454  1.00  0.00    -0.269 OA
BRANCH  13  15
ATOM     15  C   UNL A   1      31.958  28.015  24.095  1.00  0.00     0.111 A 
ATOM     16  C   UNL A   1      32.378  30.479  26.915  1.00  0.00     0.069 C 
ATOM     17  C   UNL A   1      31.919  29.875  25.608  1.00  0.00     0.062 A 
ATOM     18  N   UNL A   1      30.877  30.419  25.068  1.00  0.00    -0.175 NA
ATOM     19  C   UNL A   1      32.619  28.677  25.066  1.00  0.00    -0.010 A 
ATOM     20  N   UNL A   1      30.340  29.825  23.960  1.00  0.00    -0.232 N 
ATOM     21  C   UNL A   1      34.012  28.371  25.533  1.00  0.00     0.047 C 
ATOM     22  C   UNL A   1      29.256  30.554  23.325  1.00  0.00     0.178 C 
ATOM     23  C   UNL A   1      30.694  28.554  23.526  1.00  0.00     0.279 A 
ATOM     24  O   UNL A   1      30.036  27.898  22.724  1.00  0.00    -0.267 OA
ENDBRANCH  13  15
ENDBRANCH   8  13
ENDBRANCH   4   7
ENDBRANCH   2   3
ENDBRANCH   1   2
BRANCH   1  25
ATOM     25  C   UNL A   1      37.514  21.332  24.645  1.00  0.00     0.023 C 
BRANCH  25  26
ATOM     26  C   UNL A   1      38.483  21.092  25.800  1.00  0.00     0.116 C 
BRANCH  26  27
ATOM     27  N   UNL A   1      39.435  20.020  25.565  1.00  0.00    -0.352 N 
ATOM     28  C   UNL A   1      40.749  19.914  25.959  1.00  0.00     0.251 C 
ATOM     29  H   UNL A   1      39.090  19.257  25.049  1.00  0.00     0.163 HD
ATOM     30  O   UNL A   1      41.378  18.886  25.717  1.00  0.00    -0.269 OA
BRANCH  28  31
ATOM     31  C   UNL A   1      41.437  21.056  26.596  1.00  0.00     0.039 A 
ATOM     32  C   UNL A   1      42.020  22.008  25.754  1.00  0.00     0.014 A 
ATOM     33  C   UNL A   1      41.466  21.232  27.983  1.00  0.00     0.014 A 
ATOM     34  C   UNL A   1      42.522  23.193  26.289  1.00  0.00     0.010 A 
ATOM     35  C   UNL A   1      41.928  22.437  28.515  1.00  0.00     0.010 A 
ATOM     36  C   UNL A   1      42.421  23.440  27.667  1.00  0.00    -0.014 A 
BRANCH  36  37
ATOM     37  C   UNL A   1      42.721  24.790  28.198  1.00  0.00     0.031 A 
ATOM     38  C   UNL A   1      44.117  25.187  28.563  1.00  0.00     0.074 A 
ATOM     39  C   UNL A   1      41.703  25.657  28.362  1.00  0.00     0.049 A 
ATOM     40  N   UNL A   1      44.553  26.341  28.999  1.00  0.00    -0.248 NA
ATOM     41  C   UNL A   1      45.159  24.158  28.427  1.00  0.00     0.031 C 
ATOM     42  C   UNL A   1      40.296  25.375  28.064  1.00  0.00     0.029 A 
ATOM     43  N   UNL A   1      41.693  26.956  28.805  1.00  0.00    -0.354 N 
ATOM     44  C   UNL A   1      45.919  26.183  29.181  1.00  0.00     0.074 A 
ATOM     45  C   UNL A   1      46.233  24.809  28.850  1.00  0.00     0.031 C 
ATOM     46  C   UNL A   1      39.568  26.480  28.293  1.00  0.00     0.029 A 
ATOM     47  C   UNL A   1      40.447  27.535  28.782  1.00  0.00     0.049 A 
ATOM     48  H   UNL A   1      42.502  27.427  29.111  1.00  0.00     0.167 HD
ATOM     49  C   UNL A   1      46.830  27.106  29.570  1.00  0.00     0.031 A 
ATOM     50  C   UNL A   1      40.057  28.782  29.108  1.00  0.00     0.031 A 
ATOM     51  C   UNL A   1      46.515  28.467  29.913  1.00  0.00     0.049 A 
ATOM     52  C   UNL A   1      41.082  29.772  29.577  1.00  0.00     0.074 A 
ATOM     53  C   UNL A   1      47.374  29.481  30.301  1.00  0.00     0.029 A 
ATOM     54  N   UNL A   1      45.236  29.004  29.915  1.00  0.00    -0.354 N 
ATOM     55  N   UNL A   1      42.378  29.619  29.698  1.00  0.00    -0.248 NA
ATOM     56  C   UNL A   1      40.592  31.107  29.949  1.00  0.00     0.031 C 
ATOM     57  C   UNL A   1      46.611  30.620  30.575  1.00  0.00     0.029 A 
ATOM     58  C   UNL A   1      45.281  30.328  30.317  1.00  0.00     0.049 A 
ATOM     59  H   UNL A   1      44.418  28.516  29.667  1.00  0.00     0.167 HD
ATOM     60  C   UNL A   1      42.861  30.840  30.146  1.00  0.00     0.074 A 
ATOM     61  C   UNL A   1      41.722  31.728  30.260  1.00  0.00     0.031 C 
ATOM     62  C   UNL A   1      44.137  31.193  30.435  1.00  0.00     0.031 A 
BRANCH  49  63
ATOM     63  C   UNL A   1      48.262  26.666  29.647  1.00  0.00    -0.014 A 
ATOM     64  C   UNL A   1      49.133  26.861  28.562  1.00  0.00     0.009 A 
ATOM     65  C   UNL A   1      48.761  26.090  30.825  1.00  0.00     0.009 A 
ATOM     66  C   UNL A   1      50.466  26.458  28.646  1.00  0.00     0.001 A 
ATOM     67  C   UNL A   1      50.101  25.708  30.913  1.00  0.00     0.001 A 
ATOM     68  C   UNL A   1      50.950  25.886  29.822  1.00  0.00     0.000 A 
ENDBRANCH  49  63
BRANCH  50  69
ATOM     69  C   UNL A   1      38.630  29.168  28.969  1.00  0.00    -0.014 A 
ATOM     70  C   UNL A   1      37.756  29.046  30.059  1.00  0.00     0.009 A 
ATOM     71  C   UNL A   1      38.140  29.674  27.755  1.00  0.00     0.009 A 
ATOM     72  C   UNL A   1      36.414  29.412  29.933  1.00  0.00     0.001 A 
ATOM     73  C   UNL A   1      36.802  30.058  27.639  1.00  0.00     0.001 A 
ATOM     74  C   UNL A   1      35.939  29.922  28.725  1.00  0.00     0.000 A 
ENDBRANCH  50  69
BRANCH  62  75
ATOM     75  C   UNL A   1      44.371  32.602  30.896  1.00  0.00    -0.014 A 
ATOM     76  C   UNL A   1      44.368  32.922  32.262  1.00  0.00     0.009 A 
ATOM     77  C   UNL A   1      44.660  33.605  29.959  1.00  0.00     0.009 A 
ATOM     78  C   UNL A   1      44.632  34.227  32.680  1.00  0.00     0.001 A 
ATOM     79  C   UNL A   1      44.945  34.904  30.381  1.00  0.00     0.001 A 
ATOM     80  C   UNL A   1      44.926  35.214  31.740  1.00  0.00     0.000 A 
ENDBRANCH  62  75
ENDBRANCH  36  37
ENDBRANCH  28  31
ENDBRANCH  26  27
ENDBRANCH  25  26
ENDBRANCH   1  25
TORSDOF 13
ENDMDL
MODEL 3
REMARK VINA RESULT:     -11.3      3.691      7.762
REMARK SMILES Cc1nn(C)c(=O)c(C(=O)N2CCCC[C@H]2C(=O)NCCCCNC(=O)c2ccc(-c3c4nc(c(-c5ccccc5)c5ccc([nH]5)c(-c5ccccc5)c5nc(c(-c6ccccc6)c6ccc3[nH]6)C=C5)C=C4)cc2)c1C
REMARK SMILES IDX 21 1 20 2 19 3 17 4 18 5 16 7 11 8 12 9 13 10 15 11 14 12
REMARK SMILES IDX 9 13 10 14 8 15 1 16 2 17 3 18 75 19 4 20 76 21 5 22 6 23
REMARK SMILES IDX 7 24 22 25 23 26 24 27 25 28 26 30 27 31 28 32 74 33 29 34
REMARK SMILES IDX 73 35 30 36 31 37 32 38 67 39 33 40 72 41 66 42 68 43 34 44
REMARK SMILES IDX 71 45 65 46 64 47 35 49 57 50 42 51 56 52 43 53 46 54 55 55
REMARK SMILES IDX 69 56 44 57 45 58 54 60 70 61 47 62 36 63 37 64 41 65 38 66
REMARK SMILES IDX 40 67 39 68 58 69 59 70 63 71 60 72 62 73 61 74 48 75 49 76
REMARK SMILES IDX 53 77 50 78 52 79 51 80
REMARK H PARENT 19 6 24 29 68 48 46 59
REMARK Flexibility Score: inf
ROOT
ATOM      1  C   UNL A   1      32.198  29.916  26.801  1.00  0.00     0.023 C 
ENDROOT
BRANCH   1   2
ATOM      2  C   UNL A   1      33.401  29.440  25.990  1.00  0.00     0.116 C 
BRANCH   2   3
ATOM      3  N   UNL A   1      33.259  29.653  24.565  1.00  0.00    -0.354 N 
ATOM      4  C   UNL A   1      33.142  28.749  23.546  1.00  0.00     0.242 C 
ATOM      5  O   UNL A   1      32.808  29.202  22.449  1.00  0.00    -0.273 OA
ATOM      6  H   UNL A   1      33.243  30.598  24.285  1.00  0.00     0.163 HD
BRANCH   4   7
ATOM      7  C   UNL A   1      33.387  27.232  23.777  1.00  0.00     0.174 C 
ATOM      8  N   UNL A   1      32.234  26.526  24.375  1.00  0.00    -0.326 N 
ATOM      9  C   UNL A   1      31.067  26.336  23.520  1.00  0.00     0.120 C 
ATOM     10  C   UNL A   1      31.433  25.569  22.262  1.00  0.00     0.022 C 
ATOM     11  C   UNL A   1      33.755  26.564  22.427  1.00  0.00     0.035 C 
ATOM     12  C   UNL A   1      32.550  26.288  21.515  1.00  0.00     0.004 C 
BRANCH   8  13
ATOM     13  C   UNL A   1      32.309  25.757  25.531  1.00  0.00     0.260 C 
ATOM     14  O   UNL A   1      33.030  26.055  26.481  1.00  0.00    -0.269 OA
BRANCH  13  15
ATOM     15  C   UNL A   1      31.686  24.407  25.506  1.00  0.00     0.111 A 
ATOM     16  C   UNL A   1      32.367  20.851  24.461  1.00  0.00     0.069 C 
ATOM     17  C   UNL A   1      31.817  22.028  25.233  1.00  0.00     0.062 A 
ATOM     18  N   UNL A   1      30.781  21.788  25.971  1.00  0.00    -0.175 NA
ATOM     19  C   UNL A   1      32.426  23.375  25.051  1.00  0.00    -0.010 A 
ATOM     20  N   UNL A   1      30.163  22.844  26.578  1.00  0.00    -0.232 N 
ATOM     21  C   UNL A   1      33.820  23.479  24.507  1.00  0.00     0.047 C 
ATOM     22  C   UNL A   1      29.091  22.498  27.495  1.00  0.00     0.178 C 
ATOM     23  C   UNL A   1      30.428  24.171  26.263  1.00  0.00     0.279 A 
ATOM     24  O   UNL A   1      29.700  25.108  26.579  1.00  0.00    -0.267 OA
ENDBRANCH  13  15
ENDBRANCH   8  13
ENDBRANCH   4   7
ENDBRANCH   2   3
ENDBRANCH   1   2
BRANCH   1  25
ATOM     25  C   UNL A   1      31.882  31.416  26.747  1.00  0.00     0.023 C 
BRANCH  25  26
ATOM     26  C   UNL A   1      32.951  32.369  27.277  1.00  0.00     0.116 C 
BRANCH  26  27
ATOM     27  N   UNL A   1      32.444  33.674  27.668  1.00  0.00    -0.352 N 
ATOM     28  C   UNL A   1      33.026  34.638  28.456  1.00  0.00     0.251 C 
ATOM     29  H   UNL A   1      31.553  33.900  27.316  1.00  0.00     0.163 HD
ATOM     30  O   UNL A   1      32.460  35.718  28.618  1.00  0.00    -0.269 OA
BRANCH  28  31
ATOM     31  C   UNL A   1      34.286  34.361  29.177  1.00  0.00     0.039 A 
ATOM     32  C   UNL A   1      34.186  33.815  30.460  1.00  0.00     0.014 A 
ATOM     33  C   UNL A   1      35.541  34.572  28.598  1.00  0.00     0.014 A 
ATOM     34  C   UNL A   1      35.332  33.366  31.113  1.00  0.00     0.010 A 
ATOM     35  C   UNL A   1      36.683  34.083  29.233  1.00  0.00     0.010 A 
ATOM     36  C   UNL A   1      36.580  33.440  30.475  1.00  0.00    -0.014 A 
BRANCH  36  37
ATOM     37  C   UNL A   1      37.749  32.741  31.058  1.00  0.00     0.031 A 
ATOM     38  C   UNL A   1      38.369  33.204  32.340  1.00  0.00     0.074 A 
ATOM     39  C   UNL A   1      38.258  31.681  30.401  1.00  0.00     0.049 A 
ATOM     40  N   UNL A   1      39.367  32.678  33.003  1.00  0.00    -0.248 NA
ATOM     41  C   UNL A   1      37.804  34.414  32.954  1.00  0.00     0.031 C 
ATOM     42  C   UNL A   1      37.752  31.152  29.131  1.00  0.00     0.029 A 
ATOM     43  N   UNL A   1      39.302  30.848  30.714  1.00  0.00    -0.354 N 
ATOM     44  C   UNL A   1      39.544  33.484  34.117  1.00  0.00     0.074 A 
ATOM     45  C   UNL A   1      38.580  34.560  34.019  1.00  0.00     0.031 C 
ATOM     46  C   UNL A   1      38.459  30.062  28.796  1.00  0.00     0.029 A 
ATOM     47  C   UNL A   1      39.485  29.832  29.806  1.00  0.00     0.049 A 
ATOM     48  H   UNL A   1      39.866  30.967  31.512  1.00  0.00     0.167 HD
ATOM     49  C   UNL A   1      40.419  33.330  35.140  1.00  0.00     0.031 A 
ATOM     50  C   UNL A   1      40.374  28.821  29.795  1.00  0.00     0.031 A 
ATOM     51  C   UNL A   1      41.387  32.269  35.230  1.00  0.00     0.049 A 
ATOM     52  C   UNL A   1      41.360  28.699  30.919  1.00  0.00     0.074 A 
ATOM     53  C   UNL A   1      42.303  32.020  36.237  1.00  0.00     0.029 A 
ATOM     54  N   UNL A   1      41.567  31.284  34.271  1.00  0.00    -0.354 N 
ATOM     55  N   UNL A   1      41.483  29.444  31.991  1.00  0.00    -0.248 NA
ATOM     56  C   UNL A   1      42.327  27.594  30.836  1.00  0.00     0.031 C 
ATOM     57  C   UNL A   1      43.064  30.906  35.870  1.00  0.00     0.029 A 
ATOM     58  C   UNL A   1      42.594  30.437  34.654  1.00  0.00     0.049 A 
ATOM     59  H   UNL A   1      41.044  31.198  33.442  1.00  0.00     0.167 HD
ATOM     60  C   UNL A   1      42.529  28.891  32.716  1.00  0.00     0.074 A 
ATOM     61  C   UNL A   1      42.996  27.740  31.972  1.00  0.00     0.031 C 
ATOM     62  C   UNL A   1      43.052  29.302  33.896  1.00  0.00     0.031 A 
BRANCH  49  63
ATOM     63  C   UNL A   1      40.367  34.342  36.246  1.00  0.00    -0.014 A 
ATOM     64  C   UNL A   1      41.125  35.522  36.177  1.00  0.00     0.009 A 
ATOM     65  C   UNL A   1      39.525  34.137  37.350  1.00  0.00     0.009 A 
ATOM     66  C   UNL A   1      41.063  36.463  37.205  1.00  0.00     0.001 A 
ATOM     67  C   UNL A   1      39.449  35.090  38.367  1.00  0.00     0.001 A 
ATOM     68  C   UNL A   1      40.222  36.248  38.297  1.00  0.00     0.000 A 
ENDBRANCH  49  63
BRANCH  50  69
ATOM     69  C   UNL A   1      40.347  27.827  28.692  1.00  0.00    -0.014 A 
ATOM     70  C   UNL A   1      39.623  26.634  28.834  1.00  0.00     0.009 A 
ATOM     71  C   UNL A   1      41.028  28.072  27.490  1.00  0.00     0.009 A 
ATOM     72  C   UNL A   1      39.593  25.698  27.798  1.00  0.00     0.001 A 
ATOM     73  C   UNL A   1      40.978  27.143  26.448  1.00  0.00     0.001 A 
ATOM     74  C   UNL A   1      40.266  25.956  26.604  1.00  0.00     0.000 A 
ENDBRANCH  50  69
BRANCH  62  75
ATOM     75  C   UNL A   1      44.187  28.498  34.460  1.00  0.00    -0.014 A 
ATOM     76  C   UNL A   1      45.519  28.842  34.185  1.00  0.00     0.009 A 
ATOM     77  C   UNL A   1      43.921  27.425  35.323  1.00  0.00     0.009 A 
ATOM     78  C   UNL A   1      46.566  28.113  34.753  1.00  0.00     0.001 A 
ATOM     79  C   UNL A   1      44.970  26.712  35.906  1.00  0.00     0.001 A 
ATOM     80  C   UNL A   1      46.289  27.054  35.617  1.00  0.00     0.000 A 
ENDBRANCH  62  75
ENDBRANCH  36  37
ENDBRANCH  28  31
ENDBRANCH  26  27
ENDBRANCH  25  26
ENDBRANCH   1  25
TORSDOF 13
ENDMDL
