MODEL 1
REMARK VINA RESULT:     -10.4      0.000      0.000
REMARK SMILES Cc1cc(NC[C@H](C)[NH+](C)C)cc(C(=O)NCCCCNC(=O)c2ccc(-c3c4nc(c(-c5ccccc5)c5ccc([nH]5)c(-c5ccccc5)c5nc(c(-c6ccccc6)c6ccc3[nH]6)C=C5)C=C4)cc2)c1N
REMARK SMILES IDX 17 1 16 2 14 3 15 4 13 6 1 7 2 8 3 9 72 10 4 11 12 12 73 13
REMARK SMILES IDX 5 16 6 18 7 19 8 20 9 21 10 22 11 23 18 25 19 26 20 27 21 28
REMARK SMILES IDX 22 29 23 31 24 32 25 33 71 34 26 35 70 36 27 37 28 38 29 39
REMARK SMILES IDX 64 40 30 41 69 42 63 43 65 44 31 45 68 46 62 47 61 48 32 50
REMARK SMILES IDX 54 51 39 52 53 53 40 54 43 55 52 56 66 57 41 58 42 59 51 61
REMARK SMILES IDX 67 62 44 63 33 64 34 65 38 66 35 67 37 68 36 69 55 70 56 71
REMARK SMILES IDX 60 72 57 73 59 74 58 75 45 76 46 77 50 78 47 79 49 80 48 81
REMARK H PARENT 16 5 73 14 73 15 5 17 9 24 21 30 65 49 43 60
REMARK Flexibility Score: inf
ROOT
ATOM      1  C   UNL A   1      37.310  23.447  25.856  1.00  0.00     0.116 C 
ENDROOT
BRANCH   1   2
ATOM      2  N   UNL A   1      37.131  23.338  24.419  1.00  0.00    -0.352 N 
ATOM      3  C   UNL A   1      36.087  22.907  23.631  1.00  0.00     0.253 C 
ATOM      4  O   UNL A   1      36.270  22.961  22.411  1.00  0.00    -0.269 OA
ATOM      5  H   UNL A   1      37.917  23.631  23.903  1.00  0.00     0.163 HD
BRANCH   3   6
ATOM      6  C   UNL A   1      34.769  22.422  24.169  1.00  0.00     0.065 A 
ATOM      7  C   UNL A   1      31.136  23.576  24.519  1.00  0.00     0.046 C 
ATOM      8  C   UNL A   1      32.398  22.762  24.609  1.00  0.00    -0.025 A 
ATOM      9  C   UNL A   1      32.351  21.509  25.254  1.00  0.00     0.031 A 
ATOM     10  C   UNL A   1      33.614  23.232  24.063  1.00  0.00     0.047 A 
ATOM     11  C   UNL A   1      33.478  20.698  25.353  1.00  0.00     0.035 A 
ATOM     12  C   UNL A   1      34.640  21.146  24.727  1.00  0.00     0.041 A 
BRANCH  10  13
ATOM     13  N   UNL A   1      33.689  24.539  23.567  1.00  0.00    -0.398 N 
ATOM     14  H   UNL A   1      32.989  25.193  23.794  1.00  0.00     0.156 HD
ATOM     15  H   UNL A   1      34.440  24.804  22.989  1.00  0.00     0.156 HD
ENDBRANCH  10  13
BRANCH  11  16
ATOM     16  N   UNL A   1      33.428  19.496  26.046  1.00  0.00    -0.379 N 
ATOM     17  H   UNL A   1      33.863  19.429  26.927  1.00  0.00     0.160 HD
BRANCH  16  18
ATOM     18  C   UNL A   1      32.740  18.328  25.492  1.00  0.00     0.177 C 
BRANCH  18  19
ATOM     19  C   UNL A   1      33.572  17.568  24.419  1.00  0.00     0.199 C 
ATOM     20  C   UNL A   1      32.915  17.783  23.042  1.00  0.00     0.077 C 
BRANCH  19  21
ATOM     21  N   UNL A   1      33.823  16.122  24.643  1.00  0.00    -0.336 N 
ATOM     22  C   UNL A   1      35.114  15.867  25.279  1.00  0.00     0.332 C 
ATOM     23  C   UNL A   1      32.764  15.421  25.370  1.00  0.00     0.332 C 
ATOM     24  H   UNL A   1      33.834  15.736  23.699  1.00  0.00     0.347 HD
ENDBRANCH  19  21
ENDBRANCH  18  19
ENDBRANCH  16  18
ENDBRANCH  11  16
ENDBRANCH   3   6
ENDBRANCH   1   2
BRANCH   1  25
ATOM     25  C   UNL A   1      38.660  22.859  26.285  1.00  0.00     0.023 C 
BRANCH  25  26
ATOM     26  C   UNL A   1      39.025  21.545  25.595  1.00  0.00     0.023 C 
BRANCH  26  27
ATOM     27  C   UNL A   1      39.377  20.407  26.543  1.00  0.00     0.116 C 
BRANCH  27  28
ATOM     28  N   UNL A   1      40.419  19.529  26.032  1.00  0.00    -0.352 N 
ATOM     29  C   UNL A   1      41.772  19.772  25.951  1.00  0.00     0.251 C 
ATOM     30  H   UNL A   1      40.118  18.652  25.702  1.00  0.00     0.163 HD
ATOM     31  O   UNL A   1      42.520  18.973  25.415  1.00  0.00    -0.269 OA
BRANCH  29  32
ATOM     32  C   UNL A   1      42.293  21.048  26.482  1.00  0.00     0.039 A 
ATOM     33  C   UNL A   1      42.672  22.044  25.580  1.00  0.00     0.014 A 
ATOM     34  C   UNL A   1      42.332  21.280  27.860  1.00  0.00     0.014 A 
ATOM     35  C   UNL A   1      43.015  23.308  26.060  1.00  0.00     0.010 A 
ATOM     36  C   UNL A   1      42.612  22.557  28.331  1.00  0.00     0.010 A 
ATOM     37  C   UNL A   1      42.943  23.585  27.435  1.00  0.00    -0.014 A 
BRANCH  37  38
ATOM     38  C   UNL A   1      43.177  24.953  27.954  1.00  0.00     0.031 A 
ATOM     39  C   UNL A   1      44.558  25.384  28.357  1.00  0.00     0.074 A 
ATOM     40  C   UNL A   1      42.129  25.778  28.141  1.00  0.00     0.049 A 
ATOM     41  N   UNL A   1      44.944  26.514  28.893  1.00  0.00    -0.248 NA
ATOM     42  C   UNL A   1      45.640  24.408  28.157  1.00  0.00     0.031 C 
ATOM     43  C   UNL A   1      40.732  25.459  27.837  1.00  0.00     0.029 A 
ATOM     44  N   UNL A   1      42.076  27.054  28.643  1.00  0.00    -0.354 N 
ATOM     45  C   UNL A   1      46.309  26.378  29.110  1.00  0.00     0.074 A 
ATOM     46  C   UNL A   1      46.674  25.042  28.688  1.00  0.00     0.031 C 
ATOM     47  C   UNL A   1      39.964  26.520  28.137  1.00  0.00     0.029 A 
ATOM     48  C   UNL A   1      40.807  27.577  28.684  1.00  0.00     0.049 A 
ATOM     49  H   UNL A   1      42.873  27.547  28.946  1.00  0.00     0.167 HD
ATOM     50  C   UNL A   1      47.182  27.287  29.602  1.00  0.00     0.031 A 
ATOM     51  C   UNL A   1      40.371  28.774  29.116  1.00  0.00     0.031 A 
ATOM     52  C   UNL A   1      46.822  28.619  30.010  1.00  0.00     0.049 A 
ATOM     53  C   UNL A   1      41.360  29.769  29.651  1.00  0.00     0.074 A 
ATOM     54  C   UNL A   1      47.646  29.635  30.463  1.00  0.00     0.029 A 
ATOM     55  N   UNL A   1      45.529  29.118  30.015  1.00  0.00    -0.354 N 
ATOM     56  N   UNL A   1      42.658  29.651  29.784  1.00  0.00    -0.248 NA
ATOM     57  C   UNL A   1      40.824  31.068  30.084  1.00  0.00     0.031 C 
ATOM     58  C   UNL A   1      46.846  30.738  30.778  1.00  0.00     0.029 A 
ATOM     59  C   UNL A   1      45.530  30.422  30.480  1.00  0.00     0.049 A 
ATOM     60  H   UNL A   1      44.730  28.620  29.730  1.00  0.00     0.167 HD
ATOM     61  C   UNL A   1      43.098  30.866  30.293  1.00  0.00     0.074 A 
ATOM     62  C   UNL A   1      41.930  31.711  30.432  1.00  0.00     0.031 C 
ATOM     63  C   UNL A   1      44.358  31.248  30.613  1.00  0.00     0.031 A 
BRANCH  50  64
ATOM     64  C   UNL A   1      48.617  26.862  29.730  1.00  0.00    -0.014 A 
ATOM     65  C   UNL A   1      49.536  27.093  28.694  1.00  0.00     0.009 A 
ATOM     66  C   UNL A   1      49.060  26.241  30.907  1.00  0.00     0.009 A 
ATOM     67  C   UNL A   1      50.862  26.676  28.820  1.00  0.00     0.001 A 
ATOM     68  C   UNL A   1      50.394  25.848  31.040  1.00  0.00     0.001 A 
ATOM     69  C   UNL A   1      51.290  26.057  29.994  1.00  0.00     0.000 A 
ENDBRANCH  50  64
BRANCH  51  70
ATOM     70  C   UNL A   1      38.926  29.109  29.037  1.00  0.00    -0.014 A 
ATOM     71  C   UNL A   1      38.375  29.580  27.836  1.00  0.00     0.009 A 
ATOM     72  C   UNL A   1      38.093  28.954  30.154  1.00  0.00     0.009 A 
ATOM     73  C   UNL A   1      37.021  29.912  27.762  1.00  0.00     0.001 A 
ATOM     74  C   UNL A   1      36.734  29.264  30.070  1.00  0.00     0.001 A 
ATOM     75  C   UNL A   1      36.201  29.749  28.877  1.00  0.00     0.000 A 
ENDBRANCH  51  70
BRANCH  63  76
ATOM     76  C   UNL A   1      44.541  32.651  31.114  1.00  0.00    -0.014 A 
ATOM     77  C   UNL A   1      44.762  33.715  30.227  1.00  0.00     0.009 A 
ATOM     78  C   UNL A   1      44.450  32.914  32.490  1.00  0.00     0.009 A 
ATOM     79  C   UNL A   1      44.918  35.014  30.714  1.00  0.00     0.001 A 
ATOM     80  C   UNL A   1      44.581  34.217  32.970  1.00  0.00     0.001 A 
ATOM     81  C   UNL A   1      44.822  35.265  32.082  1.00  0.00     0.000 A 
ENDBRANCH  63  76
ENDBRANCH  37  38
ENDBRANCH  29  32
ENDBRANCH  27  28
ENDBRANCH  26  27
ENDBRANCH  25  26
ENDBRANCH   1  25
TORSDOF 16
ENDMDL
MODEL 2
REMARK VINA RESULT:     -10.1      5.517     10.676
REMARK SMILES Cc1cc(NC[C@H](C)[NH+](C)C)cc(C(=O)NCCCCNC(=O)c2ccc(-c3c4nc(c(-c5ccccc5)c5ccc([nH]5)c(-c5ccccc5)c5nc(c(-c6ccccc6)c6ccc3[nH]6)C=C5)C=C4)cc2)c1N
REMARK SMILES IDX 17 1 16 2 14 3 15 4 13 6 1 7 2 8 3 9 72 10 4 11 12 12 73 13
REMARK SMILES IDX 5 16 6 18 7 19 8 20 9 21 10 22 11 23 18 25 19 26 20 27 21 28
REMARK SMILES IDX 22 29 23 31 24 32 25 33 71 34 26 35 70 36 27 37 28 38 29 39
REMARK SMILES IDX 64 40 30 41 69 42 63 43 65 44 31 45 68 46 62 47 61 48 32 50
REMARK SMILES IDX 54 51 39 52 53 53 40 54 43 55 52 56 66 57 41 58 42 59 51 61
REMARK SMILES IDX 67 62 44 63 33 64 34 65 38 66 35 67 37 68 36 69 55 70 56 71
REMARK SMILES IDX 60 72 57 73 59 74 58 75 45 76 46 77 50 78 47 79 49 80 48 81
REMARK H PARENT 16 5 73 14 73 15 5 17 9 24 21 30 65 49 43 60
REMARK Flexibility Score: inf
ROOT
ATOM      1  C   UNL A   1      32.483  29.980  26.912  1.00  0.00     0.116 C 
ENDROOT
BRANCH   1   2
ATOM      2  N   UNL A   1      31.968  28.676  27.289  1.00  0.00    -0.352 N 
ATOM      3  C   UNL A   1      31.636  27.552  26.566  1.00  0.00     0.253 C 
ATOM      4  O   UNL A   1      31.231  26.587  27.221  1.00  0.00    -0.269 OA
ATOM      5  H   UNL A   1      31.827  28.576  28.258  1.00  0.00     0.163 HD
BRANCH   3   6
ATOM      6  C   UNL A   1      31.773  27.438  25.073  1.00  0.00     0.065 A 
ATOM      7  C   UNL A   1      33.627  25.366  22.442  1.00  0.00     0.046 C 
ATOM      8  C   UNL A   1      32.750  26.396  23.101  1.00  0.00    -0.025 A 
ATOM      9  C   UNL A   1      32.055  27.314  22.287  1.00  0.00     0.031 A 
ATOM     10  C   UNL A   1      32.617  26.454  24.507  1.00  0.00     0.047 A 
ATOM     11  C   UNL A   1      31.212  28.278  22.832  1.00  0.00     0.035 A 
ATOM     12  C   UNL A   1      31.029  28.254  24.214  1.00  0.00     0.041 A 
BRANCH  10  13
ATOM     13  N   UNL A   1      33.429  25.646  25.311  1.00  0.00    -0.398 N 
ATOM     14  H   UNL A   1      33.409  25.747  26.291  1.00  0.00     0.156 HD
ATOM     15  H   UNL A   1      34.021  24.977  24.898  1.00  0.00     0.156 HD
ENDBRANCH  10  13
BRANCH  11  16
ATOM     16  N   UNL A   1      30.584  29.213  22.019  1.00  0.00    -0.379 N 
ATOM     17  H   UNL A   1      31.095  29.642  21.295  1.00  0.00     0.160 HD
BRANCH  16  18
ATOM     18  C   UNL A   1      29.178  29.571  22.218  1.00  0.00     0.177 C 
BRANCH  18  19
ATOM     19  C   UNL A   1      28.981  30.909  22.987  1.00  0.00     0.199 C 
ATOM     20  C   UNL A   1      27.593  30.895  23.655  1.00  0.00     0.077 C 
BRANCH  19  21
ATOM     21  N   UNL A   1      29.167  32.170  22.227  1.00  0.00    -0.336 N 
ATOM     22  C   UNL A   1      28.311  32.247  21.044  1.00  0.00     0.332 C 
ATOM     23  C   UNL A   1      29.027  33.392  23.020  1.00  0.00     0.332 C 
ATOM     24  H   UNL A   1      30.142  32.125  21.930  1.00  0.00     0.347 HD
ENDBRANCH  19  21
ENDBRANCH  18  19
ENDBRANCH  16  18
ENDBRANCH  11  16
ENDBRANCH   3   6
ENDBRANCH   1   2
BRANCH   1  25
ATOM     25  C   UNL A   1      31.337  30.956  26.619  1.00  0.00     0.023 C 
BRANCH  25  26
ATOM     26  C   UNL A   1      31.777  32.407  26.419  1.00  0.00     0.023 C 
BRANCH  26  27
ATOM     27  C   UNL A   1      32.582  32.990  27.572  1.00  0.00     0.116 C 
BRANCH  27  28
ATOM     28  N   UNL A   1      32.302  34.396  27.820  1.00  0.00    -0.352 N 
ATOM     29  C   UNL A   1      32.964  35.260  28.665  1.00  0.00     0.251 C 
ATOM     30  H   UNL A   1      31.544  34.777  27.322  1.00  0.00     0.163 HD
ATOM     31  O   UNL A   1      32.561  36.397  28.839  1.00  0.00    -0.269 OA
BRANCH  29  32
ATOM     32  C   UNL A   1      34.146  34.761  29.398  1.00  0.00     0.039 A 
ATOM     33  C   UNL A   1      33.967  34.239  30.681  1.00  0.00     0.014 A 
ATOM     34  C   UNL A   1      35.404  34.744  28.789  1.00  0.00     0.014 A 
ATOM     35  C   UNL A   1      35.039  33.621  31.323  1.00  0.00     0.010 A 
ATOM     36  C   UNL A   1      36.453  34.072  29.405  1.00  0.00     0.010 A 
ATOM     37  C   UNL A   1      36.276  33.494  30.671  1.00  0.00    -0.014 A 
BRANCH  37  38
ATOM     38  C   UNL A   1      37.390  32.730  31.281  1.00  0.00     0.031 A 
ATOM     39  C   UNL A   1      37.955  33.145  32.608  1.00  0.00     0.074 A 
ATOM     40  C   UNL A   1      37.946  31.711  30.597  1.00  0.00     0.049 A 
ATOM     41  N   UNL A   1      38.969  32.642  33.266  1.00  0.00    -0.248 NA
ATOM     42  C   UNL A   1      37.315  34.293  33.271  1.00  0.00     0.031 C 
ATOM     43  C   UNL A   1      37.521  31.242  29.276  1.00  0.00     0.029 A 
ATOM     44  N   UNL A   1      38.998  30.892  30.917  1.00  0.00    -0.354 N 
ATOM     45  C   UNL A   1      39.099  33.421  34.407  1.00  0.00     0.074 A 
ATOM     46  C   UNL A   1      38.089  34.455  34.332  1.00  0.00     0.031 C 
ATOM     47  C   UNL A   1      38.291  30.204  28.910  1.00  0.00     0.029 A 
ATOM     48  C   UNL A   1      39.281  29.957  29.952  1.00  0.00     0.049 A 
ATOM     49  H   UNL A   1      39.504  30.967  31.759  1.00  0.00     0.167 HD
ATOM     50  C   UNL A   1      39.971  33.280  35.433  1.00  0.00     0.031 A 
ATOM     51  C   UNL A   1      40.234  29.008  29.909  1.00  0.00     0.031 A 
ATOM     52  C   UNL A   1      40.967  32.246  35.515  1.00  0.00     0.049 A 
ATOM     53  C   UNL A   1      41.184  28.866  31.063  1.00  0.00     0.074 A 
ATOM     54  C   UNL A   1      41.855  31.982  36.543  1.00  0.00     0.029 A 
ATOM     55  N   UNL A   1      41.206  31.304  34.526  1.00  0.00    -0.354 N 
ATOM     56  N   UNL A   1      41.249  29.566  32.168  1.00  0.00    -0.248 NA
ATOM     57  C   UNL A   1      42.185  27.794  30.967  1.00  0.00     0.031 C 
ATOM     58  C   UNL A   1      42.658  30.903  36.160  1.00  0.00     0.029 A 
ATOM     59  C   UNL A   1      42.240  30.469  34.912  1.00  0.00     0.049 A 
ATOM     60  H   UNL A   1      40.714  31.239  33.676  1.00  0.00     0.167 HD
ATOM     61  C   UNL A   1      42.280  29.006  32.911  1.00  0.00     0.074 A 
ATOM     62  C   UNL A   1      42.804  27.901  32.135  1.00  0.00     0.031 C 
ATOM     63  C   UNL A   1      42.749  29.374  34.127  1.00  0.00     0.031 A 
BRANCH  50  64
ATOM     64  C   UNL A   1      39.883  34.281  36.550  1.00  0.00    -0.014 A 
ATOM     65  C   UNL A   1      39.089  34.036  37.681  1.00  0.00     0.009 A 
ATOM     66  C   UNL A   1      40.621  35.472  36.481  1.00  0.00     0.009 A 
ATOM     67  C   UNL A   1      39.004  34.983  38.703  1.00  0.00     0.001 A 
ATOM     68  C   UNL A   1      40.554  36.406  37.517  1.00  0.00     0.001 A 
ATOM     69  C   UNL A   1      39.739  36.165  38.621  1.00  0.00     0.000 A 
ENDBRANCH  50  64
BRANCH  51  70
ATOM     70  C   UNL A   1      40.319  28.096  28.739  1.00  0.00    -0.014 A 
ATOM     71  C   UNL A   1      39.669  26.854  28.763  1.00  0.00     0.009 A 
ATOM     72  C   UNL A   1      41.043  28.465  27.597  1.00  0.00     0.009 A 
ATOM     73  C   UNL A   1      39.762  25.987  27.672  1.00  0.00     0.001 A 
ATOM     74  C   UNL A   1      41.114  27.606  26.497  1.00  0.00     0.001 A 
ATOM     75  C   UNL A   1      40.479  26.365  26.539  1.00  0.00     0.000 A 
ENDBRANCH  51  70
BRANCH  63  76
ATOM     76  C   UNL A   1      43.863  28.552  34.708  1.00  0.00    -0.014 A 
ATOM     77  C   UNL A   1      43.598  27.409  35.476  1.00  0.00     0.009 A 
ATOM     78  C   UNL A   1      45.196  28.908  34.447  1.00  0.00     0.009 A 
ATOM     79  C   UNL A   1      44.649  26.652  35.996  1.00  0.00     0.001 A 
ATOM     80  C   UNL A   1      46.244  28.135  34.948  1.00  0.00     0.001 A 
ATOM     81  C   UNL A   1      45.969  27.012  35.729  1.00  0.00     0.000 A 
ENDBRANCH  63  76
ENDBRANCH  37  38
ENDBRANCH  29  32
ENDBRANCH  27  28
ENDBRANCH  26  27
ENDBRANCH  25  26
ENDBRANCH   1  25
TORSDOF 16
ENDMDL
MODEL 3
REMARK VINA RESULT:     -10.1      2.501      7.449
REMARK SMILES Cc1cc(NC[C@H](C)[NH+](C)C)cc(C(=O)NCCCCNC(=O)c2ccc(-c3c4nc(c(-c5ccccc5)c5ccc([nH]5)c(-c5ccccc5)c5nc(c(-c6ccccc6)c6ccc3[nH]6)C=C5)C=C4)cc2)c1N
REMARK SMILES IDX 17 1 16 2 14 3 15 4 13 6 1 7 2 8 3 9 72 10 4 11 12 12 73 13
REMARK SMILES IDX 5 16 6 18 7 19 8 20 9 21 10 22 11 23 18 25 19 26 20 27 21 28
REMARK SMILES IDX 22 29 23 31 24 32 25 33 71 34 26 35 70 36 27 37 28 38 29 39
REMARK SMILES IDX 64 40 30 41 69 42 63 43 65 44 31 45 68 46 62 47 61 48 32 50
REMARK SMILES IDX 54 51 39 52 53 53 40 54 43 55 52 56 66 57 41 58 42 59 51 61
REMARK SMILES IDX 67 62 44 63 33 64 34 65 38 66 35 67 37 68 36 69 55 70 56 71
REMARK SMILES IDX 60 72 57 73 59 74 58 75 45 76 46 77 50 78 47 79 49 80 48 81
REMARK H PARENT 16 5 73 14 73 15 5 17 9 24 21 30 65 49 43 60
REMARK Flexibility Score: inf
ROOT
ATOM      1  C   UNL A   1      32.353  26.612  24.616  1.00  0.00     0.116 C 
ENDROOT
BRANCH   1   2
ATOM      2  N   UNL A   1      31.426  25.960  25.523  1.00  0.00    -0.352 N 
ATOM      3  C   UNL A   1      31.158  24.639  25.804  1.00  0.00     0.253 C 
ATOM      4  O   UNL A   1      30.296  24.431  26.663  1.00  0.00    -0.269 OA
ATOM      5  H   UNL A   1      30.878  26.591  26.043  1.00  0.00     0.163 HD
BRANCH   3   6
ATOM      6  C   UNL A   1      31.866  23.479  25.160  1.00  0.00     0.065 A 
ATOM      7  C   UNL A   1      31.816  21.436  21.923  1.00  0.00     0.046 C 
ATOM      8  C   UNL A   1      32.159  21.934  23.301  1.00  0.00    -0.025 A 
ATOM      9  C   UNL A   1      33.163  21.265  24.031  1.00  0.00     0.031 A 
ATOM     10  C   UNL A   1      31.497  23.049  23.864  1.00  0.00     0.047 A 
ATOM     11  C   UNL A   1      33.542  21.687  25.302  1.00  0.00     0.035 A 
ATOM     12  C   UNL A   1      32.937  22.842  25.796  1.00  0.00     0.041 A 
BRANCH  10  13
ATOM     13  N   UNL A   1      30.399  23.607  23.200  1.00  0.00    -0.398 N 
ATOM     14  H   UNL A   1      29.488  23.294  23.404  1.00  0.00     0.156 HD
ATOM     15  H   UNL A   1      30.537  24.313  22.528  1.00  0.00     0.156 HD
ENDBRANCH  10  13
BRANCH  11  16
ATOM     16  N   UNL A   1      34.488  20.979  26.032  1.00  0.00    -0.379 N 
ATOM     17  H   UNL A   1      34.229  20.133  26.463  1.00  0.00     0.160 HD
BRANCH  16  18
ATOM     18  C   UNL A   1      35.862  21.466  26.170  1.00  0.00     0.177 C 
BRANCH  18  19
ATOM     19  C   UNL A   1      36.700  21.341  24.865  1.00  0.00     0.199 C 
ATOM     20  C   UNL A   1      37.789  20.272  25.079  1.00  0.00     0.077 C 
BRANCH  19  21
ATOM     21  N   UNL A   1      37.304  22.580  24.316  1.00  0.00    -0.336 N 
ATOM     22  C   UNL A   1      36.542  23.130  23.196  1.00  0.00     0.332 C 
ATOM     23  C   UNL A   1      37.559  23.629  25.305  1.00  0.00     0.332 C 
ATOM     24  H   UNL A   1      38.215  22.270  23.980  1.00  0.00     0.347 HD
ENDBRANCH  19  21
ENDBRANCH  18  19
ENDBRANCH  16  18
ENDBRANCH  11  16
ENDBRANCH   3   6
ENDBRANCH   1   2
BRANCH   1  25
ATOM     25  C   UNL A   1      33.643  27.009  25.344  1.00  0.00     0.023 C 
BRANCH  25  26
ATOM     26  C   UNL A   1      33.692  28.470  25.792  1.00  0.00     0.023 C 
BRANCH  26  27
ATOM     27  C   UNL A   1      33.476  28.684  27.284  1.00  0.00     0.116 C 
BRANCH  27  28
ATOM     28  N   UNL A   1      33.506  30.085  27.678  1.00  0.00    -0.352 N 
ATOM     29  C   UNL A   1      34.555  30.793  28.221  1.00  0.00     0.251 C 
ATOM     30  H   UNL A   1      32.673  30.589  27.538  1.00  0.00     0.163 HD
ATOM     31  O   UNL A   1      34.410  31.947  28.585  1.00  0.00    -0.269 OA
BRANCH  29  32
ATOM     32  C   UNL A   1      35.851  30.106  28.403  1.00  0.00     0.039 A 
ATOM     33  C   UNL A   1      36.766  30.113  27.348  1.00  0.00     0.014 A 
ATOM     34  C   UNL A   1      36.181  29.528  29.632  1.00  0.00     0.014 A 
ATOM     35  C   UNL A   1      38.051  29.610  27.554  1.00  0.00     0.010 A 
ATOM     36  C   UNL A   1      37.481  29.086  29.853  1.00  0.00     0.010 A 
ATOM     37  C   UNL A   1      38.429  29.135  28.820  1.00  0.00    -0.014 A 
BRANCH  37  38
ATOM     38  C   UNL A   1      39.824  28.717  29.096  1.00  0.00     0.031 A 
ATOM     39  C   UNL A   1      40.789  29.672  29.736  1.00  0.00     0.074 A 
ATOM     40  C   UNL A   1      40.242  27.502  28.691  1.00  0.00     0.049 A 
ATOM     41  N   UNL A   1      42.062  29.509  29.993  1.00  0.00    -0.248 NA
ATOM     42  C   UNL A   1      40.261  30.993  30.112  1.00  0.00     0.031 C 
ATOM     43  C   UNL A   1      39.415  26.501  28.012  1.00  0.00     0.029 A 
ATOM     44  N   UNL A   1      41.474  26.906  28.783  1.00  0.00    -0.354 N 
ATOM     45  C   UNL A   1      42.490  30.710  30.543  1.00  0.00     0.074 A 
ATOM     46  C   UNL A   1      41.353  31.605  30.543  1.00  0.00     0.031 C 
ATOM     47  C   UNL A   1      40.158  25.409  27.770  1.00  0.00     0.029 A 
ATOM     48  C   UNL A   1      41.517  25.644  28.246  1.00  0.00     0.049 A 
ATOM     49  H   UNL A   1      42.255  27.344  29.195  1.00  0.00     0.167 HD
ATOM     50  C   UNL A   1      43.715  31.033  31.019  1.00  0.00     0.031 A 
ATOM     51  C   UNL A   1      42.537  24.772  28.145  1.00  0.00     0.031 A 
ATOM     52  C   UNL A   1      44.842  30.140  31.030  1.00  0.00     0.049 A 
ATOM     53  C   UNL A   1      43.886  25.152  28.687  1.00  0.00     0.074 A 
ATOM     54  C   UNL A   1      46.108  30.354  31.548  1.00  0.00     0.029 A 
ATOM     55  N   UNL A   1      44.838  28.860  30.497  1.00  0.00    -0.354 N 
ATOM     56  N   UNL A   1      44.257  26.266  29.269  1.00  0.00    -0.248 NA
ATOM     57  C   UNL A   1      44.952  24.147  28.569  1.00  0.00     0.031 C 
ATOM     58  C   UNL A   1      46.882  29.217  31.294  1.00  0.00     0.029 A 
ATOM     59  C   UNL A   1      46.084  28.280  30.657  1.00  0.00     0.049 A 
ATOM     60  H   UNL A   1      44.064  28.429  30.068  1.00  0.00     0.167 HD
ATOM     61  C   UNL A   1      45.592  26.088  29.608  1.00  0.00     0.074 A 
ATOM     62  C   UNL A   1      45.960  24.755  29.178  1.00  0.00     0.031 C 
ATOM     63  C   UNL A   1      46.435  26.952  30.223  1.00  0.00     0.031 A 
BRANCH  50  64
ATOM     64  C   UNL A   1      43.895  32.422  31.562  1.00  0.00    -0.014 A 
ATOM     65  C   UNL A   1      43.665  32.704  32.918  1.00  0.00     0.009 A 
ATOM     66  C   UNL A   1      44.321  33.454  30.714  1.00  0.00     0.009 A 
ATOM     67  C   UNL A   1      43.820  34.003  33.405  1.00  0.00     0.001 A 
ATOM     68  C   UNL A   1      44.500  34.748  31.210  1.00  0.00     0.001 A 
ATOM     69  C   UNL A   1      44.240  35.023  32.551  1.00  0.00     0.000 A 
ENDBRANCH  50  64
BRANCH  51  70
ATOM     70  C   UNL A   1      42.316  23.441  27.525  1.00  0.00    -0.014 A 
ATOM     71  C   UNL A   1      41.816  22.379  28.294  1.00  0.00     0.009 A 
ATOM     72  C   UNL A   1      42.597  23.228  26.169  1.00  0.00     0.009 A 
ATOM     73  C   UNL A   1      41.623  21.121  27.718  1.00  0.00     0.001 A 
ATOM     74  C   UNL A   1      42.379  21.975  25.591  1.00  0.00     0.001 A 
ATOM     75  C   UNL A   1      41.900  20.921  26.368  1.00  0.00     0.000 A 
ENDBRANCH  51  70
BRANCH  63  76
ATOM     76  C   UNL A   1      47.829  26.469  30.496  1.00  0.00    -0.014 A 
ATOM     77  C   UNL A   1      48.155  25.839  31.707  1.00  0.00     0.009 A 
ATOM     78  C   UNL A   1      48.819  26.612  29.511  1.00  0.00     0.009 A 
ATOM     79  C   UNL A   1      49.455  25.386  31.936  1.00  0.00     0.001 A 
ATOM     80  C   UNL A   1      50.111  26.136  29.734  1.00  0.00     0.001 A 
ATOM     81  C   UNL A   1      50.430  25.530  30.950  1.00  0.00     0.000 A 
ENDBRANCH  63  76
ENDBRANCH  37  38
ENDBRANCH  29  32
ENDBRANCH  27  28
ENDBRANCH  26  27
ENDBRANCH  25  26
ENDBRANCH   1  25
TORSDOF 16
ENDMDL
