MODEL 1
REMARK VINA RESULT:      -8.0      0.000      0.000
REMARK SMILES CC(C)C[C@H](NC(=O)[C@H](C)NC(=O)[C@@H](NC(=O)CNC(=O)OCc1ccccc1)C(C)C)C(=O)NCCCCNC(=O)c1ccc(-c2c3nc(c(-c4ccccc4)c4ccc([nH]4)c(-c4ccccc4)c4nc(c(-c5ccccc5)c5ccc2[nH]5)C=C4)C=C3)cc1
REMARK SMILES IDX 6 1 7 2 8 3 5 5 4 6 2 7 1 8 3 9 33 10 34 11 35 12 36 14
REMARK SMILES IDX 37 15 38 16 39 17 40 18 41 19 42 21 43 22 44 23 90 24 45 25
REMARK SMILES IDX 89 26 46 27 47 28 48 29 83 30 49 31 88 32 82 33 84 34 50 35
REMARK SMILES IDX 87 36 81 37 80 38 51 40 73 41 58 42 72 43 59 44 62 45 71 46
REMARK SMILES IDX 85 47 60 48 61 49 70 51 86 52 63 53 52 54 53 55 57 56 54 57
REMARK SMILES IDX 56 58 55 59 74 60 75 61 79 62 76 63 78 64 77 65 64 66 65 67
REMARK SMILES IDX 69 68 66 69 68 70 67 71 9 72 10 73 11 74 12 75 13 77 14 78
REMARK SMILES IDX 15 79 16 80 17 82 18 83 19 84 20 85 21 87 22 88 23 89 24 90
REMARK SMILES IDX 25 91 29 92 26 93 28 94 27 95 30 96 31 97 32 98
REMARK H PARENT 6 4 35 13 40 20 84 39 62 50 11 76 15 81 19 86
REMARK Flexibility Score: inf
ROOT
ATOM      1  N   UNL A   1      40.928  25.017  26.808  1.00  0.00    -0.343 N 
ATOM      2  C   UNL A   1      40.032  25.857  27.410  1.00  0.00     0.242 C 
ATOM      3  O   UNL A   1      38.930  25.368  27.687  1.00  0.00    -0.273 OA
ATOM      4  H   UNL A   1      40.518  24.279  26.302  1.00  0.00     0.164 HD
ENDROOT
BRANCH   1   5
ATOM      5  C   UNL A   1      42.389  25.030  26.789  1.00  0.00     0.171 C 
BRANCH   5   6
ATOM      6  C   UNL A   1      43.113  23.939  27.620  1.00  0.00     0.038 C 
BRANCH   6   7
ATOM      7  C   UNL A   1      43.886  24.251  28.928  1.00  0.00    -0.015 C 
ATOM      8  C   UNL A   1      43.697  23.333  30.140  1.00  0.00     0.007 C 
ATOM      9  C   UNL A   1      45.389  24.264  28.595  1.00  0.00     0.007 C 
ENDBRANCH   6   7
ENDBRANCH   5   6
BRANCH   5  10
ATOM     10  C   UNL A   1      43.011  25.268  25.394  1.00  0.00     0.242 C 
ATOM     11  O   UNL A   1      42.851  26.363  24.842  1.00  0.00    -0.273 OA
ATOM     12  N   UNL A   1      43.613  24.315  24.641  1.00  0.00    -0.354 N 
ATOM     13  H   UNL A   1      43.862  24.617  23.738  1.00  0.00     0.163 HD
BRANCH  12  14
ATOM     14  C   UNL A   1      43.959  22.936  24.915  1.00  0.00     0.116 C 
BRANCH  14  15
ATOM     15  C   UNL A   1      45.422  22.738  25.285  1.00  0.00     0.023 C 
BRANCH  15  16
ATOM     16  C   UNL A   1      46.367  23.738  24.629  1.00  0.00     0.023 C 
BRANCH  16  17
ATOM     17  C   UNL A   1      47.156  24.599  25.588  1.00  0.00     0.116 C 
BRANCH  17  18
ATOM     18  N   UNL A   1      47.927  25.614  24.897  1.00  0.00    -0.352 N 
ATOM     19  C   UNL A   1      47.882  26.973  25.084  1.00  0.00     0.251 C 
ATOM     20  H   UNL A   1      48.558  25.290  24.214  1.00  0.00     0.163 HD
ATOM     21  O   UNL A   1      48.417  27.729  24.282  1.00  0.00    -0.269 OA
BRANCH  19  22
ATOM     22  C   UNL A   1      47.148  27.507  26.249  1.00  0.00     0.039 A 
ATOM     23  C   UNL A   1      47.858  28.162  27.255  1.00  0.00     0.014 A 
ATOM     24  C   UNL A   1      45.755  27.397  26.322  1.00  0.00     0.014 A 
ATOM     25  C   UNL A   1      47.164  28.739  28.318  1.00  0.00     0.010 A 
ATOM     26  C   UNL A   1      45.062  28.064  27.320  1.00  0.00     0.010 A 
ATOM     27  C   UNL A   1      45.760  28.716  28.345  1.00  0.00    -0.014 A 
BRANCH  27  28
ATOM     28  C   UNL A   1      45.001  29.326  29.463  1.00  0.00     0.031 A 
ATOM     29  C   UNL A   1      44.734  28.520  30.707  1.00  0.00     0.074 A 
ATOM     30  C   UNL A   1      44.513  30.575  29.342  1.00  0.00     0.049 A 
ATOM     31  N   UNL A   1      44.058  28.852  31.777  1.00  0.00    -0.248 NA
ATOM     32  C   UNL A   1      45.270  27.148  30.741  1.00  0.00     0.031 C 
ATOM     33  C   UNL A   1      44.669  31.438  28.168  1.00  0.00     0.029 A 
ATOM     34  N   UNL A   1      43.786  31.336  30.220  1.00  0.00    -0.354 N 
ATOM     35  C   UNL A   1      44.069  27.728  32.593  1.00  0.00     0.074 A 
ATOM     36  C   UNL A   1      44.764  26.686  31.874  1.00  0.00     0.031 C 
ATOM     37  C   UNL A   1      44.091  32.625  28.417  1.00  0.00     0.029 A 
ATOM     38  C   UNL A   1      43.489  32.591  29.746  1.00  0.00     0.049 A 
ATOM     39  H   UNL A   1      43.504  31.014  31.107  1.00  0.00     0.167 HD
ATOM     40  C   UNL A   1      43.570  27.583  33.842  1.00  0.00     0.031 A 
ATOM     41  C   UNL A   1      42.809  33.600  30.320  1.00  0.00     0.031 A 
ATOM     42  C   UNL A   1      42.901  28.629  34.564  1.00  0.00     0.049 A 
ATOM     43  C   UNL A   1      42.257  33.411  31.707  1.00  0.00     0.074 A 
ATOM     44  C   UNL A   1      42.415  28.608  35.858  1.00  0.00     0.029 A 
ATOM     45  N   UNL A   1      42.623  29.886  34.049  1.00  0.00    -0.354 N 
ATOM     46  N   UNL A   1      42.343  32.366  32.496  1.00  0.00    -0.248 NA
ATOM     47  C   UNL A   1      41.526  34.545  32.286  1.00  0.00     0.031 C 
ATOM     48  C   UNL A   1      41.794  29.835  36.109  1.00  0.00     0.029 A 
ATOM     49  C   UNL A   1      41.948  30.641  34.992  1.00  0.00     0.049 A 
ATOM     50  H   UNL A   1      42.871  30.195  33.148  1.00  0.00     0.167 HD
ATOM     51  C   UNL A   1      41.705  32.729  33.674  1.00  0.00     0.074 A 
ATOM     52  C   UNL A   1      41.251  34.094  33.502  1.00  0.00     0.031 C 
ATOM     53  C   UNL A   1      41.509  31.999  34.800  1.00  0.00     0.031 A 
BRANCH  40  54
ATOM     54  C   UNL A   1      43.726  26.240  34.501  1.00  0.00    -0.014 A 
ATOM     55  C   UNL A   1      44.903  25.893  35.184  1.00  0.00     0.009 A 
ATOM     56  C   UNL A   1      42.669  25.317  34.461  1.00  0.00     0.009 A 
ATOM     57  C   UNL A   1      45.032  24.637  35.780  1.00  0.00     0.001 A 
ATOM     58  C   UNL A   1      42.788  24.074  35.086  1.00  0.00     0.001 A 
ATOM     59  C   UNL A   1      43.973  23.731  35.736  1.00  0.00     0.000 A 
ENDBRANCH  40  54
BRANCH  41  60
ATOM     60  C   UNL A   1      42.627  34.888  29.599  1.00  0.00    -0.014 A 
ATOM     61  C   UNL A   1      41.527  35.076  28.748  1.00  0.00     0.009 A 
ATOM     62  C   UNL A   1      43.555  35.929  29.748  1.00  0.00     0.009 A 
ATOM     63  C   UNL A   1      41.378  36.270  28.036  1.00  0.00     0.001 A 
ATOM     64  C   UNL A   1      43.387  37.133  29.060  1.00  0.00     0.001 A 
ATOM     65  C   UNL A   1      42.306  37.299  28.197  1.00  0.00     0.000 A 
ENDBRANCH  41  60
BRANCH  53  66
ATOM     66  C   UNL A   1      40.810  32.676  35.944  1.00  0.00    -0.014 A 
ATOM     67  C   UNL A   1      41.525  33.384  36.921  1.00  0.00     0.009 A 
ATOM     68  C   UNL A   1      39.408  32.639  36.017  1.00  0.00     0.009 A 
ATOM     69  C   UNL A   1      40.851  34.014  37.970  1.00  0.00     0.001 A 
ATOM     70  C   UNL A   1      38.736  33.296  37.047  1.00  0.00     0.001 A 
ATOM     71  C   UNL A   1      39.458  33.974  38.028  1.00  0.00     0.000 A 
ENDBRANCH  53  66
ENDBRANCH  27  28
ENDBRANCH  19  22
ENDBRANCH  17  18
ENDBRANCH  16  17
ENDBRANCH  15  16
ENDBRANCH  14  15
ENDBRANCH  12  14
ENDBRANCH   5  10
ENDBRANCH   1   5
BRANCH   2  72
ATOM     72  C   UNL A   1      40.346  27.338  27.757  1.00  0.00     0.168 C 
ATOM     73  C   UNL A   1      41.121  27.451  29.062  1.00  0.00     0.041 C 
BRANCH  72  74
ATOM     74  N   UNL A   1      39.053  28.019  27.919  1.00  0.00    -0.343 N 
ATOM     75  C   UNL A   1      38.441  28.714  28.903  1.00  0.00     0.243 C 
ATOM     76  H   UNL A   1      38.495  27.953  27.110  1.00  0.00     0.164 HD
ATOM     77  O   UNL A   1      37.231  28.918  28.733  1.00  0.00    -0.273 OA
BRANCH  75  78
ATOM     78  C   UNL A   1      39.151  29.409  30.102  1.00  0.00     0.174 C 
BRANCH  78  79
ATOM     79  N   UNL A   1      39.325  30.867  29.999  1.00  0.00    -0.343 N 
ATOM     80  C   UNL A   1      38.540  31.965  30.147  1.00  0.00     0.240 C 
ATOM     81  H   UNL A   1      40.250  31.108  29.763  1.00  0.00     0.164 HD
ATOM     82  O   UNL A   1      39.134  33.049  30.213  1.00  0.00    -0.273 OA
BRANCH  80  83
ATOM     83  C   UNL A   1      37.024  31.930  30.376  1.00  0.00     0.219 C 
BRANCH  83  84
ATOM     84  N   UNL A   1      36.609  31.615  31.730  1.00  0.00    -0.312 N 
ATOM     85  C   UNL A   1      36.553  32.420  32.829  1.00  0.00     0.407 C 
ATOM     86  H   UNL A   1      36.326  30.684  31.877  1.00  0.00     0.167 HD
ATOM     87  O   UNL A   1      36.394  31.932  33.930  1.00  0.00    -0.225 OA
BRANCH  85  88
ATOM     88  O   UNL A   1      36.732  33.736  32.546  1.00  0.00    -0.445 OA
BRANCH  88  89
ATOM     89  C   UNL A   1      35.921  34.645  33.315  1.00  0.00     0.270 C 
BRANCH  89  90
ATOM     90  C   UNL A   1      34.799  35.258  32.516  1.00  0.00    -0.011 A 
ATOM     91  C   UNL A   1      34.396  34.669  31.309  1.00  0.00     0.007 A 
ATOM     92  C   UNL A   1      34.204  36.458  32.920  1.00  0.00     0.007 A 
ATOM     93  C   UNL A   1      33.456  35.296  30.494  1.00  0.00     0.000 A 
ATOM     94  C   UNL A   1      33.273  37.092  32.097  1.00  0.00     0.000 A 
ATOM     95  C   UNL A   1      32.905  36.516  30.882  1.00  0.00     0.000 A 
ENDBRANCH  89  90
ENDBRANCH  88  89
ENDBRANCH  85  88
ENDBRANCH  83  84
ENDBRANCH  80  83
ENDBRANCH  78  79
BRANCH  78  96
ATOM     96  C   UNL A   1      38.662  28.883  31.473  1.00  0.00     0.015 C 
ATOM     97  C   UNL A   1      38.542  27.364  31.606  1.00  0.00     0.010 C 
ATOM     98  C   UNL A   1      39.444  29.441  32.668  1.00  0.00     0.010 C 
ENDBRANCH  78  96
ENDBRANCH  75  78
ENDBRANCH  72  74
ENDBRANCH   2  72
TORSDOF 24
ENDMDL
MODEL 2
REMARK VINA RESULT:      -7.5      4.094      8.661
REMARK SMILES CC(C)C[C@H](NC(=O)[C@H](C)NC(=O)[C@@H](NC(=O)CNC(=O)OCc1ccccc1)C(C)C)C(=O)NCCCCNC(=O)c1ccc(-c2c3nc(c(-c4ccccc4)c4ccc([nH]4)c(-c4ccccc4)c4nc(c(-c5ccccc5)c5ccc2[nH]5)C=C4)C=C3)cc1
REMARK SMILES IDX 6 1 7 2 8 3 5 5 4 6 2 7 1 8 3 9 33 10 34 11 35 12 36 14
REMARK SMILES IDX 37 15 38 16 39 17 40 18 41 19 42 21 43 22 44 23 90 24 45 25
REMARK SMILES IDX 89 26 46 27 47 28 48 29 83 30 49 31 88 32 82 33 84 34 50 35
REMARK SMILES IDX 87 36 81 37 80 38 51 40 73 41 58 42 72 43 59 44 62 45 71 46
REMARK SMILES IDX 85 47 60 48 61 49 70 51 86 52 63 53 52 54 53 55 57 56 54 57
REMARK SMILES IDX 56 58 55 59 74 60 75 61 79 62 76 63 78 64 77 65 64 66 65 67
REMARK SMILES IDX 69 68 66 69 68 70 67 71 9 72 10 73 11 74 12 75 13 77 14 78
REMARK SMILES IDX 15 79 16 80 17 82 18 83 19 84 20 85 21 87 22 88 23 89 24 90
REMARK SMILES IDX 25 91 29 92 26 93 28 94 27 95 30 96 31 97 32 98
REMARK H PARENT 6 4 35 13 40 20 84 39 62 50 11 76 15 81 19 86
REMARK Flexibility Score: inf
ROOT
ATOM      1  N   UNL A   1      44.559  27.275  27.324  1.00  0.00    -0.343 N 
ATOM      2  C   UNL A   1      45.147  26.124  27.772  1.00  0.00     0.242 C 
ATOM      3  O   UNL A   1      46.327  26.221  28.131  1.00  0.00    -0.273 OA
ATOM      4  H   UNL A   1      45.187  27.937  26.955  1.00  0.00     0.164 HD
ENDROOT
BRANCH   1   5
ATOM      5  C   UNL A   1      43.157  27.687  27.301  1.00  0.00     0.171 C 
BRANCH   5   6
ATOM      6  C   UNL A   1      42.474  27.936  28.671  1.00  0.00     0.038 C 
BRANCH   6   7
ATOM      7  C   UNL A   1      41.119  28.677  28.814  1.00  0.00    -0.015 C 
ATOM      8  C   UNL A   1      39.922  27.930  29.408  1.00  0.00     0.007 C 
ATOM      9  C   UNL A   1      41.356  29.925  29.685  1.00  0.00     0.007 C 
ENDBRANCH   6   7
ENDBRANCH   5   6
BRANCH   5  10
ATOM     10  C   UNL A   1      42.819  28.752  26.232  1.00  0.00     0.242 C 
ATOM     11  O   UNL A   1      42.111  28.435  25.270  1.00  0.00    -0.273 OA
ATOM     12  N   UNL A   1      43.356  29.996  26.181  1.00  0.00    -0.354 N 
ATOM     13  H   UNL A   1      43.105  30.507  25.377  1.00  0.00     0.163 HD
BRANCH  12  14
ATOM     14  C   UNL A   1      44.227  30.715  27.085  1.00  0.00     0.116 C 
BRANCH  14  15
ATOM     15  C   UNL A   1      44.041  32.226  27.038  1.00  0.00     0.023 C 
BRANCH  15  16
ATOM     16  C   UNL A   1      44.517  32.867  25.740  1.00  0.00     0.023 C 
BRANCH  16  17
ATOM     17  C   UNL A   1      44.020  34.274  25.500  1.00  0.00     0.116 C 
BRANCH  17  18
ATOM     18  N   UNL A   1      45.095  35.245  25.554  1.00  0.00    -0.352 N 
ATOM     19  C   UNL A   1      45.420  36.079  26.594  1.00  0.00     0.251 C 
ATOM     20  H   UNL A   1      45.658  35.315  24.749  1.00  0.00     0.163 HD
ATOM     21  O   UNL A   1      46.205  37.005  26.428  1.00  0.00    -0.269 OA
BRANCH  19  22
ATOM     22  C   UNL A   1      44.782  35.860  27.908  1.00  0.00     0.039 A 
ATOM     23  C   UNL A   1      45.364  34.961  28.803  1.00  0.00     0.014 A 
ATOM     24  C   UNL A   1      43.635  36.575  28.268  1.00  0.00     0.014 A 
ATOM     25  C   UNL A   1      44.813  34.809  30.075  1.00  0.00     0.010 A 
ATOM     26  C   UNL A   1      43.155  36.502  29.567  1.00  0.00     0.010 A 
ATOM     27  C   UNL A   1      43.721  35.596  30.475  1.00  0.00    -0.014 A 
BRANCH  27  28
ATOM     28  C   UNL A   1      43.121  35.454  31.823  1.00  0.00     0.031 A 
ATOM     29  C   UNL A   1      41.952  34.526  32.022  1.00  0.00     0.074 A 
ATOM     30  C   UNL A   1      43.591  36.189  32.848  1.00  0.00     0.049 A 
ATOM     31  N   UNL A   1      41.260  34.290  33.107  1.00  0.00    -0.248 NA
ATOM     32  C   UNL A   1      41.476  33.789  30.838  1.00  0.00     0.031 C 
ATOM     33  C   UNL A   1      44.690  37.154  32.769  1.00  0.00     0.029 A 
ATOM     34  N   UNL A   1      43.200  36.237  34.162  1.00  0.00    -0.354 N 
ATOM     35  C   UNL A   1      40.261  33.402  32.730  1.00  0.00     0.074 A 
ATOM     36  C   UNL A   1      40.395  33.187  31.308  1.00  0.00     0.031 C 
ATOM     37  C   UNL A   1      44.912  37.667  33.991  1.00  0.00     0.029 A 
ATOM     38  C   UNL A   1      43.946  37.102  34.927  1.00  0.00     0.049 A 
ATOM     39  H   UNL A   1      42.457  35.702  34.523  1.00  0.00     0.167 HD
ATOM     40  C   UNL A   1      39.329  32.797  33.503  1.00  0.00     0.031 A 
ATOM     41  C   UNL A   1      43.859  37.401  36.235  1.00  0.00     0.031 A 
ATOM     42  C   UNL A   1      39.214  32.994  34.922  1.00  0.00     0.049 A 
ATOM     43  C   UNL A   1      42.811  36.720  37.072  1.00  0.00     0.074 A 
ATOM     44  C   UNL A   1      38.349  32.381  35.809  1.00  0.00     0.029 A 
ATOM     45  N   UNL A   1      39.991  33.876  35.658  1.00  0.00    -0.354 N 
ATOM     46  N   UNL A   1      41.922  35.825  36.715  1.00  0.00    -0.248 NA
ATOM     47  C   UNL A   1      42.763  37.084  38.494  1.00  0.00     0.031 C 
ATOM     48  C   UNL A   1      38.566  32.931  37.076  1.00  0.00     0.029 A 
ATOM     49  C   UNL A   1      39.607  33.842  36.987  1.00  0.00     0.049 A 
ATOM     50  H   UNL A   1      40.709  34.440  35.290  1.00  0.00     0.167 HD
ATOM     51  C   UNL A   1      41.231  35.495  37.874  1.00  0.00     0.074 A 
ATOM     52  C   UNL A   1      41.815  36.275  38.945  1.00  0.00     0.031 C 
ATOM     53  C   UNL A   1      40.204  34.625  38.038  1.00  0.00     0.031 A 
BRANCH  40  54
ATOM     54  C   UNL A   1      38.360  31.869  32.825  1.00  0.00    -0.014 A 
ATOM     55  C   UNL A   1      37.109  32.322  32.373  1.00  0.00     0.009 A 
ATOM     56  C   UNL A   1      38.713  30.528  32.608  1.00  0.00     0.009 A 
ATOM     57  C   UNL A   1      36.218  31.442  31.754  1.00  0.00     0.001 A 
ATOM     58  C   UNL A   1      37.834  29.659  31.960  1.00  0.00     0.001 A 
ATOM     59  C   UNL A   1      36.584  30.113  31.542  1.00  0.00     0.000 A 
ENDBRANCH  40  54
BRANCH  41  60
ATOM     60  C   UNL A   1      44.803  38.376  36.845  1.00  0.00    -0.014 A 
ATOM     61  C   UNL A   1      46.008  37.937  37.416  1.00  0.00     0.009 A 
ATOM     62  C   UNL A   1      44.501  39.746  36.871  1.00  0.00     0.009 A 
ATOM     63  C   UNL A   1      46.875  38.846  38.028  1.00  0.00     0.001 A 
ATOM     64  C   UNL A   1      45.385  40.656  37.455  1.00  0.00     0.001 A 
ATOM     65  C   UNL A   1      46.565  40.205  38.043  1.00  0.00     0.000 A 
ENDBRANCH  41  60
BRANCH  53  66
ATOM     66  C   UNL A   1      39.676  34.442  39.431  1.00  0.00    -0.014 A 
ATOM     67  C   UNL A   1      40.098  33.376  40.239  1.00  0.00     0.009 A 
ATOM     68  C   UNL A   1      38.774  35.383  39.958  1.00  0.00     0.009 A 
ATOM     69  C   UNL A   1      39.599  33.234  41.536  1.00  0.00     0.001 A 
ATOM     70  C   UNL A   1      38.303  35.256  41.265  1.00  0.00     0.001 A 
ATOM     71  C   UNL A   1      38.707  34.177  42.049  1.00  0.00     0.000 A 
ENDBRANCH  53  66
ENDBRANCH  27  28
ENDBRANCH  19  22
ENDBRANCH  17  18
ENDBRANCH  16  17
ENDBRANCH  15  16
ENDBRANCH  14  15
ENDBRANCH  12  14
ENDBRANCH   5  10
ENDBRANCH   1   5
BRANCH   2  72
ATOM     72  C   UNL A   1      44.409  24.761  27.854  1.00  0.00     0.168 C 
ATOM     73  C   UNL A   1      45.249  23.717  28.577  1.00  0.00     0.041 C 
BRANCH  72  74
ATOM     74  N   UNL A   1      44.191  24.312  26.472  1.00  0.00    -0.343 N 
ATOM     75  C   UNL A   1      43.218  23.644  25.813  1.00  0.00     0.243 C 
ATOM     76  H   UNL A   1      44.937  24.559  25.879  1.00  0.00     0.164 HD
ATOM     77  O   UNL A   1      43.527  23.236  24.684  1.00  0.00    -0.273 OA
BRANCH  75  78
ATOM     78  C   UNL A   1      41.736  23.510  26.271  1.00  0.00     0.174 C 
BRANCH  78  79
ATOM     79  N   UNL A   1      41.368  22.242  26.923  1.00  0.00    -0.343 N 
ATOM     80  C   UNL A   1      40.374  21.326  26.802  1.00  0.00     0.240 C 
ATOM     81  H   UNL A   1      42.010  21.994  27.627  1.00  0.00     0.164 HD
ATOM     82  O   UNL A   1      40.556  20.249  27.386  1.00  0.00    -0.273 OA
BRANCH  80  83
ATOM     83  C   UNL A   1      39.146  21.484  25.896  1.00  0.00     0.219 C 
BRANCH  83  84
ATOM     84  N   UNL A   1      38.181  22.476  26.328  1.00  0.00    -0.312 N 
ATOM     85  C   UNL A   1      37.079  22.953  25.680  1.00  0.00     0.407 C 
ATOM     86  H   UNL A   1      38.344  22.863  27.218  1.00  0.00     0.167 HD
ATOM     87  O   UNL A   1      36.513  23.944  26.097  1.00  0.00    -0.225 OA
BRANCH  85  88
ATOM     88  O   UNL A   1      36.758  22.247  24.566  1.00  0.00    -0.445 OA
BRANCH  88  89
ATOM     89  C   UNL A   1      35.581  21.424  24.680  1.00  0.00     0.270 C 
BRANCH  89  90
ATOM     90  C   UNL A   1      34.357  22.053  24.063  1.00  0.00    -0.011 A 
ATOM     91  C   UNL A   1      34.498  22.983  23.023  1.00  0.00     0.007 A 
ATOM     92  C   UNL A   1      33.081  21.785  24.568  1.00  0.00     0.007 A 
ATOM     93  C   UNL A   1      33.390  23.672  22.535  1.00  0.00     0.000 A 
ATOM     94  C   UNL A   1      31.974  22.485  24.089  1.00  0.00     0.000 A 
ATOM     95  C   UNL A   1      32.129  23.434  23.079  1.00  0.00     0.000 A 
ENDBRANCH  89  90
ENDBRANCH  88  89
ENDBRANCH  85  88
ENDBRANCH  83  84
ENDBRANCH  80  83
ENDBRANCH  78  79
BRANCH  78  96
ATOM     96  C   UNL A   1      41.201  24.795  26.947  1.00  0.00     0.015 C 
ATOM     97  C   UNL A   1      40.155  25.584  26.157  1.00  0.00     0.010 C 
ATOM     98  C   UNL A   1      40.703  24.582  28.382  1.00  0.00     0.010 C 
ENDBRANCH  78  96
ENDBRANCH  75  78
ENDBRANCH  72  74
ENDBRANCH   2  72
TORSDOF 24
ENDMDL
MODEL 3
REMARK VINA RESULT:      -7.3      4.277      9.428
REMARK SMILES CC(C)C[C@H](NC(=O)[C@H](C)NC(=O)[C@@H](NC(=O)CNC(=O)OCc1ccccc1)C(C)C)C(=O)NCCCCNC(=O)c1ccc(-c2c3nc(c(-c4ccccc4)c4ccc([nH]4)c(-c4ccccc4)c4nc(c(-c5ccccc5)c5ccc2[nH]5)C=C4)C=C3)cc1
REMARK SMILES IDX 6 1 7 2 8 3 5 5 4 6 2 7 1 8 3 9 33 10 34 11 35 12 36 14
REMARK SMILES IDX 37 15 38 16 39 17 40 18 41 19 42 21 43 22 44 23 90 24 45 25
REMARK SMILES IDX 89 26 46 27 47 28 48 29 83 30 49 31 88 32 82 33 84 34 50 35
REMARK SMILES IDX 87 36 81 37 80 38 51 40 73 41 58 42 72 43 59 44 62 45 71 46
REMARK SMILES IDX 85 47 60 48 61 49 70 51 86 52 63 53 52 54 53 55 57 56 54 57
REMARK SMILES IDX 56 58 55 59 74 60 75 61 79 62 76 63 78 64 77 65 64 66 65 67
REMARK SMILES IDX 69 68 66 69 68 70 67 71 9 72 10 73 11 74 12 75 13 77 14 78
REMARK SMILES IDX 15 79 16 80 17 82 18 83 19 84 20 85 21 87 22 88 23 89 24 90
REMARK SMILES IDX 25 91 29 92 26 93 28 94 27 95 30 96 31 97 32 98
REMARK H PARENT 6 4 35 13 40 20 84 39 62 50 11 76 15 81 19 86
REMARK Flexibility Score: inf
ROOT
ATOM      1  N   UNL A   1      44.832  27.316  27.080  1.00  0.00    -0.343 N 
ATOM      2  C   UNL A   1      45.398  26.122  27.432  1.00  0.00     0.242 C 
ATOM      3  O   UNL A   1      46.625  26.129  27.595  1.00  0.00    -0.273 OA
ATOM      4  H   UNL A   1      45.439  27.933  26.610  1.00  0.00     0.164 HD
ENDROOT
BRANCH   1   5
ATOM      5  C   UNL A   1      43.480  27.831  27.281  1.00  0.00     0.171 C 
BRANCH   5   6
ATOM      6  C   UNL A   1      43.035  28.086  28.744  1.00  0.00     0.038 C 
BRANCH   6   7
ATOM      7  C   UNL A   1      41.788  28.935  29.110  1.00  0.00    -0.015 C 
ATOM      8  C   UNL A   1      40.488  28.221  29.491  1.00  0.00     0.007 C 
ATOM      9  C   UNL A   1      42.170  29.847  30.290  1.00  0.00     0.007 C 
ENDBRANCH   6   7
ENDBRANCH   5   6
BRANCH   5  10
ATOM     10  C   UNL A   1      43.066  28.950  26.298  1.00  0.00     0.242 C 
ATOM     11  O   UNL A   1      42.267  28.690  25.391  1.00  0.00    -0.273 OA
ATOM     12  N   UNL A   1      43.618  30.187  26.255  1.00  0.00    -0.354 N 
ATOM     13  H   UNL A   1      43.305  30.739  25.502  1.00  0.00     0.163 HD
BRANCH  12  14
ATOM     14  C   UNL A   1      44.581  30.851  27.109  1.00  0.00     0.116 C 
BRANCH  14  15
ATOM     15  C   UNL A   1      44.476  32.369  27.079  1.00  0.00     0.023 C 
BRANCH  15  16
ATOM     16  C   UNL A   1      44.639  32.974  25.691  1.00  0.00     0.023 C 
BRANCH  16  17
ATOM     17  C   UNL A   1      44.093  34.374  25.532  1.00  0.00     0.116 C 
BRANCH  17  18
ATOM     18  N   UNL A   1      45.141  35.375  25.584  1.00  0.00    -0.352 N 
ATOM     19  C   UNL A   1      45.455  36.207  26.628  1.00  0.00     0.251 C 
ATOM     20  H   UNL A   1      45.693  35.467  24.774  1.00  0.00     0.163 HD
ATOM     21  O   UNL A   1      46.211  37.157  26.463  1.00  0.00    -0.269 OA
BRANCH  19  22
ATOM     22  C   UNL A   1      44.836  35.959  27.947  1.00  0.00     0.039 A 
ATOM     23  C   UNL A   1      45.504  35.150  28.867  1.00  0.00     0.014 A 
ATOM     24  C   UNL A   1      43.620  36.561  28.285  1.00  0.00     0.014 A 
ATOM     25  C   UNL A   1      44.966  34.976  30.142  1.00  0.00     0.010 A 
ATOM     26  C   UNL A   1      43.145  36.474  29.585  1.00  0.00     0.010 A 
ATOM     27  C   UNL A   1      43.797  35.656  30.518  1.00  0.00    -0.014 A 
BRANCH  27  28
ATOM     28  C   UNL A   1      43.208  35.489  31.868  1.00  0.00     0.031 A 
ATOM     29  C   UNL A   1      43.707  36.339  33.007  1.00  0.00     0.074 A 
ATOM     30  C   UNL A   1      42.269  34.548  32.080  1.00  0.00     0.049 A 
ATOM     31  N   UNL A   1      43.354  36.321  34.267  1.00  0.00    -0.248 NA
ATOM     32  C   UNL A   1      44.765  37.317  32.696  1.00  0.00     0.031 C 
ATOM     33  C   UNL A   1      41.737  33.635  31.065  1.00  0.00     0.029 A 
ATOM     34  N   UNL A   1      41.593  34.205  33.223  1.00  0.00    -0.354 N 
ATOM     35  C   UNL A   1      44.160  37.262  34.896  1.00  0.00     0.074 A 
ATOM     36  C   UNL A   1      45.060  37.790  33.897  1.00  0.00     0.031 C 
ATOM     37  C   UNL A   1      40.788  32.865  31.623  1.00  0.00     0.029 A 
ATOM     38  C   UNL A   1      40.676  33.199  33.039  1.00  0.00     0.049 A 
ATOM     39  H   UNL A   1      41.750  34.640  34.092  1.00  0.00     0.167 HD
ATOM     40  C   UNL A   1      44.136  37.671  36.186  1.00  0.00     0.031 A 
ATOM     41  C   UNL A   1      39.839  32.614  33.915  1.00  0.00     0.031 A 
ATOM     42  C   UNL A   1      43.223  37.161  37.171  1.00  0.00     0.049 A 
ATOM     43  C   UNL A   1      39.836  33.083  35.345  1.00  0.00     0.074 A 
ATOM     44  C   UNL A   1      43.070  37.554  38.488  1.00  0.00     0.029 A 
ATOM     45  N   UNL A   1      42.307  36.145  36.943  1.00  0.00    -0.354 N 
ATOM     46  N   UNL A   1      40.551  34.027  35.907  1.00  0.00    -0.248 NA
ATOM     47  C   UNL A   1      38.901  32.411  36.257  1.00  0.00     0.031 C 
ATOM     48  C   UNL A   1      42.098  36.737  39.074  1.00  0.00     0.029 A 
ATOM     49  C   UNL A   1      41.604  35.878  38.104  1.00  0.00     0.049 A 
ATOM     50  H   UNL A   1      42.177  35.684  36.083  1.00  0.00     0.167 HD
ATOM     51  C   UNL A   1      40.130  34.084  37.229  1.00  0.00     0.074 A 
ATOM     52  C   UNL A   1      39.088  33.090  37.379  1.00  0.00     0.031 C 
ATOM     53  C   UNL A   1      40.567  34.886  38.231  1.00  0.00     0.031 A 
BRANCH  40  54
ATOM     54  C   UNL A   1      45.132  38.718  36.601  1.00  0.00    -0.014 A 
ATOM     55  C   UNL A   1      44.810  40.085  36.575  1.00  0.00     0.009 A 
ATOM     56  C   UNL A   1      46.404  38.331  37.051  1.00  0.00     0.009 A 
ATOM     57  C   UNL A   1      45.753  41.042  36.956  1.00  0.00     0.001 A 
ATOM     58  C   UNL A   1      47.333  39.288  37.462  1.00  0.00     0.001 A 
ATOM     59  C   UNL A   1      47.011  40.643  37.404  1.00  0.00     0.000 A 
ENDBRANCH  40  54
BRANCH  41  60
ATOM     60  C   UNL A   1      38.917  31.537  33.467  1.00  0.00    -0.014 A 
ATOM     61  C   UNL A   1      39.337  30.198  33.464  1.00  0.00     0.009 A 
ATOM     62  C   UNL A   1      37.620  31.841  33.028  1.00  0.00     0.009 A 
ATOM     63  C   UNL A   1      38.487  29.189  33.002  1.00  0.00     0.001 A 
ATOM     64  C   UNL A   1      36.761  30.827  32.597  1.00  0.00     0.001 A 
ATOM     65  C   UNL A   1      37.198  29.504  32.574  1.00  0.00     0.000 A 
ENDBRANCH  41  60
BRANCH  53  66
ATOM     66  C   UNL A   1      39.891  34.749  39.564  1.00  0.00    -0.014 A 
ATOM     67  C   UNL A   1      38.870  35.625  39.960  1.00  0.00     0.009 A 
ATOM     68  C   UNL A   1      40.254  33.694  40.418  1.00  0.00     0.009 A 
ATOM     69  C   UNL A   1      38.249  35.471  41.201  1.00  0.00     0.001 A 
ATOM     70  C   UNL A   1      39.609  33.523  41.644  1.00  0.00     0.001 A 
ATOM     71  C   UNL A   1      38.615  34.416  42.038  1.00  0.00     0.000 A 
ENDBRANCH  53  66
ENDBRANCH  27  28
ENDBRANCH  19  22
ENDBRANCH  17  18
ENDBRANCH  16  17
ENDBRANCH  15  16
ENDBRANCH  14  15
ENDBRANCH  12  14
ENDBRANCH   5  10
ENDBRANCH   1   5
BRANCH   2  72
ATOM     72  C   UNL A   1      44.584  24.817  27.639  1.00  0.00     0.168 C 
ATOM     73  C   UNL A   1      45.412  23.752  28.347  1.00  0.00     0.041 C 
BRANCH  72  74
ATOM     74  N   UNL A   1      44.228  24.321  26.302  1.00  0.00    -0.343 N 
ATOM     75  C   UNL A   1      43.184  23.653  25.763  1.00  0.00     0.243 C 
ATOM     76  H   UNL A   1      44.920  24.528  25.633  1.00  0.00     0.164 HD
ATOM     77  O   UNL A   1      43.377  23.196  24.627  1.00  0.00    -0.273 OA
BRANCH  75  78
ATOM     78  C   UNL A   1      41.750  23.571  26.363  1.00  0.00     0.174 C 
BRANCH  78  79
ATOM     79  N   UNL A   1      41.435  22.360  27.139  1.00  0.00    -0.343 N 
ATOM     80  C   UNL A   1      40.549  21.337  27.049  1.00  0.00     0.240 C 
ATOM     81  H   UNL A   1      42.021  22.269  27.926  1.00  0.00     0.164 HD
ATOM     82  O   UNL A   1      40.768  20.365  27.785  1.00  0.00    -0.273 OA
BRANCH  80  83
ATOM     83  C   UNL A   1      39.412  21.253  26.023  1.00  0.00     0.219 C 
BRANCH  83  84
ATOM     84  N   UNL A   1      38.662  22.479  25.827  1.00  0.00    -0.312 N 
ATOM     85  C   UNL A   1      37.378  22.650  25.400  1.00  0.00     0.407 C 
ATOM     86  H   UNL A   1      39.150  23.308  26.032  1.00  0.00     0.167 HD
ATOM     87  O   UNL A   1      36.988  23.755  25.081  1.00  0.00    -0.225 OA
BRANCH  85  88
ATOM     88  O   UNL A   1      36.668  21.494  25.343  1.00  0.00    -0.445 OA
BRANCH  88  89
ATOM     89  C   UNL A   1      35.386  21.528  26.000  1.00  0.00     0.270 C 
BRANCH  89  90
ATOM     90  C   UNL A   1      34.244  21.154  25.089  1.00  0.00    -0.011 A 
ATOM     91  C   UNL A   1      33.886  19.807  24.933  1.00  0.00     0.007 A 
ATOM     92  C   UNL A   1      33.585  22.125  24.330  1.00  0.00     0.007 A 
ATOM     93  C   UNL A   1      32.925  19.434  23.996  1.00  0.00     0.000 A 
ATOM     94  C   UNL A   1      32.632  21.750  23.382  1.00  0.00     0.000 A 
ATOM     95  C   UNL A   1      32.309  20.405  23.210  1.00  0.00     0.000 A 
ENDBRANCH  89  90
ENDBRANCH  88  89
ENDBRANCH  85  88
ENDBRANCH  83  84
ENDBRANCH  80  83
ENDBRANCH  78  79
BRANCH  78  96
ATOM     96  C   UNL A   1      41.285  24.910  26.985  1.00  0.00     0.015 C 
ATOM     97  C   UNL A   1      40.632  25.907  26.025  1.00  0.00     0.010 C 
ATOM     98  C   UNL A   1      40.402  24.745  28.227  1.00  0.00     0.010 C 
ENDBRANCH  78  96
ENDBRANCH  75  78
ENDBRANCH  72  74
ENDBRANCH   2  72
TORSDOF 24
ENDMDL
