MODEL 1
REMARK VINA RESULT:     -11.8      0.000      0.000
REMARK SMILES C[C@@H]1CN(c2cc(C(=O)NCCCCNC(=O)c3ccc(-c4c5nc(c(-c6ccccc6)c6ccc([nH]6)c(-c6ccccc6)c6nc(c(-c7ccccc7)c7ccc4[nH]7)C=C6)C=C5)cc3)c(F)cc2F)S(=O)(=O)C1
REMARK SMILES IDX 13 1 12 2 11 3 10 4 8 5 9 6 7 8 5 9 6 10 69 11 68 12 70 13
REMARK SMILES IDX 66 14 67 15 4 16 1 17 2 18 3 19 74 20 71 21 72 22 73 23
REMARK SMILES IDX 14 24 15 25 16 26 17 28 18 29 19 30 65 31 20 32 64 33 21 34
REMARK SMILES IDX 22 35 23 36 58 37 24 38 63 39 57 40 59 41 25 42 62 43 56 44
REMARK SMILES IDX 55 45 26 47 48 48 33 49 47 50 34 51 37 52 46 53 60 54 35 55
REMARK SMILES IDX 36 56 45 58 61 59 38 60 27 61 28 62 32 63 29 64 31 65 30 66
REMARK SMILES IDX 49 67 50 68 54 69 51 70 53 71 52 72 39 73 40 74 44 75 41 76
REMARK SMILES IDX 43 77 42 78
REMARK H PARENT 10 7 15 27 59 46 37 57
REMARK Flexibility Score: inf
ROOT
ATOM      1  C   UNL A   1      38.134  20.001  24.931  1.00  0.00     0.023 C 
ENDROOT
BRANCH   1   2
ATOM      2  C   UNL A   1      37.324  21.257  24.655  1.00  0.00     0.023 C 
BRANCH   2   3
ATOM      3  C   UNL A   1      36.895  22.067  25.869  1.00  0.00     0.116 C 
BRANCH   3   4
ATOM      4  N   UNL A   1      35.558  21.773  26.342  1.00  0.00    -0.352 N 
ATOM      5  C   UNL A   1      34.338  22.353  26.105  1.00  0.00     0.254 C 
ATOM      6  O   UNL A   1      33.371  21.820  26.660  1.00  0.00    -0.269 OA
ATOM      7  H   UNL A   1      35.518  21.004  26.955  1.00  0.00     0.163 HD
BRANCH   5   8
ATOM      8  C   UNL A   1      34.100  23.604  25.327  1.00  0.00     0.077 A 
ATOM      9  C   UNL A   1      33.714  26.010  25.467  1.00  0.00     0.088 A 
ATOM     10  C   UNL A   1      33.912  24.774  26.087  1.00  0.00     0.047 A 
ATOM     11  C   UNL A   1      33.917  26.122  24.094  1.00  0.00     0.150 A 
ATOM     12  C   UNL A   1      34.008  24.979  23.319  1.00  0.00     0.081 A 
ATOM     13  F   UNL A   1      33.954  27.321  23.497  1.00  0.00    -0.205 F 
ATOM     14  C   UNL A   1      33.997  23.729  23.940  1.00  0.00     0.139 A 
ATOM     15  F   UNL A   1      33.775  22.677  23.143  1.00  0.00    -0.206 F 
BRANCH   9  16
ATOM     16  N   UNL A   1      33.255  27.086  26.282  1.00  0.00    -0.267 N 
ATOM     17  C   UNL A   1      33.869  30.693  27.178  1.00  0.00     0.011 C 
ATOM     18  C   UNL A   1      33.207  29.329  27.148  1.00  0.00     0.023 C 
ATOM     19  C   UNL A   1      34.136  28.219  26.622  1.00  0.00     0.140 C 
ATOM     20  C   UNL A   1      31.975  29.287  26.247  1.00  0.00     0.165 C 
ATOM     21  S   UNL A   1      31.604  27.547  26.156  1.00  0.00     0.235 S 
ATOM     22  O   UNL A   1      31.052  27.236  24.862  1.00  0.00    -0.206 OA
ATOM     23  O   UNL A   1      30.945  27.152  27.385  1.00  0.00    -0.206 OA
ENDBRANCH   9  16
ENDBRANCH   5   8
ENDBRANCH   3   4
ENDBRANCH   2   3
ENDBRANCH   1   2
BRANCH   1  24
ATOM     24  C   UNL A   1      39.316  20.170  25.876  1.00  0.00     0.116 C 
BRANCH  24  25
ATOM     25  N   UNL A   1      40.259  19.057  25.855  1.00  0.00    -0.352 N 
ATOM     26  C   UNL A   1      41.616  19.065  26.081  1.00  0.00     0.251 C 
ATOM     27  H   UNL A   1      39.869  18.176  25.650  1.00  0.00     0.163 HD
ATOM     28  O   UNL A   1      42.284  18.048  25.939  1.00  0.00    -0.269 OA
BRANCH  26  29
ATOM     29  C   UNL A   1      42.269  20.336  26.453  1.00  0.00     0.039 A 
ATOM     30  C   UNL A   1      42.888  21.097  25.459  1.00  0.00     0.014 A 
ATOM     31  C   UNL A   1      42.181  20.812  27.762  1.00  0.00     0.014 A 
ATOM     32  C   UNL A   1      43.330  22.385  25.760  1.00  0.00     0.010 A 
ATOM     33  C   UNL A   1      42.533  22.127  28.035  1.00  0.00     0.010 A 
ATOM     34  C   UNL A   1      43.104  22.930  27.035  1.00  0.00    -0.014 A 
BRANCH  34  35
ATOM     35  C   UNL A   1      43.435  24.343  27.342  1.00  0.00     0.031 A 
ATOM     36  C   UNL A   1      44.865  24.806  27.314  1.00  0.00     0.074 A 
ATOM     37  C   UNL A   1      42.459  25.191  27.720  1.00  0.00     0.049 A 
ATOM     38  N   UNL A   1      45.357  25.984  27.601  1.00  0.00    -0.248 NA
ATOM     39  C   UNL A   1      45.875  23.804  26.939  1.00  0.00     0.031 C 
ATOM     40  C   UNL A   1      41.037  24.858  27.825  1.00  0.00     0.029 A 
ATOM     41  N   UNL A   1      42.518  26.512  28.090  1.00  0.00    -0.354 N 
ATOM     42  C   UNL A   1      46.732  25.859  27.456  1.00  0.00     0.074 A 
ATOM     43  C   UNL A   1      46.999  24.477  27.124  1.00  0.00     0.031 C 
ATOM     44  C   UNL A   1      40.354  25.957  28.185  1.00  0.00     0.029 A 
ATOM     45  C   UNL A   1      41.291  27.055  28.386  1.00  0.00     0.049 A 
ATOM     46  H   UNL A   1      43.359  27.021  28.137  1.00  0.00     0.167 HD
ATOM     47  C   UNL A   1      47.689  26.813  27.564  1.00  0.00     0.031 A 
ATOM     48  C   UNL A   1      40.960  28.300  28.779  1.00  0.00     0.031 A 
ATOM     49  C   UNL A   1      47.423  28.184  27.909  1.00  0.00     0.049 A 
ATOM     50  C   UNL A   1      42.042  29.328  28.949  1.00  0.00     0.074 A 
ATOM     51  C   UNL A   1      48.313  29.239  28.001  1.00  0.00     0.029 A 
ATOM     52  N   UNL A   1      46.171  28.687  28.232  1.00  0.00    -0.354 N 
ATOM     53  N   UNL A   1      43.330  29.216  28.738  1.00  0.00    -0.248 NA
ATOM     54  C   UNL A   1      41.619  30.659  29.408  1.00  0.00     0.031 C 
ATOM     55  C   UNL A   1      47.610  30.364  28.446  1.00  0.00     0.029 A 
ATOM     56  C   UNL A   1      46.271  30.028  28.560  1.00  0.00     0.049 A 
ATOM     57  H   UNL A   1      45.335  28.167  28.228  1.00  0.00     0.167 HD
ATOM     58  C   UNL A   1      43.870  30.467  29.009  1.00  0.00     0.074 A 
ATOM     59  C   UNL A   1      42.765  31.325  29.387  1.00  0.00     0.031 C 
ATOM     60  C   UNL A   1      45.164  30.869  28.946  1.00  0.00     0.031 A 
BRANCH  47  61
ATOM     61  C   UNL A   1      49.111  26.382  27.329  1.00  0.00    -0.014 A 
ATOM     62  C   UNL A   1      49.929  25.947  28.388  1.00  0.00     0.009 A 
ATOM     63  C   UNL A   1      49.650  26.424  26.034  1.00  0.00     0.009 A 
ATOM     64  C   UNL A   1      51.268  25.624  28.163  1.00  0.00     0.001 A 
ATOM     65  C   UNL A   1      50.980  26.063  25.806  1.00  0.00     0.001 A 
ATOM     66  C   UNL A   1      51.791  25.679  26.873  1.00  0.00     0.000 A 
ENDBRANCH  47  61
BRANCH  48  67
ATOM     67  C   UNL A   1      39.533  28.651  29.002  1.00  0.00    -0.014 A 
ATOM     68  C   UNL A   1      38.947  28.459  30.263  1.00  0.00     0.009 A 
ATOM     69  C   UNL A   1      38.752  29.193  27.967  1.00  0.00     0.009 A 
ATOM     70  C   UNL A   1      37.607  28.786  30.480  1.00  0.00     0.001 A 
ATOM     71  C   UNL A   1      37.420  29.545  28.196  1.00  0.00     0.001 A 
ATOM     72  C   UNL A   1      36.846  29.335  29.448  1.00  0.00     0.000 A 
ENDBRANCH  48  67
BRANCH  60  73
ATOM     73  C   UNL A   1      45.454  32.310  29.263  1.00  0.00    -0.014 A 
ATOM     74  C   UNL A   1      45.758  32.727  30.568  1.00  0.00     0.009 A 
ATOM     75  C   UNL A   1      45.466  33.259  28.227  1.00  0.00     0.009 A 
ATOM     76  C   UNL A   1      46.037  34.070  30.834  1.00  0.00     0.001 A 
ATOM     77  C   UNL A   1      45.778  34.594  28.491  1.00  0.00     0.001 A 
ATOM     78  C   UNL A   1      46.053  35.000  29.795  1.00  0.00     0.000 A 
ENDBRANCH  60  73
ENDBRANCH  34  35
ENDBRANCH  26  29
ENDBRANCH  24  25
ENDBRANCH   1  24
TORSDOF 12
ENDMDL
MODEL 2
REMARK VINA RESULT:     -11.8      1.896      2.543
REMARK SMILES C[C@@H]1CN(c2cc(C(=O)NCCCCNC(=O)c3ccc(-c4c5nc(c(-c6ccccc6)c6ccc([nH]6)c(-c6ccccc6)c6nc(c(-c7ccccc7)c7ccc4[nH]7)C=C6)C=C5)cc3)c(F)cc2F)S(=O)(=O)C1
REMARK SMILES IDX 13 1 12 2 11 3 10 4 8 5 9 6 7 8 5 9 6 10 69 11 68 12 70 13
REMARK SMILES IDX 66 14 67 15 4 16 1 17 2 18 3 19 74 20 71 21 72 22 73 23
REMARK SMILES IDX 14 24 15 25 16 26 17 28 18 29 19 30 65 31 20 32 64 33 21 34
REMARK SMILES IDX 22 35 23 36 58 37 24 38 63 39 57 40 59 41 25 42 62 43 56 44
REMARK SMILES IDX 55 45 26 47 48 48 33 49 47 50 34 51 37 52 46 53 60 54 35 55
REMARK SMILES IDX 36 56 45 58 61 59 38 60 27 61 28 62 32 63 29 64 31 65 30 66
REMARK SMILES IDX 49 67 50 68 54 69 51 70 53 71 52 72 39 73 40 74 44 75 41 76
REMARK SMILES IDX 43 77 42 78
REMARK H PARENT 10 7 15 27 59 46 37 57
REMARK Flexibility Score: inf
ROOT
ATOM      1  C   UNL A   1      37.765  20.116  25.072  1.00  0.00     0.023 C 
ENDROOT
BRANCH   1   2
ATOM      2  C   UNL A   1      37.049  21.322  24.485  1.00  0.00     0.023 C 
BRANCH   2   3
ATOM      3  C   UNL A   1      36.755  22.469  25.440  1.00  0.00     0.116 C 
BRANCH   3   4
ATOM      4  N   UNL A   1      35.864  22.126  26.529  1.00  0.00    -0.352 N 
ATOM      5  C   UNL A   1      34.588  21.625  26.564  1.00  0.00     0.254 C 
ATOM      6  O   UNL A   1      34.121  21.416  27.688  1.00  0.00    -0.269 OA
ATOM      7  H   UNL A   1      36.251  22.284  27.420  1.00  0.00     0.163 HD
BRANCH   5   8
ATOM      8  C   UNL A   1      33.701  21.405  25.383  1.00  0.00     0.077 A 
ATOM      9  C   UNL A   1      32.565  22.470  23.503  1.00  0.00     0.088 A 
ATOM     10  C   UNL A   1      33.362  22.557  24.647  1.00  0.00     0.047 A 
ATOM     11  C   UNL A   1      32.280  21.217  22.966  1.00  0.00     0.150 A 
ATOM     12  C   UNL A   1      32.519  20.080  23.717  1.00  0.00     0.081 A 
ATOM     13  F   UNL A   1      31.712  21.096  21.759  1.00  0.00    -0.205 F 
ATOM     14  C   UNL A   1      33.136  20.199  24.963  1.00  0.00     0.139 A 
ATOM     15  F   UNL A   1      33.060  19.130  25.764  1.00  0.00    -0.206 F 
BRANCH   9  16
ATOM     16  N   UNL A   1      32.037  23.686  22.979  1.00  0.00    -0.267 N 
ATOM     17  C   UNL A   1      29.988  26.728  23.838  1.00  0.00     0.011 C 
ATOM     18  C   UNL A   1      30.857  25.780  23.034  1.00  0.00     0.023 C 
ATOM     19  C   UNL A   1      30.878  24.350  23.603  1.00  0.00     0.140 C 
ATOM     20  C   UNL A   1      32.319  26.217  22.981  1.00  0.00     0.165 C 
ATOM     21  S   UNL A   1      33.134  24.802  22.268  1.00  0.00     0.235 S 
ATOM     22  O   UNL A   1      34.462  24.681  22.816  1.00  0.00    -0.206 OA
ATOM     23  O   UNL A   1      32.892  24.804  20.839  1.00  0.00    -0.206 OA
ENDBRANCH   9  16
ENDBRANCH   5   8
ENDBRANCH   3   4
ENDBRANCH   2   3
ENDBRANCH   1   2
BRANCH   1  24
ATOM     24  C   UNL A   1      39.085  20.407  25.773  1.00  0.00     0.116 C 
BRANCH  24  25
ATOM     25  N   UNL A   1      40.000  19.272  25.814  1.00  0.00    -0.352 N 
ATOM     26  C   UNL A   1      41.346  19.252  26.096  1.00  0.00     0.251 C 
ATOM     27  H   UNL A   1      39.597  18.396  25.612  1.00  0.00     0.163 HD
ATOM     28  O   UNL A   1      41.994  18.216  26.004  1.00  0.00    -0.269 OA
BRANCH  26  29
ATOM     29  C   UNL A   1      42.014  20.514  26.469  1.00  0.00     0.039 A 
ATOM     30  C   UNL A   1      42.501  21.347  25.461  1.00  0.00     0.014 A 
ATOM     31  C   UNL A   1      42.069  20.910  27.807  1.00  0.00     0.014 A 
ATOM     32  C   UNL A   1      42.953  22.626  25.788  1.00  0.00     0.010 A 
ATOM     33  C   UNL A   1      42.426  22.215  28.119  1.00  0.00     0.010 A 
ATOM     34  C   UNL A   1      42.864  23.089  27.111  1.00  0.00    -0.014 A 
BRANCH  34  35
ATOM     35  C   UNL A   1      43.203  24.489  27.465  1.00  0.00     0.031 A 
ATOM     36  C   UNL A   1      44.639  24.933  27.496  1.00  0.00     0.074 A 
ATOM     37  C   UNL A   1      42.226  25.341  27.832  1.00  0.00     0.049 A 
ATOM     38  N   UNL A   1      45.137  26.097  27.829  1.00  0.00    -0.248 NA
ATOM     39  C   UNL A   1      45.649  23.927  27.131  1.00  0.00     0.031 C 
ATOM     40  C   UNL A   1      40.797  25.025  27.881  1.00  0.00     0.029 A 
ATOM     41  N   UNL A   1      42.289  26.651  28.237  1.00  0.00    -0.354 N 
ATOM     42  C   UNL A   1      46.514  25.957  27.727  1.00  0.00     0.074 A 
ATOM     43  C   UNL A   1      46.774  24.580  27.369  1.00  0.00     0.031 C 
ATOM     44  C   UNL A   1      40.116  26.124  28.245  1.00  0.00     0.029 A 
ATOM     45  C   UNL A   1      41.061  27.204  28.506  1.00  0.00     0.049 A 
ATOM     46  H   UNL A   1      43.135  27.148  28.325  1.00  0.00     0.167 HD
ATOM     47  C   UNL A   1      47.479  26.893  27.892  1.00  0.00     0.031 A 
ATOM     48  C   UNL A   1      40.732  28.443  28.918  1.00  0.00     0.031 A 
ATOM     49  C   UNL A   1      47.219  28.259  28.262  1.00  0.00     0.049 A 
ATOM     50  C   UNL A   1      41.822  29.452  29.151  1.00  0.00     0.074 A 
ATOM     51  C   UNL A   1      48.119  29.299  28.411  1.00  0.00     0.029 A 
ATOM     52  N   UNL A   1      45.964  28.771  28.556  1.00  0.00    -0.354 N 
ATOM     53  N   UNL A   1      43.115  29.327  28.980  1.00  0.00    -0.248 NA
ATOM     54  C   UNL A   1      41.401  30.777  29.629  1.00  0.00     0.031 C 
ATOM     55  C   UNL A   1      47.417  30.423  28.860  1.00  0.00     0.029 A 
ATOM     56  C   UNL A   1      46.070  30.103  28.921  1.00  0.00     0.049 A 
ATOM     57  H   UNL A   1      45.122  28.263  28.511  1.00  0.00     0.167 HD
ATOM     58  C   UNL A   1      43.662  30.563  29.301  1.00  0.00     0.074 A 
ATOM     59  C   UNL A   1      42.555  31.427  29.663  1.00  0.00     0.031 C 
ATOM     60  C   UNL A   1      44.962  30.949  29.291  1.00  0.00     0.031 A 
BRANCH  47  61
ATOM     61  C   UNL A   1      48.903  26.449  27.693  1.00  0.00    -0.014 A 
ATOM     62  C   UNL A   1      49.688  26.005  28.773  1.00  0.00     0.009 A 
ATOM     63  C   UNL A   1      49.476  26.487  26.414  1.00  0.00     0.009 A 
ATOM     64  C   UNL A   1      51.029  25.669  28.583  1.00  0.00     0.001 A 
ATOM     65  C   UNL A   1      50.807  26.113  26.220  1.00  0.00     0.001 A 
ATOM     66  C   UNL A   1      51.587  25.721  27.307  1.00  0.00     0.000 A 
ENDBRANCH  47  61
BRANCH  48  67
ATOM     67  C   UNL A   1      39.303  28.808  29.103  1.00  0.00    -0.014 A 
ATOM     68  C   UNL A   1      38.562  29.325  28.029  1.00  0.00     0.009 A 
ATOM     69  C   UNL A   1      38.667  28.628  30.342  1.00  0.00     0.009 A 
ATOM     70  C   UNL A   1      37.220  29.671  28.195  1.00  0.00     0.001 A 
ATOM     71  C   UNL A   1      37.316  28.949  30.497  1.00  0.00     0.001 A 
ATOM     72  C   UNL A   1      36.596  29.476  29.427  1.00  0.00     0.000 A 
ENDBRANCH  48  67
BRANCH  60  73
ATOM     73  C   UNL A   1      45.260  32.377  29.654  1.00  0.00    -0.014 A 
ATOM     74  C   UNL A   1      45.246  33.397  28.690  1.00  0.00     0.009 A 
ATOM     75  C   UNL A   1      45.513  32.713  30.995  1.00  0.00     0.009 A 
ATOM     76  C   UNL A   1      45.513  34.719  29.056  1.00  0.00     0.001 A 
ATOM     77  C   UNL A   1      45.745  34.039  31.362  1.00  0.00     0.001 A 
ATOM     78  C   UNL A   1      45.755  35.039  30.391  1.00  0.00     0.000 A 
ENDBRANCH  60  73
ENDBRANCH  34  35
ENDBRANCH  26  29
ENDBRANCH  24  25
ENDBRANCH   1  24
TORSDOF 12
ENDMDL
MODEL 3
REMARK VINA RESULT:     -11.7      5.078      9.983
REMARK SMILES C[C@@H]1CN(c2cc(C(=O)NCCCCNC(=O)c3ccc(-c4c5nc(c(-c6ccccc6)c6ccc([nH]6)c(-c6ccccc6)c6nc(c(-c7ccccc7)c7ccc4[nH]7)C=C6)C=C5)cc3)c(F)cc2F)S(=O)(=O)C1
REMARK SMILES IDX 13 1 12 2 11 3 10 4 8 5 9 6 7 8 5 9 6 10 69 11 68 12 70 13
REMARK SMILES IDX 66 14 67 15 4 16 1 17 2 18 3 19 74 20 71 21 72 22 73 23
REMARK SMILES IDX 14 24 15 25 16 26 17 28 18 29 19 30 65 31 20 32 64 33 21 34
REMARK SMILES IDX 22 35 23 36 58 37 24 38 63 39 57 40 59 41 25 42 62 43 56 44
REMARK SMILES IDX 55 45 26 47 48 48 33 49 47 50 34 51 37 52 46 53 60 54 35 55
REMARK SMILES IDX 36 56 45 58 61 59 38 60 27 61 28 62 32 63 29 64 31 65 30 66
REMARK SMILES IDX 49 67 50 68 54 69 51 70 53 71 52 72 39 73 40 74 44 75 41 76
REMARK SMILES IDX 43 77 42 78
REMARK H PARENT 10 7 15 27 59 46 37 57
REMARK Flexibility Score: inf
ROOT
ATOM      1  C   UNL A   1      31.661  31.502  26.986  1.00  0.00     0.023 C 
ENDROOT
BRANCH   1   2
ATOM      2  C   UNL A   1      31.819  30.525  25.832  1.00  0.00     0.023 C 
BRANCH   2   3
ATOM      3  C   UNL A   1      33.155  29.805  25.730  1.00  0.00     0.116 C 
BRANCH   3   4
ATOM      4  N   UNL A   1      33.576  29.518  24.375  1.00  0.00    -0.352 N 
ATOM      5  C   UNL A   1      32.964  28.886  23.323  1.00  0.00     0.254 C 
ATOM      6  O   UNL A   1      33.610  28.837  22.272  1.00  0.00    -0.269 OA
ATOM      7  H   UNL A   1      34.483  29.842  24.168  1.00  0.00     0.163 HD
BRANCH   5   8
ATOM      8  C   UNL A   1      31.647  28.183  23.372  1.00  0.00     0.077 A 
ATOM      9  C   UNL A   1      30.455  26.213  24.182  1.00  0.00     0.088 A 
ATOM     10  C   UNL A   1      31.636  26.946  24.045  1.00  0.00     0.047 A 
ATOM     11  C   UNL A   1      29.243  26.807  23.841  1.00  0.00     0.150 A 
ATOM     12  C   UNL A   1      29.237  27.973  23.097  1.00  0.00     0.081 A 
ATOM     13  F   UNL A   1      28.077  26.229  24.160  1.00  0.00    -0.205 F 
ATOM     14  C   UNL A   1      30.449  28.592  22.786  1.00  0.00     0.139 A 
ATOM     15  F   UNL A   1      30.406  29.520  21.822  1.00  0.00    -0.206 F 
BRANCH   9  16
ATOM     16  N   UNL A   1      30.570  24.860  24.619  1.00  0.00    -0.267 N 
ATOM     17  C   UNL A   1      32.386  21.617  24.012  1.00  0.00     0.011 C 
ATOM     18  C   UNL A   1      31.456  22.626  24.657  1.00  0.00     0.023 C 
ATOM     19  C   UNL A   1      31.125  23.816  23.739  1.00  0.00     0.140 C 
ATOM     20  C   UNL A   1      32.039  23.243  25.927  1.00  0.00     0.165 C 
ATOM     21  S   UNL A   1      30.910  24.575  26.280  1.00  0.00     0.235 S 
ATOM     22  O   UNL A   1      31.626  25.670  26.883  1.00  0.00    -0.206 OA
ATOM     23  O   UNL A   1      29.715  24.017  26.881  1.00  0.00    -0.206 OA
ENDBRANCH   9  16
ENDBRANCH   5   8
ENDBRANCH   3   4
ENDBRANCH   2   3
ENDBRANCH   1   2
BRANCH   1  24
ATOM     24  C   UNL A   1      32.842  32.432  27.232  1.00  0.00     0.116 C 
BRANCH  24  25
ATOM     25  N   UNL A   1      32.462  33.805  27.545  1.00  0.00    -0.352 N 
ATOM     26  C   UNL A   1      33.042  34.686  28.428  1.00  0.00     0.251 C 
ATOM     27  H   UNL A   1      31.680  34.150  27.055  1.00  0.00     0.163 HD
ATOM     28  O   UNL A   1      32.545  35.786  28.639  1.00  0.00    -0.269 OA
BRANCH  26  29
ATOM     29  C   UNL A   1      34.254  34.267  29.159  1.00  0.00     0.039 A 
ATOM     30  C   UNL A   1      34.115  33.560  30.354  1.00  0.00     0.014 A 
ATOM     31  C   UNL A   1      35.517  34.492  28.608  1.00  0.00     0.014 A 
ATOM     32  C   UNL A   1      35.242  32.989  30.947  1.00  0.00     0.010 A 
ATOM     33  C   UNL A   1      36.621  33.843  29.145  1.00  0.00     0.010 A 
ATOM     34  C   UNL A   1      36.494  33.078  30.316  1.00  0.00    -0.014 A 
BRANCH  34  35
ATOM     35  C   UNL A   1      37.681  32.364  30.846  1.00  0.00     0.031 A 
ATOM     36  C   UNL A   1      38.395  32.887  32.061  1.00  0.00     0.074 A 
ATOM     37  C   UNL A   1      38.161  31.289  30.192  1.00  0.00     0.049 A 
ATOM     38  N   UNL A   1      39.476  32.433  32.643  1.00  0.00    -0.248 NA
ATOM     39  C   UNL A   1      37.835  34.096  32.686  1.00  0.00     0.031 C 
ATOM     40  C   UNL A   1      37.584  30.703  28.981  1.00  0.00     0.029 A 
ATOM     41  N   UNL A   1      39.251  30.497  30.456  1.00  0.00    -0.354 N 
ATOM     42  C   UNL A   1      39.731  33.307  33.691  1.00  0.00     0.074 A 
ATOM     43  C   UNL A   1      38.734  34.353  33.622  1.00  0.00     0.031 C 
ATOM     44  C   UNL A   1      38.296  29.618  28.635  1.00  0.00     0.029 A 
ATOM     45  C   UNL A   1      39.408  29.462  29.566  1.00  0.00     0.049 A 
ATOM     46  H   UNL A   1      39.862  30.655  31.212  1.00  0.00     0.167 HD
ATOM     47  C   UNL A   1      40.692  33.236  34.643  1.00  0.00     0.031 A 
ATOM     48  C   UNL A   1      40.344  28.497  29.506  1.00  0.00     0.031 A 
ATOM     49  C   UNL A   1      41.691  32.203  34.702  1.00  0.00     0.049 A 
ATOM     50  C   UNL A   1      41.436  28.469  30.538  1.00  0.00     0.074 A 
ATOM     51  C   UNL A   1      42.682  32.013  35.649  1.00  0.00     0.029 A 
ATOM     52  N   UNL A   1      41.835  31.191  33.763  1.00  0.00    -0.354 N 
ATOM     53  N   UNL A   1      41.624  29.259  31.566  1.00  0.00    -0.248 NA
ATOM     54  C   UNL A   1      42.444  27.408  30.401  1.00  0.00     0.031 C 
ATOM     55  C   UNL A   1      43.466  30.926  35.247  1.00  0.00     0.029 A 
ATOM     56  C   UNL A   1      42.920  30.395  34.089  1.00  0.00     0.049 A 
ATOM     57  H   UNL A   1      41.251  31.058  32.982  1.00  0.00     0.167 HD
ATOM     58  C   UNL A   1      42.752  28.776  32.216  1.00  0.00     0.074 A 
ATOM     59  C   UNL A   1      43.197  27.614  31.472  1.00  0.00     0.031 C 
ATOM     60  C   UNL A   1      43.360  29.249  33.333  1.00  0.00     0.031 A 
BRANCH  47  61
ATOM     61  C   UNL A   1      40.711  34.329  35.677  1.00  0.00    -0.014 A 
ATOM     62  C   UNL A   1      39.948  34.234  36.855  1.00  0.00     0.009 A 
ATOM     63  C   UNL A   1      41.489  35.477  35.468  1.00  0.00     0.009 A 
ATOM     64  C   UNL A   1      39.918  35.290  37.767  1.00  0.00     0.001 A 
ATOM     65  C   UNL A   1      41.487  36.516  36.401  1.00  0.00     0.001 A 
ATOM     66  C   UNL A   1      40.689  36.429  37.541  1.00  0.00     0.000 A 
ENDBRANCH  47  61
BRANCH  48  67
ATOM     67  C   UNL A   1      40.267  27.454  28.449  1.00  0.00    -0.014 A 
ATOM     68  C   UNL A   1      40.911  27.648  27.217  1.00  0.00     0.009 A 
ATOM     69  C   UNL A   1      39.567  26.256  28.667  1.00  0.00     0.009 A 
ATOM     70  C   UNL A   1      40.842  26.674  26.220  1.00  0.00     0.001 A 
ATOM     71  C   UNL A   1      39.524  25.271  27.677  1.00  0.00     0.001 A 
ATOM     72  C   UNL A   1      40.155  25.484  26.453  1.00  0.00     0.000 A 
ENDBRANCH  48  67
BRANCH  60  73
ATOM     73  C   UNL A   1      44.559  28.492  33.837  1.00  0.00    -0.014 A 
ATOM     74  C   UNL A   1      45.860  28.831  33.438  1.00  0.00     0.009 A 
ATOM     75  C   UNL A   1      44.381  27.451  34.764  1.00  0.00     0.009 A 
ATOM     76  C   UNL A   1      46.958  28.121  33.931  1.00  0.00     0.001 A 
ATOM     77  C   UNL A   1      45.482  26.766  35.280  1.00  0.00     0.001 A 
ATOM     78  C   UNL A   1      46.769  27.095  34.856  1.00  0.00     0.000 A 
ENDBRANCH  60  73
ENDBRANCH  34  35
ENDBRANCH  26  29
ENDBRANCH  24  25
ENDBRANCH   1  24
TORSDOF 12
ENDMDL
