MODEL 1
REMARK VINA RESULT:     -11.2      0.000      0.000
REMARK SMILES O=C(CCc1ccccc1)Nc1ccccc1Oc1ccsc1C(=O)NCCCCNC(=O)c1ccc(-c2c3nc(c(-c4ccccc4)c4ccc([nH]4)c(-c4ccccc4)c4nc(c(-c5ccccc5)c5ccc2[nH]5)C=C4)C=C3)cc1
REMARK SMILES IDX 24 1 25 2 26 3 23 5 19 6 20 7 21 8 22 9 18 10 17 11 12 12
REMARK SMILES IDX 13 13 14 14 16 15 15 16 11 17 1 18 2 19 3 21 4 22 5 23 6 24
REMARK SMILES IDX 10 25 7 26 9 27 8 28 27 29 28 30 29 31 30 32 31 33 32 34
REMARK SMILES IDX 33 36 34 37 35 38 81 39 36 40 80 41 37 42 38 43 39 44 74 45
REMARK SMILES IDX 40 46 79 47 73 48 75 49 41 50 78 51 72 52 71 53 42 55 64 56
REMARK SMILES IDX 49 57 63 58 50 59 53 60 62 61 76 62 51 63 52 64 61 66 77 67
REMARK SMILES IDX 54 68 43 69 44 70 48 71 45 72 47 73 46 74 65 75 66 76 70 77
REMARK SMILES IDX 67 78 69 79 68 80 55 81 56 82 60 83 57 84 59 85 58 86
REMARK H PARENT 26 4 11 20 31 35 75 54 53 65
REMARK Flexibility Score: inf
ROOT
ATOM      1  C   UNL A   1      32.750  28.236  27.102  1.00  0.00     0.265 C 
ATOM      2  O   UNL A   1      31.677  27.995  27.668  1.00  0.00    -0.268 OA
ATOM      3  N   UNL A   1      33.646  28.945  27.872  1.00  0.00    -0.351 N 
ATOM      4  H   UNL A   1      33.269  29.278  28.719  1.00  0.00     0.163 HD
ENDROOT
BRANCH   1   5
ATOM      5  C   UNL A   1      33.040  27.770  25.745  1.00  0.00     0.135 A 
ATOM      6  C   UNL A   1      33.476  26.556  25.233  1.00  0.00     0.151 A 
ATOM      7  C   UNL A   1      33.745  26.591  23.835  1.00  0.00     0.059 A 
ATOM      8  C   UNL A   1      33.542  27.846  23.308  1.00  0.00     0.069 A 
ATOM      9  S   UNL A   1      32.996  28.955  24.485  1.00  0.00    -0.135 S 
BRANCH   6  10
ATOM     10  O   UNL A   1      33.610  25.498  26.054  1.00  0.00    -0.453 OA
BRANCH  10  11
ATOM     11  C   UNL A   1      33.427  24.184  25.724  1.00  0.00     0.151 A 
ATOM     12  C   UNL A   1      32.229  23.639  25.246  1.00  0.00     0.084 A 
ATOM     13  C   UNL A   1      32.238  22.323  24.759  1.00  0.00     0.030 A 
ATOM     14  C   UNL A   1      33.429  21.597  24.666  1.00  0.00     0.002 A 
ATOM     15  C   UNL A   1      34.610  23.427  25.679  1.00  0.00     0.049 A 
ATOM     16  C   UNL A   1      34.617  22.146  25.134  1.00  0.00     0.004 A 
BRANCH  12  17
ATOM     17  N   UNL A   1      30.978  24.286  25.242  1.00  0.00    -0.323 N 
ATOM     18  O   UNL A   1      30.727  24.959  23.063  1.00  0.00    -0.275 OA
ATOM     19  C   UNL A   1      30.457  25.086  24.257  1.00  0.00     0.224 C 
ATOM     20  H   UNL A   1      30.413  24.149  26.038  1.00  0.00     0.170 HD
BRANCH  19  21
ATOM     21  C   UNL A   1      29.562  26.228  24.731  1.00  0.00     0.105 C 
BRANCH  21  22
ATOM     22  C   UNL A   1      28.453  26.707  23.796  1.00  0.00     0.045 C 
BRANCH  22  23
ATOM     23  C   UNL A   1      28.641  28.044  23.108  1.00  0.00    -0.048 A 
ATOM     24  C   UNL A   1      27.555  28.929  23.053  1.00  0.00     0.004 A 
ATOM     25  C   UNL A   1      29.863  28.449  22.549  1.00  0.00     0.004 A 
ATOM     26  C   UNL A   1      27.707  30.212  22.525  1.00  0.00     0.000 A 
ATOM     27  C   UNL A   1      30.020  29.742  22.044  1.00  0.00     0.000 A 
ATOM     28  C   UNL A   1      28.944  30.625  22.040  1.00  0.00     0.000 A 
ENDBRANCH  22  23
ENDBRANCH  21  22
ENDBRANCH  19  21
ENDBRANCH  12  17
ENDBRANCH  10  11
ENDBRANCH   6  10
ENDBRANCH   1   5
BRANCH   3  29
ATOM     29  C   UNL A   1      35.036  29.295  27.671  1.00  0.00     0.116 C 
BRANCH  29  30
ATOM     30  C   UNL A   1      35.268  30.807  27.775  1.00  0.00     0.023 C 
BRANCH  30  31
ATOM     31  C   UNL A   1      34.038  31.672  28.010  1.00  0.00     0.023 C 
BRANCH  31  32
ATOM     32  C   UNL A   1      34.289  33.168  27.904  1.00  0.00     0.116 C 
BRANCH  32  33
ATOM     33  N   UNL A   1      33.526  33.985  28.840  1.00  0.00    -0.352 N 
ATOM     34  C   UNL A   1      33.820  34.249  30.161  1.00  0.00     0.251 C 
ATOM     35  H   UNL A   1      32.703  34.396  28.488  1.00  0.00     0.163 HD
ATOM     36  O   UNL A   1      33.069  34.909  30.861  1.00  0.00    -0.269 OA
BRANCH  34  37
ATOM     37  C   UNL A   1      35.046  33.650  30.727  1.00  0.00     0.039 A 
ATOM     38  C   UNL A   1      34.926  32.537  31.562  1.00  0.00     0.014 A 
ATOM     39  C   UNL A   1      36.301  34.114  30.331  1.00  0.00     0.014 A 
ATOM     40  C   UNL A   1      36.071  31.829  31.924  1.00  0.00     0.010 A 
ATOM     41  C   UNL A   1      37.429  33.357  30.617  1.00  0.00     0.010 A 
ATOM     42  C   UNL A   1      37.323  32.205  31.411  1.00  0.00    -0.014 A 
BRANCH  42  43
ATOM     43  C   UNL A   1      38.541  31.405  31.679  1.00  0.00     0.031 A 
ATOM     44  C   UNL A   1      39.411  31.737  32.856  1.00  0.00     0.074 A 
ATOM     45  C   UNL A   1      38.908  30.438  30.816  1.00  0.00     0.049 A 
ATOM     46  N   UNL A   1      40.549  31.203  33.220  1.00  0.00    -0.248 NA
ATOM     47  C   UNL A   1      38.958  32.840  33.720  1.00  0.00     0.031 C 
ATOM     48  C   UNL A   1      38.178  30.053  29.607  1.00  0.00     0.029 A 
ATOM     49  N   UNL A   1      39.998  29.604  30.826  1.00  0.00    -0.354 N 
ATOM     50  C   UNL A   1      40.960  31.923  34.333  1.00  0.00     0.074 A 
ATOM     51  C   UNL A   1      39.979  32.962  34.555  1.00  0.00     0.031 C 
ATOM     52  C   UNL A   1      38.815  29.030  29.016  1.00  0.00     0.029 A 
ATOM     53  C   UNL A   1      40.017  28.714  29.780  1.00  0.00     0.049 A 
ATOM     54  H   UNL A   1      40.699  29.641  31.515  1.00  0.00     0.167 HD
ATOM     55  C   UNL A   1      42.047  31.726  35.116  1.00  0.00     0.031 A 
ATOM     56  C   UNL A   1      40.903  27.747  29.476  1.00  0.00     0.031 A 
ATOM     57  C   UNL A   1      43.010  30.680  34.910  1.00  0.00     0.049 A 
ATOM     58  C   UNL A   1      42.098  27.542  30.361  1.00  0.00     0.074 A 
ATOM     59  C   UNL A   1      44.105  30.347  35.688  1.00  0.00     0.029 A 
ATOM     60  N   UNL A   1      42.992  29.795  33.842  1.00  0.00    -0.354 N 
ATOM     61  N   UNL A   1      42.439  28.184  31.452  1.00  0.00    -0.248 NA
ATOM     62  C   UNL A   1      43.027  26.472  29.974  1.00  0.00     0.031 C 
ATOM     63  C   UNL A   1      44.771  29.283  35.068  1.00  0.00     0.029 A 
ATOM     64  C   UNL A   1      44.067  28.928  33.929  1.00  0.00     0.049 A 
ATOM     65  H   UNL A   1      42.314  29.785  33.128  1.00  0.00     0.167 HD
ATOM     66  C   UNL A   1      43.606  27.581  31.898  1.00  0.00     0.074 A 
ATOM     67  C   UNL A   1      43.911  26.516  30.963  1.00  0.00     0.031 C 
ATOM     68  C   UNL A   1      44.357  27.879  32.986  1.00  0.00     0.031 A 
BRANCH  55  69
ATOM     69  C   UNL A   1      42.240  32.677  36.262  1.00  0.00    -0.014 A 
ATOM     70  C   UNL A   1      42.998  33.852  36.113  1.00  0.00     0.009 A 
ATOM     71  C   UNL A   1      41.676  32.387  37.512  1.00  0.00     0.009 A 
ATOM     72  C   UNL A   1      43.227  34.688  37.207  1.00  0.00     0.001 A 
ATOM     73  C   UNL A   1      41.883  33.242  38.597  1.00  0.00     0.001 A 
ATOM     74  C   UNL A   1      42.670  34.383  38.447  1.00  0.00     0.000 A 
ENDBRANCH  55  69
BRANCH  56  75
ATOM     75  C   UNL A   1      40.662  26.867  28.306  1.00  0.00    -0.014 A 
ATOM     76  C   UNL A   1      39.822  25.749  28.432  1.00  0.00     0.009 A 
ATOM     77  C   UNL A   1      41.248  27.141  27.062  1.00  0.00     0.009 A 
ATOM     78  C   UNL A   1      39.586  24.915  27.337  1.00  0.00     0.001 A 
ATOM     79  C   UNL A   1      40.993  26.316  25.963  1.00  0.00     0.001 A 
ATOM     80  C   UNL A   1      40.167  25.202  26.104  1.00  0.00     0.000 A 
ENDBRANCH  56  75
BRANCH  68  81
ATOM     81  C   UNL A   1      45.561  27.021  33.239  1.00  0.00    -0.014 A 
ATOM     82  C   UNL A   1      45.486  25.890  34.067  1.00  0.00     0.009 A 
ATOM     83  C   UNL A   1      46.777  27.327  32.609  1.00  0.00     0.009 A 
ATOM     84  C   UNL A   1      46.615  25.098  34.279  1.00  0.00     0.001 A 
ATOM     85  C   UNL A   1      47.898  26.519  32.804  1.00  0.00     0.001 A 
ATOM     86  C   UNL A   1      47.818  25.411  33.645  1.00  0.00     0.000 A 
ENDBRANCH  68  81
ENDBRANCH  42  43
ENDBRANCH  34  37
ENDBRANCH  32  33
ENDBRANCH  31  32
ENDBRANCH  30  31
ENDBRANCH  29  30
ENDBRANCH   3  29
TORSDOF 17
ENDMDL
MODEL 2
REMARK VINA RESULT:     -11.1      3.506      8.290
REMARK SMILES O=C(CCc1ccccc1)Nc1ccccc1Oc1ccsc1C(=O)NCCCCNC(=O)c1ccc(-c2c3nc(c(-c4ccccc4)c4ccc([nH]4)c(-c4ccccc4)c4nc(c(-c5ccccc5)c5ccc2[nH]5)C=C4)C=C3)cc1
REMARK SMILES IDX 24 1 25 2 26 3 23 5 19 6 20 7 21 8 22 9 18 10 17 11 12 12
REMARK SMILES IDX 13 13 14 14 16 15 15 16 11 17 1 18 2 19 3 21 4 22 5 23 6 24
REMARK SMILES IDX 10 25 7 26 9 27 8 28 27 29 28 30 29 31 30 32 31 33 32 34
REMARK SMILES IDX 33 36 34 37 35 38 81 39 36 40 80 41 37 42 38 43 39 44 74 45
REMARK SMILES IDX 40 46 79 47 73 48 75 49 41 50 78 51 72 52 71 53 42 55 64 56
REMARK SMILES IDX 49 57 63 58 50 59 53 60 62 61 76 62 51 63 52 64 61 66 77 67
REMARK SMILES IDX 54 68 43 69 44 70 48 71 45 72 47 73 46 74 65 75 66 76 70 77
REMARK SMILES IDX 67 78 69 79 68 80 55 81 56 82 60 83 57 84 59 85 58 86
REMARK H PARENT 26 4 11 20 31 35 75 54 53 65
REMARK Flexibility Score: inf
ROOT
ATOM      1  C   UNL A   1      33.687  22.832  23.587  1.00  0.00     0.265 C 
ATOM      2  O   UNL A   1      33.220  22.758  22.444  1.00  0.00    -0.268 OA
ATOM      3  N   UNL A   1      35.013  22.470  23.678  1.00  0.00    -0.351 N 
ATOM      4  H   UNL A   1      35.378  22.078  22.851  1.00  0.00     0.163 HD
ENDROOT
BRANCH   1   5
ATOM      5  C   UNL A   1      32.895  23.298  24.727  1.00  0.00     0.135 A 
ATOM      6  C   UNL A   1      32.437  24.550  25.112  1.00  0.00     0.151 A 
ATOM      7  C   UNL A   1      31.794  24.554  26.383  1.00  0.00     0.059 A 
ATOM      8  C   UNL A   1      31.803  23.306  26.963  1.00  0.00     0.069 A 
ATOM      9  S   UNL A   1      32.547  22.140  25.964  1.00  0.00    -0.135 S 
BRANCH   6  10
ATOM     10  O   UNL A   1      32.631  25.608  24.303  1.00  0.00    -0.453 OA
BRANCH  10  11
ATOM     11  C   UNL A   1      32.631  26.925  24.672  1.00  0.00     0.151 A 
ATOM     12  C   UNL A   1      31.485  27.718  24.805  1.00  0.00     0.084 A 
ATOM     13  C   UNL A   1      31.614  28.991  25.381  1.00  0.00     0.030 A 
ATOM     14  C   UNL A   1      32.837  29.429  25.895  1.00  0.00     0.002 A 
ATOM     15  C   UNL A   1      33.869  27.395  25.140  1.00  0.00     0.049 A 
ATOM     16  C   UNL A   1      33.970  28.633  25.769  1.00  0.00     0.004 A 
BRANCH  12  17
ATOM     17  N   UNL A   1      30.191  27.369  24.369  1.00  0.00    -0.323 N 
ATOM     18  O   UNL A   1      30.167  28.031  22.173  1.00  0.00    -0.275 OA
ATOM     19  C   UNL A   1      29.567  27.765  23.213  1.00  0.00     0.224 C 
ATOM     20  H   UNL A   1      29.677  26.774  24.963  1.00  0.00     0.170 HD
BRANCH  19  21
ATOM     21  C   UNL A   1      28.054  27.942  23.302  1.00  0.00     0.105 C 
BRANCH  21  22
ATOM     22  C   UNL A   1      27.402  29.002  22.414  1.00  0.00     0.045 C 
BRANCH  22  23
ATOM     23  C   UNL A   1      27.958  30.409  22.475  1.00  0.00    -0.048 A 
ATOM     24  C   UNL A   1      27.890  31.208  21.324  1.00  0.00     0.004 A 
ATOM     25  C   UNL A   1      28.514  30.961  23.639  1.00  0.00     0.004 A 
ATOM     26  C   UNL A   1      28.292  32.543  21.358  1.00  0.00     0.000 A 
ATOM     27  C   UNL A   1      28.893  32.305  23.679  1.00  0.00     0.000 A 
ATOM     28  C   UNL A   1      28.774  33.097  22.541  1.00  0.00     0.000 A 
ENDBRANCH  22  23
ENDBRANCH  21  22
ENDBRANCH  19  21
ENDBRANCH  12  17
ENDBRANCH  10  11
ENDBRANCH   6  10
ENDBRANCH   1   5
BRANCH   3  29
ATOM     29  C   UNL A   1      35.971  22.554  24.759  1.00  0.00     0.116 C 
BRANCH  29  30
ATOM     30  C   UNL A   1      37.348  22.018  24.349  1.00  0.00     0.023 C 
BRANCH  30  31
ATOM     31  C   UNL A   1      37.786  20.706  24.984  1.00  0.00     0.023 C 
BRANCH  31  32
ATOM     32  C   UNL A   1      39.023  20.812  25.863  1.00  0.00     0.116 C 
BRANCH  32  33
ATOM     33  N   UNL A   1      39.955  19.698  25.745  1.00  0.00    -0.352 N 
ATOM     34  C   UNL A   1      41.296  19.684  26.068  1.00  0.00     0.251 C 
ATOM     35  H   UNL A   1      39.585  18.857  25.393  1.00  0.00     0.163 HD
ATOM     36  O   UNL A   1      41.987  18.697  25.873  1.00  0.00    -0.269 OA
BRANCH  34  37
ATOM     37  C   UNL A   1      41.890  20.927  26.600  1.00  0.00     0.039 A 
ATOM     38  C   UNL A   1      42.359  21.885  25.699  1.00  0.00     0.014 A 
ATOM     39  C   UNL A   1      41.864  21.188  27.970  1.00  0.00     0.014 A 
ATOM     40  C   UNL A   1      42.717  23.148  26.170  1.00  0.00     0.010 A 
ATOM     41  C   UNL A   1      42.134  22.471  28.426  1.00  0.00     0.010 A 
ATOM     42  C   UNL A   1      42.556  23.464  27.529  1.00  0.00    -0.014 A 
BRANCH  42  43
ATOM     43  C   UNL A   1      42.813  24.830  28.041  1.00  0.00     0.031 A 
ATOM     44  C   UNL A   1      44.203  25.231  28.442  1.00  0.00     0.074 A 
ATOM     45  C   UNL A   1      41.783  25.677  28.227  1.00  0.00     0.049 A 
ATOM     46  N   UNL A   1      44.619  26.351  28.974  1.00  0.00    -0.248 NA
ATOM     47  C   UNL A   1      45.261  24.225  28.248  1.00  0.00     0.031 C 
ATOM     48  C   UNL A   1      40.379  25.391  27.927  1.00  0.00     0.029 A 
ATOM     49  N   UNL A   1      41.763  26.958  28.720  1.00  0.00    -0.354 N 
ATOM     50  C   UNL A   1      45.976  26.173  29.206  1.00  0.00     0.074 A 
ATOM     51  C   UNL A   1      46.303  24.822  28.805  1.00  0.00     0.031 C 
ATOM     52  C   UNL A   1      39.641  26.478  28.201  1.00  0.00     0.029 A 
ATOM     53  C   UNL A   1      40.511  27.522  28.731  1.00  0.00     0.049 A 
ATOM     54  H   UNL A   1      42.568  27.427  29.036  1.00  0.00     0.167 HD
ATOM     55  C   UNL A   1      46.877  27.060  29.690  1.00  0.00     0.031 A 
ATOM     56  C   UNL A   1      40.111  28.747  29.119  1.00  0.00     0.031 A 
ATOM     57  C   UNL A   1      46.558  28.408  30.067  1.00  0.00     0.049 A 
ATOM     58  C   UNL A   1      41.128  29.718  29.648  1.00  0.00     0.074 A 
ATOM     59  C   UNL A   1      47.409  29.411  30.499  1.00  0.00     0.029 A 
ATOM     60  N   UNL A   1      45.279  28.945  30.059  1.00  0.00    -0.354 N 
ATOM     61  N   UNL A   1      42.421  29.561  29.796  1.00  0.00    -0.248 NA
ATOM     62  C   UNL A   1      40.628  31.038  30.056  1.00  0.00     0.031 C 
ATOM     63  C   UNL A   1      46.638  30.542  30.787  1.00  0.00     0.029 A 
ATOM     64  C   UNL A   1      45.314  30.257  30.496  1.00  0.00     0.049 A 
ATOM     65  H   UNL A   1      44.466  28.463  29.783  1.00  0.00     0.167 HD
ATOM     66  C   UNL A   1      42.895  30.768  30.290  1.00  0.00     0.074 A 
ATOM     67  C   UNL A   1      41.751  31.650  30.408  1.00  0.00     0.031 C 
ATOM     68  C   UNL A   1      44.164  31.117  30.612  1.00  0.00     0.031 A 
BRANCH  55  69
ATOM     69  C   UNL A   1      48.292  26.578  29.840  1.00  0.00    -0.014 A 
ATOM     70  C   UNL A   1      48.706  25.882  30.989  1.00  0.00     0.009 A 
ATOM     71  C   UNL A   1      49.228  26.839  28.830  1.00  0.00     0.009 A 
ATOM     72  C   UNL A   1      50.041  25.505  31.144  1.00  0.00     0.001 A 
ATOM     73  C   UNL A   1      50.557  26.434  28.975  1.00  0.00     0.001 A 
ATOM     74  C   UNL A   1      50.965  25.781  30.137  1.00  0.00     0.000 A 
ENDBRANCH  55  69
BRANCH  56  75
ATOM     75  C   UNL A   1      38.688  29.141  28.973  1.00  0.00    -0.014 A 
ATOM     76  C   UNL A   1      37.808  29.000  30.058  1.00  0.00     0.009 A 
ATOM     77  C   UNL A   1      38.205  29.673  27.769  1.00  0.00     0.009 A 
ATOM     78  C   UNL A   1      36.467  29.370  29.932  1.00  0.00     0.001 A 
ATOM     79  C   UNL A   1      36.868  30.062  27.654  1.00  0.00     0.001 A 
ATOM     80  C   UNL A   1      36.000  29.905  28.734  1.00  0.00     0.000 A 
ENDBRANCH  56  75
BRANCH  68  81
ATOM     81  C   UNL A   1      44.384  32.521  31.093  1.00  0.00    -0.014 A 
ATOM     82  C   UNL A   1      44.381  32.827  32.463  1.00  0.00     0.009 A 
ATOM     83  C   UNL A   1      44.639  33.541  30.166  1.00  0.00     0.009 A 
ATOM     84  C   UNL A   1      44.601  34.138  32.891  1.00  0.00     0.001 A 
ATOM     85  C   UNL A   1      44.883  34.846  30.598  1.00  0.00     0.001 A 
ATOM     86  C   UNL A   1      44.856  35.144  31.959  1.00  0.00     0.000 A 
ENDBRANCH  68  81
ENDBRANCH  42  43
ENDBRANCH  34  37
ENDBRANCH  32  33
ENDBRANCH  31  32
ENDBRANCH  30  31
ENDBRANCH  29  30
ENDBRANCH   3  29
TORSDOF 17
ENDMDL
MODEL 3
REMARK VINA RESULT:     -11.1      3.453      8.080
REMARK SMILES O=C(CCc1ccccc1)Nc1ccccc1Oc1ccsc1C(=O)NCCCCNC(=O)c1ccc(-c2c3nc(c(-c4ccccc4)c4ccc([nH]4)c(-c4ccccc4)c4nc(c(-c5ccccc5)c5ccc2[nH]5)C=C4)C=C3)cc1
REMARK SMILES IDX 24 1 25 2 26 3 23 5 19 6 20 7 21 8 22 9 18 10 17 11 12 12
REMARK SMILES IDX 13 13 14 14 16 15 15 16 11 17 1 18 2 19 3 21 4 22 5 23 6 24
REMARK SMILES IDX 10 25 7 26 9 27 8 28 27 29 28 30 29 31 30 32 31 33 32 34
REMARK SMILES IDX 33 36 34 37 35 38 81 39 36 40 80 41 37 42 38 43 39 44 74 45
REMARK SMILES IDX 40 46 79 47 73 48 75 49 41 50 78 51 72 52 71 53 42 55 64 56
REMARK SMILES IDX 49 57 63 58 50 59 53 60 62 61 76 62 51 63 52 64 61 66 77 67
REMARK SMILES IDX 54 68 43 69 44 70 48 71 45 72 47 73 46 74 65 75 66 76 70 77
REMARK SMILES IDX 67 78 69 79 68 80 55 81 56 82 60 83 57 84 59 85 58 86
REMARK H PARENT 26 4 11 20 31 35 75 54 53 65
REMARK Flexibility Score: inf
ROOT
ATOM      1  C   UNL A   1      34.245  24.791  25.279  1.00  0.00     0.265 C 
ATOM      2  O   UNL A   1      34.282  25.978  24.933  1.00  0.00    -0.268 OA
ATOM      3  N   UNL A   1      35.460  24.144  25.205  1.00  0.00    -0.351 N 
ATOM      4  H   UNL A   1      36.167  24.671  24.766  1.00  0.00     0.163 HD
ENDROOT
BRANCH   1   5
ATOM      5  C   UNL A   1      33.017  24.154  25.757  1.00  0.00     0.135 A 
ATOM      6  C   UNL A   1      32.490  22.880  25.603  1.00  0.00     0.151 A 
ATOM      7  C   UNL A   1      31.183  22.734  26.150  1.00  0.00     0.059 A 
ATOM      8  C   UNL A   1      30.720  23.914  26.685  1.00  0.00     0.069 A 
ATOM      9  S   UNL A   1      31.869  25.170  26.558  1.00  0.00    -0.135 S 
BRANCH   6  10
ATOM     10  O   UNL A   1      33.211  21.933  24.975  1.00  0.00    -0.453 OA
BRANCH  10  11
ATOM     11  C   UNL A   1      32.724  20.937  24.174  1.00  0.00     0.151 A 
ATOM     12  C   UNL A   1      32.388  21.089  22.823  1.00  0.00     0.084 A 
ATOM     13  C   UNL A   1      32.090  19.942  22.073  1.00  0.00     0.030 A 
ATOM     14  C   UNL A   1      32.210  18.665  22.629  1.00  0.00     0.002 A 
ATOM     15  C   UNL A   1      32.788  19.653  24.741  1.00  0.00     0.049 A 
ATOM     16  C   UNL A   1      32.552  18.520  23.968  1.00  0.00     0.004 A 
BRANCH  12  17
ATOM     17  N   UNL A   1      32.281  22.316  22.138  1.00  0.00    -0.323 N 
ATOM     18  O   UNL A   1      34.414  23.156  22.204  1.00  0.00    -0.275 OA
ATOM     19  C   UNL A   1      33.201  23.333  22.102  1.00  0.00     0.224 C 
ATOM     20  H   UNL A   1      31.450  22.459  21.628  1.00  0.00     0.170 HD
BRANCH  19  21
ATOM     21  C   UNL A   1      32.628  24.744  22.009  1.00  0.00     0.105 C 
BRANCH  21  22
ATOM     22  C   UNL A   1      31.331  25.043  22.760  1.00  0.00     0.045 C 
BRANCH  22  23
ATOM     23  C   UNL A   1      30.948  26.496  22.951  1.00  0.00    -0.048 A 
ATOM     24  C   UNL A   1      31.897  27.485  22.650  1.00  0.00     0.004 A 
ATOM     25  C   UNL A   1      29.678  26.900  23.388  1.00  0.00     0.004 A 
ATOM     26  C   UNL A   1      31.559  28.838  22.709  1.00  0.00     0.000 A 
ATOM     27  C   UNL A   1      29.334  28.254  23.423  1.00  0.00     0.000 A 
ATOM     28  C   UNL A   1      30.272  29.221  23.074  1.00  0.00     0.000 A 
ENDBRANCH  22  23
ENDBRANCH  21  22
ENDBRANCH  19  21
ENDBRANCH  12  17
ENDBRANCH  10  11
ENDBRANCH   6  10
ENDBRANCH   1   5
BRANCH   3  29
ATOM     29  C   UNL A   1      35.893  22.837  25.649  1.00  0.00     0.116 C 
BRANCH  29  30
ATOM     30  C   UNL A   1      36.767  22.136  24.602  1.00  0.00     0.023 C 
BRANCH  30  31
ATOM     31  C   UNL A   1      37.433  20.836  25.031  1.00  0.00     0.023 C 
BRANCH  31  32
ATOM     32  C   UNL A   1      38.772  21.014  25.729  1.00  0.00     0.116 C 
BRANCH  32  33
ATOM     33  N   UNL A   1      39.660  19.860  25.655  1.00  0.00    -0.352 N 
ATOM     34  C   UNL A   1      40.981  19.788  26.044  1.00  0.00     0.251 C 
ATOM     35  H   UNL A   1      39.272  19.036  25.283  1.00  0.00     0.163 HD
ATOM     36  O   UNL A   1      41.638  18.772  25.881  1.00  0.00    -0.269 OA
BRANCH  34  37
ATOM     37  C   UNL A   1      41.601  21.004  26.608  1.00  0.00     0.039 A 
ATOM     38  C   UNL A   1      42.142  21.948  25.733  1.00  0.00     0.014 A 
ATOM     39  C   UNL A   1      41.532  21.257  27.978  1.00  0.00     0.014 A 
ATOM     40  C   UNL A   1      42.530  23.194  26.227  1.00  0.00     0.010 A 
ATOM     41  C   UNL A   1      41.833  22.526  28.454  1.00  0.00     0.010 A 
ATOM     42  C   UNL A   1      42.328  23.507  27.581  1.00  0.00    -0.014 A 
BRANCH  42  43
ATOM     43  C   UNL A   1      42.617  24.859  28.113  1.00  0.00     0.031 A 
ATOM     44  C   UNL A   1      44.012  25.214  28.541  1.00  0.00     0.074 A 
ATOM     45  C   UNL A   1      41.610  25.735  28.292  1.00  0.00     0.049 A 
ATOM     46  N   UNL A   1      44.452  26.315  29.093  1.00  0.00    -0.248 NA
ATOM     47  C   UNL A   1      45.042  24.178  28.353  1.00  0.00     0.031 C 
ATOM     48  C   UNL A   1      40.203  25.494  27.966  1.00  0.00     0.029 A 
ATOM     49  N   UNL A   1      41.620  27.010  28.800  1.00  0.00    -0.354 N 
ATOM     50  C   UNL A   1      45.799  26.093  29.345  1.00  0.00     0.074 A 
ATOM     51  C   UNL A   1      46.092  24.738  28.934  1.00  0.00     0.031 C 
ATOM     52  C   UNL A   1      39.493  26.600  28.241  1.00  0.00     0.029 A 
ATOM     53  C   UNL A   1      40.385  27.611  28.796  1.00  0.00     0.049 A 
ATOM     54  H   UNL A   1      42.434  27.451  29.134  1.00  0.00     0.167 HD
ATOM     55  C   UNL A   1      46.718  26.947  29.854  1.00  0.00     0.031 A 
ATOM     56  C   UNL A   1      40.016  28.844  29.192  1.00  0.00     0.031 A 
ATOM     57  C   UNL A   1      46.433  28.301  30.241  1.00  0.00     0.049 A 
ATOM     58  C   UNL A   1      41.053  29.778  29.749  1.00  0.00     0.074 A 
ATOM     59  C   UNL A   1      47.307  29.272  30.697  1.00  0.00     0.029 A 
ATOM     60  N   UNL A   1      45.171  28.875  30.218  1.00  0.00    -0.354 N 
ATOM     61  N   UNL A   1      42.337  29.580  29.916  1.00  0.00    -0.248 NA
ATOM     62  C   UNL A   1      40.586  31.107  30.164  1.00  0.00     0.031 C 
ATOM     63  C   UNL A   1      46.565  30.423  30.987  1.00  0.00     0.029 A 
ATOM     64  C   UNL A   1      45.238  30.181  30.671  1.00  0.00     0.049 A 
ATOM     65  H   UNL A   1      44.349  28.421  29.923  1.00  0.00     0.167 HD
ATOM     66  C   UNL A   1      42.840  30.767  30.431  1.00  0.00     0.074 A 
ATOM     67  C   UNL A   1      41.721  31.682  30.541  1.00  0.00     0.031 C 
ATOM     68  C   UNL A   1      44.113  31.074  30.778  1.00  0.00     0.031 A 
BRANCH  55  69
ATOM     69  C   UNL A   1      48.115  26.421  30.021  1.00  0.00    -0.014 A 
ATOM     70  C   UNL A   1      49.049  26.491  28.973  1.00  0.00     0.009 A 
ATOM     71  C   UNL A   1      48.497  25.829  31.233  1.00  0.00     0.009 A 
ATOM     72  C   UNL A   1      50.320  25.933  29.121  1.00  0.00     0.001 A 
ATOM     73  C   UNL A   1      49.779  25.298  31.388  1.00  0.00     0.001 A 
ATOM     74  C   UNL A   1      50.684  25.337  30.328  1.00  0.00     0.000 A 
ENDBRANCH  55  69
BRANCH  56  75
ATOM     75  C   UNL A   1      38.608  29.282  29.028  1.00  0.00    -0.014 A 
ATOM     76  C   UNL A   1      37.720  29.208  30.113  1.00  0.00     0.009 A 
ATOM     77  C   UNL A   1      38.148  29.791  27.804  1.00  0.00     0.009 A 
ATOM     78  C   UNL A   1      36.394  29.620  29.970  1.00  0.00     0.001 A 
ATOM     79  C   UNL A   1      36.825  30.222  27.672  1.00  0.00     0.001 A 
ATOM     80  C   UNL A   1      35.949  30.131  28.752  1.00  0.00     0.000 A 
ENDBRANCH  56  75
BRANCH  68  81
ATOM     81  C   UNL A   1      44.367  32.465  31.279  1.00  0.00    -0.014 A 
ATOM     82  C   UNL A   1      44.802  33.480  30.412  1.00  0.00     0.009 A 
ATOM     83  C   UNL A   1      44.129  32.773  32.627  1.00  0.00     0.009 A 
ATOM     84  C   UNL A   1      45.020  34.771  30.896  1.00  0.00     0.001 A 
ATOM     85  C   UNL A   1      44.326  34.070  33.102  1.00  0.00     0.001 A 
ATOM     86  C   UNL A   1      44.778  35.066  32.238  1.00  0.00     0.000 A 
ENDBRANCH  68  81
ENDBRANCH  42  43
ENDBRANCH  34  37
ENDBRANCH  32  33
ENDBRANCH  31  32
ENDBRANCH  30  31
ENDBRANCH  29  30
ENDBRANCH   3  29
TORSDOF 17
ENDMDL
