MODEL 1
REMARK VINA RESULT:     -10.6      0.000      0.000
REMARK SMILES C[C@H](C[C@H]1CSc2ccccc21)C(=O)NCCCCNC(=O)c1ccc(-c2c3nc(c(-c4ccccc4)c4ccc([nH]4)c(-c4ccccc4)c4nc(c(-c5ccccc5)c5ccc2[nH]5)C=C4)C=C3)cc1
REMARK SMILES IDX 17 1 16 2 15 3 13 4 14 5 2 7 1 8 3 9 4 10 5 11 12 12 6 13
REMARK SMILES IDX 7 14 11 15 8 16 10 17 9 18 18 19 19 20 20 21 21 22 22 24
REMARK SMILES IDX 23 25 24 26 70 27 25 28 69 29 26 30 27 31 28 32 63 33 29 34
REMARK SMILES IDX 68 35 62 36 64 37 30 38 67 39 61 40 60 41 31 43 53 44 38 45
REMARK SMILES IDX 52 46 39 47 42 48 51 49 65 50 40 51 41 52 50 54 66 55 43 56
REMARK SMILES IDX 32 57 33 58 37 59 34 60 36 61 35 62 54 63 55 64 59 65 56 66
REMARK SMILES IDX 58 67 57 68 44 69 45 70 49 71 46 72 48 73 47 74
REMARK H PARENT 15 6 20 23 64 42 42 53
REMARK Flexibility Score: inf
ROOT
ATOM      1  C   UNL A   1      36.617  20.335  25.009  1.00  0.00     0.023 C 
ENDROOT
BRANCH   1   2
ATOM      2  C   UNL A   1      35.117  20.655  25.021  1.00  0.00     0.116 C 
BRANCH   2   3
ATOM      3  N   UNL A   1      34.694  21.154  26.318  1.00  0.00    -0.356 N 
ATOM      4  C   UNL A   1      34.258  22.358  26.765  1.00  0.00     0.222 C 
ATOM      5  O   UNL A   1      34.087  22.447  27.987  1.00  0.00    -0.275 OA
ATOM      6  H   UNL A   1      34.732  20.470  27.025  1.00  0.00     0.163 HD
BRANCH   4   7
ATOM      7  C   UNL A   1      33.996  23.590  25.886  1.00  0.00     0.076 C 
ATOM      8  C   UNL A   1      35.230  24.339  25.406  1.00  0.00     0.018 C 
BRANCH   7   9
ATOM      9  C   UNL A   1      32.816  24.469  26.367  1.00  0.00     0.022 C 
BRANCH   9  10
ATOM     10  C   UNL A   1      32.262  25.468  25.343  1.00  0.00     0.031 C 
ATOM     11  C   UNL A   1      30.773  25.267  25.011  1.00  0.00     0.083 C 
ATOM     12  C   UNL A   1      32.435  26.945  25.638  1.00  0.00    -0.030 A 
ATOM     13  S   UNL A   1      30.225  26.796  24.192  1.00  0.00    -0.125 SA
ATOM     14  C   UNL A   1      31.472  27.749  25.012  1.00  0.00     0.011 A 
ATOM     15  C   UNL A   1      33.504  27.552  26.297  1.00  0.00     0.005 A 
ATOM     16  C   UNL A   1      31.550  29.133  25.035  1.00  0.00     0.015 A 
ATOM     17  C   UNL A   1      33.578  28.948  26.344  1.00  0.00     0.000 A 
ATOM     18  C   UNL A   1      32.610  29.735  25.713  1.00  0.00     0.001 A 
ENDBRANCH   9  10
ENDBRANCH   7   9
ENDBRANCH   4   7
ENDBRANCH   2   3
ENDBRANCH   1   2
BRANCH   1  19
ATOM     19  C   UNL A   1      37.541  21.539  24.984  1.00  0.00     0.023 C 
BRANCH  19  20
ATOM     20  C   UNL A   1      38.782  21.405  25.848  1.00  0.00     0.116 C 
BRANCH  20  21
ATOM     21  N   UNL A   1      39.527  20.163  25.663  1.00  0.00    -0.352 N 
ATOM     22  C   UNL A   1      40.845  19.906  25.989  1.00  0.00     0.251 C 
ATOM     23  H   UNL A   1      39.029  19.417  25.257  1.00  0.00     0.163 HD
ATOM     24  O   UNL A   1      41.361  18.825  25.753  1.00  0.00    -0.269 OA
BRANCH  22  25
ATOM     25  C   UNL A   1      41.641  21.008  26.568  1.00  0.00     0.039 A 
ATOM     26  C   UNL A   1      41.687  21.172  27.952  1.00  0.00     0.014 A 
ATOM     27  C   UNL A   1      42.180  21.976  25.717  1.00  0.00     0.014 A 
ATOM     28  C   UNL A   1      42.042  22.409  28.469  1.00  0.00     0.010 A 
ATOM     29  C   UNL A   1      42.649  23.177  26.255  1.00  0.00     0.010 A 
ATOM     30  C   UNL A   1      42.510  23.434  27.628  1.00  0.00    -0.014 A 
BRANCH  30  31
ATOM     31  C   UNL A   1      42.800  24.772  28.210  1.00  0.00     0.031 A 
ATOM     32  C   UNL A   1      44.220  25.226  28.447  1.00  0.00     0.074 A 
ATOM     33  C   UNL A   1      41.780  25.624  28.433  1.00  0.00     0.049 A 
ATOM     34  N   UNL A   1      44.645  26.366  28.936  1.00  0.00    -0.248 NA
ATOM     35  C   UNL A   1      45.302  24.291  28.095  1.00  0.00     0.031 C 
ATOM     36  C   UNL A   1      40.365  25.323  28.200  1.00  0.00     0.029 A 
ATOM     37  N   UNL A   1      41.776  26.930  28.848  1.00  0.00    -0.354 N 
ATOM     38  C   UNL A   1      46.031  26.267  28.990  1.00  0.00     0.074 A 
ATOM     39  C   UNL A   1      46.382  24.958  28.486  1.00  0.00     0.031 C 
ATOM     40  C   UNL A   1      39.645  26.439  28.375  1.00  0.00     0.029 A 
ATOM     41  C   UNL A   1      40.530  27.508  28.823  1.00  0.00     0.049 A 
ATOM     42  H   UNL A   1      42.587  27.409  29.136  1.00  0.00     0.167 HD
ATOM     43  C   UNL A   1      46.928  27.185  29.419  1.00  0.00     0.031 A 
ATOM     44  C   UNL A   1      40.133  28.754  29.138  1.00  0.00     0.031 A 
ATOM     45  C   UNL A   1      46.585  28.504  29.879  1.00  0.00     0.049 A 
ATOM     46  C   UNL A   1      41.144  29.738  29.642  1.00  0.00     0.074 A 
ATOM     47  C   UNL A   1      47.432  29.503  30.330  1.00  0.00     0.029 A 
ATOM     48  N   UNL A   1      45.300  29.014  29.930  1.00  0.00    -0.354 N 
ATOM     49  N   UNL A   1      42.443  29.604  29.741  1.00  0.00    -0.248 NA
ATOM     50  C   UNL A   1      40.631  31.035  30.106  1.00  0.00     0.031 C 
ATOM     51  C   UNL A   1      46.654  30.607  30.688  1.00  0.00     0.029 A 
ATOM     52  C   UNL A   1      45.328  30.309  30.419  1.00  0.00     0.049 A 
ATOM     53  H   UNL A   1      44.487  28.528  29.660  1.00  0.00     0.167 HD
ATOM     54  C   UNL A   1      42.905  30.796  30.280  1.00  0.00     0.074 A 
ATOM     55  C   UNL A   1      41.750  31.651  30.462  1.00  0.00     0.031 C 
ATOM     56  C   UNL A   1      44.172  31.144  30.602  1.00  0.00     0.031 A 
BRANCH  43  57
ATOM     57  C   UNL A   1      48.382  26.804  29.441  1.00  0.00    -0.014 A 
ATOM     58  C   UNL A   1      49.169  27.016  28.297  1.00  0.00     0.009 A 
ATOM     59  C   UNL A   1      48.943  26.136  30.540  1.00  0.00     0.009 A 
ATOM     60  C   UNL A   1      50.485  26.554  28.247  1.00  0.00     0.001 A 
ATOM     61  C   UNL A   1      50.267  25.693  30.492  1.00  0.00     0.001 A 
ATOM     62  C   UNL A   1      51.034  25.894  29.345  1.00  0.00     0.000 A 
ENDBRANCH  43  57
BRANCH  44  63
ATOM     63  C   UNL A   1      38.704  29.127  28.993  1.00  0.00    -0.014 A 
ATOM     64  C   UNL A   1      38.223  29.667  27.790  1.00  0.00     0.009 A 
ATOM     65  C   UNL A   1      37.823  28.988  30.076  1.00  0.00     0.009 A 
ATOM     66  C   UNL A   1      36.896  30.086  27.681  1.00  0.00     0.001 A 
ATOM     67  C   UNL A   1      36.489  29.382  29.956  1.00  0.00     0.001 A 
ATOM     68  C   UNL A   1      36.029  29.939  28.763  1.00  0.00     0.000 A 
ENDBRANCH  44  63
BRANCH  56  69
ATOM     69  C   UNL A   1      44.387  32.510  31.182  1.00  0.00    -0.014 A 
ATOM     70  C   UNL A   1      44.645  33.596  30.333  1.00  0.00     0.009 A 
ATOM     71  C   UNL A   1      44.410  32.702  32.571  1.00  0.00     0.009 A 
ATOM     72  C   UNL A   1      44.929  34.855  30.867  1.00  0.00     0.001 A 
ATOM     73  C   UNL A   1      44.674  33.967  33.100  1.00  0.00     0.001 A 
ATOM     74  C   UNL A   1      44.939  35.039  32.249  1.00  0.00     0.000 A 
ENDBRANCH  56  69
ENDBRANCH  30  31
ENDBRANCH  22  25
ENDBRANCH  20  21
ENDBRANCH  19  20
ENDBRANCH   1  19
TORSDOF 13
ENDMDL
MODEL 2
REMARK VINA RESULT:     -10.5      0.352      6.128
REMARK SMILES C[C@H](C[C@H]1CSc2ccccc21)C(=O)NCCCCNC(=O)c1ccc(-c2c3nc(c(-c4ccccc4)c4ccc([nH]4)c(-c4ccccc4)c4nc(c(-c5ccccc5)c5ccc2[nH]5)C=C4)C=C3)cc1
REMARK SMILES IDX 17 1 16 2 15 3 13 4 14 5 2 7 1 8 3 9 4 10 5 11 12 12 6 13
REMARK SMILES IDX 7 14 11 15 8 16 10 17 9 18 18 19 19 20 20 21 21 22 22 24
REMARK SMILES IDX 23 25 24 26 70 27 25 28 69 29 26 30 27 31 28 32 63 33 29 34
REMARK SMILES IDX 68 35 62 36 64 37 30 38 67 39 61 40 60 41 31 43 53 44 38 45
REMARK SMILES IDX 52 46 39 47 42 48 51 49 65 50 40 51 41 52 50 54 66 55 43 56
REMARK SMILES IDX 32 57 33 58 37 59 34 60 36 61 35 62 54 63 55 64 59 65 56 66
REMARK SMILES IDX 58 67 57 68 44 69 45 70 49 71 46 72 48 73 47 74
REMARK H PARENT 15 6 20 23 64 42 42 53
REMARK Flexibility Score: inf
ROOT
ATOM      1  C   UNL A   1      36.625  20.413  25.007  1.00  0.00     0.023 C 
ENDROOT
BRANCH   1   2
ATOM      2  C   UNL A   1      35.116  20.689  24.981  1.00  0.00     0.116 C 
BRANCH   2   3
ATOM      3  N   UNL A   1      34.636  21.121  26.282  1.00  0.00    -0.356 N 
ATOM      4  C   UNL A   1      34.191  22.304  26.775  1.00  0.00     0.222 C 
ATOM      5  O   UNL A   1      33.962  22.327  27.991  1.00  0.00    -0.275 OA
ATOM      6  H   UNL A   1      34.633  20.399  26.951  1.00  0.00     0.163 HD
BRANCH   4   7
ATOM      7  C   UNL A   1      33.985  23.587  25.955  1.00  0.00     0.076 C 
ATOM      8  C   UNL A   1      35.249  24.335  25.561  1.00  0.00     0.018 C 
BRANCH   7   9
ATOM      9  C   UNL A   1      32.804  24.462  26.439  1.00  0.00     0.022 C 
BRANCH   9  10
ATOM     10  C   UNL A   1      32.197  25.408  25.396  1.00  0.00     0.031 C 
ATOM     11  C   UNL A   1      30.692  25.195  25.154  1.00  0.00     0.083 C 
ATOM     12  C   UNL A   1      32.387  26.898  25.602  1.00  0.00    -0.030 A 
ATOM     13  S   UNL A   1      30.103  26.681  24.286  1.00  0.00    -0.125 SA
ATOM     14  C   UNL A   1      31.392  27.671  24.987  1.00  0.00     0.011 A 
ATOM     15  C   UNL A   1      33.490  27.534  26.170  1.00  0.00     0.005 A 
ATOM     16  C   UNL A   1      31.472  29.054  24.933  1.00  0.00     0.015 A 
ATOM     17  C   UNL A   1      33.568  28.931  26.139  1.00  0.00     0.000 A 
ATOM     18  C   UNL A   1      32.567  29.687  25.520  1.00  0.00     0.001 A 
ENDBRANCH   9  10
ENDBRANCH   7   9
ENDBRANCH   4   7
ENDBRANCH   2   3
ENDBRANCH   1   2
BRANCH   1  19
ATOM     19  C   UNL A   1      37.513  21.643  24.946  1.00  0.00     0.023 C 
BRANCH  19  20
ATOM     20  C   UNL A   1      38.784  21.549  25.773  1.00  0.00     0.116 C 
BRANCH  20  21
ATOM     21  N   UNL A   1      39.474  20.265  25.693  1.00  0.00    -0.352 N 
ATOM     22  C   UNL A   1      40.772  19.975  26.065  1.00  0.00     0.251 C 
ATOM     23  H   UNL A   1      38.950  19.515  25.331  1.00  0.00     0.163 HD
ATOM     24  O   UNL A   1      41.242  18.857  25.919  1.00  0.00    -0.269 OA
BRANCH  22  25
ATOM     25  C   UNL A   1      41.607  21.079  26.582  1.00  0.00     0.039 A 
ATOM     26  C   UNL A   1      41.656  21.323  27.953  1.00  0.00     0.014 A 
ATOM     27  C   UNL A   1      42.184  21.974  25.676  1.00  0.00     0.014 A 
ATOM     28  C   UNL A   1      42.056  22.575  28.398  1.00  0.00     0.010 A 
ATOM     29  C   UNL A   1      42.695  23.187  26.144  1.00  0.00     0.010 A 
ATOM     30  C   UNL A   1      42.563  23.530  27.499  1.00  0.00    -0.014 A 
BRANCH  30  31
ATOM     31  C   UNL A   1      42.901  24.889  28.001  1.00  0.00     0.031 A 
ATOM     32  C   UNL A   1      41.823  25.911  28.271  1.00  0.00     0.074 A 
ATOM     33  C   UNL A   1      44.182  25.170  28.312  1.00  0.00     0.049 A 
ATOM     34  N   UNL A   1      41.949  27.135  28.721  1.00  0.00    -0.248 NA
ATOM     35  C   UNL A   1      40.429  25.517  28.005  1.00  0.00     0.031 C 
ATOM     36  C   UNL A   1      45.312  24.253  28.143  1.00  0.00     0.029 A 
ATOM     37  N   UNL A   1      44.742  26.281  28.888  1.00  0.00    -0.354 N 
ATOM     38  C   UNL A   1      40.665  27.667  28.749  1.00  0.00     0.074 A 
ATOM     39  C   UNL A   1      39.770  26.637  28.272  1.00  0.00     0.031 C 
ATOM     40  C   UNL A   1      46.404  24.795  28.697  1.00  0.00     0.029 A 
ATOM     41  C   UNL A   1      46.078  26.134  29.174  1.00  0.00     0.049 A 
ATOM     42  H   UNL A   1      44.237  27.105  29.078  1.00  0.00     0.167 HD
ATOM     43  C   UNL A   1      40.270  28.901  29.140  1.00  0.00     0.031 A 
ATOM     44  C   UNL A   1      46.953  26.981  29.744  1.00  0.00     0.031 A 
ATOM     45  C   UNL A   1      41.152  29.912  29.659  1.00  0.00     0.049 A 
ATOM     46  C   UNL A   1      46.493  28.354  30.135  1.00  0.00     0.074 A 
ATOM     47  C   UNL A   1      40.835  31.192  30.083  1.00  0.00     0.029 A 
ATOM     48  N   UNL A   1      42.515  29.754  29.840  1.00  0.00    -0.354 N 
ATOM     49  N   UNL A   1      45.285  28.856  30.098  1.00  0.00    -0.248 NA
ATOM     50  C   UNL A   1      47.523  29.283  30.619  1.00  0.00     0.031 C 
ATOM     51  C   UNL A   1      42.015  31.822  30.488  1.00  0.00     0.029 A 
ATOM     52  C   UNL A   1      43.058  30.918  30.357  1.00  0.00     0.049 A 
ATOM     53  H   UNL A   1      43.022  28.937  29.632  1.00  0.00     0.167 HD
ATOM     54  C   UNL A   1      45.406  30.162  30.551  1.00  0.00     0.074 A 
ATOM     55  C   UNL A   1      46.802  30.365  30.881  1.00  0.00     0.031 C 
ATOM     56  C   UNL A   1      44.447  31.109  30.673  1.00  0.00     0.031 A 
BRANCH  43  57
ATOM     57  C   UNL A   1      38.815  29.258  29.009  1.00  0.00    -0.014 A 
ATOM     58  C   UNL A   1      37.958  29.078  30.107  1.00  0.00     0.009 A 
ATOM     59  C   UNL A   1      38.272  29.658  27.779  1.00  0.00     0.009 A 
ATOM     60  C   UNL A   1      36.583  29.279  29.974  1.00  0.00     0.001 A 
ATOM     61  C   UNL A   1      36.898  29.877  27.655  1.00  0.00     0.001 A 
ATOM     62  C   UNL A   1      36.054  29.679  28.748  1.00  0.00     0.000 A 
ENDBRANCH  43  57
BRANCH  44  63
ATOM     63  C   UNL A   1      48.356  26.551  29.962  1.00  0.00    -0.014 A 
ATOM     64  C   UNL A   1      48.731  25.909  31.153  1.00  0.00     0.009 A 
ATOM     65  C   UNL A   1      49.338  26.822  28.998  1.00  0.00     0.009 A 
ATOM     66  C   UNL A   1      50.065  25.572  31.388  1.00  0.00     0.001 A 
ATOM     67  C   UNL A   1      50.667  26.459  29.223  1.00  0.00     0.001 A 
ATOM     68  C   UNL A   1      51.031  25.843  30.420  1.00  0.00     0.000 A 
ENDBRANCH  44  63
BRANCH  56  69
ATOM     69  C   UNL A   1      44.864  32.453  31.188  1.00  0.00    -0.014 A 
ATOM     70  C   UNL A   1      45.301  33.440  30.293  1.00  0.00     0.009 A 
ATOM     71  C   UNL A   1      44.897  32.712  32.566  1.00  0.00     0.009 A 
ATOM     72  C   UNL A   1      45.770  34.666  30.769  1.00  0.00     0.001 A 
ATOM     73  C   UNL A   1      45.347  33.947  33.038  1.00  0.00     0.001 A 
ATOM     74  C   UNL A   1      45.788  34.919  32.140  1.00  0.00     0.000 A 
ENDBRANCH  56  69
ENDBRANCH  30  31
ENDBRANCH  22  25
ENDBRANCH  20  21
ENDBRANCH  19  20
ENDBRANCH   1  19
TORSDOF 13
ENDMDL
MODEL 3
REMARK VINA RESULT:     -10.4      3.557      8.740
REMARK SMILES C[C@H](C[C@H]1CSc2ccccc21)C(=O)NCCCCNC(=O)c1ccc(-c2c3nc(c(-c4ccccc4)c4ccc([nH]4)c(-c4ccccc4)c4nc(c(-c5ccccc5)c5ccc2[nH]5)C=C4)C=C3)cc1
REMARK SMILES IDX 17 1 16 2 15 3 13 4 14 5 2 7 1 8 3 9 4 10 5 11 12 12 6 13
REMARK SMILES IDX 7 14 11 15 8 16 10 17 9 18 18 19 19 20 20 21 21 22 22 24
REMARK SMILES IDX 23 25 24 26 70 27 25 28 69 29 26 30 27 31 28 32 63 33 29 34
REMARK SMILES IDX 68 35 62 36 64 37 30 38 67 39 61 40 60 41 31 43 53 44 38 45
REMARK SMILES IDX 52 46 39 47 42 48 51 49 65 50 40 51 41 52 50 54 66 55 43 56
REMARK SMILES IDX 32 57 33 58 37 59 34 60 36 61 35 62 54 63 55 64 59 65 56 66
REMARK SMILES IDX 58 67 57 68 44 69 45 70 49 71 46 72 48 73 47 74
REMARK H PARENT 15 6 20 23 64 42 42 53
REMARK Flexibility Score: inf
ROOT
ATOM      1  C   UNL A   1      31.538  30.742  25.849  1.00  0.00     0.023 C 
ENDROOT
BRANCH   1   2
ATOM      2  C   UNL A   1      31.302  29.588  24.866  1.00  0.00     0.116 C 
BRANCH   2   3
ATOM      3  N   UNL A   1      32.430  29.421  23.966  1.00  0.00    -0.356 N 
ATOM      4  C   UNL A   1      33.372  28.457  23.809  1.00  0.00     0.222 C 
ATOM      5  O   UNL A   1      34.267  28.710  22.993  1.00  0.00    -0.275 OA
ATOM      6  H   UNL A   1      32.534  30.169  23.335  1.00  0.00     0.163 HD
BRANCH   4   7
ATOM      7  C   UNL A   1      33.417  27.125  24.573  1.00  0.00     0.076 C 
ATOM      8  C   UNL A   1      33.800  27.214  26.043  1.00  0.00     0.018 C 
BRANCH   7   9
ATOM      9  C   UNL A   1      34.055  25.962  23.777  1.00  0.00     0.022 C 
BRANCH   9  10
ATOM     10  C   UNL A   1      33.648  24.548  24.209  1.00  0.00     0.031 C 
ATOM     11  C   UNL A   1      32.755  23.813  23.193  1.00  0.00     0.083 C 
ATOM     12  C   UNL A   1      34.754  23.580  24.582  1.00  0.00    -0.030 A 
ATOM     13  S   UNL A   1      32.799  22.055  23.660  1.00  0.00    -0.125 SA
ATOM     14  C   UNL A   1      34.389  22.237  24.417  1.00  0.00     0.011 A 
ATOM     15  C   UNL A   1      35.966  23.886  25.198  1.00  0.00     0.005 A 
ATOM     16  C   UNL A   1      35.205  21.201  24.845  1.00  0.00     0.015 A 
ATOM     17  C   UNL A   1      36.806  22.847  25.613  1.00  0.00     0.000 A 
ATOM     18  C   UNL A   1      36.427  21.511  25.442  1.00  0.00     0.001 A 
ENDBRANCH   9  10
ENDBRANCH   7   9
ENDBRANCH   4   7
ENDBRANCH   2   3
ENDBRANCH   1   2
BRANCH   1  19
ATOM     19  C   UNL A   1      32.440  30.419  27.027  1.00  0.00     0.023 C 
BRANCH  19  20
ATOM     20  C   UNL A   1      33.388  31.537  27.424  1.00  0.00     0.116 C 
BRANCH  20  21
ATOM     21  N   UNL A   1      32.750  32.826  27.668  1.00  0.00    -0.352 N 
ATOM     22  C   UNL A   1      33.234  33.888  28.408  1.00  0.00     0.251 C 
ATOM     23  H   UNL A   1      31.866  32.956  27.254  1.00  0.00     0.163 HD
ATOM     24  O   UNL A   1      32.581  34.909  28.560  1.00  0.00    -0.269 OA
BRANCH  22  25
ATOM     25  C   UNL A   1      34.542  33.725  29.076  1.00  0.00     0.039 A 
ATOM     26  C   UNL A   1      35.696  34.205  28.460  1.00  0.00     0.014 A 
ATOM     27  C   UNL A   1      34.622  32.931  30.223  1.00  0.00     0.014 A 
ATOM     28  C   UNL A   1      36.924  33.686  28.840  1.00  0.00     0.010 A 
ATOM     29  C   UNL A   1      35.875  32.506  30.675  1.00  0.00     0.010 A 
ATOM     30  C   UNL A   1      37.029  32.815  29.939  1.00  0.00    -0.014 A 
BRANCH  30  31
ATOM     31  C   UNL A   1      38.351  32.214  30.263  1.00  0.00     0.031 A 
ATOM     32  C   UNL A   1      39.230  32.801  31.342  1.00  0.00     0.074 A 
ATOM     33  C   UNL A   1      38.717  31.072  29.650  1.00  0.00     0.049 A 
ATOM     34  N   UNL A   1      40.404  32.391  31.755  1.00  0.00    -0.248 NA
ATOM     35  C   UNL A   1      38.737  33.995  32.048  1.00  0.00     0.031 C 
ATOM     36  C   UNL A   1      37.936  30.378  28.623  1.00  0.00     0.029 A 
ATOM     37  N   UNL A   1      39.808  30.262  29.839  1.00  0.00    -0.354 N 
ATOM     38  C   UNL A   1      40.806  33.296  32.730  1.00  0.00     0.074 A 
ATOM     39  C   UNL A   1      39.753  34.280  32.853  1.00  0.00     0.031 C 
ATOM     40  C   UNL A   1      38.517  29.202  28.350  1.00  0.00     0.029 A 
ATOM     41  C   UNL A   1      39.758  29.100  29.107  1.00  0.00     0.049 A 
ATOM     42  H   UNL A   1      40.554  30.491  30.439  1.00  0.00     0.167 HD
ATOM     43  C   UNL A   1      41.946  33.304  33.459  1.00  0.00     0.031 A 
ATOM     44  C   UNL A   1      40.618  28.068  29.039  1.00  0.00     0.031 A 
ATOM     45  C   UNL A   1      42.974  32.302  33.372  1.00  0.00     0.049 A 
ATOM     46  C   UNL A   1      41.889  28.122  29.831  1.00  0.00     0.074 A 
ATOM     47  C   UNL A   1      44.164  32.229  34.076  1.00  0.00     0.029 A 
ATOM     48  N   UNL A   1      42.928  31.192  32.546  1.00  0.00    -0.354 N 
ATOM     49  N   UNL A   1      42.275  29.017  30.705  1.00  0.00    -0.248 NA
ATOM     50  C   UNL A   1      42.854  27.036  29.606  1.00  0.00     0.031 C 
ATOM     51  C   UNL A   1      44.856  31.092  33.650  1.00  0.00     0.029 A 
ATOM     52  C   UNL A   1      44.075  30.435  32.712  1.00  0.00     0.049 A 
ATOM     53  H   UNL A   1      42.190  30.974  31.932  1.00  0.00     0.167 HD
ATOM     54  C   UNL A   1      43.530  28.608  31.134  1.00  0.00     0.074 A 
ATOM     55  C   UNL A   1      43.828  27.369  30.444  1.00  0.00     0.031 C 
ATOM     56  C   UNL A   1      44.362  29.211  32.014  1.00  0.00     0.031 A 
BRANCH  43  57
ATOM     57  C   UNL A   1      42.175  34.444  34.412  1.00  0.00    -0.014 A 
ATOM     58  C   UNL A   1      42.836  35.599  33.961  1.00  0.00     0.009 A 
ATOM     59  C   UNL A   1      41.845  34.334  35.771  1.00  0.00     0.009 A 
ATOM     60  C   UNL A   1      43.174  36.616  34.855  1.00  0.00     0.001 A 
ATOM     61  C   UNL A   1      42.169  35.363  36.658  1.00  0.00     0.001 A 
ATOM     62  C   UNL A   1      42.840  36.498  36.203  1.00  0.00     0.000 A 
ENDBRANCH  43  57
BRANCH  44  63
ATOM     63  C   UNL A   1      40.302  26.906  28.172  1.00  0.00    -0.014 A 
ATOM     64  C   UNL A   1      39.509  25.850  28.651  1.00  0.00     0.009 A 
ATOM     65  C   UNL A   1      40.830  26.825  26.876  1.00  0.00     0.009 A 
ATOM     66  C   UNL A   1      39.276  24.724  27.860  1.00  0.00     0.001 A 
ATOM     67  C   UNL A   1      40.571  25.710  26.076  1.00  0.00     0.001 A 
ATOM     68  C   UNL A   1      39.803  24.657  26.572  1.00  0.00     0.000 A 
ENDBRANCH  44  63
BRANCH  56  69
ATOM     69  C   UNL A   1      45.675  28.545  32.292  1.00  0.00    -0.014 A 
ATOM     70  C   UNL A   1      45.784  27.626  33.346  1.00  0.00     0.009 A 
ATOM     71  C   UNL A   1      46.820  28.887  31.558  1.00  0.00     0.009 A 
ATOM     72  C   UNL A   1      47.021  27.063  33.665  1.00  0.00     0.001 A 
ATOM     73  C   UNL A   1      48.052  28.306  31.866  1.00  0.00     0.001 A 
ATOM     74  C   UNL A   1      48.151  27.401  32.922  1.00  0.00     0.000 A 
ENDBRANCH  56  69
ENDBRANCH  30  31
ENDBRANCH  22  25
ENDBRANCH  20  21
ENDBRANCH  19  20
ENDBRANCH   1  19
TORSDOF 13
ENDMDL
