MODEL 1
REMARK VINA RESULT:     -10.8      0.000      0.000
REMARK SMILES Cn1cncc1COc1c(F)cc(C(=O)NCCCCNC(=O)c2ccc(-c3c4nc(c(-c5ccccc5)c5ccc([nH]5)c(-c5ccccc5)c5nc(c(-c6ccccc6)c6ccc3[nH]6)C=C5)C=C4)cc2)cc1F
REMARK SMILES IDX 18 1 17 2 16 3 14 4 15 5 13 7 9 8 10 9 73 10 11 11 12 12
REMARK SMILES IDX 72 13 74 14 8 15 7 16 6 17 1 18 2 19 3 20 4 21 5 22 19 23
REMARK SMILES IDX 20 24 21 25 22 26 23 28 24 29 25 30 71 31 26 32 70 33 27 34
REMARK SMILES IDX 28 35 29 36 64 37 30 38 69 39 63 40 65 41 31 42 68 43 62 44
REMARK SMILES IDX 61 45 32 47 54 48 39 49 53 50 40 51 43 52 52 53 66 54 41 55
REMARK SMILES IDX 42 56 51 58 67 59 44 60 33 61 34 62 38 63 35 64 37 65 36 66
REMARK SMILES IDX 55 67 56 68 60 69 57 70 59 71 58 72 45 73 46 74 50 75 47 76
REMARK SMILES IDX 49 77 48 78
REMARK H PARENT 16 6 21 27 65 46 43 57
REMARK Flexibility Score: inf
ROOT
ATOM      1  C   UNL A   1      31.619  30.716  26.092  1.00  0.00     0.023 C 
ENDROOT
BRANCH   1   2
ATOM      2  C   UNL A   1      31.846  29.719  27.232  1.00  0.00     0.116 C 
BRANCH   2   3
ATOM      3  N   UNL A   1      33.259  29.484  27.472  1.00  0.00    -0.352 N 
ATOM      4  C   UNL A   1      34.166  28.658  26.850  1.00  0.00     0.251 C 
ATOM      5  O   UNL A   1      35.352  28.762  27.160  1.00  0.00    -0.269 OA
ATOM      6  H   UNL A   1      33.636  30.010  28.214  1.00  0.00     0.163 HD
BRANCH   4   7
ATOM      7  C   UNL A   1      33.783  27.663  25.809  1.00  0.00     0.045 A 
ATOM      8  C   UNL A   1      32.983  25.733  23.908  1.00  0.00     0.191 A 
ATOM      9  C   UNL A   1      33.511  26.954  23.513  1.00  0.00     0.168 A 
ATOM     10  C   UNL A   1      32.784  25.515  25.267  1.00  0.00     0.168 A 
ATOM     11  F   UNL A   1      33.625  27.279  22.222  1.00  0.00    -0.203 F 
ATOM     12  C   UNL A   1      33.912  27.902  24.444  1.00  0.00     0.057 A 
ATOM     13  C   UNL A   1      33.176  26.466  26.216  1.00  0.00     0.057 A 
ATOM     14  F   UNL A   1      32.202  24.383  25.688  1.00  0.00    -0.203 F 
BRANCH   8  15
ATOM     15  O   UNL A   1      32.558  24.825  22.977  1.00  0.00    -0.481 OA
BRANCH  15  16
ATOM     16  C   UNL A   1      33.582  23.880  22.616  1.00  0.00     0.285 C 
BRANCH  16  17
ATOM     17  C   UNL A   1      33.241  22.541  23.173  1.00  0.00     0.075 A 
ATOM     18  C   UNL A   1      35.050  22.394  24.929  1.00  0.00     0.151 C 
ATOM     19  N   UNL A   1      33.934  21.892  24.168  1.00  0.00    -0.335 N 
ATOM     20  C   UNL A   1      33.375  20.655  24.329  1.00  0.00     0.199 A 
ATOM     21  N   UNL A   1      32.332  20.493  23.550  1.00  0.00    -0.245 NA
ATOM     22  C   UNL A   1      32.236  21.655  22.830  1.00  0.00     0.138 A 
ENDBRANCH  16  17
ENDBRANCH  15  16
ENDBRANCH   8  15
ENDBRANCH   4   7
ENDBRANCH   2   3
ENDBRANCH   1   2
BRANCH   1  23
ATOM     23  C   UNL A   1      31.364  32.157  26.522  1.00  0.00     0.023 C 
BRANCH  23  24
ATOM     24  C   UNL A   1      32.528  32.835  27.230  1.00  0.00     0.116 C 
BRANCH  24  25
ATOM     25  N   UNL A   1      32.248  34.199  27.646  1.00  0.00    -0.352 N 
ATOM     26  C   UNL A   1      32.945  34.978  28.542  1.00  0.00     0.251 C 
ATOM     27  H   UNL A   1      31.459  34.621  27.234  1.00  0.00     0.163 HD
ATOM     28  O   UNL A   1      32.537  36.086  28.851  1.00  0.00    -0.269 OA
BRANCH  26  29
ATOM     29  C   UNL A   1      34.172  34.434  29.164  1.00  0.00     0.039 A 
ATOM     30  C   UNL A   1      34.052  33.686  30.337  1.00  0.00     0.014 A 
ATOM     31  C   UNL A   1      35.425  34.633  28.578  1.00  0.00     0.014 A 
ATOM     32  C   UNL A   1      35.186  33.090  30.890  1.00  0.00     0.010 A 
ATOM     33  C   UNL A   1      36.538  33.970  29.084  1.00  0.00     0.010 A 
ATOM     34  C   UNL A   1      36.431  33.201  30.251  1.00  0.00    -0.014 A 
BRANCH  34  35
ATOM     35  C   UNL A   1      37.632  32.530  30.804  1.00  0.00     0.031 A 
ATOM     36  C   UNL A   1      38.264  33.033  32.073  1.00  0.00     0.074 A 
ATOM     37  C   UNL A   1      38.178  31.490  30.144  1.00  0.00     0.049 A 
ATOM     38  N   UNL A   1      39.308  32.572  32.715  1.00  0.00    -0.248 NA
ATOM     39  C   UNL A   1      37.662  34.227  32.689  1.00  0.00     0.031 C 
ATOM     40  C   UNL A   1      37.695  30.942  28.875  1.00  0.00     0.029 A 
ATOM     41  N   UNL A   1      39.259  30.705  30.455  1.00  0.00    -0.354 N 
ATOM     42  C   UNL A   1      39.492  33.423  33.796  1.00  0.00     0.074 A 
ATOM     43  C   UNL A   1      38.493  34.463  33.693  1.00  0.00     0.031 C 
ATOM     44  C   UNL A   1      38.452  29.885  28.537  1.00  0.00     0.029 A 
ATOM     45  C   UNL A   1      39.488  29.700  29.546  1.00  0.00     0.049 A 
ATOM     46  H   UNL A   1      39.818  30.848  31.253  1.00  0.00     0.167 HD
ATOM     47  C   UNL A   1      40.394  33.335  34.802  1.00  0.00     0.031 A 
ATOM     48  C   UNL A   1      40.424  28.733  29.534  1.00  0.00     0.031 A 
ATOM     49  C   UNL A   1      41.381  32.295  34.914  1.00  0.00     0.049 A 
ATOM     50  C   UNL A   1      41.408  28.651  30.667  1.00  0.00     0.074 A 
ATOM     51  C   UNL A   1      42.303  32.084  35.924  1.00  0.00     0.029 A 
ATOM     52  N   UNL A   1      41.574  31.290  33.978  1.00  0.00    -0.354 N 
ATOM     53  N   UNL A   1      41.517  29.416  31.726  1.00  0.00    -0.248 NA
ATOM     54  C   UNL A   1      42.386  27.556  30.611  1.00  0.00     0.031 C 
ATOM     55  C   UNL A   1      43.086  30.978  35.576  1.00  0.00     0.029 A 
ATOM     56  C   UNL A   1      42.614  30.468  34.377  1.00  0.00     0.049 A 
ATOM     57  H   UNL A   1      41.049  31.178  33.153  1.00  0.00     0.167 HD
ATOM     58  C   UNL A   1      42.557  28.880  32.475  1.00  0.00     0.074 A 
ATOM     59  C   UNL A   1      43.028  27.712  31.760  1.00  0.00     0.031 C 
ATOM     60  C   UNL A   1      43.076  29.314  33.649  1.00  0.00     0.031 A 
BRANCH  47  61
ATOM     61  C   UNL A   1      40.350  34.400  35.863  1.00  0.00    -0.014 A 
ATOM     62  C   UNL A   1      41.128  35.565  35.758  1.00  0.00     0.009 A 
ATOM     63  C   UNL A   1      39.504  34.249  36.973  1.00  0.00     0.009 A 
ATOM     64  C   UNL A   1      41.091  36.536  36.761  1.00  0.00     0.001 A 
ATOM     65  C   UNL A   1      39.445  35.236  37.959  1.00  0.00     0.001 A 
ATOM     66  C   UNL A   1      40.246  36.373  37.857  1.00  0.00     0.000 A 
ENDBRANCH  47  61
BRANCH  48  67
ATOM     67  C   UNL A   1      40.457  27.740  28.429  1.00  0.00    -0.014 A 
ATOM     68  C   UNL A   1      41.193  27.999  27.261  1.00  0.00     0.009 A 
ATOM     69  C   UNL A   1      39.744  26.535  28.528  1.00  0.00     0.009 A 
ATOM     70  C   UNL A   1      41.187  27.086  26.204  1.00  0.00     0.001 A 
ATOM     71  C   UNL A   1      39.765  25.611  27.481  1.00  0.00     0.001 A 
ATOM     72  C   UNL A   1      40.477  25.892  26.316  1.00  0.00     0.000 A 
ENDBRANCH  48  67
BRANCH  60  73
ATOM     73  C   UNL A   1      44.191  28.501  34.245  1.00  0.00    -0.014 A 
ATOM     74  C   UNL A   1      43.929  27.424  35.107  1.00  0.00     0.009 A 
ATOM     75  C   UNL A   1      45.522  28.808  33.925  1.00  0.00     0.009 A 
ATOM     76  C   UNL A   1      44.981  26.701  35.671  1.00  0.00     0.001 A 
ATOM     77  C   UNL A   1      46.571  28.063  34.465  1.00  0.00     0.001 A 
ATOM     78  C   UNL A   1      46.300  27.018  35.347  1.00  0.00     0.000 A 
ENDBRANCH  60  73
ENDBRANCH  34  35
ENDBRANCH  26  29
ENDBRANCH  24  25
ENDBRANCH  23  24
ENDBRANCH   1  23
TORSDOF 14
ENDMDL
MODEL 2
REMARK VINA RESULT:     -10.7      3.211      7.446
REMARK SMILES Cn1cncc1COc1c(F)cc(C(=O)NCCCCNC(=O)c2ccc(-c3c4nc(c(-c5ccccc5)c5ccc([nH]5)c(-c5ccccc5)c5nc(c(-c6ccccc6)c6ccc3[nH]6)C=C5)C=C4)cc2)cc1F
REMARK SMILES IDX 18 1 17 2 16 3 14 4 15 5 13 7 9 8 10 9 73 10 11 11 12 12
REMARK SMILES IDX 72 13 74 14 8 15 7 16 6 17 1 18 2 19 3 20 4 21 5 22 19 23
REMARK SMILES IDX 20 24 21 25 22 26 23 28 24 29 25 30 71 31 26 32 70 33 27 34
REMARK SMILES IDX 28 35 29 36 64 37 30 38 69 39 63 40 65 41 31 42 68 43 62 44
REMARK SMILES IDX 61 45 32 47 54 48 39 49 53 50 40 51 43 52 52 53 66 54 41 55
REMARK SMILES IDX 42 56 51 58 67 59 44 60 33 61 34 62 38 63 35 64 37 65 36 66
REMARK SMILES IDX 55 67 56 68 60 69 57 70 59 71 58 72 45 73 46 74 50 75 47 76
REMARK SMILES IDX 49 77 48 78
REMARK H PARENT 16 6 21 27 65 46 43 57
REMARK Flexibility Score: inf
ROOT
ATOM      1  C   UNL A   1      33.375  29.312  24.808  1.00  0.00     0.023 C 
ENDROOT
BRANCH   1   2
ATOM      2  C   UNL A   1      33.513  29.011  23.312  1.00  0.00     0.116 C 
BRANCH   2   3
ATOM      3  N   UNL A   1      32.255  29.184  22.606  1.00  0.00    -0.352 N 
ATOM      4  C   UNL A   1      31.114  28.418  22.573  1.00  0.00     0.251 C 
ATOM      5  O   UNL A   1      30.125  28.876  22.003  1.00  0.00    -0.269 OA
ATOM      6  H   UNL A   1      32.211  29.997  22.052  1.00  0.00     0.163 HD
BRANCH   4   7
ATOM      7  C   UNL A   1      31.014  27.074  23.210  1.00  0.00     0.045 A 
ATOM      8  C   UNL A   1      30.733  24.564  24.474  1.00  0.00     0.191 A 
ATOM      9  C   UNL A   1      31.366  24.682  23.246  1.00  0.00     0.168 A 
ATOM     10  C   UNL A   1      30.167  25.706  25.032  1.00  0.00     0.168 A 
ATOM     11  F   UNL A   1      31.833  23.611  22.597  1.00  0.00    -0.203 F 
ATOM     12  C   UNL A   1      31.513  25.915  22.625  1.00  0.00     0.057 A 
ATOM     13  C   UNL A   1      30.301  26.954  24.413  1.00  0.00     0.057 A 
ATOM     14  F   UNL A   1      29.475  25.623  26.177  1.00  0.00    -0.203 F 
BRANCH   8  15
ATOM     15  O   UNL A   1      30.563  23.337  25.055  1.00  0.00    -0.481 OA
BRANCH  15  16
ATOM     16  C   UNL A   1      31.541  23.066  26.075  1.00  0.00     0.285 C 
BRANCH  16  17
ATOM     17  C   UNL A   1      32.395  21.920  25.653  1.00  0.00     0.075 A 
ATOM     18  C   UNL A   1      34.156  22.080  27.456  1.00  0.00     0.151 C 
ATOM     19  N   UNL A   1      33.567  21.534  26.259  1.00  0.00    -0.335 N 
ATOM     20  C   UNL A   1      34.102  20.512  25.525  1.00  0.00     0.199 A 
ATOM     21  N   UNL A   1      33.320  20.176  24.527  1.00  0.00    -0.245 NA
ATOM     22  C   UNL A   1      32.257  21.038  24.596  1.00  0.00     0.138 A 
ENDBRANCH  16  17
ENDBRANCH  15  16
ENDBRANCH   8  15
ENDBRANCH   4   7
ENDBRANCH   2   3
ENDBRANCH   1   2
BRANCH   1  23
ATOM     23  C   UNL A   1      33.541  28.113  25.736  1.00  0.00     0.023 C 
BRANCH  23  24
ATOM     24  C   UNL A   1      33.631  28.451  27.217  1.00  0.00     0.116 C 
BRANCH  24  25
ATOM     25  N   UNL A   1      33.551  29.874  27.500  1.00  0.00    -0.352 N 
ATOM     26  C   UNL A   1      34.525  30.695  28.022  1.00  0.00     0.251 C 
ATOM     27  H   UNL A   1      32.691  30.307  27.293  1.00  0.00     0.163 HD
ATOM     28  O   UNL A   1      34.280  31.863  28.281  1.00  0.00    -0.269 OA
BRANCH  26  29
ATOM     29  C   UNL A   1      35.862  30.132  28.310  1.00  0.00     0.039 A 
ATOM     30  C   UNL A   1      36.839  30.184  27.313  1.00  0.00     0.014 A 
ATOM     31  C   UNL A   1      36.159  29.587  29.561  1.00  0.00     0.014 A 
ATOM     32  C   UNL A   1      38.132  29.741  27.594  1.00  0.00     0.010 A 
ATOM     33  C   UNL A   1      37.467  29.223  29.865  1.00  0.00     0.010 A 
ATOM     34  C   UNL A   1      38.463  29.286  28.881  1.00  0.00    -0.014 A 
BRANCH  34  35
ATOM     35  C   UNL A   1      39.846  28.859  29.203  1.00  0.00     0.031 A 
ATOM     36  C   UNL A   1      40.335  27.499  28.785  1.00  0.00     0.074 A 
ATOM     37  C   UNL A   1      40.650  29.679  29.906  1.00  0.00     0.049 A 
ATOM     38  N   UNL A   1      41.512  26.954  28.966  1.00  0.00    -0.248 NA
ATOM     39  C   UNL A   1      39.370  26.626  28.098  1.00  0.00     0.031 C 
ATOM     40  C   UNL A   1      40.278  30.999  30.419  1.00  0.00     0.029 A 
ATOM     41  N   UNL A   1      41.953  29.523  30.307  1.00  0.00    -0.354 N 
ATOM     42  C   UNL A   1      41.423  25.677  28.428  1.00  0.00     0.074 A 
ATOM     43  C   UNL A   1      40.062  25.505  27.968  1.00  0.00     0.031 C 
ATOM     44  C   UNL A   1      41.339  31.549  31.031  1.00  0.00     0.029 A 
ATOM     45  C   UNL A   1      42.455  30.611  30.979  1.00  0.00     0.049 A 
ATOM     46  H   UNL A   1      42.478  28.710  30.129  1.00  0.00     0.167 HD
ATOM     47  C   UNL A   1      42.391  24.739  28.301  1.00  0.00     0.031 A 
ATOM     48  C   UNL A   1      43.681  30.830  31.489  1.00  0.00     0.031 A 
ATOM     49  C   UNL A   1      43.748  24.913  28.746  1.00  0.00     0.049 A 
ATOM     50  C   UNL A   1      44.742  29.778  31.327  1.00  0.00     0.074 A 
ATOM     51  C   UNL A   1      44.817  24.046  28.613  1.00  0.00     0.029 A 
ATOM     52  N   UNL A   1      44.218  26.033  29.414  1.00  0.00    -0.354 N 
ATOM     53  N   UNL A   1      44.663  28.607  30.743  1.00  0.00    -0.248 NA
ATOM     54  C   UNL A   1      46.067  30.088  31.880  1.00  0.00     0.031 C 
ATOM     55  C   UNL A   1      45.926  24.622  29.243  1.00  0.00     0.029 A 
ATOM     56  C   UNL A   1      45.560  25.871  29.717  1.00  0.00     0.049 A 
ATOM     57  H   UNL A   1      43.680  26.826  29.638  1.00  0.00     0.167 HD
ATOM     58  C   UNL A   1      45.934  28.053  30.833  1.00  0.00     0.074 A 
ATOM     59  C   UNL A   1      46.767  29.026  31.507  1.00  0.00     0.031 C 
ATOM     60  C   UNL A   1      46.373  26.847  30.397  1.00  0.00     0.031 A 
BRANCH  47  61
ATOM     61  C   UNL A   1      42.009  23.437  27.652  1.00  0.00    -0.014 A 
ATOM     62  C   UNL A   1      41.428  22.396  28.396  1.00  0.00     0.009 A 
ATOM     63  C   UNL A   1      42.211  23.255  26.276  1.00  0.00     0.009 A 
ATOM     64  C   UNL A   1      41.097  21.186  27.783  1.00  0.00     0.001 A 
ATOM     65  C   UNL A   1      41.851  22.055  25.659  1.00  0.00     0.001 A 
ATOM     66  C   UNL A   1      41.304  21.019  26.415  1.00  0.00     0.000 A 
ENDBRANCH  47  61
BRANCH  48  67
ATOM     67  C   UNL A   1      43.987  32.115  32.172  1.00  0.00    -0.014 A 
ATOM     68  C   UNL A   1      44.480  33.209  31.443  1.00  0.00     0.009 A 
ATOM     69  C   UNL A   1      43.801  32.251  33.557  1.00  0.00     0.009 A 
ATOM     70  C   UNL A   1      44.810  34.401  32.091  1.00  0.00     0.001 A 
ATOM     71  C   UNL A   1      44.104  33.454  34.197  1.00  0.00     0.001 A 
ATOM     72  C   UNL A   1      44.619  34.524  33.466  1.00  0.00     0.000 A 
ENDBRANCH  48  67
BRANCH  60  73
ATOM     73  C   UNL A   1      47.827  26.532  30.611  1.00  0.00    -0.014 A 
ATOM     74  C   UNL A   1      48.799  26.893  29.664  1.00  0.00     0.009 A 
ATOM     75  C   UNL A   1      48.230  25.877  31.785  1.00  0.00     0.009 A 
ATOM     76  C   UNL A   1      50.140  26.564  29.870  1.00  0.00     0.001 A 
ATOM     77  C   UNL A   1      49.575  25.579  32.003  1.00  0.00     0.001 A 
ATOM     78  C   UNL A   1      50.527  25.911  31.040  1.00  0.00     0.000 A 
ENDBRANCH  60  73
ENDBRANCH  34  35
ENDBRANCH  26  29
ENDBRANCH  24  25
ENDBRANCH  23  24
ENDBRANCH   1  23
TORSDOF 14
ENDMDL
MODEL 3
REMARK VINA RESULT:     -10.7      2.494      4.184
REMARK SMILES Cn1cncc1COc1c(F)cc(C(=O)NCCCCNC(=O)c2ccc(-c3c4nc(c(-c5ccccc5)c5ccc([nH]5)c(-c5ccccc5)c5nc(c(-c6ccccc6)c6ccc3[nH]6)C=C5)C=C4)cc2)cc1F
REMARK SMILES IDX 18 1 17 2 16 3 14 4 15 5 13 7 9 8 10 9 73 10 11 11 12 12
REMARK SMILES IDX 72 13 74 14 8 15 7 16 6 17 1 18 2 19 3 20 4 21 5 22 19 23
REMARK SMILES IDX 20 24 21 25 22 26 23 28 24 29 25 30 71 31 26 32 70 33 27 34
REMARK SMILES IDX 28 35 29 36 64 37 30 38 69 39 63 40 65 41 31 42 68 43 62 44
REMARK SMILES IDX 61 45 32 47 54 48 39 49 53 50 40 51 43 52 52 53 66 54 41 55
REMARK SMILES IDX 42 56 51 58 67 59 44 60 33 61 34 62 38 63 35 64 37 65 36 66
REMARK SMILES IDX 55 67 56 68 60 69 57 70 59 71 58 72 45 73 46 74 50 75 47 76
REMARK SMILES IDX 49 77 48 78
REMARK H PARENT 16 6 21 27 65 46 43 57
REMARK Flexibility Score: inf
ROOT
ATOM      1  C   UNL A   1      33.256  29.662  27.323  1.00  0.00     0.023 C 
ENDROOT
BRANCH   1   2
ATOM      2  C   UNL A   1      32.568  28.295  27.252  1.00  0.00     0.116 C 
BRANCH   2   3
ATOM      3  N   UNL A   1      33.287  27.371  26.392  1.00  0.00    -0.352 N 
ATOM      4  C   UNL A   1      33.120  27.038  25.069  1.00  0.00     0.251 C 
ATOM      5  O   UNL A   1      33.972  26.326  24.538  1.00  0.00    -0.269 OA
ATOM      6  H   UNL A   1      34.027  26.897  26.837  1.00  0.00     0.163 HD
BRANCH   4   7
ATOM      7  C   UNL A   1      31.972  27.513  24.245  1.00  0.00     0.045 A 
ATOM      8  C   UNL A   1      29.726  28.375  22.765  1.00  0.00     0.191 A 
ATOM      9  C   UNL A   1      30.958  28.997  22.628  1.00  0.00     0.168 A 
ATOM     10  C   UNL A   1      29.605  27.363  23.713  1.00  0.00     0.168 A 
ATOM     11  F   UNL A   1      31.121  30.050  21.821  1.00  0.00    -0.203 F 
ATOM     12  C   UNL A   1      32.066  28.573  23.348  1.00  0.00     0.057 A 
ATOM     13  C   UNL A   1      30.713  26.931  24.451  1.00  0.00     0.057 A 
ATOM     14  F   UNL A   1      28.414  26.791  23.936  1.00  0.00    -0.203 F 
BRANCH   8  15
ATOM     15  O   UNL A   1      28.635  28.831  22.076  1.00  0.00    -0.481 OA
BRANCH  15  16
ATOM     16  C   UNL A   1      27.792  29.681  22.873  1.00  0.00     0.285 C 
BRANCH  16  17
ATOM     17  C   UNL A   1      28.086  31.107  22.559  1.00  0.00     0.075 A 
ATOM     18  C   UNL A   1      29.568  31.628  24.537  1.00  0.00     0.151 C 
ATOM     19  N   UNL A   1      28.842  31.955  23.335  1.00  0.00    -0.335 N 
ATOM     20  C   UNL A   1      28.797  33.197  22.766  1.00  0.00     0.199 A 
ATOM     21  N   UNL A   1      28.117  33.188  21.644  1.00  0.00    -0.245 NA
ATOM     22  C   UNL A   1      27.674  31.899  21.502  1.00  0.00     0.138 A 
ENDBRANCH  16  17
ENDBRANCH  15  16
ENDBRANCH   8  15
ENDBRANCH   4   7
ENDBRANCH   2   3
ENDBRANCH   1   2
BRANCH   1  23
ATOM     23  C   UNL A   1      32.320  30.864  27.387  1.00  0.00     0.023 C 
BRANCH  23  24
ATOM     24  C   UNL A   1      32.812  32.106  26.658  1.00  0.00     0.116 C 
BRANCH  24  25
ATOM     25  N   UNL A   1      32.400  33.354  27.279  1.00  0.00    -0.352 N 
ATOM     26  C   UNL A   1      33.054  34.079  28.249  1.00  0.00     0.251 C 
ATOM     27  H   UNL A   1      31.546  33.729  26.966  1.00  0.00     0.163 HD
ATOM     28  O   UNL A   1      32.539  35.075  28.733  1.00  0.00    -0.269 OA
BRANCH  26  29
ATOM     29  C   UNL A   1      34.370  33.610  28.734  1.00  0.00     0.039 A 
ATOM     30  C   UNL A   1      34.415  32.815  29.881  1.00  0.00     0.014 A 
ATOM     31  C   UNL A   1      35.545  33.924  28.046  1.00  0.00     0.014 A 
ATOM     32  C   UNL A   1      35.636  32.288  30.304  1.00  0.00     0.010 A 
ATOM     33  C   UNL A   1      36.746  33.331  28.420  1.00  0.00     0.010 A 
ATOM     34  C   UNL A   1      36.805  32.516  29.560  1.00  0.00    -0.014 A 
BRANCH  34  35
ATOM     35  C   UNL A   1      38.098  31.919  29.973  1.00  0.00     0.031 A 
ATOM     36  C   UNL A   1      38.978  32.632  30.964  1.00  0.00     0.074 A 
ATOM     37  C   UNL A   1      38.500  30.755  29.428  1.00  0.00     0.049 A 
ATOM     38  N   UNL A   1      40.135  32.264  31.454  1.00  0.00    -0.248 NA
ATOM     39  C   UNL A   1      38.512  33.941  31.448  1.00  0.00     0.031 C 
ATOM     40  C   UNL A   1      37.766  29.993  28.415  1.00  0.00     0.029 A 
ATOM     41  N   UNL A   1      39.626  30.005  29.656  1.00  0.00    -0.354 N 
ATOM     42  C   UNL A   1      40.536  33.297  32.290  1.00  0.00     0.074 A 
ATOM     43  C   UNL A   1      39.532  34.333  32.196  1.00  0.00     0.031 C 
ATOM     44  C   UNL A   1      38.440  28.866  28.139  1.00  0.00     0.029 A 
ATOM     45  C   UNL A   1      39.665  28.839  28.930  1.00  0.00     0.049 A 
ATOM     46  H   UNL A   1      40.338  30.277  30.279  1.00  0.00     0.167 HD
ATOM     47  C   UNL A   1      41.628  33.370  33.087  1.00  0.00     0.031 A 
ATOM     48  C   UNL A   1      40.583  27.855  28.913  1.00  0.00     0.031 A 
ATOM     49  C   UNL A   1      42.622  32.335  33.192  1.00  0.00     0.049 A 
ATOM     50  C   UNL A   1      41.782  27.953  29.814  1.00  0.00     0.074 A 
ATOM     51  C   UNL A   1      43.735  32.287  34.012  1.00  0.00     0.029 A 
ATOM     52  N   UNL A   1      42.621  31.165  32.448  1.00  0.00    -0.354 N 
ATOM     53  N   UNL A   1      42.105  28.902  30.659  1.00  0.00    -0.248 NA
ATOM     54  C   UNL A   1      42.732  26.834  29.770  1.00  0.00     0.031 C 
ATOM     55  C   UNL A   1      44.434  31.108  33.731  1.00  0.00     0.029 A 
ATOM     56  C   UNL A   1      43.725  30.397  32.776  1.00  0.00     0.049 A 
ATOM     57  H   UNL A   1      41.936  30.917  31.786  1.00  0.00     0.167 HD
ATOM     58  C   UNL A   1      43.281  28.480  31.268  1.00  0.00     0.074 A 
ATOM     59  C   UNL A   1      43.599  27.182  30.710  1.00  0.00     0.031 C 
ATOM     60  C   UNL A   1      44.031  29.110  32.205  1.00  0.00     0.031 A 
BRANCH  47  61
ATOM     61  C   UNL A   1      41.800  34.617  33.909  1.00  0.00    -0.014 A 
ATOM     62  C   UNL A   1      41.315  34.694  35.225  1.00  0.00     0.009 A 
ATOM     63  C   UNL A   1      42.474  35.724  33.370  1.00  0.00     0.009 A 
ATOM     64  C   UNL A   1      41.465  35.867  35.969  1.00  0.00     0.001 A 
ATOM     65  C   UNL A   1      42.650  36.884  34.127  1.00  0.00     0.001 A 
ATOM     66  C   UNL A   1      42.137  36.958  35.421  1.00  0.00     0.000 A 
ENDBRANCH  47  61
BRANCH  48  67
ATOM     67  C   UNL A   1      40.389  26.669  28.037  1.00  0.00    -0.014 A 
ATOM     68  C   UNL A   1      39.699  25.541  28.508  1.00  0.00     0.009 A 
ATOM     69  C   UNL A   1      40.904  26.653  26.731  1.00  0.00     0.009 A 
ATOM     70  C   UNL A   1      39.556  24.410  27.701  1.00  0.00     0.001 A 
ATOM     71  C   UNL A   1      40.734  25.531  25.916  1.00  0.00     0.001 A 
ATOM     72  C   UNL A   1      40.070  24.407  26.406  1.00  0.00     0.000 A 
ENDBRANCH  48  67
BRANCH  60  73
ATOM     73  C   UNL A   1      45.249  28.386  32.704  1.00  0.00    -0.014 A 
ATOM     74  C   UNL A   1      46.506  28.574  32.107  1.00  0.00     0.009 A 
ATOM     75  C   UNL A   1      45.140  27.515  33.799  1.00  0.00     0.009 A 
ATOM     76  C   UNL A   1      47.619  27.869  32.569  1.00  0.00     0.001 A 
ATOM     77  C   UNL A   1      46.260  26.836  34.279  1.00  0.00     0.001 A 
ATOM     78  C   UNL A   1      47.496  27.004  33.656  1.00  0.00     0.000 A 
ENDBRANCH  60  73
ENDBRANCH  34  35
ENDBRANCH  26  29
ENDBRANCH  24  25
ENDBRANCH  23  24
ENDBRANCH   1  23
TORSDOF 14
ENDMDL
