MODEL 1
REMARK VINA RESULT:     -10.7      0.000      0.000
REMARK SMILES CC(C)[NH2+][C@@H](CSc1cccc(F)c1)C(=O)NCCCCNC(=O)c1ccc(-c2c3nc(c(-c4ccccc4)c4ccc([nH]4)c(-c4ccccc4)c4nc(c(-c5ccccc5)c5ccc2[nH]5)C=C4)C=C3)cc1
REMARK SMILES IDX 19 1 18 2 17 3 15 4 16 5 5 7 4 8 2 11 1 12 3 13 6 14 7 15
REMARK SMILES IDX 8 16 9 17 14 18 10 19 12 20 11 21 13 22 20 23 21 24 22 25
REMARK SMILES IDX 23 26 24 28 25 29 26 30 72 31 27 32 71 33 28 34 29 35 30 36
REMARK SMILES IDX 65 37 31 38 70 39 64 40 66 41 32 42 69 43 63 44 62 45 33 47
REMARK SMILES IDX 55 48 40 49 54 50 41 51 44 52 53 53 67 54 42 55 43 56 52 58
REMARK SMILES IDX 68 59 45 60 34 61 35 62 39 63 36 64 38 65 37 66 56 67 57 68
REMARK SMILES IDX 61 69 58 70 60 71 59 72 46 73 47 74 51 75 48 76 50 77 49 78
REMARK H PARENT 17 6 4 9 4 10 22 27 66 46 44 57
REMARK Flexibility Score: inf
ROOT
ATOM      1  C   UNL A   1      32.041  30.380  26.763  1.00  0.00     0.023 C 
ENDROOT
BRANCH   1   2
ATOM      2  C   UNL A   1      31.652  29.690  25.464  1.00  0.00     0.116 C 
BRANCH   2   3
ATOM      3  N   UNL A   1      32.738  29.474  24.547  1.00  0.00    -0.351 N 
ATOM      4  C   UNL A   1      32.654  29.030  23.257  1.00  0.00     0.279 C 
ATOM      5  O   UNL A   1      33.711  28.950  22.620  1.00  0.00    -0.268 OA
ATOM      6  H   UNL A   1      33.642  29.668  24.885  1.00  0.00     0.163 HD
BRANCH   4   7
ATOM      7  C   UNL A   1      31.308  28.545  22.613  1.00  0.00     0.283 C 
BRANCH   7   8
ATOM      8  N   UNL A   1      30.705  29.674  21.886  1.00  0.00    -0.333 N 
ATOM      9  H   UNL A   1      31.349  30.463  21.951  1.00  0.00     0.347 HD
ATOM     10  H   UNL A   1      30.548  29.330  20.938  1.00  0.00     0.347 HD
BRANCH   8  11
ATOM     11  C   UNL A   1      29.388  30.134  22.354  1.00  0.00     0.176 C 
ATOM     12  C   UNL A   1      28.720  30.847  21.169  1.00  0.00     0.075 C 
ATOM     13  C   UNL A   1      28.444  29.047  22.867  1.00  0.00     0.075 C 
ENDBRANCH   8  11
ENDBRANCH   7   8
BRANCH   7  14
ATOM     14  C   UNL A   1      31.423  27.130  21.980  1.00  0.00     0.150 C 
BRANCH  14  15
ATOM     15  S   UNL A   1      31.492  25.374  22.645  1.00  0.00    -0.119 SA
BRANCH  15  16
ATOM     16  C   UNL A   1      32.936  24.910  23.588  1.00  0.00     0.010 A 
ATOM     17  C   UNL A   1      33.343  25.392  24.828  1.00  0.00     0.015 A 
ATOM     18  C   UNL A   1      33.811  24.019  22.948  1.00  0.00     0.054 A 
ATOM     19  C   UNL A   1      34.554  25.017  25.428  1.00  0.00     0.004 A 
ATOM     20  C   UNL A   1      35.024  23.651  23.533  1.00  0.00     0.124 A 
ATOM     21  C   UNL A   1      35.404  24.144  24.771  1.00  0.00     0.039 A 
ATOM     22  F   UNL A   1      35.847  22.821  22.880  1.00  0.00    -0.207 F 
ENDBRANCH  15  16
ENDBRANCH  14  15
ENDBRANCH   7  14
ENDBRANCH   4   7
ENDBRANCH   2   3
ENDBRANCH   1   2
BRANCH   1  23
ATOM     23  C   UNL A   1      31.699  31.861  26.830  1.00  0.00     0.023 C 
BRANCH  23  24
ATOM     24  C   UNL A   1      32.815  32.773  27.328  1.00  0.00     0.116 C 
BRANCH  24  25
ATOM     25  N   UNL A   1      32.391  34.129  27.659  1.00  0.00    -0.352 N 
ATOM     26  C   UNL A   1      32.958  35.008  28.555  1.00  0.00     0.251 C 
ATOM     27  H   UNL A   1      31.597  34.458  27.178  1.00  0.00     0.163 HD
ATOM     28  O   UNL A   1      32.453  36.106  28.769  1.00  0.00    -0.269 OA
BRANCH  26  29
ATOM     29  C   UNL A   1      34.159  34.589  29.305  1.00  0.00     0.039 A 
ATOM     30  C   UNL A   1      34.002  34.008  30.565  1.00  0.00     0.014 A 
ATOM     31  C   UNL A   1      35.424  34.675  28.717  1.00  0.00     0.014 A 
ATOM     32  C   UNL A   1      35.102  33.417  31.190  1.00  0.00     0.010 A 
ATOM     33  C   UNL A   1      36.494  34.007  29.299  1.00  0.00     0.010 A 
ATOM     34  C   UNL A   1      36.342  33.360  30.535  1.00  0.00    -0.014 A 
BRANCH  34  35
ATOM     35  C   UNL A   1      37.491  32.614  31.110  1.00  0.00     0.031 A 
ATOM     36  C   UNL A   1      38.135  33.087  32.383  1.00  0.00     0.074 A 
ATOM     37  C   UNL A   1      38.012  31.565  30.442  1.00  0.00     0.049 A 
ATOM     38  N   UNL A   1      39.197  32.624  32.993  1.00  0.00    -0.248 NA
ATOM     39  C   UNL A   1      37.527  34.255  33.041  1.00  0.00     0.031 C 
ATOM     40  C   UNL A   1      37.517  31.034  29.169  1.00  0.00     0.029 A 
ATOM     41  N   UNL A   1      39.083  30.759  30.740  1.00  0.00    -0.354 N 
ATOM     42  C   UNL A   1      39.396  33.458  34.086  1.00  0.00     0.074 A 
ATOM     43  C   UNL A   1      38.378  34.484  34.028  1.00  0.00     0.031 C 
ATOM     44  C   UNL A   1      38.260  29.972  28.815  1.00  0.00     0.029 A 
ATOM     45  C   UNL A   1      39.308  29.773  29.810  1.00  0.00     0.049 A 
ATOM     46  H   UNL A   1      39.638  30.878  31.545  1.00  0.00     0.167 HD
ATOM     47  C   UNL A   1      40.329  33.368  35.063  1.00  0.00     0.031 A 
ATOM     48  C   UNL A   1      40.254  28.816  29.763  1.00  0.00     0.031 A 
ATOM     49  C   UNL A   1      41.324  32.333  35.140  1.00  0.00     0.049 A 
ATOM     50  C   UNL A   1      41.275  28.733  30.864  1.00  0.00     0.074 A 
ATOM     51  C   UNL A   1      42.265  32.115  36.131  1.00  0.00     0.029 A 
ATOM     52  N   UNL A   1      41.504  31.342  34.188  1.00  0.00    -0.354 N 
ATOM     53  N   UNL A   1      41.403  29.486  31.928  1.00  0.00    -0.248 NA
ATOM     54  C   UNL A   1      42.275  27.661  30.758  1.00  0.00     0.031 C 
ATOM     55  C   UNL A   1      43.045  31.016  35.756  1.00  0.00     0.029 A 
ATOM     56  C   UNL A   1      42.557  30.523  34.557  1.00  0.00     0.049 A 
ATOM     57  H   UNL A   1      40.965  31.238  33.372  1.00  0.00     0.167 HD
ATOM     58  C   UNL A   1      42.477  28.962  32.635  1.00  0.00     0.074 A 
ATOM     59  C   UNL A   1      42.957  27.820  31.885  1.00  0.00     0.031 C 
ATOM     60  C   UNL A   1      43.019  29.388  33.802  1.00  0.00     0.031 A 
BRANCH  47  61
ATOM     61  C   UNL A   1      40.312  34.425  36.131  1.00  0.00    -0.014 A 
ATOM     62  C   UNL A   1      41.113  35.574  36.031  1.00  0.00     0.009 A 
ATOM     63  C   UNL A   1      39.464  34.283  37.241  1.00  0.00     0.009 A 
ATOM     64  C   UNL A   1      41.093  36.541  37.037  1.00  0.00     0.001 A 
ATOM     65  C   UNL A   1      39.424  35.266  38.231  1.00  0.00     0.001 A 
ATOM     66  C   UNL A   1      40.246  36.389  38.133  1.00  0.00     0.000 A 
ENDBRANCH  47  61
BRANCH  48  67
ATOM     67  C   UNL A   1      40.272  27.835  28.645  1.00  0.00    -0.014 A 
ATOM     68  C   UNL A   1      39.591  26.613  28.766  1.00  0.00     0.009 A 
ATOM     69  C   UNL A   1      40.977  28.106  27.463  1.00  0.00     0.009 A 
ATOM     70  C   UNL A   1      39.641  25.671  27.737  1.00  0.00     0.001 A 
ATOM     71  C   UNL A   1      41.001  27.172  26.424  1.00  0.00     0.001 A 
ATOM     72  C   UNL A   1      40.343  25.952  26.565  1.00  0.00     0.000 A 
ENDBRANCH  48  67
BRANCH  60  73
ATOM     73  C   UNL A   1      44.164  28.593  34.359  1.00  0.00    -0.014 A 
ATOM     74  C   UNL A   1      43.945  27.460  35.157  1.00  0.00     0.009 A 
ATOM     75  C   UNL A   1      45.482  28.960  34.042  1.00  0.00     0.009 A 
ATOM     76  C   UNL A   1      45.025  26.728  35.653  1.00  0.00     0.001 A 
ATOM     77  C   UNL A   1      46.558  28.211  34.517  1.00  0.00     0.001 A 
ATOM     78  C   UNL A   1      46.330  27.101  35.329  1.00  0.00     0.000 A 
ENDBRANCH  60  73
ENDBRANCH  34  35
ENDBRANCH  26  29
ENDBRANCH  24  25
ENDBRANCH  23  24
ENDBRANCH   1  23
TORSDOF 16
ENDMDL
MODEL 2
REMARK VINA RESULT:     -10.7      4.890      9.766
REMARK SMILES CC(C)[NH2+][C@@H](CSc1cccc(F)c1)C(=O)NCCCCNC(=O)c1ccc(-c2c3nc(c(-c4ccccc4)c4ccc([nH]4)c(-c4ccccc4)c4nc(c(-c5ccccc5)c5ccc2[nH]5)C=C4)C=C3)cc1
REMARK SMILES IDX 19 1 18 2 17 3 15 4 16 5 5 7 4 8 2 11 1 12 3 13 6 14 7 15
REMARK SMILES IDX 8 16 9 17 14 18 10 19 12 20 11 21 13 22 20 23 21 24 22 25
REMARK SMILES IDX 23 26 24 28 25 29 26 30 72 31 27 32 71 33 28 34 29 35 30 36
REMARK SMILES IDX 65 37 31 38 70 39 64 40 66 41 32 42 69 43 63 44 62 45 33 47
REMARK SMILES IDX 55 48 40 49 54 50 41 51 44 52 53 53 67 54 42 55 43 56 52 58
REMARK SMILES IDX 68 59 45 60 34 61 35 62 39 63 36 64 38 65 37 66 56 67 57 68
REMARK SMILES IDX 61 69 58 70 60 71 59 72 46 73 47 74 51 75 48 76 50 77 49 78
REMARK H PARENT 17 6 4 9 4 10 22 27 66 46 44 57
REMARK Flexibility Score: inf
ROOT
ATOM      1  C   UNL A   1      37.047  21.808  24.205  1.00  0.00     0.023 C 
ENDROOT
BRANCH   1   2
ATOM      2  C   UNL A   1      35.618  22.212  24.534  1.00  0.00     0.116 C 
BRANCH   2   3
ATOM      3  N   UNL A   1      35.258  22.081  25.919  1.00  0.00    -0.351 N 
ATOM      4  C   UNL A   1      34.200  21.389  26.437  1.00  0.00     0.279 C 
ATOM      5  O   UNL A   1      34.089  21.368  27.668  1.00  0.00    -0.268 OA
ATOM      6  H   UNL A   1      35.840  22.541  26.568  1.00  0.00     0.163 HD
BRANCH   4   7
ATOM      7  C   UNL A   1      33.102  20.721  25.536  1.00  0.00     0.283 C 
BRANCH   7   8
ATOM      8  N   UNL A   1      32.952  19.316  25.950  1.00  0.00    -0.333 N 
ATOM      9  H   UNL A   1      33.558  19.165  26.756  1.00  0.00     0.347 HD
ATOM     10  H   UNL A   1      31.955  19.197  26.137  1.00  0.00     0.347 HD
BRANCH   8  11
ATOM     11  C   UNL A   1      33.281  18.291  24.946  1.00  0.00     0.176 C 
ATOM     12  C   UNL A   1      32.415  18.584  23.712  1.00  0.00     0.075 C 
ATOM     13  C   UNL A   1      34.745  18.227  24.513  1.00  0.00     0.075 C 
ENDBRANCH   8  11
ENDBRANCH   7   8
BRANCH   7  14
ATOM     14  C   UNL A   1      31.873  21.644  25.305  1.00  0.00     0.150 C 
BRANCH  14  15
ATOM     15  S   UNL A   1      31.375  23.365  25.869  1.00  0.00    -0.119 SA
BRANCH  15  16
ATOM     16  C   UNL A   1      32.236  24.749  25.137  1.00  0.00     0.010 A 
ATOM     17  C   UNL A   1      32.495  24.984  23.790  1.00  0.00     0.015 A 
ATOM     18  C   UNL A   1      32.798  25.657  26.048  1.00  0.00     0.054 A 
ATOM     19  C   UNL A   1      33.267  26.066  23.344  1.00  0.00     0.004 A 
ATOM     20  C   UNL A   1      33.578  26.729  25.610  1.00  0.00     0.124 A 
ATOM     21  C   UNL A   1      33.818  26.942  24.263  1.00  0.00     0.039 A 
ATOM     22  F   UNL A   1      34.122  27.559  26.510  1.00  0.00    -0.207 F 
ENDBRANCH  15  16
ENDBRANCH  14  15
ENDBRANCH   7  14
ENDBRANCH   4   7
ENDBRANCH   2   3
ENDBRANCH   1   2
BRANCH   1  23
ATOM     23  C   UNL A   1      37.579  20.625  24.999  1.00  0.00     0.023 C 
BRANCH  23  24
ATOM     24  C   UNL A   1      38.895  20.862  25.732  1.00  0.00     0.116 C 
BRANCH  24  25
ATOM     25  N   UNL A   1      39.830  19.743  25.680  1.00  0.00    -0.352 N 
ATOM     26  C   UNL A   1      41.157  19.719  26.051  1.00  0.00     0.251 C 
ATOM     27  H   UNL A   1      39.465  18.896  25.336  1.00  0.00     0.163 HD
ATOM     28  O   UNL A   1      41.838  18.710  25.898  1.00  0.00    -0.269 OA
BRANCH  26  29
ATOM     29  C   UNL A   1      41.771  20.950  26.589  1.00  0.00     0.039 A 
ATOM     30  C   UNL A   1      42.269  21.903  25.697  1.00  0.00     0.014 A 
ATOM     31  C   UNL A   1      41.757  21.204  27.963  1.00  0.00     0.014 A 
ATOM     32  C   UNL A   1      42.656  23.155  26.177  1.00  0.00     0.010 A 
ATOM     33  C   UNL A   1      42.056  22.480  28.424  1.00  0.00     0.010 A 
ATOM     34  C   UNL A   1      42.496  23.473  27.535  1.00  0.00    -0.014 A 
BRANCH  34  35
ATOM     35  C   UNL A   1      42.763  24.841  28.050  1.00  0.00     0.031 A 
ATOM     36  C   UNL A   1      44.152  25.229  28.472  1.00  0.00     0.074 A 
ATOM     37  C   UNL A   1      41.742  25.705  28.220  1.00  0.00     0.049 A 
ATOM     38  N   UNL A   1      44.567  26.341  29.024  1.00  0.00    -0.248 NA
ATOM     39  C   UNL A   1      45.210  24.224  28.280  1.00  0.00     0.031 C 
ATOM     40  C   UNL A   1      40.337  25.438  27.901  1.00  0.00     0.029 A 
ATOM     41  N   UNL A   1      41.729  26.986  28.715  1.00  0.00    -0.354 N 
ATOM     42  C   UNL A   1      45.922  26.157  29.269  1.00  0.00     0.074 A 
ATOM     43  C   UNL A   1      46.249  24.811  28.852  1.00  0.00     0.031 C 
ATOM     44  C   UNL A   1      39.607  26.532  28.174  1.00  0.00     0.029 A 
ATOM     45  C   UNL A   1      40.481  27.561  28.727  1.00  0.00     0.049 A 
ATOM     46  H   UNL A   1      42.538  27.448  29.031  1.00  0.00     0.167 HD
ATOM     47  C   UNL A   1      46.820  27.035  29.774  1.00  0.00     0.031 A 
ATOM     48  C   UNL A   1      40.084  28.779  29.140  1.00  0.00     0.031 A 
ATOM     49  C   UNL A   1      46.505  28.383  30.163  1.00  0.00     0.049 A 
ATOM     50  C   UNL A   1      41.102  29.738  29.692  1.00  0.00     0.074 A 
ATOM     51  C   UNL A   1      47.361  29.371  30.617  1.00  0.00     0.029 A 
ATOM     52  N   UNL A   1      45.232  28.931  30.141  1.00  0.00    -0.354 N 
ATOM     53  N   UNL A   1      42.392  29.572  29.847  1.00  0.00    -0.248 NA
ATOM     54  C   UNL A   1      40.606  31.055  30.117  1.00  0.00     0.031 C 
ATOM     55  C   UNL A   1      46.598  30.506  30.912  1.00  0.00     0.029 A 
ATOM     56  C   UNL A   1      45.276  30.238  30.595  1.00  0.00     0.049 A 
ATOM     57  H   UNL A   1      44.419  28.461  29.847  1.00  0.00     0.167 HD
ATOM     58  C   UNL A   1      42.868  30.773  30.358  1.00  0.00     0.074 A 
ATOM     59  C   UNL A   1      41.730  31.661  30.475  1.00  0.00     0.031 C 
ATOM     60  C   UNL A   1      44.136  31.110  30.701  1.00  0.00     0.031 A 
BRANCH  47  61
ATOM     61  C   UNL A   1      48.236  26.557  29.936  1.00  0.00    -0.014 A 
ATOM     62  C   UNL A   1      49.190  26.752  28.925  1.00  0.00     0.009 A 
ATOM     63  C   UNL A   1      48.627  25.926  31.127  1.00  0.00     0.009 A 
ATOM     64  C   UNL A   1      50.498  26.293  29.087  1.00  0.00     0.001 A 
ATOM     65  C   UNL A   1      49.943  25.493  31.299  1.00  0.00     0.001 A 
ATOM     66  C   UNL A   1      50.874  25.667  30.275  1.00  0.00     0.000 A 
ENDBRANCH  47  61
BRANCH  48  67
ATOM     67  C   UNL A   1      38.656  29.180  29.026  1.00  0.00    -0.014 A 
ATOM     68  C   UNL A   1      38.148  29.642  27.802  1.00  0.00     0.009 A 
ATOM     69  C   UNL A   1      37.802  29.119  30.137  1.00  0.00     0.009 A 
ATOM     70  C   UNL A   1      36.819  30.061  27.701  1.00  0.00     0.001 A 
ATOM     71  C   UNL A   1      36.466  29.512  30.025  1.00  0.00     0.001 A 
ATOM     72  C   UNL A   1      35.979  29.993  28.811  1.00  0.00     0.000 A 
ENDBRANCH  48  67
BRANCH  60  73
ATOM     73  C   UNL A   1      44.365  32.509  31.196  1.00  0.00    -0.014 A 
ATOM     74  C   UNL A   1      44.310  32.815  32.564  1.00  0.00     0.009 A 
ATOM     75  C   UNL A   1      44.683  33.524  30.280  1.00  0.00     0.009 A 
ATOM     76  C   UNL A   1      44.541  34.121  33.002  1.00  0.00     0.001 A 
ATOM     77  C   UNL A   1      44.940  34.821  30.724  1.00  0.00     0.001 A 
ATOM     78  C   UNL A   1      44.860  35.121  32.084  1.00  0.00     0.000 A 
ENDBRANCH  60  73
ENDBRANCH  34  35
ENDBRANCH  26  29
ENDBRANCH  24  25
ENDBRANCH  23  24
ENDBRANCH   1  23
TORSDOF 16
ENDMDL
MODEL 3
REMARK VINA RESULT:     -10.7      4.953      9.360
REMARK SMILES CC(C)[NH2+][C@@H](CSc1cccc(F)c1)C(=O)NCCCCNC(=O)c1ccc(-c2c3nc(c(-c4ccccc4)c4ccc([nH]4)c(-c4ccccc4)c4nc(c(-c5ccccc5)c5ccc2[nH]5)C=C4)C=C3)cc1
REMARK SMILES IDX 19 1 18 2 17 3 15 4 16 5 5 7 4 8 2 11 1 12 3 13 6 14 7 15
REMARK SMILES IDX 8 16 9 17 14 18 10 19 12 20 11 21 13 22 20 23 21 24 22 25
REMARK SMILES IDX 23 26 24 28 25 29 26 30 72 31 27 32 71 33 28 34 29 35 30 36
REMARK SMILES IDX 65 37 31 38 70 39 64 40 66 41 32 42 69 43 63 44 62 45 33 47
REMARK SMILES IDX 55 48 40 49 54 50 41 51 44 52 53 53 67 54 42 55 43 56 52 58
REMARK SMILES IDX 68 59 45 60 34 61 35 62 39 63 36 64 38 65 37 66 56 67 57 68
REMARK SMILES IDX 61 69 58 70 60 71 59 72 46 73 47 74 51 75 48 76 50 77 49 78
REMARK H PARENT 17 6 4 9 4 10 22 27 66 46 44 57
REMARK Flexibility Score: inf
ROOT
ATOM      1  C   UNL A   1      36.000  21.182  25.468  1.00  0.00     0.023 C 
ENDROOT
BRANCH   1   2
ATOM      2  C   UNL A   1      35.259  22.501  25.626  1.00  0.00     0.116 C 
BRANCH   2   3
ATOM      3  N   UNL A   1      34.522  22.637  26.853  1.00  0.00    -0.351 N 
ATOM      4  C   UNL A   1      33.196  22.377  27.053  1.00  0.00     0.279 C 
ATOM      5  O   UNL A   1      32.762  22.520  28.203  1.00  0.00    -0.268 OA
ATOM      6  H   UNL A   1      35.030  22.951  27.636  1.00  0.00     0.163 HD
BRANCH   4   7
ATOM      7  C   UNL A   1      32.218  22.005  25.884  1.00  0.00     0.283 C 
BRANCH   7   8
ATOM      8  N   UNL A   1      32.198  20.540  25.740  1.00  0.00    -0.333 N 
ATOM      9  H   UNL A   1      32.957  20.164  26.308  1.00  0.00     0.347 HD
ATOM     10  H   UNL A   1      31.264  20.254  26.035  1.00  0.00     0.347 HD
BRANCH   8  11
ATOM     11  C   UNL A   1      32.353  20.006  24.378  1.00  0.00     0.176 C 
ATOM     12  C   UNL A   1      32.709  21.194  23.473  1.00  0.00     0.075 C 
ATOM     13  C   UNL A   1      33.415  18.921  24.202  1.00  0.00     0.075 C 
ENDBRANCH   8  11
ENDBRANCH   7   8
BRANCH   7  14
ATOM     14  C   UNL A   1      30.910  22.844  25.907  1.00  0.00     0.150 C 
BRANCH  14  15
ATOM     15  S   UNL A   1      30.487  24.643  26.246  1.00  0.00    -0.119 SA
BRANCH  15  16
ATOM     16  C   UNL A   1      31.815  25.832  26.139  1.00  0.00     0.010 A 
ATOM     17  C   UNL A   1      33.067  25.671  25.552  1.00  0.00     0.015 A 
ATOM     18  C   UNL A   1      31.596  27.042  26.815  1.00  0.00     0.054 A 
ATOM     19  C   UNL A   1      34.066  26.653  25.614  1.00  0.00     0.004 A 
ATOM     20  C   UNL A   1      32.591  28.018  26.892  1.00  0.00     0.124 A 
ATOM     21  C   UNL A   1      33.828  27.834  26.296  1.00  0.00     0.039 A 
ATOM     22  F   UNL A   1      32.355  29.149  27.570  1.00  0.00    -0.207 F 
ENDBRANCH  15  16
ENDBRANCH  14  15
ENDBRANCH   7  14
ENDBRANCH   4   7
ENDBRANCH   2   3
ENDBRANCH   1   2
BRANCH   1  23
ATOM     23  C   UNL A   1      37.366  21.288  24.807  1.00  0.00     0.023 C 
BRANCH  23  24
ATOM     24  C   UNL A   1      38.560  21.267  25.755  1.00  0.00     0.116 C 
BRANCH  24  25
ATOM     25  N   UNL A   1      39.409  20.086  25.638  1.00  0.00    -0.352 N 
ATOM     26  C   UNL A   1      40.732  19.945  25.994  1.00  0.00     0.251 C 
ATOM     27  H   UNL A   1      38.979  19.287  25.256  1.00  0.00     0.163 HD
ATOM     28  O   UNL A   1      41.336  18.898  25.783  1.00  0.00    -0.269 OA
BRANCH  26  29
ATOM     29  C   UNL A   1      41.440  21.099  26.585  1.00  0.00     0.039 A 
ATOM     30  C   UNL A   1      42.006  22.053  25.737  1.00  0.00     0.014 A 
ATOM     31  C   UNL A   1      41.450  21.285  27.970  1.00  0.00     0.014 A 
ATOM     32  C   UNL A   1      42.488  23.248  26.274  1.00  0.00     0.010 A 
ATOM     33  C   UNL A   1      41.847  22.511  28.490  1.00  0.00     0.010 A 
ATOM     34  C   UNL A   1      42.358  23.511  27.647  1.00  0.00    -0.014 A 
BRANCH  34  35
ATOM     35  C   UNL A   1      42.730  24.828  28.226  1.00  0.00     0.031 A 
ATOM     36  C   UNL A   1      41.681  25.885  28.427  1.00  0.00     0.074 A 
ATOM     37  C   UNL A   1      44.023  25.104  28.487  1.00  0.00     0.049 A 
ATOM     38  N   UNL A   1      41.822  27.120  28.836  1.00  0.00    -0.248 NA
ATOM     39  C   UNL A   1      40.295  25.517  28.095  1.00  0.00     0.031 C 
ATOM     40  C   UNL A   1      45.149  24.188  28.288  1.00  0.00     0.029 A 
ATOM     41  N   UNL A   1      44.612  26.247  28.971  1.00  0.00    -0.354 N 
ATOM     42  C   UNL A   1      40.552  27.681  28.783  1.00  0.00     0.074 A 
ATOM     43  C   UNL A   1      39.663  26.669  28.256  1.00  0.00     0.031 C 
ATOM     44  C   UNL A   1      46.284  24.790  28.679  1.00  0.00     0.029 A 
ATOM     45  C   UNL A   1      45.975  26.147  29.115  1.00  0.00     0.049 A 
ATOM     46  H   UNL A   1      44.104  27.060  29.194  1.00  0.00     0.167 HD
ATOM     47  C   UNL A   1      40.155  28.920  29.159  1.00  0.00     0.031 A 
ATOM     48  C   UNL A   1      46.876  27.050  29.548  1.00  0.00     0.031 A 
ATOM     49  C   UNL A   1      41.030  29.918  29.709  1.00  0.00     0.049 A 
ATOM     50  C   UNL A   1      46.408  28.416  29.965  1.00  0.00     0.074 A 
ATOM     51  C   UNL A   1      40.708  31.176  30.188  1.00  0.00     0.029 A 
ATOM     52  N   UNL A   1      42.400  29.770  29.857  1.00  0.00    -0.354 N 
ATOM     53  N   UNL A   1      45.193  28.904  29.978  1.00  0.00    -0.248 NA
ATOM     54  C   UNL A   1      47.440  29.352  30.437  1.00  0.00     0.031 C 
ATOM     55  C   UNL A   1      41.892  31.807  30.585  1.00  0.00     0.029 A 
ATOM     56  C   UNL A   1      42.942  30.923  30.398  1.00  0.00     0.049 A 
ATOM     57  H   UNL A   1      42.911  28.965  29.612  1.00  0.00     0.167 HD
ATOM     58  C   UNL A   1      45.307  30.192  30.486  1.00  0.00     0.074 A 
ATOM     59  C   UNL A   1      46.709  30.404  30.781  1.00  0.00     0.031 C 
ATOM     60  C   UNL A   1      44.338  31.116  30.690  1.00  0.00     0.031 A 
BRANCH  47  61
ATOM     61  C   UNL A   1      38.702  29.260  28.982  1.00  0.00    -0.014 A 
ATOM     62  C   UNL A   1      38.203  29.708  27.749  1.00  0.00     0.009 A 
ATOM     63  C   UNL A   1      37.813  29.106  30.058  1.00  0.00     0.009 A 
ATOM     64  C   UNL A   1      36.853  30.030  27.605  1.00  0.00     0.001 A 
ATOM     65  C   UNL A   1      36.457  29.400  29.904  1.00  0.00     0.001 A 
ATOM     66  C   UNL A   1      35.981  29.872  28.681  1.00  0.00     0.000 A 
ENDBRANCH  47  61
BRANCH  48  67
ATOM     67  C   UNL A   1      48.315  26.687  29.637  1.00  0.00    -0.014 A 
ATOM     68  C   UNL A   1      49.175  26.941  28.557  1.00  0.00     0.009 A 
ATOM     69  C   UNL A   1      48.833  26.075  30.788  1.00  0.00     0.009 A 
ATOM     70  C   UNL A   1      50.519  26.562  28.617  1.00  0.00     0.001 A 
ATOM     71  C   UNL A   1      50.183  25.723  30.855  1.00  0.00     0.001 A 
ATOM     72  C   UNL A   1      51.022  25.957  29.768  1.00  0.00     0.000 A 
ENDBRANCH  48  67
BRANCH  60  73
ATOM     73  C   UNL A   1      44.753  32.426  31.296  1.00  0.00    -0.014 A 
ATOM     74  C   UNL A   1      44.804  32.600  32.687  1.00  0.00     0.009 A 
ATOM     75  C   UNL A   1      45.140  33.485  30.460  1.00  0.00     0.009 A 
ATOM     76  C   UNL A   1      45.207  33.823  33.229  1.00  0.00     0.001 A 
ATOM     77  C   UNL A   1      45.568  34.695  31.005  1.00  0.00     0.001 A 
ATOM     78  C   UNL A   1      45.593  34.867  32.388  1.00  0.00     0.000 A 
ENDBRANCH  60  73
ENDBRANCH  34  35
ENDBRANCH  26  29
ENDBRANCH  24  25
ENDBRANCH  23  24
ENDBRANCH   1  23
TORSDOF 16
ENDMDL
