MODEL 1
REMARK VINA RESULT:     -11.5      0.000      0.000
REMARK SMILES Cn1c(=O)[nH]c(=O)c2c1nc(NC1CCCC1)n2CC(=O)NCCCCNC(=O)c1ccc(-c2c3nc(c(-c4ccccc4)c4ccc([nH]4)c(-c4ccccc4)c4nc(c(-c5ccccc5)c5ccc2[nH]5)C=C4)C=C3)cc1
REMARK SMILES IDX 24 1 23 2 22 3 20 4 21 5 19 7 18 8 1 9 2 10 3 11 9 12 4 13
REMARK SMILES IDX 5 14 8 15 10 16 6 17 11 19 7 20 12 21 13 23 14 24 17 25
REMARK SMILES IDX 15 26 16 27 25 28 26 29 27 30 28 31 29 33 30 34 31 35 77 36
REMARK SMILES IDX 32 37 76 38 33 39 34 40 35 41 70 42 36 43 75 44 69 45 71 46
REMARK SMILES IDX 37 47 74 48 68 49 67 50 38 52 60 53 45 54 59 55 46 56 49 57
REMARK SMILES IDX 58 58 72 59 47 60 48 61 57 63 73 64 50 65 39 66 40 67 44 68
REMARK SMILES IDX 41 69 43 70 42 71 61 72 62 73 66 74 63 75 65 76 64 77 51 78
REMARK SMILES IDX 52 79 56 80 53 81 55 82 54 83
REMARK H PARENT 22 6 5 18 12 22 27 32 71 51 49 62
REMARK Flexibility Score: inf
ROOT
ATOM      1  C   UNL A   1      39.890  34.589  34.289  1.00  0.00     0.023 C 
ENDROOT
BRANCH   1   2
ATOM      2  C   UNL A   1      38.460  34.173  33.924  1.00  0.00     0.116 C 
BRANCH   2   3
ATOM      3  N   UNL A   1      38.367  32.783  33.517  1.00  0.00    -0.355 N 
ATOM      4  C   UNL A   1      37.258  32.000  33.363  1.00  0.00     0.240 C 
ATOM      5  O   UNL A   1      37.420  30.807  33.090  1.00  0.00    -0.273 OA
ATOM      6  H   UNL A   1      39.225  32.341  33.327  1.00  0.00     0.163 HD
BRANCH   4   7
ATOM      7  C   UNL A   1      35.862  32.577  33.495  1.00  0.00     0.226 C 
BRANCH   7   8
ATOM      8  N   UNL A   1      35.340  33.086  32.243  1.00  0.00    -0.295 N 
ATOM      9  C   UNL A   1      33.091  35.258  28.867  1.00  0.00     0.157 C 
ATOM     10  N   UNL A   1      33.647  35.355  30.202  1.00  0.00    -0.279 N 
ATOM     11  C   UNL A   1      33.478  36.509  30.958  1.00  0.00     0.329 A 
ATOM     12  C   UNL A   1      34.344  34.301  30.750  1.00  0.00     0.170 A 
ATOM     13  O   UNL A   1      32.857  37.500  30.575  1.00  0.00    -0.248 OA
ATOM     14  N   UNL A   1      34.042  36.523  32.220  1.00  0.00    -0.272 N 
ATOM     15  C   UNL A   1      34.852  34.349  32.015  1.00  0.00     0.154 A 
ATOM     16  N   UNL A   1      34.562  33.100  30.164  1.00  0.00    -0.194 NA
ATOM     17  C   UNL A   1      34.737  35.506  32.832  1.00  0.00     0.279 A 
ATOM     18  H   UNL A   1      33.934  37.352  32.738  1.00  0.00     0.175 HD
ATOM     19  C   UNL A   1      35.166  32.363  31.073  1.00  0.00     0.206 A 
ATOM     20  O   UNL A   1      35.165  35.610  33.978  1.00  0.00    -0.267 OA
BRANCH  19  21
ATOM     21  N   UNL A   1      35.545  31.073  30.969  1.00  0.00    -0.353 N 
ATOM     22  H   UNL A   1      35.443  30.488  31.754  1.00  0.00     0.163 HD
BRANCH  21  23
ATOM     23  C   UNL A   1      36.097  30.503  29.749  1.00  0.00     0.082 C 
ATOM     24  C   UNL A   1      37.134  31.377  29.053  1.00  0.00     0.025 C 
ATOM     25  C   UNL A   1      36.794  29.161  29.949  1.00  0.00     0.025 C 
ATOM     26  C   UNL A   1      37.828  30.408  28.104  1.00  0.00     0.002 C 
ATOM     27  C   UNL A   1      37.771  29.040  28.781  1.00  0.00     0.002 C 
ENDBRANCH  21  23
ENDBRANCH  19  21
ENDBRANCH   7   8
ENDBRANCH   4   7
ENDBRANCH   2   3
ENDBRANCH   1   2
BRANCH   1  28
ATOM     28  C   UNL A   1      40.976  33.520  34.098  1.00  0.00     0.023 C 
BRANCH  28  29
ATOM     29  C   UNL A   1      41.852  33.706  32.869  1.00  0.00     0.116 C 
BRANCH  29  30
ATOM     30  N   UNL A   1      41.181  34.410  31.773  1.00  0.00    -0.352 N 
ATOM     31  C   UNL A   1      41.185  34.081  30.427  1.00  0.00     0.251 C 
ATOM     32  H   UNL A   1      40.667  35.212  32.021  1.00  0.00     0.163 HD
ATOM     33  O   UNL A   1      40.924  34.904  29.561  1.00  0.00    -0.269 OA
BRANCH  31  34
ATOM     34  C   UNL A   1      41.500  32.690  30.065  1.00  0.00     0.039 A 
ATOM     35  C   UNL A   1      42.753  32.307  29.580  1.00  0.00     0.014 A 
ATOM     36  C   UNL A   1      40.510  31.748  30.314  1.00  0.00     0.014 A 
ATOM     37  C   UNL A   1      43.026  30.945  29.441  1.00  0.00     0.010 A 
ATOM     38  C   UNL A   1      40.846  30.423  30.365  1.00  0.00     0.010 A 
ATOM     39  C   UNL A   1      42.072  30.005  29.860  1.00  0.00    -0.014 A 
BRANCH  39  40
ATOM     40  C   UNL A   1      42.330  28.571  29.802  1.00  0.00     0.031 A 
ATOM     41  C   UNL A   1      42.996  27.953  30.979  1.00  0.00     0.074 A 
ATOM     42  C   UNL A   1      41.842  27.788  28.816  1.00  0.00     0.049 A 
ATOM     43  N   UNL A   1      44.176  27.430  31.018  1.00  0.00    -0.248 NA
ATOM     44  C   UNL A   1      42.305  27.961  32.275  1.00  0.00     0.031 C 
ATOM     45  C   UNL A   1      40.940  28.136  27.707  1.00  0.00     0.029 A 
ATOM     46  N   UNL A   1      41.990  26.447  28.668  1.00  0.00    -0.354 N 
ATOM     47  C   UNL A   1      44.341  26.907  32.297  1.00  0.00     0.074 A 
ATOM     48  C   UNL A   1      43.202  27.360  33.061  1.00  0.00     0.031 C 
ATOM     49  C   UNL A   1      40.442  27.009  27.155  1.00  0.00     0.029 A 
ATOM     50  C   UNL A   1      41.147  25.879  27.725  1.00  0.00     0.049 A 
ATOM     51  H   UNL A   1      42.640  25.922  29.187  1.00  0.00     0.167 HD
ATOM     52  C   UNL A   1      45.318  26.000  32.581  1.00  0.00     0.031 A 
ATOM     53  C   UNL A   1      41.050  24.567  27.419  1.00  0.00     0.031 A 
ATOM     54  C   UNL A   1      46.293  25.918  31.523  1.00  0.00     0.049 A 
ATOM     55  C   UNL A   1      42.324  23.932  27.823  1.00  0.00     0.074 A 
ATOM     56  C   UNL A   1      47.188  26.805  30.956  1.00  0.00     0.029 A 
ATOM     57  N   UNL A   1      46.163  24.893  30.616  1.00  0.00    -0.354 N 
ATOM     58  N   UNL A   1      43.461  24.198  27.248  1.00  0.00    -0.248 NA
ATOM     59  C   UNL A   1      42.416  23.345  29.149  1.00  0.00     0.031 C 
ATOM     60  C   UNL A   1      47.139  26.526  29.557  1.00  0.00     0.029 A 
ATOM     61  C   UNL A   1      46.270  25.449  29.365  1.00  0.00     0.049 A 
ATOM     62  H   UNL A   1      46.020  23.941  30.824  1.00  0.00     0.167 HD
ATOM     63  C   UNL A   1      44.383  24.232  28.284  1.00  0.00     0.074 A 
ATOM     64  C   UNL A   1      43.707  23.584  29.408  1.00  0.00     0.031 C 
ATOM     65  C   UNL A   1      45.495  25.024  28.219  1.00  0.00     0.031 A 
BRANCH  52  66
ATOM     66  C   UNL A   1      45.230  24.948  33.656  1.00  0.00    -0.014 A 
ATOM     67  C   UNL A   1      44.548  23.747  33.380  1.00  0.00     0.009 A 
ATOM     68  C   UNL A   1      45.564  25.190  35.001  1.00  0.00     0.009 A 
ATOM     69  C   UNL A   1      44.164  22.871  34.404  1.00  0.00     0.001 A 
ATOM     70  C   UNL A   1      45.217  24.299  36.022  1.00  0.00     0.001 A 
ATOM     71  C   UNL A   1      44.494  23.152  35.726  1.00  0.00     0.000 A 
ENDBRANCH  52  66
BRANCH  53  72
ATOM     72  C   UNL A   1      39.858  23.804  27.013  1.00  0.00    -0.014 A 
ATOM     73  C   UNL A   1      38.651  24.459  26.729  1.00  0.00     0.009 A 
ATOM     74  C   UNL A   1      39.986  22.455  26.633  1.00  0.00     0.009 A 
ATOM     75  C   UNL A   1      37.627  23.800  26.038  1.00  0.00     0.001 A 
ATOM     76  C   UNL A   1      38.963  21.799  25.943  1.00  0.00     0.001 A 
ATOM     77  C   UNL A   1      37.790  22.477  25.630  1.00  0.00     0.000 A 
ENDBRANCH  53  72
BRANCH  65  78
ATOM     78  C   UNL A   1      45.774  25.736  26.912  1.00  0.00    -0.014 A 
ATOM     79  C   UNL A   1      45.156  26.951  26.563  1.00  0.00     0.009 A 
ATOM     80  C   UNL A   1      46.797  25.258  26.081  1.00  0.00     0.009 A 
ATOM     81  C   UNL A   1      45.521  27.646  25.405  1.00  0.00     0.001 A 
ATOM     82  C   UNL A   1      47.178  25.962  24.934  1.00  0.00     0.001 A 
ATOM     83  C   UNL A   1      46.537  27.152  24.593  1.00  0.00     0.000 A 
ENDBRANCH  65  78
ENDBRANCH  39  40
ENDBRANCH  31  34
ENDBRANCH  29  30
ENDBRANCH  28  29
ENDBRANCH   1  28
TORSDOF 14
ENDMDL
MODEL 2
REMARK VINA RESULT:     -11.3      4.586      9.335
REMARK SMILES Cn1c(=O)[nH]c(=O)c2c1nc(NC1CCCC1)n2CC(=O)NCCCCNC(=O)c1ccc(-c2c3nc(c(-c4ccccc4)c4ccc([nH]4)c(-c4ccccc4)c4nc(c(-c5ccccc5)c5ccc2[nH]5)C=C4)C=C3)cc1
REMARK SMILES IDX 24 1 23 2 22 3 20 4 21 5 19 7 18 8 1 9 2 10 3 11 9 12 4 13
REMARK SMILES IDX 5 14 8 15 10 16 6 17 11 19 7 20 12 21 13 23 14 24 17 25
REMARK SMILES IDX 15 26 16 27 25 28 26 29 27 30 28 31 29 33 30 34 31 35 77 36
REMARK SMILES IDX 32 37 76 38 33 39 34 40 35 41 70 42 36 43 75 44 69 45 71 46
REMARK SMILES IDX 37 47 74 48 68 49 67 50 38 52 60 53 45 54 59 55 46 56 49 57
REMARK SMILES IDX 58 58 72 59 47 60 48 61 57 63 73 64 50 65 39 66 40 67 44 68
REMARK SMILES IDX 41 69 43 70 42 71 61 72 62 73 66 74 63 75 65 76 64 77 51 78
REMARK SMILES IDX 52 79 56 80 53 81 55 82 54 83
REMARK H PARENT 22 6 5 18 12 22 27 32 71 51 49 62
REMARK Flexibility Score: inf
ROOT
ATOM      1  C   UNL A   1      35.773  23.440  26.252  1.00  0.00     0.023 C 
ENDROOT
BRANCH   1   2
ATOM      2  C   UNL A   1      34.874  24.336  25.390  1.00  0.00     0.116 C 
BRANCH   2   3
ATOM      3  N   UNL A   1      33.604  24.631  26.025  1.00  0.00    -0.355 N 
ATOM      4  C   UNL A   1      32.958  25.829  26.150  1.00  0.00     0.240 C 
ATOM      5  O   UNL A   1      31.916  25.864  26.813  1.00  0.00    -0.273 OA
ATOM      6  H   UNL A   1      33.142  23.859  26.424  1.00  0.00     0.163 HD
BRANCH   4   7
ATOM      7  C   UNL A   1      33.483  27.081  25.474  1.00  0.00     0.226 C 
BRANCH   7   8
ATOM      8  N   UNL A   1      32.472  28.107  25.319  1.00  0.00    -0.295 N 
ATOM      9  C   UNL A   1      29.390  31.188  23.842  1.00  0.00     0.157 C 
ATOM     10  N   UNL A   1      30.001  29.892  23.620  1.00  0.00    -0.279 N 
ATOM     11  C   UNL A   1      29.675  29.138  22.500  1.00  0.00     0.329 A 
ATOM     12  C   UNL A   1      30.923  29.389  24.512  1.00  0.00     0.170 A 
ATOM     13  O   UNL A   1      28.881  29.498  21.632  1.00  0.00    -0.248 OA
ATOM     14  N   UNL A   1      30.299  27.911  22.363  1.00  0.00    -0.272 N 
ATOM     15  C   UNL A   1      31.539  28.188  24.315  1.00  0.00     0.154 A 
ATOM     16  N   UNL A   1      31.376  30.012  25.625  1.00  0.00    -0.194 NA
ATOM     17  C   UNL A   1      31.235  27.356  23.204  1.00  0.00     0.279 A 
ATOM     18  H   UNL A   1      30.046  27.377  21.577  1.00  0.00     0.175 HD
ATOM     19  C   UNL A   1      32.317  29.232  26.114  1.00  0.00     0.206 A 
ATOM     20  O   UNL A   1      31.757  26.270  22.968  1.00  0.00    -0.267 OA
BRANCH  19  21
ATOM     21  N   UNL A   1      33.092  29.454  27.195  1.00  0.00    -0.353 N 
ATOM     22  H   UNL A   1      32.791  29.112  28.068  1.00  0.00     0.163 HD
BRANCH  21  23
ATOM     23  C   UNL A   1      34.354  30.176  27.133  1.00  0.00     0.082 C 
ATOM     24  C   UNL A   1      34.378  31.482  27.918  1.00  0.00     0.025 C 
ATOM     25  C   UNL A   1      35.549  29.387  27.659  1.00  0.00     0.025 C 
ATOM     26  C   UNL A   1      35.864  31.793  28.036  1.00  0.00     0.002 C 
ATOM     27  C   UNL A   1      36.577  30.442  28.064  1.00  0.00     0.002 C 
ENDBRANCH  21  23
ENDBRANCH  19  21
ENDBRANCH   7   8
ENDBRANCH   4   7
ENDBRANCH   2   3
ENDBRANCH   1   2
BRANCH   1  28
ATOM     28  C   UNL A   1      36.602  22.389  25.499  1.00  0.00     0.023 C 
BRANCH  28  29
ATOM     29  C   UNL A   1      38.093  22.680  25.424  1.00  0.00     0.116 C 
BRANCH  29  30
ATOM     30  N   UNL A   1      38.896  21.859  26.334  1.00  0.00    -0.352 N 
ATOM     31  C   UNL A   1      39.967  22.263  27.115  1.00  0.00     0.251 C 
ATOM     32  H   UNL A   1      38.646  20.909  26.398  1.00  0.00     0.163 HD
ATOM     33  O   UNL A   1      40.790  21.465  27.541  1.00  0.00    -0.269 OA
BRANCH  31  34
ATOM     34  C   UNL A   1      40.078  23.695  27.435  1.00  0.00     0.039 A 
ATOM     35  C   UNL A   1      38.977  24.554  27.421  1.00  0.00     0.014 A 
ATOM     36  C   UNL A   1      41.329  24.140  27.842  1.00  0.00     0.014 A 
ATOM     37  C   UNL A   1      39.134  25.848  27.918  1.00  0.00     0.010 A 
ATOM     38  C   UNL A   1      41.430  25.332  28.506  1.00  0.00     0.010 A 
ATOM     39  C   UNL A   1      40.363  26.224  28.483  1.00  0.00    -0.014 A 
BRANCH  39  40
ATOM     40  C   UNL A   1      40.564  27.539  29.079  1.00  0.00     0.031 A 
ATOM     41  C   UNL A   1      41.491  28.467  28.378  1.00  0.00     0.074 A 
ATOM     42  C   UNL A   1      39.827  27.983  30.119  1.00  0.00     0.049 A 
ATOM     43  N   UNL A   1      42.631  28.898  28.806  1.00  0.00    -0.248 NA
ATOM     44  C   UNL A   1      41.149  28.930  27.027  1.00  0.00     0.031 C 
ATOM     45  C   UNL A   1      38.683  27.347  30.791  1.00  0.00     0.029 A 
ATOM     46  N   UNL A   1      39.901  29.188  30.739  1.00  0.00    -0.354 N 
ATOM     47  C   UNL A   1      43.101  29.801  27.857  1.00  0.00     0.074 A 
ATOM     48  C   UNL A   1      42.201  29.698  26.732  1.00  0.00     0.031 C 
ATOM     49  C   UNL A   1      38.036  28.259  31.550  1.00  0.00     0.029 A 
ATOM     50  C   UNL A   1      38.837  29.466  31.581  1.00  0.00     0.049 A 
ATOM     51  H   UNL A   1      40.650  29.813  30.602  1.00  0.00     0.167 HD
ATOM     52  C   UNL A   1      44.097  30.687  28.142  1.00  0.00     0.031 A 
ATOM     53  C   UNL A   1      38.635  30.607  32.275  1.00  0.00     0.031 A 
ATOM     54  C   UNL A   1      44.772  30.354  29.371  1.00  0.00     0.049 A 
ATOM     55  C   UNL A   1      39.955  31.258  32.431  1.00  0.00     0.074 A 
ATOM     56  C   UNL A   1      45.515  29.275  29.808  1.00  0.00     0.029 A 
ATOM     57  N   UNL A   1      44.394  31.029  30.507  1.00  0.00    -0.354 N 
ATOM     58  N   UNL A   1      40.917  30.745  33.144  1.00  0.00    -0.248 NA
ATOM     59  C   UNL A   1      40.365  32.242  31.444  1.00  0.00     0.031 C 
ATOM     60  C   UNL A   1      45.110  29.080  31.164  1.00  0.00     0.029 A 
ATOM     61  C   UNL A   1      44.196  30.086  31.485  1.00  0.00     0.049 A 
ATOM     62  H   UNL A   1      44.287  32.003  30.602  1.00  0.00     0.167 HD
ATOM     63  C   UNL A   1      42.070  30.996  32.415  1.00  0.00     0.074 A 
ATOM     64  C   UNL A   1      41.684  32.020  31.444  1.00  0.00     0.031 C 
ATOM     65  C   UNL A   1      43.148  30.158  32.482  1.00  0.00     0.031 A 
BRANCH  52  66
ATOM     66  C   UNL A   1      44.258  32.038  27.494  1.00  0.00    -0.014 A 
ATOM     67  C   UNL A   1      43.820  33.183  28.187  1.00  0.00     0.009 A 
ATOM     68  C   UNL A   1      44.584  32.208  26.137  1.00  0.00     0.009 A 
ATOM     69  C   UNL A   1      43.655  34.413  27.538  1.00  0.00     0.001 A 
ATOM     70  C   UNL A   1      44.458  33.445  25.494  1.00  0.00     0.001 A 
ATOM     71  C   UNL A   1      43.968  34.541  26.189  1.00  0.00     0.000 A 
ENDBRANCH  52  66
BRANCH  53  72
ATOM     72  C   UNL A   1      37.362  31.268  32.608  1.00  0.00    -0.014 A 
ATOM     73  C   UNL A   1      37.245  32.061  33.758  1.00  0.00     0.009 A 
ATOM     74  C   UNL A   1      36.342  31.347  31.642  1.00  0.00     0.009 A 
ATOM     75  C   UNL A   1      36.170  32.944  33.910  1.00  0.00     0.001 A 
ATOM     76  C   UNL A   1      35.268  32.229  31.795  1.00  0.00     0.001 A 
ATOM     77  C   UNL A   1      35.192  33.041  32.921  1.00  0.00     0.000 A 
ENDBRANCH  53  72
BRANCH  65  78
ATOM     78  C   UNL A   1      43.105  29.039  33.500  1.00  0.00    -0.014 A 
ATOM     79  C   UNL A   1      42.472  27.807  33.249  1.00  0.00     0.009 A 
ATOM     80  C   UNL A   1      43.851  29.164  34.681  1.00  0.00     0.009 A 
ATOM     81  C   UNL A   1      42.551  26.750  34.162  1.00  0.00     0.001 A 
ATOM     82  C   UNL A   1      43.948  28.102  35.585  1.00  0.00     0.001 A 
ATOM     83  C   UNL A   1      43.294  26.898  35.329  1.00  0.00     0.000 A 
ENDBRANCH  65  78
ENDBRANCH  39  40
ENDBRANCH  31  34
ENDBRANCH  29  30
ENDBRANCH  28  29
ENDBRANCH   1  28
TORSDOF 14
ENDMDL
MODEL 3
REMARK VINA RESULT:     -11.3      4.698      9.922
REMARK SMILES Cn1c(=O)[nH]c(=O)c2c1nc(NC1CCCC1)n2CC(=O)NCCCCNC(=O)c1ccc(-c2c3nc(c(-c4ccccc4)c4ccc([nH]4)c(-c4ccccc4)c4nc(c(-c5ccccc5)c5ccc2[nH]5)C=C4)C=C3)cc1
REMARK SMILES IDX 24 1 23 2 22 3 20 4 21 5 19 7 18 8 1 9 2 10 3 11 9 12 4 13
REMARK SMILES IDX 5 14 8 15 10 16 6 17 11 19 7 20 12 21 13 23 14 24 17 25
REMARK SMILES IDX 15 26 16 27 25 28 26 29 27 30 28 31 29 33 30 34 31 35 77 36
REMARK SMILES IDX 32 37 76 38 33 39 34 40 35 41 70 42 36 43 75 44 69 45 71 46
REMARK SMILES IDX 37 47 74 48 68 49 67 50 38 52 60 53 45 54 59 55 46 56 49 57
REMARK SMILES IDX 58 58 72 59 47 60 48 61 57 63 73 64 50 65 39 66 40 67 44 68
REMARK SMILES IDX 41 69 43 70 42 71 61 72 62 73 66 74 63 75 65 76 64 77 51 78
REMARK SMILES IDX 52 79 56 80 53 81 55 82 54 83
REMARK H PARENT 22 6 5 18 12 22 27 32 71 51 49 62
REMARK Flexibility Score: inf
ROOT
ATOM      1  C   UNL A   1      33.844  28.195  25.517  1.00  0.00     0.023 C 
ENDROOT
BRANCH   1   2
ATOM      2  C   UNL A   1      33.877  26.679  25.748  1.00  0.00     0.116 C 
BRANCH   2   3
ATOM      3  N   UNL A   1      34.084  25.930  24.523  1.00  0.00    -0.355 N 
ATOM      4  C   UNL A   1      34.482  24.633  24.360  1.00  0.00     0.240 C 
ATOM      5  O   UNL A   1      34.679  24.223  23.211  1.00  0.00    -0.273 OA
ATOM      6  H   UNL A   1      33.915  26.428  23.691  1.00  0.00     0.163 HD
BRANCH   4   7
ATOM      7  C   UNL A   1      34.653  23.707  25.548  1.00  0.00     0.226 C 
BRANCH   7   8
ATOM      8  N   UNL A   1      34.887  22.329  25.162  1.00  0.00    -0.295 N 
ATOM      9  C   UNL A   1      34.840  17.771  24.541  1.00  0.00     0.157 C 
ATOM     10  N   UNL A   1      34.048  18.967  24.750  1.00  0.00    -0.279 N 
ATOM     11  C   UNL A   1      32.670  18.887  24.905  1.00  0.00     0.329 A 
ATOM     12  C   UNL A   1      34.650  20.205  24.808  1.00  0.00     0.170 A 
ATOM     13  O   UNL A   1      32.034  17.833  24.890  1.00  0.00    -0.248 OA
ATOM     14  N   UNL A   1      31.988  20.074  25.097  1.00  0.00    -0.272 N 
ATOM     15  C   UNL A   1      33.938  21.346  25.035  1.00  0.00     0.154 A 
ATOM     16  N   UNL A   1      35.979  20.450  24.715  1.00  0.00    -0.194 NA
ATOM     17  C   UNL A   1      32.523  21.338  25.178  1.00  0.00     0.279 A 
ATOM     18  H   UNL A   1      31.010  20.008  25.185  1.00  0.00     0.175 HD
ATOM     19  C   UNL A   1      36.120  21.741  24.932  1.00  0.00     0.206 A 
ATOM     20  O   UNL A   1      31.827  22.327  25.389  1.00  0.00    -0.267 OA
BRANCH  19  21
ATOM     21  N   UNL A   1      37.269  22.446  24.986  1.00  0.00    -0.353 N 
ATOM     22  H   UNL A   1      37.609  22.854  24.157  1.00  0.00     0.163 HD
BRANCH  21  23
ATOM     23  C   UNL A   1      38.030  22.631  26.212  1.00  0.00     0.082 C 
ATOM     24  C   UNL A   1      39.425  22.017  26.193  1.00  0.00     0.025 C 
ATOM     25  C   UNL A   1      38.256  24.092  26.589  1.00  0.00     0.025 C 
ATOM     26  C   UNL A   1      40.123  22.698  27.363  1.00  0.00     0.002 C 
ATOM     27  C   UNL A   1      39.500  24.088  27.476  1.00  0.00     0.002 C 
ENDBRANCH  21  23
ENDBRANCH  19  21
ENDBRANCH   7   8
ENDBRANCH   4   7
ENDBRANCH   2   3
ENDBRANCH   1   2
BRANCH   1  28
ATOM     28  C   UNL A   1      33.993  29.073  26.768  1.00  0.00     0.023 C 
BRANCH  28  29
ATOM     29  C   UNL A   1      35.394  29.118  27.358  1.00  0.00     0.116 C 
BRANCH  29  30
ATOM     30  N   UNL A   1      35.441  29.679  28.711  1.00  0.00    -0.352 N 
ATOM     31  C   UNL A   1      36.418  29.485  29.674  1.00  0.00     0.251 C 
ATOM     32  H   UNL A   1      34.690  30.261  28.967  1.00  0.00     0.163 HD
ATOM     33  O   UNL A   1      36.199  29.675  30.862  1.00  0.00    -0.269 OA
BRANCH  31  34
ATOM     34  C   UNL A   1      37.750  29.054  29.220  1.00  0.00     0.039 A 
ATOM     35  C   UNL A   1      38.411  29.664  28.152  1.00  0.00     0.014 A 
ATOM     36  C   UNL A   1      38.363  28.057  29.967  1.00  0.00     0.014 A 
ATOM     37  C   UNL A   1      39.742  29.322  27.908  1.00  0.00     0.010 A 
ATOM     38  C   UNL A   1      39.714  27.871  29.851  1.00  0.00     0.010 A 
ATOM     39  C   UNL A   1      40.396  28.438  28.781  1.00  0.00    -0.014 A 
BRANCH  39  40
ATOM     40  C   UNL A   1      41.804  28.097  28.615  1.00  0.00     0.031 A 
ATOM     41  C   UNL A   1      42.121  26.903  27.788  1.00  0.00     0.074 A 
ATOM     42  C   UNL A   1      42.799  28.907  29.037  1.00  0.00     0.049 A 
ATOM     43  N   UNL A   1      42.647  25.794  28.193  1.00  0.00    -0.248 NA
ATOM     44  C   UNL A   1      41.768  26.909  26.363  1.00  0.00     0.031 C 
ATOM     45  C   UNL A   1      42.721  30.250  29.631  1.00  0.00     0.029 A 
ATOM     46  N   UNL A   1      44.137  28.714  28.918  1.00  0.00    -0.354 N 
ATOM     47  C   UNL A   1      42.832  25.003  27.063  1.00  0.00     0.074 A 
ATOM     48  C   UNL A   1      42.172  25.694  25.981  1.00  0.00     0.031 C 
ATOM     49  C   UNL A   1      43.939  30.834  29.599  1.00  0.00     0.029 A 
ATOM     50  C   UNL A   1      44.904  29.837  29.185  1.00  0.00     0.049 A 
ATOM     51  H   UNL A   1      44.530  27.848  28.664  1.00  0.00     0.167 HD
ATOM     52  C   UNL A   1      43.662  23.922  27.074  1.00  0.00     0.031 A 
ATOM     53  C   UNL A   1      46.248  29.935  29.091  1.00  0.00     0.031 A 
ATOM     54  C   UNL A   1      44.034  23.548  28.415  1.00  0.00     0.049 A 
ATOM     55  C   UNL A   1      46.792  28.564  29.203  1.00  0.00     0.074 A 
ATOM     56  C   UNL A   1      43.343  23.112  29.528  1.00  0.00     0.029 A 
ATOM     57  N   UNL A   1      45.252  23.983  28.882  1.00  0.00    -0.354 N 
ATOM     58  N   UNL A   1      46.709  27.857  30.294  1.00  0.00    -0.248 NA
ATOM     59  C   UNL A   1      47.026  27.808  27.985  1.00  0.00     0.031 C 
ATOM     60  C   UNL A   1      43.966  23.777  30.627  1.00  0.00     0.029 A 
ATOM     61  C   UNL A   1      45.034  24.525  30.124  1.00  0.00     0.049 A 
ATOM     62  H   UNL A   1      46.116  23.917  28.414  1.00  0.00     0.167 HD
ATOM     63  C   UNL A   1      46.437  26.568  29.860  1.00  0.00     0.074 A 
ATOM     64  C   UNL A   1      46.762  26.576  28.434  1.00  0.00     0.031 C 
ATOM     65  C   UNL A   1      45.716  25.697  30.629  1.00  0.00     0.031 A 
BRANCH  52  66
ATOM     66  C   UNL A   1      44.405  23.395  25.873  1.00  0.00    -0.014 A 
ATOM     67  C   UNL A   1      44.182  22.066  25.463  1.00  0.00     0.009 A 
ATOM     68  C   UNL A   1      45.497  24.061  25.288  1.00  0.00     0.009 A 
ATOM     69  C   UNL A   1      45.045  21.422  24.567  1.00  0.00     0.001 A 
ATOM     70  C   UNL A   1      46.338  23.433  24.363  1.00  0.00     0.001 A 
ATOM     71  C   UNL A   1      46.127  22.105  24.023  1.00  0.00     0.000 A 
ENDBRANCH  52  66
BRANCH  53  72
ATOM     72  C   UNL A   1      47.058  31.097  28.690  1.00  0.00    -0.014 A 
ATOM     73  C   UNL A   1      48.049  31.608  29.540  1.00  0.00     0.009 A 
ATOM     74  C   UNL A   1      47.047  31.529  27.351  1.00  0.00     0.009 A 
ATOM     75  C   UNL A   1      49.030  32.479  29.052  1.00  0.00     0.001 A 
ATOM     76  C   UNL A   1      48.027  32.399  26.864  1.00  0.00     0.001 A 
ATOM     77  C   UNL A   1      49.029  32.861  27.711  1.00  0.00     0.000 A 
ENDBRANCH  53  72
BRANCH  65  78
ATOM     78  C   UNL A   1      45.365  26.130  32.037  1.00  0.00    -0.014 A 
ATOM     79  C   UNL A   1      44.231  26.911  32.331  1.00  0.00     0.009 A 
ATOM     80  C   UNL A   1      46.101  25.612  33.111  1.00  0.00     0.009 A 
ATOM     81  C   UNL A   1      43.867  27.194  33.652  1.00  0.00     0.001 A 
ATOM     82  C   UNL A   1      45.727  25.878  34.433  1.00  0.00     0.001 A 
ATOM     83  C   UNL A   1      44.615  26.673  34.703  1.00  0.00     0.000 A 
ENDBRANCH  65  78
ENDBRANCH  39  40
ENDBRANCH  31  34
ENDBRANCH  29  30
ENDBRANCH  28  29
ENDBRANCH   1  28
TORSDOF 14
ENDMDL
