MODEL 1
REMARK VINA RESULT:     -10.6      0.000      0.000
REMARK SMILES O=C(NCCCCNC(=O)c1ncccc1-c1cc(Cl)cc(Cl)c1)c1ccc(-c2c3nc(c(-c4ccccc4)c4ccc([nH]4)c(-c4ccccc4)c4nc(c(-c5ccccc5)c5ccc2[nH]5)C=C4)C=C3)cc1
REMARK SMILES IDX 5 1 4 2 3 3 1 4 2 5 25 7 26 8 72 9 27 10 71 11 28 12 29 13
REMARK SMILES IDX 30 14 65 15 31 16 70 17 64 18 66 19 32 20 69 21 63 22 62 23
REMARK SMILES IDX 33 25 55 26 40 27 54 28 41 29 44 30 53 31 67 32 42 33 43 34
REMARK SMILES IDX 52 36 68 37 45 38 34 39 35 40 39 41 36 42 38 43 37 44 56 45
REMARK SMILES IDX 57 46 61 47 58 48 60 49 59 50 46 51 47 52 51 53 48 54 50 55
REMARK SMILES IDX 49 56 6 57 7 58 8 59 9 60 10 62 11 63 12 64 16 65 13 66
REMARK SMILES IDX 15 67 14 68 17 69 18 70 24 71 19 72 22 73 20 74 21 75 23 76
REMARK H PARENT 3 6 66 24 44 35 8 61
REMARK Flexibility Score: inf
ROOT
ATOM      1  C   UNL A   1      38.937  21.262  25.526  1.00  0.00     0.023 C 
ENDROOT
BRANCH   1   2
ATOM      2  C   UNL A   1      39.292  20.040  26.368  1.00  0.00     0.116 C 
BRANCH   2   3
ATOM      3  N   UNL A   1      40.483  19.349  25.900  1.00  0.00    -0.352 N 
ATOM      4  O   UNL A   1      42.634  19.106  25.267  1.00  0.00    -0.269 OA
ATOM      5  C   UNL A   1      41.784  19.785  25.836  1.00  0.00     0.251 C 
ATOM      6  H   UNL A   1      40.333  18.430  25.581  1.00  0.00     0.163 HD
BRANCH   5   7
ATOM      7  C   UNL A   1      42.159  21.087  26.426  1.00  0.00     0.039 A 
ATOM      8  C   UNL A   1      42.224  21.255  27.811  1.00  0.00     0.014 A 
ATOM      9  C   UNL A   1      42.461  22.153  25.575  1.00  0.00     0.014 A 
ATOM     10  C   UNL A   1      42.441  22.522  28.344  1.00  0.00     0.010 A 
ATOM     11  C   UNL A   1      42.761  23.407  26.113  1.00  0.00     0.010 A 
ATOM     12  C   UNL A   1      42.721  23.609  27.502  1.00  0.00    -0.014 A 
BRANCH  12  13
ATOM     13  C   UNL A   1      43.026  24.938  28.086  1.00  0.00     0.031 A 
ATOM     14  C   UNL A   1      41.940  25.944  28.336  1.00  0.00     0.074 A 
ATOM     15  C   UNL A   1      44.306  25.240  28.378  1.00  0.00     0.049 A 
ATOM     16  N   UNL A   1      42.040  27.164  28.800  1.00  0.00    -0.248 NA
ATOM     17  C   UNL A   1      40.564  25.533  28.017  1.00  0.00     0.031 C 
ATOM     18  C   UNL A   1      45.450  24.349  28.172  1.00  0.00     0.029 A 
ATOM     19  N   UNL A   1      44.859  26.378  28.903  1.00  0.00    -0.354 N 
ATOM     20  C   UNL A   1      40.748  27.677  28.803  1.00  0.00     0.074 A 
ATOM     21  C   UNL A   1      39.884  26.640  28.277  1.00  0.00     0.031 C 
ATOM     22  C   UNL A   1      46.565  24.968  28.583  1.00  0.00     0.029 A 
ATOM     23  C   UNL A   1      46.225  26.316  29.022  1.00  0.00     0.049 A 
ATOM     24  H   UNL A   1      44.328  27.165  29.169  1.00  0.00     0.167 HD
ATOM     25  C   UNL A   1      40.324  28.898  29.209  1.00  0.00     0.031 A 
ATOM     26  C   UNL A   1      47.115  27.247  29.407  1.00  0.00     0.031 A 
ATOM     27  C   UNL A   1      41.187  29.925  29.730  1.00  0.00     0.049 A 
ATOM     28  C   UNL A   1      46.626  28.603  29.820  1.00  0.00     0.074 A 
ATOM     29  C   UNL A   1      40.844  31.176  30.214  1.00  0.00     0.029 A 
ATOM     30  N   UNL A   1      42.568  29.825  29.822  1.00  0.00    -0.354 N 
ATOM     31  N   UNL A   1      45.397  29.054  29.865  1.00  0.00    -0.248 NA
ATOM     32  C   UNL A   1      47.644  29.576  30.235  1.00  0.00     0.031 C 
ATOM     33  C   UNL A   1      42.023  31.854  30.544  1.00  0.00     0.029 A 
ATOM     34  C   UNL A   1      43.095  31.005  30.321  1.00  0.00     0.049 A 
ATOM     35  H   UNL A   1      43.094  29.034  29.569  1.00  0.00     0.167 HD
ATOM     36  C   UNL A   1      45.489  30.359  30.328  1.00  0.00     0.074 A 
ATOM     37  C   UNL A   1      46.894  30.621  30.563  1.00  0.00     0.031 C 
ATOM     38  C   UNL A   1      44.496  31.256  30.541  1.00  0.00     0.031 A 
BRANCH  25  39
ATOM     39  C   UNL A   1      38.857  29.203  29.066  1.00  0.00    -0.014 A 
ATOM     40  C   UNL A   1      37.962  29.029  30.134  1.00  0.00     0.009 A 
ATOM     41  C   UNL A   1      38.369  29.700  27.847  1.00  0.00     0.009 A 
ATOM     42  C   UNL A   1      36.602  29.307  29.969  1.00  0.00     0.001 A 
ATOM     43  C   UNL A   1      37.015  30.003  27.694  1.00  0.00     0.001 A 
ATOM     44  C   UNL A   1      36.131  29.795  28.752  1.00  0.00     0.000 A 
ENDBRANCH  25  39
BRANCH  26  45
ATOM     45  C   UNL A   1      48.562  26.916  29.388  1.00  0.00    -0.014 A 
ATOM     46  C   UNL A   1      49.166  26.275  30.478  1.00  0.00     0.009 A 
ATOM     47  C   UNL A   1      49.331  27.189  28.245  1.00  0.00     0.009 A 
ATOM     48  C   UNL A   1      50.517  25.922  30.426  1.00  0.00     0.001 A 
ATOM     49  C   UNL A   1      50.672  26.809  28.185  1.00  0.00     0.001 A 
ATOM     50  C   UNL A   1      51.265  26.180  29.278  1.00  0.00     0.000 A 
ENDBRANCH  26  45
BRANCH  38  51
ATOM     51  C   UNL A   1      44.891  32.602  31.077  1.00  0.00    -0.014 A 
ATOM     52  C   UNL A   1      45.162  33.677  30.216  1.00  0.00     0.009 A 
ATOM     53  C   UNL A   1      44.941  32.809  32.465  1.00  0.00     0.009 A 
ATOM     54  C   UNL A   1      45.495  34.929  30.736  1.00  0.00     0.001 A 
ATOM     55  C   UNL A   1      45.250  34.068  32.981  1.00  0.00     0.001 A 
ATOM     56  C   UNL A   1      45.533  35.125  32.116  1.00  0.00     0.000 A 
ENDBRANCH  38  51
ENDBRANCH  12  13
ENDBRANCH   5   7
ENDBRANCH   2   3
ENDBRANCH   1   2
BRANCH   1  57
ATOM     57  C   UNL A   1      38.674  22.550  26.305  1.00  0.00     0.023 C 
BRANCH  57  58
ATOM     58  C   UNL A   1      37.543  23.416  25.769  1.00  0.00     0.116 C 
BRANCH  58  59
ATOM     59  N   UNL A   1      37.390  23.363  24.329  1.00  0.00    -0.351 N 
ATOM     60  C   UNL A   1      36.316  22.866  23.619  1.00  0.00     0.270 C 
ATOM     61  H   UNL A   1      38.136  23.721  23.796  1.00  0.00     0.163 HD
ATOM     62  O   UNL A   1      36.269  22.999  22.400  1.00  0.00    -0.267 OA
BRANCH  60  63
ATOM     63  C   UNL A   1      35.213  22.175  24.349  1.00  0.00     0.135 A 
ATOM     64  N   UNL A   1      35.481  20.872  24.643  1.00  0.00    -0.250 NA
ATOM     65  C   UNL A   1      34.055  22.864  24.746  1.00  0.00     0.013 A 
ATOM     66  C   UNL A   1      34.556  20.208  25.360  1.00  0.00     0.112 A 
ATOM     67  C   UNL A   1      33.137  22.124  25.506  1.00  0.00     0.013 A 
ATOM     68  C   UNL A   1      33.385  20.787  25.817  1.00  0.00     0.021 A 
BRANCH  65  69
ATOM     69  C   UNL A   1      33.815  24.289  24.459  1.00  0.00    -0.013 A 
ATOM     70  C   UNL A   1      33.230  24.677  23.239  1.00  0.00     0.029 A 
ATOM     71  C   UNL A   1      34.097  25.287  25.404  1.00  0.00     0.029 A 
ATOM     72  C   UNL A   1      32.888  26.008  23.004  1.00  0.00     0.043 A 
ATOM     73  C   UNL A   1      33.771  26.621  25.147  1.00  0.00     0.043 A 
ATOM     74  Cl  UNL A   1      32.084  26.431  21.543  1.00  0.00    -0.084 Cl
ATOM     75  C   UNL A   1      33.155  26.987  23.954  1.00  0.00     0.041 A 
ATOM     76  Cl  UNL A   1      34.109  27.825  26.329  1.00  0.00    -0.084 Cl
ENDBRANCH  65  69
ENDBRANCH  60  63
ENDBRANCH  58  59
ENDBRANCH  57  58
ENDBRANCH   1  57
TORSDOF 12
ENDMDL
MODEL 2
REMARK VINA RESULT:     -10.6      0.402      6.052
REMARK SMILES O=C(NCCCCNC(=O)c1ncccc1-c1cc(Cl)cc(Cl)c1)c1ccc(-c2c3nc(c(-c4ccccc4)c4ccc([nH]4)c(-c4ccccc4)c4nc(c(-c5ccccc5)c5ccc2[nH]5)C=C4)C=C3)cc1
REMARK SMILES IDX 5 1 4 2 3 3 1 4 2 5 25 7 26 8 72 9 27 10 71 11 28 12 29 13
REMARK SMILES IDX 30 14 65 15 31 16 70 17 64 18 66 19 32 20 69 21 63 22 62 23
REMARK SMILES IDX 33 25 55 26 40 27 54 28 41 29 44 30 53 31 67 32 42 33 43 34
REMARK SMILES IDX 52 36 68 37 45 38 34 39 35 40 39 41 36 42 38 43 37 44 56 45
REMARK SMILES IDX 57 46 61 47 58 48 60 49 59 50 46 51 47 52 51 53 48 54 50 55
REMARK SMILES IDX 49 56 6 57 7 58 8 59 9 60 10 62 11 63 12 64 16 65 13 66
REMARK SMILES IDX 15 67 14 68 17 69 18 70 24 71 19 72 22 73 20 74 21 75 23 76
REMARK H PARENT 3 6 66 24 44 35 8 61
REMARK Flexibility Score: inf
ROOT
ATOM      1  C   UNL A   1      39.019  21.094  25.478  1.00  0.00     0.023 C 
ENDROOT
BRANCH   1   2
ATOM      2  C   UNL A   1      39.436  19.913  26.350  1.00  0.00     0.116 C 
BRANCH   2   3
ATOM      3  N   UNL A   1      40.650  19.260  25.885  1.00  0.00    -0.352 N 
ATOM      4  O   UNL A   1      42.808  19.087  25.252  1.00  0.00    -0.269 OA
ATOM      5  C   UNL A   1      41.935  19.741  25.817  1.00  0.00     0.251 C 
ATOM      6  H   UNL A   1      40.532  18.333  25.574  1.00  0.00     0.163 HD
BRANCH   5   7
ATOM      7  C   UNL A   1      42.265  21.059  26.396  1.00  0.00     0.039 A 
ATOM      8  C   UNL A   1      42.225  21.266  27.777  1.00  0.00     0.014 A 
ATOM      9  C   UNL A   1      42.631  22.101  25.541  1.00  0.00     0.014 A 
ATOM     10  C   UNL A   1      42.401  22.548  28.289  1.00  0.00     0.010 A 
ATOM     11  C   UNL A   1      42.891  23.370  26.065  1.00  0.00     0.010 A 
ATOM     12  C   UNL A   1      42.745  23.611  27.441  1.00  0.00    -0.014 A 
BRANCH  12  13
ATOM     13  C   UNL A   1      43.005  24.956  28.008  1.00  0.00     0.031 A 
ATOM     14  C   UNL A   1      44.380  25.356  28.461  1.00  0.00     0.074 A 
ATOM     15  C   UNL A   1      41.978  25.820  28.128  1.00  0.00     0.049 A 
ATOM     16  N   UNL A   1      44.770  26.474  29.017  1.00  0.00    -0.248 NA
ATOM     17  C   UNL A   1      45.456  24.370  28.274  1.00  0.00     0.031 C 
ATOM     18  C   UNL A   1      40.595  25.544  27.732  1.00  0.00     0.029 A 
ATOM     19  N   UNL A   1      41.937  27.097  28.622  1.00  0.00    -0.354 N 
ATOM     20  C   UNL A   1      46.128  26.319  29.271  1.00  0.00     0.074 A 
ATOM     21  C   UNL A   1      46.489  24.990  28.825  1.00  0.00     0.031 C 
ATOM     22  C   UNL A   1      39.845  26.627  27.981  1.00  0.00     0.029 A 
ATOM     23  C   UNL A   1      40.679  27.646  28.609  1.00  0.00     0.049 A 
ATOM     24  H   UNL A   1      42.732  27.576  28.953  1.00  0.00     0.167 HD
ATOM     25  C   UNL A   1      46.991  27.205  29.825  1.00  0.00     0.031 A 
ATOM     26  C   UNL A   1      40.230  28.823  29.080  1.00  0.00     0.031 A 
ATOM     27  C   UNL A   1      46.627  28.525  30.268  1.00  0.00     0.049 A 
ATOM     28  C   UNL A   1      41.197  29.773  29.719  1.00  0.00     0.074 A 
ATOM     29  C   UNL A   1      47.441  29.513  30.795  1.00  0.00     0.029 A 
ATOM     30  N   UNL A   1      45.337  29.037  30.249  1.00  0.00    -0.354 N 
ATOM     31  N   UNL A   1      42.486  29.631  29.907  1.00  0.00    -0.248 NA
ATOM     32  C   UNL A   1      40.650  31.044  30.211  1.00  0.00     0.031 C 
ATOM     33  C   UNL A   1      46.634  30.601  31.148  1.00  0.00     0.029 A 
ATOM     34  C   UNL A   1      45.328  30.313  30.788  1.00  0.00     0.049 A 
ATOM     35  H   UNL A   1      44.547  28.563  29.904  1.00  0.00     0.167 HD
ATOM     36  C   UNL A   1      42.910  30.800  30.524  1.00  0.00     0.074 A 
ATOM     37  C   UNL A   1      41.742  31.646  30.665  1.00  0.00     0.031 C 
ATOM     38  C   UNL A   1      44.156  31.140  30.932  1.00  0.00     0.031 A 
BRANCH  25  39
ATOM     39  C   UNL A   1      48.414  26.755  30.018  1.00  0.00    -0.014 A 
ATOM     40  C   UNL A   1      49.403  27.006  29.055  1.00  0.00     0.009 A 
ATOM     41  C   UNL A   1      48.775  26.091  31.201  1.00  0.00     0.009 A 
ATOM     42  C   UNL A   1      50.714  26.564  29.254  1.00  0.00     0.001 A 
ATOM     43  C   UNL A   1      50.091  25.675  31.411  1.00  0.00     0.001 A 
ATOM     44  C   UNL A   1      51.057  25.902  30.431  1.00  0.00     0.000 A 
ENDBRANCH  25  39
BRANCH  26  45
ATOM     45  C   UNL A   1      38.783  29.138  28.979  1.00  0.00    -0.014 A 
ATOM     46  C   UNL A   1      37.930  28.952  30.075  1.00  0.00     0.009 A 
ATOM     47  C   UNL A   1      38.264  29.688  27.796  1.00  0.00     0.009 A 
ATOM     48  C   UNL A   1      36.581  29.303  29.983  1.00  0.00     0.001 A 
ATOM     49  C   UNL A   1      36.922  30.065  27.717  1.00  0.00     0.001 A 
ATOM     50  C   UNL A   1      36.081  29.867  28.810  1.00  0.00     0.000 A 
ENDBRANCH  26  45
BRANCH  38  51
ATOM     51  C   UNL A   1      44.329  32.497  31.553  1.00  0.00    -0.014 A 
ATOM     52  C   UNL A   1      44.239  32.677  32.942  1.00  0.00     0.009 A 
ATOM     53  C   UNL A   1      44.638  33.598  30.739  1.00  0.00     0.009 A 
ATOM     54  C   UNL A   1      44.436  33.942  33.501  1.00  0.00     0.001 A 
ATOM     55  C   UNL A   1      44.858  34.855  31.304  1.00  0.00     0.001 A 
ATOM     56  C   UNL A   1      44.751  35.026  32.683  1.00  0.00     0.000 A 
ENDBRANCH  38  51
ENDBRANCH  12  13
ENDBRANCH   5   7
ENDBRANCH   2   3
ENDBRANCH   1   2
BRANCH   1  57
ATOM     57  C   UNL A   1      38.843  22.425  26.208  1.00  0.00     0.023 C 
BRANCH  57  58
ATOM     58  C   UNL A   1      37.627  23.240  25.792  1.00  0.00     0.116 C 
BRANCH  58  59
ATOM     59  N   UNL A   1      37.410  23.288  24.360  1.00  0.00    -0.351 N 
ATOM     60  C   UNL A   1      36.289  22.877  23.668  1.00  0.00     0.270 C 
ATOM     61  H   UNL A   1      38.145  23.656  23.818  1.00  0.00     0.163 HD
ATOM     62  O   UNL A   1      36.195  23.092  22.463  1.00  0.00    -0.267 OA
BRANCH  60  63
ATOM     63  C   UNL A   1      35.193  22.176  24.401  1.00  0.00     0.135 A 
ATOM     64  N   UNL A   1      35.471  20.873  24.688  1.00  0.00    -0.250 NA
ATOM     65  C   UNL A   1      34.033  22.856  24.805  1.00  0.00     0.013 A 
ATOM     66  C   UNL A   1      34.554  20.201  25.407  1.00  0.00     0.112 A 
ATOM     67  C   UNL A   1      33.123  22.108  25.566  1.00  0.00     0.013 A 
ATOM     68  C   UNL A   1      33.381  20.771  25.871  1.00  0.00     0.021 A 
BRANCH  65  69
ATOM     69  C   UNL A   1      33.783  24.280  24.525  1.00  0.00    -0.013 A 
ATOM     70  C   UNL A   1      33.150  24.666  23.329  1.00  0.00     0.029 A 
ATOM     71  C   UNL A   1      34.104  25.281  25.455  1.00  0.00     0.029 A 
ATOM     72  C   UNL A   1      32.799  25.997  23.105  1.00  0.00     0.043 A 
ATOM     73  C   UNL A   1      33.769  26.615  25.208  1.00  0.00     0.043 A 
ATOM     74  Cl  UNL A   1      31.937  26.417  21.676  1.00  0.00    -0.084 Cl
ATOM     75  C   UNL A   1      33.105  26.978  24.040  1.00  0.00     0.041 A 
ATOM     76  Cl  UNL A   1      34.156  27.821  26.373  1.00  0.00    -0.084 Cl
ENDBRANCH  65  69
ENDBRANCH  60  63
ENDBRANCH  58  59
ENDBRANCH  57  58
ENDBRANCH   1  57
TORSDOF 12
ENDMDL
MODEL 3
REMARK VINA RESULT:     -10.6      4.499      9.183
REMARK SMILES O=C(NCCCCNC(=O)c1ncccc1-c1cc(Cl)cc(Cl)c1)c1ccc(-c2c3nc(c(-c4ccccc4)c4ccc([nH]4)c(-c4ccccc4)c4nc(c(-c5ccccc5)c5ccc2[nH]5)C=C4)C=C3)cc1
REMARK SMILES IDX 5 1 4 2 3 3 1 4 2 5 25 7 26 8 72 9 27 10 71 11 28 12 29 13
REMARK SMILES IDX 30 14 65 15 31 16 70 17 64 18 66 19 32 20 69 21 63 22 62 23
REMARK SMILES IDX 33 25 55 26 40 27 54 28 41 29 44 30 53 31 67 32 42 33 43 34
REMARK SMILES IDX 52 36 68 37 45 38 34 39 35 40 39 41 36 42 38 43 37 44 56 45
REMARK SMILES IDX 57 46 61 47 58 48 60 49 59 50 46 51 47 52 51 53 48 54 50 55
REMARK SMILES IDX 49 56 6 57 7 58 8 59 9 60 10 62 11 63 12 64 16 65 13 66
REMARK SMILES IDX 15 67 14 68 17 69 18 70 24 71 19 72 22 73 20 74 21 75 23 76
REMARK H PARENT 3 6 66 24 44 35 8 61
REMARK Flexibility Score: inf
ROOT
ATOM      1  C   UNL A   1      31.332  31.687  26.579  1.00  0.00     0.023 C 
ENDROOT
BRANCH   1   2
ATOM      2  C   UNL A   1      32.608  32.403  27.011  1.00  0.00     0.116 C 
BRANCH   2   3
ATOM      3  N   UNL A   1      32.366  33.744  27.523  1.00  0.00    -0.352 N 
ATOM      4  O   UNL A   1      32.616  35.531  28.876  1.00  0.00    -0.269 OA
ATOM      5  C   UNL A   1      33.062  34.465  28.462  1.00  0.00     0.251 C 
ATOM      6  H   UNL A   1      31.584  34.202  27.138  1.00  0.00     0.163 HD
BRANCH   5   7
ATOM      7  C   UNL A   1      34.339  33.947  28.998  1.00  0.00     0.039 A 
ATOM      8  C   UNL A   1      35.560  34.331  28.439  1.00  0.00     0.014 A 
ATOM      9  C   UNL A   1      34.309  33.070  30.085  1.00  0.00     0.014 A 
ATOM     10  C   UNL A   1      36.737  33.724  28.866  1.00  0.00     0.010 A 
ATOM     11  C   UNL A   1      35.501  32.525  30.569  1.00  0.00     0.010 A 
ATOM     12  C   UNL A   1      36.721  32.822  29.941  1.00  0.00    -0.014 A 
BRANCH  12  13
ATOM     13  C   UNL A   1      37.992  32.240  30.437  1.00  0.00     0.031 A 
ATOM     14  C   UNL A   1      38.550  30.977  29.847  1.00  0.00     0.074 A 
ATOM     15  C   UNL A   1      38.639  32.857  31.445  1.00  0.00     0.049 A 
ATOM     16  N   UNL A   1      39.625  30.313  30.192  1.00  0.00    -0.248 NA
ATOM     17  C   UNL A   1      37.803  30.374  28.733  1.00  0.00     0.031 C 
ATOM     18  C   UNL A   1      38.192  34.085  32.105  1.00  0.00     0.029 A 
ATOM     19  N   UNL A   1      39.803  32.534  32.091  1.00  0.00    -0.354 N 
ATOM     20  C   UNL A   1      39.669  29.202  29.358  1.00  0.00     0.074 A 
ATOM     21  C   UNL A   1      38.503  29.273  28.503  1.00  0.00     0.031 C 
ATOM     22  C   UNL A   1      39.080  34.421  33.051  1.00  0.00     0.029 A 
ATOM     23  C   UNL A   1      40.122  33.403  33.104  1.00  0.00     0.049 A 
ATOM     24  H   UNL A   1      40.357  31.755  31.852  1.00  0.00     0.167 HD
ATOM     25  C   UNL A   1      40.598  28.217  29.310  1.00  0.00     0.031 A 
ATOM     26  C   UNL A   1      41.122  33.373  34.004  1.00  0.00     0.031 A 
ATOM     27  C   UNL A   1      41.756  28.151  30.163  1.00  0.00     0.049 A 
ATOM     28  C   UNL A   1      42.119  32.254  33.953  1.00  0.00     0.074 A 
ATOM     29  C   UNL A   1      42.780  27.219  30.157  1.00  0.00     0.029 A 
ATOM     30  N   UNL A   1      42.035  29.045  31.186  1.00  0.00    -0.354 N 
ATOM     31  N   UNL A   1      42.175  31.239  33.126  1.00  0.00    -0.248 NA
ATOM     32  C   UNL A   1      43.190  32.277  34.958  1.00  0.00     0.031 C 
ATOM     33  C   UNL A   1      43.648  27.518  31.212  1.00  0.00     0.029 A 
ATOM     34  C   UNL A   1      43.197  28.668  31.839  1.00  0.00     0.049 A 
ATOM     35  H   UNL A   1      41.489  29.831  31.413  1.00  0.00     0.167 HD
ATOM     36  C   UNL A   1      43.294  30.509  33.498  1.00  0.00     0.074 A 
ATOM     37  C   UNL A   1      43.897  31.206  34.616  1.00  0.00     0.031 C 
ATOM     38  C   UNL A   1      43.779  29.365  32.957  1.00  0.00     0.031 A 
BRANCH  25  39
ATOM     39  C   UNL A   1      40.376  27.104  28.322  1.00  0.00    -0.014 A 
ATOM     40  C   UNL A   1      40.904  27.157  27.022  1.00  0.00     0.009 A 
ATOM     41  C   UNL A   1      39.646  25.970  28.710  1.00  0.00     0.009 A 
ATOM     42  C   UNL A   1      40.670  26.115  26.120  1.00  0.00     0.001 A 
ATOM     43  C   UNL A   1      39.437  24.918  27.816  1.00  0.00     0.001 A 
ATOM     44  C   UNL A   1      39.939  24.997  26.518  1.00  0.00     0.000 A 
ENDBRANCH  25  39
BRANCH  26  45
ATOM     45  C   UNL A   1      41.196  34.433  35.040  1.00  0.00    -0.014 A 
ATOM     46  C   UNL A   1      41.899  35.621  34.802  1.00  0.00     0.009 A 
ATOM     47  C   UNL A   1      40.505  34.280  36.253  1.00  0.00     0.009 A 
ATOM     48  C   UNL A   1      41.916  36.633  35.765  1.00  0.00     0.001 A 
ATOM     49  C   UNL A   1      40.500  35.305  37.201  1.00  0.00     0.001 A 
ATOM     50  C   UNL A   1      41.210  36.478  36.958  1.00  0.00     0.000 A 
ENDBRANCH  26  45
BRANCH  38  51
ATOM     51  C   UNL A   1      45.039  28.804  33.554  1.00  0.00    -0.014 A 
ATOM     52  C   UNL A   1      44.994  27.855  34.587  1.00  0.00     0.009 A 
ATOM     53  C   UNL A   1      46.285  29.193  33.037  1.00  0.00     0.009 A 
ATOM     54  C   UNL A   1      46.176  27.322  35.105  1.00  0.00     0.001 A 
ATOM     55  C   UNL A   1      47.462  28.639  33.539  1.00  0.00     0.001 A 
ATOM     56  C   UNL A   1      47.407  27.709  34.577  1.00  0.00     0.000 A 
ENDBRANCH  38  51
ENDBRANCH  12  13
ENDBRANCH   5   7
ENDBRANCH   2   3
ENDBRANCH   1   2
BRANCH   1  57
ATOM     57  C   UNL A   1      31.511  30.594  25.527  1.00  0.00     0.023 C 
BRANCH  57  58
ATOM     58  C   UNL A   1      32.199  29.326  26.014  1.00  0.00     0.116 C 
BRANCH  58  59
ATOM     59  N   UNL A   1      31.285  28.286  26.442  1.00  0.00    -0.351 N 
ATOM     60  C   UNL A   1      31.087  27.052  25.857  1.00  0.00     0.270 C 
ATOM     61  H   UNL A   1      30.744  28.481  27.241  1.00  0.00     0.163 HD
ATOM     62  O   UNL A   1      30.368  26.220  26.403  1.00  0.00    -0.267 OA
BRANCH  60  63
ATOM     63  C   UNL A   1      31.762  26.739  24.563  1.00  0.00     0.135 A 
ATOM     64  N   UNL A   1      32.861  25.945  24.695  1.00  0.00    -0.250 NA
ATOM     65  C   UNL A   1      31.234  27.180  23.339  1.00  0.00     0.013 A 
ATOM     66  C   UNL A   1      33.479  25.569  23.561  1.00  0.00     0.112 A 
ATOM     67  C   UNL A   1      31.910  26.741  22.191  1.00  0.00     0.013 A 
ATOM     68  C   UNL A   1      33.040  25.930  22.298  1.00  0.00     0.021 A 
BRANCH  65  69
ATOM     69  C   UNL A   1      30.013  27.995  23.224  1.00  0.00    -0.013 A 
ATOM     70  C   UNL A   1      30.069  29.275  22.641  1.00  0.00     0.029 A 
ATOM     71  C   UNL A   1      28.760  27.506  23.625  1.00  0.00     0.029 A 
ATOM     72  C   UNL A   1      28.903  30.008  22.417  1.00  0.00     0.043 A 
ATOM     73  C   UNL A   1      27.603  28.261  23.415  1.00  0.00     0.043 A 
ATOM     74  Cl  UNL A   1      28.999  31.526  21.613  1.00  0.00    -0.084 Cl
ATOM     75  C   UNL A   1      27.666  29.507  22.801  1.00  0.00     0.041 A 
ATOM     76  Cl  UNL A   1      26.076  27.630  23.898  1.00  0.00    -0.084 Cl
ENDBRANCH  65  69
ENDBRANCH  60  63
ENDBRANCH  58  59
ENDBRANCH  57  58
ENDBRANCH   1  57
TORSDOF 12
ENDMDL
