MODEL 1
REMARK VINA RESULT:     -10.6      0.000      0.000
REMARK SMILES CC[N@@H+]1CCO[C@@H](COc2ccc(C(=O)NCCCCNC(=O)c3ccc(-c4c5nc(c(-c6ccccc6)c6ccc([nH]6)c(-c6ccccc6)c6nc(c(-c7ccccc7)c7ccc4[nH]7)C=C6)C=C5)cc3)cc2OC)C1
REMARK SMILES IDX 17 1 16 2 14 3 15 4 13 6 10 7 11 8 73 9 12 10 72 11 9 12
REMARK SMILES IDX 8 13 7 14 3 15 4 16 76 17 5 19 6 20 2 21 1 22 74 23 75 24
REMARK SMILES IDX 18 25 19 26 20 27 21 28 22 29 23 31 24 32 25 33 71 34 26 35
REMARK SMILES IDX 70 36 27 37 28 38 29 39 64 40 30 41 69 42 63 43 65 44 31 45
REMARK SMILES IDX 68 46 62 47 61 48 32 50 54 51 39 52 53 53 40 54 43 55 52 56
REMARK SMILES IDX 66 57 41 58 42 59 51 61 67 62 44 63 33 64 34 65 38 66 35 67
REMARK SMILES IDX 37 68 36 69 55 70 56 71 60 72 57 73 59 74 58 75 45 76 46 77
REMARK SMILES IDX 50 78 47 79 49 80 48 81
REMARK H PARENT 16 5 3 18 21 30 65 49 43 60
REMARK Flexibility Score: inf
ROOT
ATOM      1  C   UNL A   1      31.163  29.787  24.994  1.00  0.00     0.116 C 
ENDROOT
BRANCH   1   2
ATOM      2  N   UNL A   1      30.686  30.053  23.645  1.00  0.00    -0.352 N 
ATOM      3  C   UNL A   1      30.271  29.178  22.667  1.00  0.00     0.251 C 
ATOM      4  O   UNL A   1      29.738  29.611  21.649  1.00  0.00    -0.269 OA
ATOM      5  H   UNL A   1      30.656  31.003  23.393  1.00  0.00     0.163 HD
BRANCH   3   6
ATOM      6  C   UNL A   1      30.396  27.715  22.862  1.00  0.00     0.043 A 
ATOM      7  C   UNL A   1      30.781  25.039  23.535  1.00  0.00     0.161 A 
ATOM      8  C   UNL A   1      29.670  25.728  24.032  1.00  0.00     0.051 A 
ATOM      9  C   UNL A   1      31.591  25.627  22.557  1.00  0.00     0.161 A 
ATOM     10  C   UNL A   1      29.473  27.068  23.688  1.00  0.00     0.018 A 
ATOM     11  C   UNL A   1      31.413  26.978  22.247  1.00  0.00     0.064 A 
BRANCH   7  12
ATOM     12  O   UNL A   1      31.061  23.795  24.028  1.00  0.00    -0.487 OA
BRANCH  12  13
ATOM     13  C   UNL A   1      31.761  23.827  25.295  1.00  0.00     0.267 C 
BRANCH  13  14
ATOM     14  C   UNL A   1      33.144  23.137  25.267  1.00  0.00     0.210 C 
ATOM     15  N   UNL A   1      35.379  22.915  26.422  1.00  0.00    -0.331 N 
ATOM     16  C   UNL A   1      35.276  21.467  26.195  1.00  0.00     0.291 C 
ATOM     17  C   UNL A   1      34.028  23.507  26.474  1.00  0.00     0.298 C 
ATOM     18  H   UNL A   1      35.818  23.031  27.335  1.00  0.00     0.348 HD
ATOM     19  C   UNL A   1      34.235  21.038  25.137  1.00  0.00     0.222 C 
ATOM     20  O   UNL A   1      32.967  21.701  25.290  1.00  0.00    -0.363 OA
BRANCH  15  21
ATOM     21  C   UNL A   1      36.335  23.642  25.581  1.00  0.00     0.258 C 
ATOM     22  C   UNL A   1      37.821  23.620  25.933  1.00  0.00     0.071 C 
ENDBRANCH  15  21
ENDBRANCH  13  14
ENDBRANCH  12  13
ENDBRANCH   7  12
BRANCH   9  23
ATOM     23  O   UNL A   1      32.686  25.047  21.974  1.00  0.00    -0.493 OA
ATOM     24  C   UNL A   1      32.767  25.167  20.557  1.00  0.00     0.278 C 
ENDBRANCH   9  23
ENDBRANCH   3   6
ENDBRANCH   1   2
BRANCH   1  25
ATOM     25  C   UNL A   1      32.673  29.547  25.025  1.00  0.00     0.023 C 
BRANCH  25  26
ATOM     26  C   UNL A   1      33.111  28.315  25.820  1.00  0.00     0.023 C 
BRANCH  26  27
ATOM     27  C   UNL A   1      33.622  28.595  27.228  1.00  0.00     0.116 C 
BRANCH  27  28
ATOM     28  N   UNL A   1      33.538  29.998  27.603  1.00  0.00    -0.352 N 
ATOM     29  C   UNL A   1      34.484  30.789  28.208  1.00  0.00     0.251 C 
ATOM     30  H   UNL A   1      32.685  30.443  27.394  1.00  0.00     0.163 HD
ATOM     31  O   UNL A   1      34.197  31.930  28.567  1.00  0.00    -0.269 OA
BRANCH  29  32
ATOM     32  C   UNL A   1      35.844  30.263  28.457  1.00  0.00     0.039 A 
ATOM     33  C   UNL A   1      36.793  30.333  27.434  1.00  0.00     0.014 A 
ATOM     34  C   UNL A   1      36.186  29.697  29.688  1.00  0.00     0.014 A 
ATOM     35  C   UNL A   1      38.093  29.874  27.659  1.00  0.00     0.010 A 
ATOM     36  C   UNL A   1      37.503  29.324  29.940  1.00  0.00     0.010 A 
ATOM     37  C   UNL A   1      38.465  29.387  28.921  1.00  0.00    -0.014 A 
BRANCH  37  38
ATOM     38  C   UNL A   1      39.846  28.905  29.181  1.00  0.00     0.031 A 
ATOM     39  C   UNL A   1      40.848  29.806  29.850  1.00  0.00     0.074 A 
ATOM     40  C   UNL A   1      40.218  27.678  28.771  1.00  0.00     0.049 A 
ATOM     41  N   UNL A   1      42.101  29.572  30.151  1.00  0.00    -0.248 NA
ATOM     42  C   UNL A   1      40.392  31.162  30.196  1.00  0.00     0.031 C 
ATOM     43  C   UNL A   1      39.362  26.727  28.060  1.00  0.00     0.029 A 
ATOM     44  N   UNL A   1      41.418  27.023  28.891  1.00  0.00    -0.354 N 
ATOM     45  C   UNL A   1      42.583  30.754  30.701  1.00  0.00     0.074 A 
ATOM     46  C   UNL A   1      41.511  31.721  30.628  1.00  0.00     0.031 C 
ATOM     47  C   UNL A   1      40.056  25.600  27.833  1.00  0.00     0.029 A 
ATOM     48  C   UNL A   1      41.412  25.763  28.348  1.00  0.00     0.049 A 
ATOM     49  H   UNL A   1      42.208  27.420  29.326  1.00  0.00     0.167 HD
ATOM     50  C   UNL A   1      43.800  31.009  31.239  1.00  0.00     0.031 A 
ATOM     51  C   UNL A   1      42.388  24.838  28.273  1.00  0.00     0.031 A 
ATOM     52  C   UNL A   1      44.867  30.046  31.310  1.00  0.00     0.049 A 
ATOM     53  C   UNL A   1      43.730  25.133  28.881  1.00  0.00     0.074 A 
ATOM     54  C   UNL A   1      46.116  30.181  31.892  1.00  0.00     0.029 A 
ATOM     55  N   UNL A   1      44.815  28.771  30.767  1.00  0.00    -0.354 N 
ATOM     56  N   UNL A   1      44.145  26.224  29.479  1.00  0.00    -0.248 NA
ATOM     57  C   UNL A   1      44.729  24.058  28.826  1.00  0.00     0.031 C 
ATOM     58  C   UNL A   1      46.841  29.011  31.643  1.00  0.00     0.029 A 
ATOM     59  C   UNL A   1      46.019  28.118  30.973  1.00  0.00     0.049 A 
ATOM     60  H   UNL A   1      44.036  28.387  30.302  1.00  0.00     0.167 HD
ATOM     61  C   UNL A   1      45.444  25.959  29.896  1.00  0.00     0.074 A 
ATOM     62  C   UNL A   1      45.739  24.598  29.495  1.00  0.00     0.031 C 
ATOM     63  C   UNL A   1      46.309  26.768  30.556  1.00  0.00     0.031 A 
BRANCH  50  64
ATOM     64  C   UNL A   1      44.035  32.399  31.769  1.00  0.00    -0.014 A 
ATOM     65  C   UNL A   1      44.567  33.417  30.957  1.00  0.00     0.009 A 
ATOM     66  C   UNL A   1      43.736  32.695  33.108  1.00  0.00     0.009 A 
ATOM     67  C   UNL A   1      44.857  34.674  31.491  1.00  0.00     0.001 A 
ATOM     68  C   UNL A   1      43.989  33.965  33.629  1.00  0.00     0.001 A 
ATOM     69  C   UNL A   1      44.566  34.948  32.827  1.00  0.00     0.000 A 
ENDBRANCH  50  64
BRANCH  51  70
ATOM     70  C   UNL A   1      42.110  23.535  27.613  1.00  0.00    -0.014 A 
ATOM     71  C   UNL A   1      42.487  23.313  26.280  1.00  0.00     0.009 A 
ATOM     72  C   UNL A   1      41.500  22.493  28.329  1.00  0.00     0.009 A 
ATOM     73  C   UNL A   1      42.244  22.078  25.673  1.00  0.00     0.001 A 
ATOM     74  C   UNL A   1      41.286  21.250  27.729  1.00  0.00     0.001 A 
ATOM     75  C   UNL A   1      41.652  21.045  26.400  1.00  0.00     0.000 A 
ENDBRANCH  51  70
BRANCH  63  76
ATOM     76  C   UNL A   1      47.649  26.190  30.922  1.00  0.00    -0.014 A 
ATOM     77  C   UNL A   1      47.907  25.678  32.203  1.00  0.00     0.009 A 
ATOM     78  C   UNL A   1      48.662  26.129  29.951  1.00  0.00     0.009 A 
ATOM     79  C   UNL A   1      49.165  25.157  32.516  1.00  0.00     0.001 A 
ATOM     80  C   UNL A   1      49.906  25.576  30.255  1.00  0.00     0.001 A 
ATOM     81  C   UNL A   1      50.161  25.103  31.541  1.00  0.00     0.000 A 
ENDBRANCH  63  76
ENDBRANCH  37  38
ENDBRANCH  29  32
ENDBRANCH  27  28
ENDBRANCH  26  27
ENDBRANCH  25  26
ENDBRANCH   1  25
TORSDOF 16
ENDMDL
MODEL 2
REMARK VINA RESULT:     -10.4      1.799      2.794
REMARK SMILES CC[N@@H+]1CCO[C@@H](COc2ccc(C(=O)NCCCCNC(=O)c3ccc(-c4c5nc(c(-c6ccccc6)c6ccc([nH]6)c(-c6ccccc6)c6nc(c(-c7ccccc7)c7ccc4[nH]7)C=C6)C=C5)cc3)cc2OC)C1
REMARK SMILES IDX 17 1 16 2 14 3 15 4 13 6 10 7 11 8 73 9 12 10 72 11 9 12
REMARK SMILES IDX 8 13 7 14 3 15 4 16 76 17 5 19 6 20 2 21 1 22 74 23 75 24
REMARK SMILES IDX 18 25 19 26 20 27 21 28 22 29 23 31 24 32 25 33 71 34 26 35
REMARK SMILES IDX 70 36 27 37 28 38 29 39 64 40 30 41 69 42 63 43 65 44 31 45
REMARK SMILES IDX 68 46 62 47 61 48 32 50 54 51 39 52 53 53 40 54 43 55 52 56
REMARK SMILES IDX 66 57 41 58 42 59 51 61 67 62 44 63 33 64 34 65 38 66 35 67
REMARK SMILES IDX 37 68 36 69 55 70 56 71 60 72 57 73 59 74 58 75 45 76 46 77
REMARK SMILES IDX 50 78 47 79 49 80 48 81
REMARK H PARENT 16 5 3 18 21 30 65 49 43 60
REMARK Flexibility Score: inf
ROOT
ATOM      1  C   UNL A   1      32.177  27.911  24.143  1.00  0.00     0.116 C 
ENDROOT
BRANCH   1   2
ATOM      2  N   UNL A   1      31.179  27.510  25.124  1.00  0.00    -0.352 N 
ATOM      3  C   UNL A   1      30.955  26.282  25.702  1.00  0.00     0.251 C 
ATOM      4  O   UNL A   1      30.170  26.186  26.642  1.00  0.00    -0.269 OA
ATOM      5  H   UNL A   1      30.571  28.226  25.417  1.00  0.00     0.163 HD
BRANCH   3   6
ATOM      6  C   UNL A   1      31.703  25.087  25.250  1.00  0.00     0.043 A 
ATOM      7  C   UNL A   1      32.878  22.650  24.582  1.00  0.00     0.161 A 
ATOM      8  C   UNL A   1      31.772  23.110  23.860  1.00  0.00     0.051 A 
ATOM      9  C   UNL A   1      33.510  23.490  25.506  1.00  0.00     0.161 A 
ATOM     10  C   UNL A   1      31.187  24.335  24.189  1.00  0.00     0.018 A 
ATOM     11  C   UNL A   1      32.899  24.696  25.859  1.00  0.00     0.064 A 
BRANCH   7  12
ATOM     12  O   UNL A   1      33.318  21.373  24.373  1.00  0.00    -0.487 OA
BRANCH  12  13
ATOM     13  C   UNL A   1      32.476  20.370  24.991  1.00  0.00     0.267 C 
BRANCH  13  14
ATOM     14  C   UNL A   1      33.088  18.951  24.994  1.00  0.00     0.210 C 
ATOM     15  N   UNL A   1      32.775  16.553  24.267  1.00  0.00    -0.331 N 
ATOM     16  C   UNL A   1      34.194  16.556  23.885  1.00  0.00     0.291 C 
ATOM     17  C   UNL A   1      32.243  17.928  24.209  1.00  0.00     0.298 C 
ATOM     18  H   UNL A   1      32.291  15.990  23.567  1.00  0.00     0.348 HD
ATOM     19  C   UNL A   1      35.036  17.703  24.483  1.00  0.00     0.222 C 
ATOM     20  O   UNL A   1      34.397  18.988  24.378  1.00  0.00    -0.363 OA
BRANCH  15  21
ATOM     21  C   UNL A   1      32.427  15.810  25.482  1.00  0.00     0.258 C 
ATOM     22  C   UNL A   1      32.827  14.342  25.612  1.00  0.00     0.071 C 
ENDBRANCH  15  21
ENDBRANCH  13  14
ENDBRANCH  12  13
ENDBRANCH   7  12
BRANCH   9  23
ATOM     23  O   UNL A   1      34.612  23.169  26.252  1.00  0.00    -0.493 OA
ATOM     24  C   UNL A   1      35.863  23.599  25.721  1.00  0.00     0.278 C 
ENDBRANCH   9  23
ENDBRANCH   3   6
ENDBRANCH   1   2
BRANCH   1  25
ATOM     25  C   UNL A   1      33.208  28.869  24.742  1.00  0.00     0.023 C 
BRANCH  25  26
ATOM     26  C   UNL A   1      34.076  28.266  25.849  1.00  0.00     0.023 C 
BRANCH  26  27
ATOM     27  C   UNL A   1      33.591  28.524  27.271  1.00  0.00     0.116 C 
BRANCH  27  28
ATOM     28  N   UNL A   1      33.514  29.937  27.607  1.00  0.00    -0.352 N 
ATOM     29  C   UNL A   1      34.468  30.742  28.178  1.00  0.00     0.251 C 
ATOM     30  H   UNL A   1      32.658  30.377  27.394  1.00  0.00     0.163 HD
ATOM     31  O   UNL A   1      34.187  31.894  28.507  1.00  0.00    -0.269 OA
BRANCH  29  32
ATOM     32  C   UNL A   1      35.830  30.221  28.427  1.00  0.00     0.039 A 
ATOM     33  C   UNL A   1      36.784  30.316  27.411  1.00  0.00     0.014 A 
ATOM     34  C   UNL A   1      36.167  29.636  29.649  1.00  0.00     0.014 A 
ATOM     35  C   UNL A   1      38.086  29.863  27.636  1.00  0.00     0.010 A 
ATOM     36  C   UNL A   1      37.485  29.268  29.903  1.00  0.00     0.010 A 
ATOM     37  C   UNL A   1      38.453  29.355  28.892  1.00  0.00    -0.014 A 
BRANCH  37  38
ATOM     38  C   UNL A   1      39.836  28.878  29.153  1.00  0.00     0.031 A 
ATOM     39  C   UNL A   1      40.835  29.784  29.819  1.00  0.00     0.074 A 
ATOM     40  C   UNL A   1      40.211  27.651  28.746  1.00  0.00     0.049 A 
ATOM     41  N   UNL A   1      42.089  29.555  30.120  1.00  0.00    -0.248 NA
ATOM     42  C   UNL A   1      40.376  31.139  30.161  1.00  0.00     0.031 C 
ATOM     43  C   UNL A   1      39.358  26.695  28.038  1.00  0.00     0.029 A 
ATOM     44  N   UNL A   1      41.413  27.000  28.867  1.00  0.00    -0.354 N 
ATOM     45  C   UNL A   1      42.569  30.739  30.665  1.00  0.00     0.074 A 
ATOM     46  C   UNL A   1      41.493  31.703  30.590  1.00  0.00     0.031 C 
ATOM     47  C   UNL A   1      40.055  25.570  27.813  1.00  0.00     0.029 A 
ATOM     48  C   UNL A   1      41.411  25.738  28.327  1.00  0.00     0.049 A 
ATOM     49  H   UNL A   1      42.202  27.401  29.299  1.00  0.00     0.167 HD
ATOM     50  C   UNL A   1      43.785  30.999  31.202  1.00  0.00     0.031 A 
ATOM     51  C   UNL A   1      42.390  24.816  28.254  1.00  0.00     0.031 A 
ATOM     52  C   UNL A   1      44.855  30.040  31.275  1.00  0.00     0.049 A 
ATOM     53  C   UNL A   1      43.731  25.117  28.860  1.00  0.00     0.074 A 
ATOM     54  C   UNL A   1      46.103  30.180  31.855  1.00  0.00     0.029 A 
ATOM     55  N   UNL A   1      44.806  28.763  30.735  1.00  0.00    -0.354 N 
ATOM     56  N   UNL A   1      44.143  26.211  29.455  1.00  0.00    -0.248 NA
ATOM     57  C   UNL A   1      44.733  24.045  28.807  1.00  0.00     0.031 C 
ATOM     58  C   UNL A   1      46.832  29.011  31.610  1.00  0.00     0.029 A 
ATOM     59  C   UNL A   1      46.013  28.115  30.942  1.00  0.00     0.049 A 
ATOM     60  H   UNL A   1      44.028  28.375  30.272  1.00  0.00     0.167 HD
ATOM     61  C   UNL A   1      45.443  25.950  29.871  1.00  0.00     0.074 A 
ATOM     62  C   UNL A   1      45.742  24.590  29.474  1.00  0.00     0.031 C 
ATOM     63  C   UNL A   1      46.306  26.764  30.529  1.00  0.00     0.031 A 
BRANCH  50  64
ATOM     64  C   UNL A   1      44.016  32.392  31.728  1.00  0.00    -0.014 A 
ATOM     65  C   UNL A   1      44.594  33.394  30.929  1.00  0.00     0.009 A 
ATOM     66  C   UNL A   1      43.666  32.705  33.051  1.00  0.00     0.009 A 
ATOM     67  C   UNL A   1      44.878  34.653  31.463  1.00  0.00     0.001 A 
ATOM     68  C   UNL A   1      43.914  33.976  33.570  1.00  0.00     0.001 A 
ATOM     69  C   UNL A   1      44.536  34.944  32.783  1.00  0.00     0.000 A 
ENDBRANCH  50  64
BRANCH  51  70
ATOM     70  C   UNL A   1      42.115  23.511  27.597  1.00  0.00    -0.014 A 
ATOM     71  C   UNL A   1      42.493  23.286  26.265  1.00  0.00     0.009 A 
ATOM     72  C   UNL A   1      41.508  22.469  28.316  1.00  0.00     0.009 A 
ATOM     73  C   UNL A   1      42.253  22.049  25.661  1.00  0.00     0.001 A 
ATOM     74  C   UNL A   1      41.297  21.224  27.719  1.00  0.00     0.001 A 
ATOM     75  C   UNL A   1      41.664  21.017  26.391  1.00  0.00     0.000 A 
ENDBRANCH  51  70
BRANCH  63  76
ATOM     76  C   UNL A   1      47.648  26.191  30.895  1.00  0.00    -0.014 A 
ATOM     77  C   UNL A   1      47.910  25.688  32.179  1.00  0.00     0.009 A 
ATOM     78  C   UNL A   1      48.659  26.126  29.923  1.00  0.00     0.009 A 
ATOM     79  C   UNL A   1      49.170  25.172  32.493  1.00  0.00     0.001 A 
ATOM     80  C   UNL A   1      49.905  25.577  30.228  1.00  0.00     0.001 A 
ATOM     81  C   UNL A   1      50.164  25.113  31.516  1.00  0.00     0.000 A 
ENDBRANCH  63  76
ENDBRANCH  37  38
ENDBRANCH  29  32
ENDBRANCH  27  28
ENDBRANCH  26  27
ENDBRANCH  25  26
ENDBRANCH   1  25
TORSDOF 16
ENDMDL
MODEL 3
REMARK VINA RESULT:     -10.2      2.895      4.297
REMARK SMILES CC[N@@H+]1CCO[C@@H](COc2ccc(C(=O)NCCCCNC(=O)c3ccc(-c4c5nc(c(-c6ccccc6)c6ccc([nH]6)c(-c6ccccc6)c6nc(c(-c7ccccc7)c7ccc4[nH]7)C=C6)C=C5)cc3)cc2OC)C1
REMARK SMILES IDX 17 1 16 2 14 3 15 4 13 6 10 7 11 8 73 9 12 10 72 11 9 12
REMARK SMILES IDX 8 13 7 14 3 15 4 16 76 17 5 19 6 20 2 21 1 22 74 23 75 24
REMARK SMILES IDX 18 25 19 26 20 27 21 28 22 29 23 31 24 32 25 33 71 34 26 35
REMARK SMILES IDX 70 36 27 37 28 38 29 39 64 40 30 41 69 42 63 43 65 44 31 45
REMARK SMILES IDX 68 46 62 47 61 48 32 50 54 51 39 52 53 53 40 54 43 55 52 56
REMARK SMILES IDX 66 57 41 58 42 59 51 61 67 62 44 63 33 64 34 65 38 66 35 67
REMARK SMILES IDX 37 68 36 69 55 70 56 71 60 72 57 73 59 74 58 75 45 76 46 77
REMARK SMILES IDX 50 78 47 79 49 80 48 81
REMARK H PARENT 16 5 3 18 21 30 65 49 43 60
REMARK Flexibility Score: inf
ROOT
ATOM      1  C   UNL A   1      31.915  29.814  25.113  1.00  0.00     0.116 C 
ENDROOT
BRANCH   1   2
ATOM      2  N   UNL A   1      30.789  29.941  24.199  1.00  0.00    -0.352 N 
ATOM      3  C   UNL A   1      30.108  28.973  23.499  1.00  0.00     0.251 C 
ATOM      4  O   UNL A   1      29.070  29.263  22.910  1.00  0.00    -0.269 OA
ATOM      5  H   UNL A   1      30.466  30.860  24.060  1.00  0.00     0.163 HD
BRANCH   3   6
ATOM      6  C   UNL A   1      30.576  27.567  23.506  1.00  0.00     0.043 A 
ATOM      7  C   UNL A   1      31.174  24.852  23.322  1.00  0.00     0.161 A 
ATOM      8  C   UNL A   1      31.542  25.716  22.286  1.00  0.00     0.051 A 
ATOM      9  C   UNL A   1      30.680  25.370  24.525  1.00  0.00     0.161 A 
ATOM     10  C   UNL A   1      31.249  27.079  22.381  1.00  0.00     0.018 A 
ATOM     11  C   UNL A   1      30.354  26.726  24.600  1.00  0.00     0.064 A 
BRANCH   7  12
ATOM     12  O   UNL A   1      31.296  23.504  23.132  1.00  0.00    -0.487 OA
BRANCH  12  13
ATOM     13  C   UNL A   1      32.642  23.096  22.788  1.00  0.00     0.267 C 
BRANCH  13  14
ATOM     14  C   UNL A   1      33.234  22.023  23.731  1.00  0.00     0.210 C 
ATOM     15  N   UNL A   1      34.835  21.584  25.634  1.00  0.00    -0.331 N 
ATOM     16  C   UNL A   1      33.799  20.720  26.216  1.00  0.00     0.291 C 
ATOM     17  C   UNL A   1      34.205  22.606  24.776  1.00  0.00     0.298 C 
ATOM     18  H   UNL A   1      35.289  22.054  26.417  1.00  0.00     0.348 HD
ATOM     19  C   UNL A   1      32.678  20.287  25.245  1.00  0.00     0.222 C 
ATOM     20  O   UNL A   1      32.162  21.375  24.456  1.00  0.00    -0.363 OA
BRANCH  15  21
ATOM     21  C   UNL A   1      35.989  20.906  25.035  1.00  0.00     0.258 C 
ATOM     22  C   UNL A   1      37.305  21.662  24.863  1.00  0.00     0.071 C 
ENDBRANCH  15  21
ENDBRANCH  13  14
ENDBRANCH  12  13
ENDBRANCH   7  12
BRANCH   9  23
ATOM     23  O   UNL A   1      30.313  24.632  25.619  1.00  0.00    -0.493 OA
ATOM     24  C   UNL A   1      31.372  24.259  26.496  1.00  0.00     0.278 C 
ENDBRANCH   9  23
ENDBRANCH   3   6
ENDBRANCH   1   2
BRANCH   1  25
ATOM     25  C   UNL A   1      31.574  30.338  26.510  1.00  0.00     0.023 C 
BRANCH  25  26
ATOM     26  C   UNL A   1      31.390  31.854  26.598  1.00  0.00     0.023 C 
BRANCH  26  27
ATOM     27  C   UNL A   1      32.650  32.644  26.935  1.00  0.00     0.116 C 
BRANCH  27  28
ATOM     28  N   UNL A   1      32.374  33.947  27.522  1.00  0.00    -0.352 N 
ATOM     29  C   UNL A   1      33.019  34.584  28.553  1.00  0.00     0.251 C 
ATOM     30  H   UNL A   1      31.619  34.439  27.125  1.00  0.00     0.163 HD
ATOM     31  O   UNL A   1      32.570  35.636  29.005  1.00  0.00    -0.269 OA
BRANCH  29  32
ATOM     32  C   UNL A   1      34.241  33.995  29.143  1.00  0.00     0.039 A 
ATOM     33  C   UNL A   1      34.110  33.056  30.169  1.00  0.00     0.014 A 
ATOM     34  C   UNL A   1      35.511  34.366  28.695  1.00  0.00     0.014 A 
ATOM     35  C   UNL A   1      35.249  32.461  30.717  1.00  0.00     0.010 A 
ATOM     36  C   UNL A   1      36.638  33.708  29.177  1.00  0.00     0.010 A 
ATOM     37  C   UNL A   1      36.522  32.765  30.209  1.00  0.00    -0.014 A 
BRANCH  37  38
ATOM     38  C   UNL A   1      37.743  32.134  30.772  1.00  0.00     0.031 A 
ATOM     39  C   UNL A   1      38.376  32.690  32.018  1.00  0.00     0.074 A 
ATOM     40  C   UNL A   1      38.315  31.094  30.137  1.00  0.00     0.049 A 
ATOM     41  N   UNL A   1      39.448  32.286  32.654  1.00  0.00    -0.248 NA
ATOM     42  C   UNL A   1      37.741  33.878  32.610  1.00  0.00     0.031 C 
ATOM     43  C   UNL A   1      37.836  30.495  28.890  1.00  0.00     0.029 A 
ATOM     44  N   UNL A   1      39.429  30.359  30.455  1.00  0.00    -0.354 N 
ATOM     45  C   UNL A   1      39.623  33.180  33.703  1.00  0.00     0.074 A 
ATOM     46  C   UNL A   1      38.591  34.185  33.577  1.00  0.00     0.031 C 
ATOM     47  C   UNL A   1      38.635  29.467  28.564  1.00  0.00     0.029 A 
ATOM     48  C   UNL A   1      39.701  29.357  29.557  1.00  0.00     0.049 A 
ATOM     49  H   UNL A   1      39.982  30.534  31.251  1.00  0.00     0.167 HD
ATOM     50  C   UNL A   1      40.544  33.159  34.696  1.00  0.00     0.031 A 
ATOM     51  C   UNL A   1      40.694  28.448  29.533  1.00  0.00     0.031 A 
ATOM     52  C   UNL A   1      41.572  32.159  34.819  1.00  0.00     0.049 A 
ATOM     53  C   UNL A   1      41.704  28.432  30.645  1.00  0.00     0.074 A 
ATOM     54  C   UNL A   1      42.515  32.009  35.821  1.00  0.00     0.029 A 
ATOM     55  N   UNL A   1      41.801  31.147  33.899  1.00  0.00    -0.354 N 
ATOM     56  N   UNL A   1      41.804  29.230  31.682  1.00  0.00    -0.248 NA
ATOM     57  C   UNL A   1      42.721  27.375  30.597  1.00  0.00     0.031 C 
ATOM     58  C   UNL A   1      43.354  30.944  35.473  1.00  0.00     0.029 A 
ATOM     59  C   UNL A   1      42.888  30.385  34.294  1.00  0.00     0.049 A 
ATOM     60  H   UNL A   1      41.269  30.993  33.085  1.00  0.00     0.167 HD
ATOM     61  C   UNL A   1      42.879  28.755  32.423  1.00  0.00     0.074 A 
ATOM     62  C   UNL A   1      43.385  27.591  31.724  1.00  0.00     0.031 C 
ATOM     63  C   UNL A   1      43.394  29.236  33.583  1.00  0.00     0.031 A 
BRANCH  50  64
ATOM     64  C   UNL A   1      40.483  34.272  35.709  1.00  0.00    -0.014 A 
ATOM     65  C   UNL A   1      41.225  35.456  35.547  1.00  0.00     0.009 A 
ATOM     66  C   UNL A   1      39.685  34.130  36.854  1.00  0.00     0.009 A 
ATOM     67  C   UNL A   1      41.220  36.438  36.540  1.00  0.00     0.001 A 
ATOM     68  C   UNL A   1      39.650  35.131  37.825  1.00  0.00     0.001 A 
ATOM     69  C   UNL A   1      40.431  36.276  37.678  1.00  0.00     0.000 A 
ENDBRANCH  50  64
BRANCH  51  70
ATOM     70  C   UNL A   1      40.757  27.464  28.420  1.00  0.00    -0.014 A 
ATOM     71  C   UNL A   1      40.099  26.228  28.519  1.00  0.00     0.009 A 
ATOM     72  C   UNL A   1      41.444  27.774  27.235  1.00  0.00     0.009 A 
ATOM     73  C   UNL A   1      40.142  25.317  27.461  1.00  0.00     0.001 A 
ATOM     74  C   UNL A   1      41.460  26.874  26.168  1.00  0.00     0.001 A 
ATOM     75  C   UNL A   1      40.814  25.644  26.284  1.00  0.00     0.000 A 
ENDBRANCH  51  70
BRANCH  63  76
ATOM     76  C   UNL A   1      44.545  28.481  34.190  1.00  0.00    -0.014 A 
ATOM     77  C   UNL A   1      45.878  28.805  33.891  1.00  0.00     0.009 A 
ATOM     78  C   UNL A   1      44.287  27.447  35.103  1.00  0.00     0.009 A 
ATOM     79  C   UNL A   1      46.926  28.079  34.462  1.00  0.00     0.001 A 
ATOM     80  C   UNL A   1      45.336  26.747  35.700  1.00  0.00     0.001 A 
ATOM     81  C   UNL A   1      46.654  27.055  35.369  1.00  0.00     0.000 A 
ENDBRANCH  63  76
ENDBRANCH  37  38
ENDBRANCH  29  32
ENDBRANCH  27  28
ENDBRANCH  26  27
ENDBRANCH  25  26
ENDBRANCH   1  25
TORSDOF 16
ENDMDL
