MODEL 1
REMARK VINA RESULT:     -11.7      0.000      0.000
REMARK SMILES C[C@H]1CN(C(=O)N2CC[NH+]([C@@H](C)C(=O)NCCCCNC(=O)c3ccc(-c4c5nc(c(-c6ccccc6)c6ccc([nH]6)c(-c6ccccc6)c6nc(c(-c7ccccc7)c7ccc4[nH]7)C=C6)C=C5)cc3)CC2)C[C@@H]1C
REMARK SMILES IDX 18 1 17 2 16 3 15 4 13 5 14 6 11 8 12 9 10 10 1 11 2 12 3 13
REMARK SMILES IDX 74 14 4 15 73 16 75 17 5 18 6 19 7 20 8 21 72 22 9 23 71 24
REMARK SMILES IDX 19 26 20 27 21 28 22 30 23 31 24 32 70 33 25 34 69 35 26 36
REMARK SMILES IDX 27 37 28 38 63 39 29 40 68 41 62 42 64 43 30 44 67 45 61 46
REMARK SMILES IDX 60 47 31 49 53 50 38 51 52 52 39 53 42 54 51 55 65 56 40 57
REMARK SMILES IDX 41 58 50 60 66 61 43 62 32 63 33 64 37 65 34 66 36 67 35 68
REMARK SMILES IDX 54 69 55 70 59 71 56 72 58 73 57 74 44 75 45 76 49 77 46 78
REMARK SMILES IDX 48 79 47 80
REMARK H PARENT 15 7 10 25 20 29 64 48 42 59
REMARK Flexibility Score: inf
ROOT
ATOM      1  C   UNL A   1      31.914  30.057  26.879  1.00  0.00     0.023 C 
ENDROOT
BRANCH   1   2
ATOM      2  C   UNL A   1      32.417  28.871  26.067  1.00  0.00     0.023 C 
BRANCH   2   3
ATOM      3  C   UNL A   1      32.570  27.561  26.851  1.00  0.00     0.116 C 
BRANCH   3   4
ATOM      4  N   UNL A   1      31.338  26.797  26.849  1.00  0.00    -0.351 N 
ATOM      5  C   UNL A   1      30.907  25.737  26.109  1.00  0.00     0.278 C 
ATOM      6  O   UNL A   1      29.725  25.412  26.287  1.00  0.00    -0.268 OA
ATOM      7  H   UNL A   1      30.682  27.106  27.515  1.00  0.00     0.163 HD
BRANCH   5   8
ATOM      8  C   UNL A   1      31.796  24.935  25.113  1.00  0.00     0.271 C 
ATOM      9  C   UNL A   1      32.303  25.750  23.926  1.00  0.00     0.086 C 
BRANCH   8  10
ATOM     10  N   UNL A   1      31.343  23.537  24.908  1.00  0.00    -0.322 N 
ATOM     11  C   UNL A   1      32.738  16.508  26.122  1.00  0.00     0.010 C 
ATOM     12  C   UNL A   1      32.722  17.129  24.724  1.00  0.00     0.010 C 
ATOM     13  C   UNL A   1      32.593  18.652  24.803  1.00  0.00     0.125 C 
ATOM     14  C   UNL A   1      34.064  16.941  23.984  1.00  0.00     0.010 C 
ATOM     15  N   UNL A   1      33.963  19.142  24.810  1.00  0.00    -0.324 N 
ATOM     16  C   UNL A   1      34.917  18.082  24.551  1.00  0.00     0.125 C 
ATOM     17  C   UNL A   1      33.893  17.073  22.463  1.00  0.00     0.010 C 
ATOM     18  C   UNL A   1      34.343  20.460  24.845  1.00  0.00     0.320 C 
ATOM     19  O   UNL A   1      35.505  20.841  24.742  1.00  0.00    -0.248 OA
ATOM     20  N   UNL A   1      33.281  21.338  24.874  1.00  0.00    -0.313 N 
ATOM     21  C   UNL A   1      33.172  22.241  23.748  1.00  0.00     0.183 C 
ATOM     22  C   UNL A   1      32.873  21.898  26.157  1.00  0.00     0.183 C 
ATOM     23  C   UNL A   1      31.767  22.845  23.692  1.00  0.00     0.284 C 
ATOM     24  C   UNL A   1      31.520  22.643  26.071  1.00  0.00     0.284 C 
ATOM     25  H   UNL A   1      30.350  23.728  24.778  1.00  0.00     0.348 HD
ENDBRANCH   8  10
ENDBRANCH   5   8
ENDBRANCH   3   4
ENDBRANCH   2   3
ENDBRANCH   1   2
BRANCH   1  26
ATOM     26  C   UNL A   1      32.970  31.100  27.199  1.00  0.00     0.116 C 
BRANCH  26  27
ATOM     27  N   UNL A   1      32.441  32.444  27.387  1.00  0.00    -0.352 N 
ATOM     28  C   UNL A   1      33.023  33.501  28.054  1.00  0.00     0.251 C 
ATOM     29  H   UNL A   1      31.557  32.620  26.990  1.00  0.00     0.163 HD
ATOM     30  O   UNL A   1      32.432  34.562  28.198  1.00  0.00    -0.269 OA
BRANCH  28  31
ATOM     31  C   UNL A   1      34.364  33.307  28.645  1.00  0.00     0.039 A 
ATOM     32  C   UNL A   1      34.472  32.657  29.876  1.00  0.00     0.014 A 
ATOM     33  C   UNL A   1      35.507  33.668  27.929  1.00  0.00     0.014 A 
ATOM     34  C   UNL A   1      35.732  32.281  30.344  1.00  0.00     0.010 A 
ATOM     35  C   UNL A   1      36.748  33.210  28.349  1.00  0.00     0.010 A 
ATOM     36  C   UNL A   1      36.874  32.509  29.558  1.00  0.00    -0.014 A 
BRANCH  36  37
ATOM     37  C   UNL A   1      38.214  32.028  29.977  1.00  0.00     0.031 A 
ATOM     38  C   UNL A   1      38.735  30.721  29.449  1.00  0.00     0.074 A 
ATOM     39  C   UNL A   1      38.918  32.715  30.899  1.00  0.00     0.049 A 
ATOM     40  N   UNL A   1      39.827  30.077  29.770  1.00  0.00    -0.248 NA
ATOM     41  C   UNL A   1      37.898  30.023  28.458  1.00  0.00     0.031 C 
ATOM     42  C   UNL A   1      38.497  33.964  31.542  1.00  0.00     0.029 A 
ATOM     43  N   UNL A   1      40.139  32.449  31.468  1.00  0.00    -0.354 N 
ATOM     44  C   UNL A   1      39.787  28.888  29.054  1.00  0.00     0.074 A 
ATOM     45  C   UNL A   1      38.546  28.878  28.313  1.00  0.00     0.031 C 
ATOM     46  C   UNL A   1      39.455  34.367  32.393  1.00  0.00     0.029 A 
ATOM     47  C   UNL A   1      40.540  33.392  32.384  1.00  0.00     0.049 A 
ATOM     48  H   UNL A   1      40.677  31.656  31.241  1.00  0.00     0.167 HD
ATOM     49  C   UNL A   1      40.710  27.901  29.000  1.00  0.00     0.031 A 
ATOM     50  C   UNL A   1      41.657  33.461  33.132  1.00  0.00     0.031 A 
ATOM     51  C   UNL A   1      41.970  27.935  29.689  1.00  0.00     0.049 A 
ATOM     52  C   UNL A   1      42.693  32.378  33.007  1.00  0.00     0.074 A 
ATOM     53  C   UNL A   1      43.012  27.026  29.624  1.00  0.00     0.029 A 
ATOM     54  N   UNL A   1      42.363  28.938  30.558  1.00  0.00    -0.354 N 
ATOM     55  N   UNL A   1      42.674  31.300  32.262  1.00  0.00    -0.248 NA
ATOM     56  C   UNL A   1      43.910  32.530  33.818  1.00  0.00     0.031 C 
ATOM     57  C   UNL A   1      44.026  27.466  30.479  1.00  0.00     0.029 A 
ATOM     58  C   UNL A   1      43.628  28.667  31.046  1.00  0.00     0.049 A 
ATOM     59  H   UNL A   1      41.823  29.726  30.794  1.00  0.00     0.167 HD
ATOM     60  C   UNL A   1      43.886  30.662  32.490  1.00  0.00     0.074 A 
ATOM     61  C   UNL A   1      44.621  31.480  33.433  1.00  0.00     0.031 C 
ATOM     62  C   UNL A   1      44.348  29.501  31.968  1.00  0.00     0.031 A 
BRANCH  49  63
ATOM     63  C   UNL A   1      40.395  26.702  28.153  1.00  0.00    -0.014 A 
ATOM     64  C   UNL A   1      39.598  25.657  28.643  1.00  0.00     0.009 A 
ATOM     65  C   UNL A   1      40.866  26.639  26.832  1.00  0.00     0.009 A 
ATOM     66  C   UNL A   1      39.303  24.556  27.836  1.00  0.00     0.001 A 
ATOM     67  C   UNL A   1      40.551  25.549  26.021  1.00  0.00     0.001 A 
ATOM     68  C   UNL A   1      39.776  24.505  26.525  1.00  0.00     0.000 A 
ENDBRANCH  49  63
BRANCH  50  69
ATOM     69  C   UNL A   1      41.877  34.606  34.053  1.00  0.00    -0.014 A 
ATOM     70  C   UNL A   1      42.495  35.778  33.592  1.00  0.00     0.009 A 
ATOM     71  C   UNL A   1      41.504  34.521  35.403  1.00  0.00     0.009 A 
ATOM     72  C   UNL A   1      42.768  36.829  34.471  1.00  0.00     0.001 A 
ATOM     73  C   UNL A   1      41.755  35.584  36.275  1.00  0.00     0.001 A 
ATOM     74  C   UNL A   1      42.396  36.731  35.811  1.00  0.00     0.000 A 
ENDBRANCH  50  69
BRANCH  62  75
ATOM     75  C   UNL A   1      45.727  29.070  32.371  1.00  0.00    -0.014 A 
ATOM     76  C   UNL A   1      46.859  29.511  31.670  1.00  0.00     0.009 A 
ATOM     77  C   UNL A   1      45.895  28.250  33.497  1.00  0.00     0.009 A 
ATOM     78  C   UNL A   1      48.135  29.114  32.074  1.00  0.00     0.001 A 
ATOM     79  C   UNL A   1      47.174  27.875  33.913  1.00  0.00     0.001 A 
ATOM     80  C   UNL A   1      48.291  28.301  33.197  1.00  0.00     0.000 A 
ENDBRANCH  62  75
ENDBRANCH  36  37
ENDBRANCH  28  31
ENDBRANCH  26  27
ENDBRANCH   1  26
TORSDOF 12
ENDMDL
MODEL 2
REMARK VINA RESULT:     -11.6      2.625      7.044
REMARK SMILES C[C@H]1CN(C(=O)N2CC[NH+]([C@@H](C)C(=O)NCCCCNC(=O)c3ccc(-c4c5nc(c(-c6ccccc6)c6ccc([nH]6)c(-c6ccccc6)c6nc(c(-c7ccccc7)c7ccc4[nH]7)C=C6)C=C5)cc3)CC2)C[C@@H]1C
REMARK SMILES IDX 18 1 17 2 16 3 15 4 13 5 14 6 11 8 12 9 10 10 1 11 2 12 3 13
REMARK SMILES IDX 74 14 4 15 73 16 75 17 5 18 6 19 7 20 8 21 72 22 9 23 71 24
REMARK SMILES IDX 19 26 20 27 21 28 22 30 23 31 24 32 70 33 25 34 69 35 26 36
REMARK SMILES IDX 27 37 28 38 63 39 29 40 68 41 62 42 64 43 30 44 67 45 61 46
REMARK SMILES IDX 60 47 31 49 53 50 38 51 52 52 39 53 42 54 51 55 65 56 40 57
REMARK SMILES IDX 41 58 50 60 66 61 43 62 32 63 33 64 37 65 34 66 36 67 35 68
REMARK SMILES IDX 54 69 55 70 59 71 56 72 58 73 57 74 44 75 45 76 49 77 46 78
REMARK SMILES IDX 48 79 47 80
REMARK H PARENT 15 7 10 25 20 29 64 48 42 59
REMARK Flexibility Score: inf
ROOT
ATOM      1  C   UNL A   1      33.818  28.936  25.924  1.00  0.00     0.023 C 
ENDROOT
BRANCH   1   2
ATOM      2  C   UNL A   1      32.796  29.702  25.095  1.00  0.00     0.023 C 
BRANCH   2   3
ATOM      3  C   UNL A   1      31.404  29.062  25.020  1.00  0.00     0.116 C 
BRANCH   3   4
ATOM      4  N   UNL A   1      30.844  29.168  23.687  1.00  0.00    -0.351 N 
ATOM      5  C   UNL A   1      30.281  28.256  22.845  1.00  0.00     0.278 C 
ATOM      6  O   UNL A   1      30.024  28.674  21.707  1.00  0.00    -0.268 OA
ATOM      7  H   UNL A   1      30.878  30.079  23.317  1.00  0.00     0.163 HD
BRANCH   5   8
ATOM      8  C   UNL A   1      29.938  26.788  23.233  1.00  0.00     0.271 C 
ATOM      9  C   UNL A   1      29.208  26.644  24.566  1.00  0.00     0.086 C 
BRANCH   8  10
ATOM     10  N   UNL A   1      30.995  25.815  22.862  1.00  0.00    -0.322 N 
ATOM     11  C   UNL A   1      34.471  19.699  24.692  1.00  0.00     0.010 C 
ATOM     12  C   UNL A   1      35.159  21.064  24.623  1.00  0.00     0.010 C 
ATOM     13  C   UNL A   1      34.136  22.181  24.403  1.00  0.00     0.125 C 
ATOM     14  C   UNL A   1      35.810  21.461  25.964  1.00  0.00     0.010 C 
ATOM     15  N   UNL A   1      33.781  22.629  25.741  1.00  0.00    -0.324 N 
ATOM     16  C   UNL A   1      34.624  22.027  26.754  1.00  0.00     0.125 C 
ATOM     17  C   UNL A   1      36.908  22.518  25.767  1.00  0.00     0.010 C 
ATOM     18  C   UNL A   1      32.907  23.644  26.041  1.00  0.00     0.320 C 
ATOM     19  O   UNL A   1      32.712  24.066  27.177  1.00  0.00    -0.248 OA
ATOM     20  N   UNL A   1      32.359  24.245  24.928  1.00  0.00    -0.313 N 
ATOM     21  C   UNL A   1      32.660  25.650  24.752  1.00  0.00     0.183 C 
ATOM     22  C   UNL A   1      31.024  23.841  24.503  1.00  0.00     0.183 C 
ATOM     23  C   UNL A   1      32.362  26.076  23.312  1.00  0.00     0.284 C 
ATOM     24  C   UNL A   1      30.658  24.397  23.106  1.00  0.00     0.284 C 
ATOM     25  H   UNL A   1      31.004  25.990  21.858  1.00  0.00     0.348 HD
ENDBRANCH   8  10
ENDBRANCH   5   8
ENDBRANCH   3   4
ENDBRANCH   2   3
ENDBRANCH   1   2
BRANCH   1  26
ATOM     26  C   UNL A   1      33.592  28.998  27.424  1.00  0.00     0.116 C 
BRANCH  26  27
ATOM     27  N   UNL A   1      33.681  30.340  27.985  1.00  0.00    -0.352 N 
ATOM     28  C   UNL A   1      34.771  30.944  28.575  1.00  0.00     0.251 C 
ATOM     29  H   UNL A   1      32.861  30.883  27.938  1.00  0.00     0.163 HD
ATOM     30  O   UNL A   1      34.685  32.058  29.071  1.00  0.00    -0.269 OA
BRANCH  28  31
ATOM     31  C   UNL A   1      36.040  30.189  28.647  1.00  0.00     0.039 A 
ATOM     32  C   UNL A   1      36.919  30.241  27.563  1.00  0.00     0.014 A 
ATOM     33  C   UNL A   1      36.399  29.528  29.823  1.00  0.00     0.014 A 
ATOM     34  C   UNL A   1      38.203  29.711  27.698  1.00  0.00     0.010 A 
ATOM     35  C   UNL A   1      37.705  29.088  29.986  1.00  0.00     0.010 A 
ATOM     36  C   UNL A   1      38.622  29.178  28.927  1.00  0.00    -0.014 A 
BRANCH  36  37
ATOM     37  C   UNL A   1      40.013  28.703  29.135  1.00  0.00     0.031 A 
ATOM     38  C   UNL A   1      41.040  29.637  29.711  1.00  0.00     0.074 A 
ATOM     39  C   UNL A   1      40.373  27.471  28.722  1.00  0.00     0.049 A 
ATOM     40  N   UNL A   1      42.325  29.453  29.873  1.00  0.00    -0.248 NA
ATOM     41  C   UNL A   1      40.570  30.971  30.122  1.00  0.00     0.031 C 
ATOM     42  C   UNL A   1      39.488  26.489  28.087  1.00  0.00     0.029 A 
ATOM     43  N   UNL A   1      41.589  26.838  28.765  1.00  0.00    -0.354 N 
ATOM     44  C   UNL A   1      42.819  30.654  30.364  1.00  0.00     0.074 A 
ATOM     45  C   UNL A   1      41.707  31.575  30.435  1.00  0.00     0.031 C 
ATOM     46  C   UNL A   1      40.186  25.371  27.826  1.00  0.00     0.029 A 
ATOM     47  C   UNL A   1      41.571  25.567  28.242  1.00  0.00     0.049 A 
ATOM     48  H   UNL A   1      42.401  27.255  29.135  1.00  0.00     0.167 HD
ATOM     49  C   UNL A   1      44.081  30.959  30.742  1.00  0.00     0.031 A 
ATOM     50  C   UNL A   1      42.559  24.663  28.112  1.00  0.00     0.031 A 
ATOM     51  C   UNL A   1      45.175  30.030  30.728  1.00  0.00     0.049 A 
ATOM     52  C   UNL A   1      43.940  25.009  28.596  1.00  0.00     0.074 A 
ATOM     53  C   UNL A   1      46.470  30.216  31.179  1.00  0.00     0.029 A 
ATOM     54  N   UNL A   1      45.098  28.733  30.248  1.00  0.00    -0.354 N 
ATOM     55  N   UNL A   1      44.370  26.124  29.133  1.00  0.00    -0.248 NA
ATOM     56  C   UNL A   1      44.968  23.966  28.467  1.00  0.00     0.031 C 
ATOM     57  C   UNL A   1      47.186  29.040  30.944  1.00  0.00     0.029 A 
ATOM     58  C   UNL A   1      46.325  28.110  30.382  1.00  0.00     0.049 A 
ATOM     59  H   UNL A   1      44.291  28.317  29.868  1.00  0.00     0.167 HD
ATOM     60  C   UNL A   1      45.708  25.907  29.434  1.00  0.00     0.074 A 
ATOM     61  C   UNL A   1      46.016  24.550  29.030  1.00  0.00     0.031 C 
ATOM     62  C   UNL A   1      46.605  26.756  29.990  1.00  0.00     0.031 A 
BRANCH  49  63
ATOM     63  C   UNL A   1      44.343  32.359  31.219  1.00  0.00    -0.014 A 
ATOM     64  C   UNL A   1      44.242  32.693  32.578  1.00  0.00     0.009 A 
ATOM     65  C   UNL A   1      44.738  33.345  30.302  1.00  0.00     0.009 A 
ATOM     66  C   UNL A   1      44.502  33.997  33.005  1.00  0.00     0.001 A 
ATOM     67  C   UNL A   1      45.021  34.640  30.735  1.00  0.00     0.001 A 
ATOM     68  C   UNL A   1      44.897  34.967  32.085  1.00  0.00     0.000 A 
ENDBRANCH  49  63
BRANCH  50  69
ATOM     69  C   UNL A   1      42.286  23.327  27.521  1.00  0.00    -0.014 A 
ATOM     70  C   UNL A   1      42.654  23.050  26.195  1.00  0.00     0.009 A 
ATOM     71  C   UNL A   1      41.624  22.337  28.263  1.00  0.00     0.009 A 
ATOM     72  C   UNL A   1      42.335  21.821  25.613  1.00  0.00     0.001 A 
ATOM     73  C   UNL A   1      41.329  21.098  27.685  1.00  0.00     0.001 A 
ATOM     74  C   UNL A   1      41.674  20.846  26.359  1.00  0.00     0.000 A 
ENDBRANCH  50  69
BRANCH  62  75
ATOM     75  C   UNL A   1      47.987  26.228  30.237  1.00  0.00    -0.014 A 
ATOM     76  C   UNL A   1      48.961  26.246  29.228  1.00  0.00     0.009 A 
ATOM     77  C   UNL A   1      48.329  25.751  31.512  1.00  0.00     0.009 A 
ATOM     78  C   UNL A   1      50.248  25.769  29.485  1.00  0.00     0.001 A 
ATOM     79  C   UNL A   1      49.623  25.297  31.772  1.00  0.00     0.001 A 
ATOM     80  C   UNL A   1      50.579  25.300  30.757  1.00  0.00     0.000 A 
ENDBRANCH  62  75
ENDBRANCH  36  37
ENDBRANCH  28  31
ENDBRANCH  26  27
ENDBRANCH   1  26
TORSDOF 12
ENDMDL
MODEL 3
REMARK VINA RESULT:     -11.6      2.113      6.429
REMARK SMILES C[C@H]1CN(C(=O)N2CC[NH+]([C@@H](C)C(=O)NCCCCNC(=O)c3ccc(-c4c5nc(c(-c6ccccc6)c6ccc([nH]6)c(-c6ccccc6)c6nc(c(-c7ccccc7)c7ccc4[nH]7)C=C6)C=C5)cc3)CC2)C[C@@H]1C
REMARK SMILES IDX 18 1 17 2 16 3 15 4 13 5 14 6 11 8 12 9 10 10 1 11 2 12 3 13
REMARK SMILES IDX 74 14 4 15 73 16 75 17 5 18 6 19 7 20 8 21 72 22 9 23 71 24
REMARK SMILES IDX 19 26 20 27 21 28 22 30 23 31 24 32 70 33 25 34 69 35 26 36
REMARK SMILES IDX 27 37 28 38 63 39 29 40 68 41 62 42 64 43 30 44 67 45 61 46
REMARK SMILES IDX 60 47 31 49 53 50 38 51 52 52 39 53 42 54 51 55 65 56 40 57
REMARK SMILES IDX 41 58 50 60 66 61 43 62 32 63 33 64 37 65 34 66 36 67 35 68
REMARK SMILES IDX 54 69 55 70 59 71 56 72 58 73 57 74 44 75 45 76 49 77 46 78
REMARK SMILES IDX 48 79 47 80
REMARK H PARENT 15 7 10 25 20 29 64 48 42 59
REMARK Flexibility Score: inf
ROOT
ATOM      1  C   UNL A   1      31.681  32.000  26.869  1.00  0.00     0.023 C 
ENDROOT
BRANCH   1   2
ATOM      2  C   UNL A   1      32.086  30.573  26.526  1.00  0.00     0.023 C 
BRANCH   2   3
ATOM      3  C   UNL A   1      31.431  29.993  25.265  1.00  0.00     0.116 C 
BRANCH   3   4
ATOM      4  N   UNL A   1      32.415  29.717  24.237  1.00  0.00    -0.351 N 
ATOM      5  C   UNL A   1      32.451  28.826  23.206  1.00  0.00     0.278 C 
ATOM      6  O   UNL A   1      33.524  28.772  22.590  1.00  0.00    -0.268 OA
ATOM      7  H   UNL A   1      33.217  30.286  24.296  1.00  0.00     0.163 HD
BRANCH   5   8
ATOM      8  C   UNL A   1      31.254  27.932  22.769  1.00  0.00     0.271 C 
ATOM      9  C   UNL A   1      30.054  28.706  22.230  1.00  0.00     0.086 C 
BRANCH   8  10
ATOM     10  N   UNL A   1      31.039  26.758  23.651  1.00  0.00    -0.322 N 
ATOM     11  C   UNL A   1      34.180  21.459  27.508  1.00  0.00     0.010 C 
ATOM     12  C   UNL A   1      33.294  21.194  26.289  1.00  0.00     0.010 C 
ATOM     13  C   UNL A   1      32.940  22.502  25.576  1.00  0.00     0.125 C 
ATOM     14  C   UNL A   1      34.032  20.399  25.190  1.00  0.00     0.010 C 
ATOM     15  N   UNL A   1      33.974  22.667  24.566  1.00  0.00    -0.324 N 
ATOM     16  C   UNL A   1      34.819  21.495  24.461  1.00  0.00     0.125 C 
ATOM     17  C   UNL A   1      33.045  19.696  24.245  1.00  0.00     0.010 C 
ATOM     18  C   UNL A   1      34.053  23.694  23.659  1.00  0.00     0.320 C 
ATOM     19  O   UNL A   1      34.877  23.746  22.752  1.00  0.00    -0.248 OA
ATOM     20  N   UNL A   1      33.030  24.611  23.776  1.00  0.00    -0.313 N 
ATOM     21  C   UNL A   1      32.161  24.743  22.626  1.00  0.00     0.183 C 
ATOM     22  C   UNL A   1      33.280  25.847  24.508  1.00  0.00     0.183 C 
ATOM     23  C   UNL A   1      30.862  25.448  23.026  1.00  0.00     0.284 C 
ATOM     24  C   UNL A   1      31.981  26.642  24.783  1.00  0.00     0.284 C 
ATOM     25  H   UNL A   1      30.118  27.014  24.006  1.00  0.00     0.348 HD
ENDBRANCH   8  10
ENDBRANCH   5   8
ENDBRANCH   3   4
ENDBRANCH   2   3
ENDBRANCH   1   2
BRANCH   1  26
ATOM     26  C   UNL A   1      32.806  32.869  27.401  1.00  0.00     0.116 C 
BRANCH  26  27
ATOM     27  N   UNL A   1      32.405  34.232  27.723  1.00  0.00    -0.352 N 
ATOM     28  C   UNL A   1      32.978  35.093  28.634  1.00  0.00     0.251 C 
ATOM     29  H   UNL A   1      31.628  34.582  27.230  1.00  0.00     0.163 HD
ATOM     30  O   UNL A   1      32.492  36.193  28.857  1.00  0.00    -0.269 OA
BRANCH  28  31
ATOM     31  C   UNL A   1      34.167  34.635  29.384  1.00  0.00     0.039 A 
ATOM     32  C   UNL A   1      33.990  34.039  30.633  1.00  0.00     0.014 A 
ATOM     33  C   UNL A   1      35.433  34.699  28.799  1.00  0.00     0.014 A 
ATOM     34  C   UNL A   1      35.073  33.416  31.255  1.00  0.00     0.010 A 
ATOM     35  C   UNL A   1      36.485  33.998  29.373  1.00  0.00     0.010 A 
ATOM     36  C   UNL A   1      36.316  33.347  30.604  1.00  0.00    -0.014 A 
BRANCH  36  37
ATOM     37  C   UNL A   1      37.459  32.601  31.189  1.00  0.00     0.031 A 
ATOM     38  C   UNL A   1      38.040  33.041  32.504  1.00  0.00     0.074 A 
ATOM     39  C   UNL A   1      38.030  31.595  30.498  1.00  0.00     0.049 A 
ATOM     40  N   UNL A   1      39.098  32.593  33.130  1.00  0.00    -0.248 NA
ATOM     41  C   UNL A   1      37.368  34.159  33.188  1.00  0.00     0.031 C 
ATOM     42  C   UNL A   1      37.605  31.112  29.181  1.00  0.00     0.029 A 
ATOM     43  N   UNL A   1      39.107  30.801  30.807  1.00  0.00    -0.354 N 
ATOM     44  C   UNL A   1      39.239  33.398  34.253  1.00  0.00     0.074 A 
ATOM     45  C   UNL A   1      38.186  34.387  34.204  1.00  0.00     0.031 C 
ATOM     46  C   UNL A   1      38.394  30.089  28.810  1.00  0.00     0.029 A 
ATOM     47  C   UNL A   1      39.401  29.867  29.843  1.00  0.00     0.049 A 
ATOM     48  H   UNL A   1      39.621  30.893  31.641  1.00  0.00     0.167 HD
ATOM     49  C   UNL A   1      40.150  33.310  35.248  1.00  0.00     0.031 A 
ATOM     50  C   UNL A   1      40.373  28.937  29.798  1.00  0.00     0.031 A 
ATOM     51  C   UNL A   1      41.161  32.293  35.330  1.00  0.00     0.049 A 
ATOM     52  C   UNL A   1      41.336  28.824  30.946  1.00  0.00     0.074 A 
ATOM     53  C   UNL A   1      42.072  32.063  36.346  1.00  0.00     0.029 A 
ATOM     54  N   UNL A   1      41.385  31.328  34.362  1.00  0.00    -0.354 N 
ATOM     55  N   UNL A   1      41.403  29.543  32.040  1.00  0.00    -0.248 NA
ATOM     56  C   UNL A   1      42.349  27.761  30.859  1.00  0.00     0.031 C 
ATOM     57  C   UNL A   1      42.868  30.975  35.979  1.00  0.00     0.029 A 
ATOM     58  C   UNL A   1      42.427  30.506  34.751  1.00  0.00     0.049 A 
ATOM     59  H   UNL A   1      40.878  31.241  33.523  1.00  0.00     0.167 HD
ATOM     60  C   UNL A   1      42.443  29.002  32.784  1.00  0.00     0.074 A 
ATOM     61  C   UNL A   1      42.970  27.887  32.023  1.00  0.00     0.031 C 
ATOM     62  C   UNL A   1      42.923  29.394  33.988  1.00  0.00     0.031 A 
BRANCH  49  63
ATOM     63  C   UNL A   1      40.086  34.338  36.341  1.00  0.00    -0.014 A 
ATOM     64  C   UNL A   1      40.817  35.532  36.258  1.00  0.00     0.009 A 
ATOM     65  C   UNL A   1      39.248  34.126  37.447  1.00  0.00     0.009 A 
ATOM     66  C   UNL A   1      40.734  36.483  37.277  1.00  0.00     0.001 A 
ATOM     67  C   UNL A   1      39.148  35.089  38.452  1.00  0.00     0.001 A 
ATOM     68  C   UNL A   1      39.896  36.262  38.370  1.00  0.00     0.000 A 
ENDBRANCH  49  63
BRANCH  50  69
ATOM     69  C   UNL A   1      40.479  28.015  28.637  1.00  0.00    -0.014 A 
ATOM     70  C   UNL A   1      41.225  28.381  27.506  1.00  0.00     0.009 A 
ATOM     71  C   UNL A   1      39.809  26.782  28.637  1.00  0.00     0.009 A 
ATOM     72  C   UNL A   1      41.269  27.549  26.385  1.00  0.00     0.001 A 
ATOM     73  C   UNL A   1      39.876  25.939  27.525  1.00  0.00     0.001 A 
ATOM     74  C   UNL A   1      40.595  26.329  26.396  1.00  0.00     0.000 A 
ENDBRANCH  50  69
BRANCH  62  75
ATOM     75  C   UNL A   1      44.042  28.587  34.576  1.00  0.00    -0.014 A 
ATOM     76  C   UNL A   1      45.380  28.976  34.415  1.00  0.00     0.009 A 
ATOM     77  C   UNL A   1      43.747  27.449  35.343  1.00  0.00     0.009 A 
ATOM     78  C   UNL A   1      46.405  28.222  34.988  1.00  0.00     0.001 A 
ATOM     79  C   UNL A   1      44.773  26.711  35.935  1.00  0.00     0.001 A 
ATOM     80  C   UNL A   1      46.101  27.094  35.751  1.00  0.00     0.000 A 
ENDBRANCH  62  75
ENDBRANCH  36  37
ENDBRANCH  28  31
ENDBRANCH  26  27
ENDBRANCH   1  26
TORSDOF 12
ENDMDL
