MODEL 1
REMARK VINA RESULT:     -11.6      0.000      0.000
REMARK SMILES Cc1nc(N[C@@H](C(=O)NCCCCNC(=O)c2ccc(-c3c4nc(c(-c5ccccc5)c5ccc([nH]5)c(-c5ccccc5)c5nc(c(-c6ccccc6)c6ccc3[nH]6)C=C5)C=C4)cc2)C(C)C)c2c3c(sc2n1)CCCC3
REMARK SMILES IDX 11 1 10 2 9 3 7 4 8 5 6 7 5 8 4 10 1 11 2 12 3 13 73 14
REMARK SMILES IDX 72 15 68 16 71 17 69 18 70 19 77 20 74 21 76 22 75 23 65 24
REMARK SMILES IDX 66 25 67 26 12 27 13 28 14 29 15 30 16 32 17 33 18 34 64 35
REMARK SMILES IDX 19 36 63 37 20 38 21 39 22 40 57 41 23 42 62 43 56 44 58 45
REMARK SMILES IDX 24 46 61 47 55 48 54 49 25 51 47 52 32 53 46 54 33 55 36 56
REMARK SMILES IDX 45 57 59 58 34 59 35 60 44 62 60 63 37 64 26 65 27 66 31 67
REMARK SMILES IDX 28 68 30 69 29 70 48 71 49 72 53 73 50 74 52 75 51 76 38 77
REMARK SMILES IDX 39 78 43 79 40 80 42 81 41 82
REMARK H PARENT 9 6 5 9 14 31 58 50 36 61
REMARK Flexibility Score: inf
ROOT
ATOM      1  C   UNL A   1      36.965  22.070  23.949  1.00  0.00     0.023 C 
ENDROOT
BRANCH   1   2
ATOM      2  C   UNL A   1      35.896  23.015  24.501  1.00  0.00     0.116 C 
BRANCH   2   3
ATOM      3  N   UNL A   1      35.207  22.417  25.632  1.00  0.00    -0.354 N 
ATOM      4  C   UNL A   1      34.030  21.714  25.674  1.00  0.00     0.242 C 
ATOM      5  O   UNL A   1      33.597  21.411  26.788  1.00  0.00    -0.273 OA
ATOM      6  H   UNL A   1      35.653  22.535  26.502  1.00  0.00     0.163 HD
BRANCH   4   7
ATOM      7  C   UNL A   1      33.333  21.279  24.351  1.00  0.00     0.172 C 
BRANCH   7   8
ATOM      8  N   UNL A   1      32.125  22.052  24.154  1.00  0.00    -0.358 N 
ATOM      9  H   UNL A   1      31.649  21.823  23.323  1.00  0.00     0.162 HD
BRANCH   8  10
ATOM     10  C   UNL A   1      31.504  23.033  24.879  1.00  0.00     0.139 A 
ATOM     11  C   UNL A   1      29.090  22.486  27.630  1.00  0.00     0.090 C 
ATOM     12  C   UNL A   1      29.969  23.204  26.653  1.00  0.00     0.129 A 
ATOM     13  N   UNL A   1      30.655  22.464  25.773  1.00  0.00    -0.216 NA
ATOM     14  N   UNL A   1      30.056  24.521  26.775  1.00  0.00    -0.222 NA
ATOM     15  C   UNL A   1      30.887  25.083  25.885  1.00  0.00     0.129 A 
ATOM     16  C   UNL A   1      31.636  24.455  24.888  1.00  0.00     0.057 A 
ATOM     17  S   UNL A   1      31.104  26.767  25.980  1.00  0.00    -0.120 S 
ATOM     18  C   UNL A   1      32.365  25.490  24.138  1.00  0.00    -0.021 A 
ATOM     19  C   UNL A   1      32.194  26.752  24.691  1.00  0.00     0.011 A 
ATOM     20  C   UNL A   1      33.257  25.347  22.937  1.00  0.00     0.037 C 
ATOM     21  C   UNL A   1      32.835  28.026  24.220  1.00  0.00     0.047 C 
ATOM     22  C   UNL A   1      33.609  26.676  22.253  1.00  0.00     0.005 C 
ATOM     23  C   UNL A   1      34.009  27.727  23.285  1.00  0.00     0.006 C 
ENDBRANCH   8  10
ENDBRANCH   7   8
BRANCH   7  24
ATOM     24  C   UNL A   1      33.012  19.757  24.353  1.00  0.00     0.015 C 
ATOM     25  C   UNL A   1      32.292  19.262  23.090  1.00  0.00     0.010 C 
ATOM     26  C   UNL A   1      34.300  18.941  24.537  1.00  0.00     0.010 C 
ENDBRANCH   7  24
ENDBRANCH   4   7
ENDBRANCH   2   3
ENDBRANCH   1   2
BRANCH   1  27
ATOM     27  C   UNL A   1      37.632  21.195  25.026  1.00  0.00     0.023 C 
BRANCH  27  28
ATOM     28  C   UNL A   1      38.583  21.945  25.971  1.00  0.00     0.116 C 
BRANCH  28  29
ATOM     29  N   UNL A   1      39.862  21.263  26.083  1.00  0.00    -0.352 N 
ATOM     30  C   UNL A   1      41.127  21.748  26.257  1.00  0.00     0.251 C 
ATOM     31  H   UNL A   1      39.807  20.282  26.023  1.00  0.00     0.163 HD
ATOM     32  O   UNL A   1      42.082  20.983  26.085  1.00  0.00    -0.269 OA
BRANCH  30  33
ATOM     33  C   UNL A   1      41.400  23.150  26.636  1.00  0.00     0.039 A 
ATOM     34  C   UNL A   1      42.112  23.941  25.727  1.00  0.00     0.014 A 
ATOM     35  C   UNL A   1      41.096  23.656  27.904  1.00  0.00     0.014 A 
ATOM     36  C   UNL A   1      42.488  25.240  26.069  1.00  0.00     0.010 A 
ATOM     37  C   UNL A   1      41.471  24.962  28.244  1.00  0.00     0.010 A 
ATOM     38  C   UNL A   1      42.162  25.766  27.327  1.00  0.00    -0.014 A 
BRANCH  38  39
ATOM     39  C   UNL A   1      42.485  27.184  27.585  1.00  0.00     0.031 A 
ATOM     40  C   UNL A   1      41.342  28.139  27.662  1.00  0.00     0.074 A 
ATOM     41  C   UNL A   1      43.612  27.570  28.220  1.00  0.00     0.049 A 
ATOM     42  N   UNL A   1      40.651  28.334  28.748  1.00  0.00    -0.248 NA
ATOM     43  C   UNL A   1      40.786  28.785  26.476  1.00  0.00     0.031 C 
ATOM     44  C   UNL A   1      44.265  26.794  29.279  1.00  0.00     0.029 A 
ATOM     45  N   UNL A   1      44.236  28.794  28.257  1.00  0.00    -0.354 N 
ATOM     46  C   UNL A   1      39.540  29.074  28.393  1.00  0.00     0.074 A 
ATOM     47  C   UNL A   1      39.674  29.346  26.977  1.00  0.00     0.031 C 
ATOM     48  C   UNL A   1      45.064  27.622  29.985  1.00  0.00     0.029 A 
ATOM     49  C   UNL A   1      45.120  28.919  29.322  1.00  0.00     0.049 A 
ATOM     50  H   UNL A   1      44.076  29.507  27.597  1.00  0.00     0.167 HD
ATOM     51  C   UNL A   1      38.556  29.411  29.266  1.00  0.00     0.031 A 
ATOM     52  C   UNL A   1      45.480  30.093  29.907  1.00  0.00     0.031 A 
ATOM     53  C   UNL A   1      38.753  28.998  30.623  1.00  0.00     0.049 A 
ATOM     54  C   UNL A   1      44.219  30.454  30.647  1.00  0.00     0.074 A 
ATOM     55  C   UNL A   1      38.459  27.892  31.393  1.00  0.00     0.029 A 
ATOM     56  N   UNL A   1      39.487  29.812  31.452  1.00  0.00    -0.354 N 
ATOM     57  N   UNL A   1      43.831  29.976  31.798  1.00  0.00    -0.248 NA
ATOM     58  C   UNL A   1      43.176  31.161  29.899  1.00  0.00     0.031 C 
ATOM     59  C   UNL A   1      39.407  27.908  32.464  1.00  0.00     0.029 A 
ATOM     60  C   UNL A   1      40.255  28.989  32.235  1.00  0.00     0.049 A 
ATOM     61  H   UNL A   1      39.465  30.797  31.478  1.00  0.00     0.167 HD
ATOM     62  C   UNL A   1      42.438  30.044  31.773  1.00  0.00     0.074 A 
ATOM     63  C   UNL A   1      42.102  30.831  30.603  1.00  0.00     0.031 C 
ATOM     64  C   UNL A   1      41.631  29.286  32.573  1.00  0.00     0.031 A 
BRANCH  51  65
ATOM     65  C   UNL A   1      37.376  30.223  28.908  1.00  0.00    -0.014 A 
ATOM     66  C   UNL A   1      36.250  29.586  28.365  1.00  0.00     0.009 A 
ATOM     67  C   UNL A   1      37.429  31.620  28.933  1.00  0.00     0.009 A 
ATOM     68  C   UNL A   1      35.209  30.336  27.819  1.00  0.00     0.001 A 
ATOM     69  C   UNL A   1      36.381  32.370  28.392  1.00  0.00     0.001 A 
ATOM     70  C   UNL A   1      35.279  31.727  27.824  1.00  0.00     0.000 A 
ENDBRANCH  51  65
BRANCH  52  71
ATOM     71  C   UNL A   1      46.202  31.056  29.011  1.00  0.00    -0.014 A 
ATOM     72  C   UNL A   1      47.012  30.520  27.987  1.00  0.00     0.009 A 
ATOM     73  C   UNL A   1      46.154  32.453  29.120  1.00  0.00     0.009 A 
ATOM     74  C   UNL A   1      47.653  31.338  27.053  1.00  0.00     0.001 A 
ATOM     75  C   UNL A   1      46.773  33.276  28.168  1.00  0.00     0.001 A 
ATOM     76  C   UNL A   1      47.510  32.718  27.127  1.00  0.00     0.000 A 
ENDBRANCH  52  71
BRANCH  64  77
ATOM     77  C   UNL A   1      42.307  28.512  33.657  1.00  0.00    -0.014 A 
ATOM     78  C   UNL A   1      42.299  28.985  34.976  1.00  0.00     0.009 A 
ATOM     79  C   UNL A   1      42.918  27.277  33.385  1.00  0.00     0.009 A 
ATOM     80  C   UNL A   1      42.860  28.223  36.004  1.00  0.00     0.001 A 
ATOM     81  C   UNL A   1      43.462  26.509  34.415  1.00  0.00     0.001 A 
ATOM     82  C   UNL A   1      43.428  26.980  35.724  1.00  0.00     0.000 A 
ENDBRANCH  64  77
ENDBRANCH  38  39
ENDBRANCH  30  33
ENDBRANCH  28  29
ENDBRANCH  27  28
ENDBRANCH   1  27
TORSDOF 14
ENDMDL
MODEL 2
REMARK VINA RESULT:     -11.2      2.713      7.201
REMARK SMILES Cc1nc(N[C@@H](C(=O)NCCCCNC(=O)c2ccc(-c3c4nc(c(-c5ccccc5)c5ccc([nH]5)c(-c5ccccc5)c5nc(c(-c6ccccc6)c6ccc3[nH]6)C=C5)C=C4)cc2)C(C)C)c2c3c(sc2n1)CCCC3
REMARK SMILES IDX 11 1 10 2 9 3 7 4 8 5 6 7 5 8 4 10 1 11 2 12 3 13 73 14
REMARK SMILES IDX 72 15 68 16 71 17 69 18 70 19 77 20 74 21 76 22 75 23 65 24
REMARK SMILES IDX 66 25 67 26 12 27 13 28 14 29 15 30 16 32 17 33 18 34 64 35
REMARK SMILES IDX 19 36 63 37 20 38 21 39 22 40 57 41 23 42 62 43 56 44 58 45
REMARK SMILES IDX 24 46 61 47 55 48 54 49 25 51 47 52 32 53 46 54 33 55 36 56
REMARK SMILES IDX 45 57 59 58 34 59 35 60 44 62 60 63 37 64 26 65 27 66 31 67
REMARK SMILES IDX 28 68 30 69 29 70 48 71 49 72 53 73 50 74 52 75 51 76 38 77
REMARK SMILES IDX 39 78 43 79 40 80 42 81 41 82
REMARK H PARENT 9 6 5 9 14 31 58 50 36 61
REMARK Flexibility Score: inf
ROOT
ATOM      1  C   UNL A   1      33.349  29.585  26.098  1.00  0.00     0.023 C 
ENDROOT
BRANCH   1   2
ATOM      2  C   UNL A   1      33.900  28.174  25.878  1.00  0.00     0.116 C 
BRANCH   2   3
ATOM      3  N   UNL A   1      33.983  27.864  24.461  1.00  0.00    -0.354 N 
ATOM      4  C   UNL A   1      33.135  27.134  23.669  1.00  0.00     0.242 C 
ATOM      5  O   UNL A   1      33.497  26.918  22.509  1.00  0.00    -0.273 OA
ATOM      6  H   UNL A   1      34.771  28.233  23.999  1.00  0.00     0.163 HD
BRANCH   4   7
ATOM      7  C   UNL A   1      31.755  26.671  24.222  1.00  0.00     0.172 C 
BRANCH   7   8
ATOM      8  N   UNL A   1      31.656  25.228  24.150  1.00  0.00    -0.358 N 
ATOM      9  H   UNL A   1      31.420  24.900  23.252  1.00  0.00     0.162 HD
BRANCH   8  10
ATOM     10  C   UNL A   1      31.822  24.224  25.065  1.00  0.00     0.139 A 
ATOM     11  C   UNL A   1      29.225  22.954  27.375  1.00  0.00     0.090 C 
ATOM     12  C   UNL A   1      30.546  23.090  26.683  1.00  0.00     0.129 A 
ATOM     13  N   UNL A   1      30.670  24.058  25.765  1.00  0.00    -0.216 NA
ATOM     14  N   UNL A   1      31.478  22.197  26.982  1.00  0.00    -0.222 NA
ATOM     15  C   UNL A   1      32.617  22.368  26.298  1.00  0.00     0.129 A 
ATOM     16  C   UNL A   1      32.913  23.346  25.345  1.00  0.00     0.057 A 
ATOM     17  S   UNL A   1      33.868  21.250  26.575  1.00  0.00    -0.120 S 
ATOM     18  C   UNL A   1      34.302  23.152  24.901  1.00  0.00    -0.021 A 
ATOM     19  C   UNL A   1      34.872  22.014  25.456  1.00  0.00     0.011 A 
ATOM     20  C   UNL A   1      35.118  23.968  23.938  1.00  0.00     0.037 C 
ATOM     21  C   UNL A   1      36.249  21.482  25.179  1.00  0.00     0.047 C 
ATOM     22  C   UNL A   1      36.616  23.633  23.942  1.00  0.00     0.005 C 
ATOM     23  C   UNL A   1      36.833  22.122  23.917  1.00  0.00     0.006 C 
ENDBRANCH   8  10
ENDBRANCH   7   8
BRANCH   7  24
ATOM     24  C   UNL A   1      30.582  27.337  23.448  1.00  0.00     0.015 C 
ATOM     25  C   UNL A   1      29.209  26.701  23.714  1.00  0.00     0.010 C 
ATOM     26  C   UNL A   1      30.504  28.834  23.785  1.00  0.00     0.010 C 
ENDBRANCH   7  24
ENDBRANCH   4   7
ENDBRANCH   2   3
ENDBRANCH   1   2
BRANCH   1  27
ATOM     27  C   UNL A   1      34.165  30.418  27.102  1.00  0.00     0.023 C 
BRANCH  27  28
ATOM     28  C   UNL A   1      33.346  31.421  27.928  1.00  0.00     0.116 C 
BRANCH  28  29
ATOM     29  N   UNL A   1      33.846  32.776  27.759  1.00  0.00    -0.352 N 
ATOM     30  C   UNL A   1      34.913  33.418  28.322  1.00  0.00     0.251 C 
ATOM     31  H   UNL A   1      33.324  33.327  27.131  1.00  0.00     0.163 HD
ATOM     32  O   UNL A   1      34.995  34.644  28.201  1.00  0.00    -0.269 OA
BRANCH  30  33
ATOM     33  C   UNL A   1      35.968  32.705  29.072  1.00  0.00     0.039 A 
ATOM     34  C   UNL A   1      36.994  32.104  28.333  1.00  0.00     0.014 A 
ATOM     35  C   UNL A   1      35.897  32.499  30.453  1.00  0.00     0.014 A 
ATOM     36  C   UNL A   1      37.962  31.331  28.974  1.00  0.00     0.010 A 
ATOM     37  C   UNL A   1      36.872  31.727  31.096  1.00  0.00     0.010 A 
ATOM     38  C   UNL A   1      37.916  31.144  30.363  1.00  0.00    -0.014 A 
BRANCH  38  39
ATOM     39  C   UNL A   1      39.033  30.413  30.997  1.00  0.00     0.031 A 
ATOM     40  C   UNL A   1      39.275  29.013  30.543  1.00  0.00     0.074 A 
ATOM     41  C   UNL A   1      40.094  31.040  31.547  1.00  0.00     0.049 A 
ATOM     42  N   UNL A   1      39.981  28.720  29.489  1.00  0.00    -0.248 NA
ATOM     43  C   UNL A   1      38.579  27.872  31.132  1.00  0.00     0.031 C 
ATOM     44  C   UNL A   1      40.651  32.303  31.049  1.00  0.00     0.029 A 
ATOM     45  N   UNL A   1      41.029  30.584  32.444  1.00  0.00    -0.354 N 
ATOM     46  C   UNL A   1      39.784  27.377  29.231  1.00  0.00     0.074 A 
ATOM     47  C   UNL A   1      38.922  26.888  30.286  1.00  0.00     0.031 C 
ATOM     48  C   UNL A   1      41.915  32.422  31.506  1.00  0.00     0.029 A 
ATOM     49  C   UNL A   1      42.185  31.355  32.462  1.00  0.00     0.049 A 
ATOM     50  H   UNL A   1      40.894  29.794  33.016  1.00  0.00     0.167 HD
ATOM     51  C   UNL A   1      40.319  26.736  28.160  1.00  0.00     0.031 A 
ATOM     52  C   UNL A   1      43.416  30.910  32.828  1.00  0.00     0.031 A 
ATOM     53  C   UNL A   1      41.162  27.524  27.313  1.00  0.00     0.049 A 
ATOM     54  C   UNL A   1      43.777  30.037  31.655  1.00  0.00     0.074 A 
ATOM     55  C   UNL A   1      41.007  28.330  26.204  1.00  0.00     0.029 A 
ATOM     56  N   UNL A   1      42.490  27.644  27.645  1.00  0.00    -0.354 N 
ATOM     57  N   UNL A   1      44.239  30.437  30.503  1.00  0.00    -0.248 NA
ATOM     58  C   UNL A   1      43.287  28.655  31.668  1.00  0.00     0.031 C 
ATOM     59  C   UNL A   1      42.125  29.222  26.219  1.00  0.00     0.029 A 
ATOM     60  C   UNL A   1      42.849  28.940  27.375  1.00  0.00     0.049 A 
ATOM     61  H   UNL A   1      43.071  26.937  28.008  1.00  0.00     0.167 HD
ATOM     62  C   UNL A   1      43.813  29.479  29.582  1.00  0.00     0.074 A 
ATOM     63  C   UNL A   1      43.281  28.385  30.370  1.00  0.00     0.031 C 
ATOM     64  C   UNL A   1      43.716  29.711  28.240  1.00  0.00     0.031 A 
BRANCH  51  65
ATOM     65  C   UNL A   1      40.139  25.297  27.886  1.00  0.00    -0.014 A 
ATOM     66  C   UNL A   1      41.197  24.415  28.152  1.00  0.00     0.009 A 
ATOM     67  C   UNL A   1      39.010  24.829  27.205  1.00  0.00     0.009 A 
ATOM     68  C   UNL A   1      41.144  23.093  27.710  1.00  0.00     0.001 A 
ATOM     69  C   UNL A   1      38.956  23.502  26.769  1.00  0.00     0.001 A 
ATOM     70  C   UNL A   1      40.028  22.640  27.010  1.00  0.00     0.000 A 
ENDBRANCH  51  65
BRANCH  52  71
ATOM     71  C   UNL A   1      43.532  30.450  34.251  1.00  0.00    -0.014 A 
ATOM     72  C   UNL A   1      43.467  31.430  35.266  1.00  0.00     0.009 A 
ATOM     73  C   UNL A   1      43.721  29.122  34.659  1.00  0.00     0.009 A 
ATOM     74  C   UNL A   1      43.480  31.087  36.620  1.00  0.00     0.001 A 
ATOM     75  C   UNL A   1      43.705  28.773  36.017  1.00  0.00     0.001 A 
ATOM     76  C   UNL A   1      43.571  29.753  36.996  1.00  0.00     0.000 A 
ENDBRANCH  52  71
BRANCH  64  77
ATOM     77  C   UNL A   1      44.300  30.995  27.744  1.00  0.00    -0.014 A 
ATOM     78  C   UNL A   1      45.457  30.986  26.954  1.00  0.00     0.009 A 
ATOM     79  C   UNL A   1      43.676  32.222  28.019  1.00  0.00     0.009 A 
ATOM     80  C   UNL A   1      45.958  32.177  26.422  1.00  0.00     0.001 A 
ATOM     81  C   UNL A   1      44.167  33.408  27.472  1.00  0.00     0.001 A 
ATOM     82  C   UNL A   1      45.304  33.384  26.670  1.00  0.00     0.000 A 
ENDBRANCH  64  77
ENDBRANCH  38  39
ENDBRANCH  30  33
ENDBRANCH  28  29
ENDBRANCH  27  28
ENDBRANCH   1  27
TORSDOF 14
ENDMDL
MODEL 3
REMARK VINA RESULT:     -10.9      8.309     13.324
REMARK SMILES Cc1nc(N[C@@H](C(=O)NCCCCNC(=O)c2ccc(-c3c4nc(c(-c5ccccc5)c5ccc([nH]5)c(-c5ccccc5)c5nc(c(-c6ccccc6)c6ccc3[nH]6)C=C5)C=C4)cc2)C(C)C)c2c3c(sc2n1)CCCC3
REMARK SMILES IDX 11 1 10 2 9 3 7 4 8 5 6 7 5 8 4 10 1 11 2 12 3 13 73 14
REMARK SMILES IDX 72 15 68 16 71 17 69 18 70 19 77 20 74 21 76 22 75 23 65 24
REMARK SMILES IDX 66 25 67 26 12 27 13 28 14 29 15 30 16 32 17 33 18 34 64 35
REMARK SMILES IDX 19 36 63 37 20 38 21 39 22 40 57 41 23 42 62 43 56 44 58 45
REMARK SMILES IDX 24 46 61 47 55 48 54 49 25 51 47 52 32 53 46 54 33 55 36 56
REMARK SMILES IDX 45 57 59 58 34 59 35 60 44 62 60 63 37 64 26 65 27 66 31 67
REMARK SMILES IDX 28 68 30 69 29 70 48 71 49 72 53 73 50 74 52 75 51 76 38 77
REMARK SMILES IDX 39 78 43 79 40 80 42 81 41 82
REMARK H PARENT 9 6 5 9 14 31 58 50 36 61
REMARK Flexibility Score: inf
ROOT
ATOM      1  C   UNL A   1      38.628  34.382  30.425  1.00  0.00     0.023 C 
ENDROOT
BRANCH   1   2
ATOM      2  C   UNL A   1      38.089  33.246  29.552  1.00  0.00     0.116 C 
BRANCH   2   3
ATOM      3  N   UNL A   1      37.023  33.719  28.684  1.00  0.00    -0.354 N 
ATOM      4  C   UNL A   1      35.895  33.074  28.244  1.00  0.00     0.242 C 
ATOM      5  O   UNL A   1      35.201  33.663  27.411  1.00  0.00    -0.273 OA
ATOM      6  H   UNL A   1      37.127  34.644  28.362  1.00  0.00     0.163 HD
BRANCH   4   7
ATOM      7  C   UNL A   1      35.505  31.690  28.840  1.00  0.00     0.172 C 
BRANCH   7   8
ATOM      8  N   UNL A   1      34.861  31.871  30.124  1.00  0.00    -0.358 N 
ATOM      9  H   UNL A   1      34.282  31.116  30.377  1.00  0.00     0.162 HD
BRANCH   8  10
ATOM     10  C   UNL A   1      34.888  32.868  31.061  1.00  0.00     0.139 A 
ATOM     11  C   UNL A   1      32.820  35.936  31.010  1.00  0.00     0.090 C 
ATOM     12  C   UNL A   1      33.818  34.922  31.475  1.00  0.00     0.129 A 
ATOM     13  N   UNL A   1      34.029  33.854  30.694  1.00  0.00    -0.216 NA
ATOM     14  N   UNL A   1      34.371  35.120  32.663  1.00  0.00    -0.222 NA
ATOM     15  C   UNL A   1      35.226  34.151  33.019  1.00  0.00     0.129 A 
ATOM     16  C   UNL A   1      35.580  33.006  32.302  1.00  0.00     0.057 A 
ATOM     17  S   UNL A   1      35.963  34.286  34.546  1.00  0.00    -0.120 S 
ATOM     18  C   UNL A   1      36.583  32.264  33.084  1.00  0.00    -0.021 A 
ATOM     19  C   UNL A   1      36.802  32.838  34.328  1.00  0.00     0.011 A 
ATOM     20  C   UNL A   1      37.324  31.005  32.733  1.00  0.00     0.037 C 
ATOM     21  C   UNL A   1      37.712  32.316  35.403  1.00  0.00     0.047 C 
ATOM     22  C   UNL A   1      38.499  30.686  33.667  1.00  0.00     0.005 C 
ATOM     23  C   UNL A   1      38.093  30.860  35.128  1.00  0.00     0.006 C 
ENDBRANCH   8  10
ENDBRANCH   7   8
BRANCH   7  24
ATOM     24  C   UNL A   1      36.746  30.762  28.978  1.00  0.00     0.015 C 
ATOM     25  C   UNL A   1      36.545  29.577  29.934  1.00  0.00     0.010 C 
ATOM     26  C   UNL A   1      37.162  30.219  27.602  1.00  0.00     0.010 C 
ENDBRANCH   7  24
ENDBRANCH   4   7
ENDBRANCH   2   3
ENDBRANCH   1   2
BRANCH   1  27
ATOM     27  C   UNL A   1      39.275  33.900  31.736  1.00  0.00     0.023 C 
BRANCH  27  28
ATOM     28  C   UNL A   1      40.756  34.272  31.901  1.00  0.00     0.116 C 
BRANCH  28  29
ATOM     29  N   UNL A   1      41.604  33.449  31.054  1.00  0.00    -0.352 N 
ATOM     30  C   UNL A   1      42.342  33.760  29.947  1.00  0.00     0.251 C 
ATOM     31  H   UNL A   1      41.655  32.503  31.324  1.00  0.00     0.163 HD
ATOM     32  O   UNL A   1      42.793  32.838  29.260  1.00  0.00    -0.269 OA
BRANCH  30  33
ATOM     33  C   UNL A   1      42.618  35.153  29.537  1.00  0.00     0.039 A 
ATOM     34  C   UNL A   1      41.852  35.685  28.493  1.00  0.00     0.014 A 
ATOM     35  C   UNL A   1      43.688  35.889  30.055  1.00  0.00     0.014 A 
ATOM     36  C   UNL A   1      42.131  36.956  27.993  1.00  0.00     0.010 A 
ATOM     37  C   UNL A   1      43.964  37.167  29.555  1.00  0.00     0.010 A 
ATOM     38  C   UNL A   1      43.184  37.714  28.526  1.00  0.00    -0.014 A 
BRANCH  38  39
ATOM     39  C   UNL A   1      43.356  39.096  28.034  1.00  0.00     0.031 A 
ATOM     40  C   UNL A   1      43.138  40.199  29.015  1.00  0.00     0.074 A 
ATOM     41  C   UNL A   1      44.137  39.402  26.977  1.00  0.00     0.049 A 
ATOM     42  N   UNL A   1      44.061  40.616  29.832  1.00  0.00    -0.248 NA
ATOM     43  C   UNL A   1      41.815  40.765  29.270  1.00  0.00     0.031 C 
ATOM     44  C   UNL A   1      45.365  38.679  26.628  1.00  0.00     0.029 A 
ATOM     45  N   UNL A   1      44.164  40.525  26.187  1.00  0.00    -0.354 N 
ATOM     46  C   UNL A   1      43.447  41.449  30.746  1.00  0.00     0.074 A 
ATOM     47  C   UNL A   1      42.056  41.527  30.347  1.00  0.00     0.031 C 
ATOM     48  C   UNL A   1      46.116  39.471  25.834  1.00  0.00     0.029 A 
ATOM     49  C   UNL A   1      45.350  40.659  25.475  1.00  0.00     0.049 A 
ATOM     50  H   UNL A   1      43.420  41.167  26.129  1.00  0.00     0.167 HD
ATOM     51  C   UNL A   1      44.097  42.020  31.792  1.00  0.00     0.031 A 
ATOM     52  C   UNL A   1      45.872  41.836  25.038  1.00  0.00     0.031 A 
ATOM     53  C   UNL A   1      45.501  41.753  31.880  1.00  0.00     0.049 A 
ATOM     54  C   UNL A   1      46.341  42.451  26.329  1.00  0.00     0.074 A 
ATOM     55  C   UNL A   1      46.311  40.798  32.458  1.00  0.00     0.029 A 
ATOM     56  N   UNL A   1      46.362  42.556  31.172  1.00  0.00    -0.354 N 
ATOM     57  N   UNL A   1      47.447  42.174  26.964  1.00  0.00    -0.248 NA
ATOM     58  C   UNL A   1      45.356  43.195  27.119  1.00  0.00     0.031 C 
ATOM     59  C   UNL A   1      47.526  40.817  31.703  1.00  0.00     0.029 A 
ATOM     60  C   UNL A   1      47.344  41.738  30.673  1.00  0.00     0.049 A 
ATOM     61  H   UNL A   1      46.289  43.530  31.046  1.00  0.00     0.167 HD
ATOM     62  C   UNL A   1      47.172  42.425  28.309  1.00  0.00     0.074 A 
ATOM     63  C   UNL A   1      45.890  43.101  28.329  1.00  0.00     0.031 C 
ATOM     64  C   UNL A   1      47.888  41.886  29.340  1.00  0.00     0.031 A 
BRANCH  51  65
ATOM     65  C   UNL A   1      43.460  42.933  32.762  1.00  0.00    -0.014 A 
ATOM     66  C   UNL A   1      42.854  42.397  33.908  1.00  0.00     0.009 A 
ATOM     67  C   UNL A   1      43.295  44.291  32.470  1.00  0.00     0.009 A 
ATOM     68  C   UNL A   1      42.063  43.199  34.730  1.00  0.00     0.001 A 
ATOM     69  C   UNL A   1      42.507  45.094  33.300  1.00  0.00     0.001 A 
ATOM     70  C   UNL A   1      41.882  44.544  34.420  1.00  0.00     0.000 A 
ENDBRANCH  51  65
BRANCH  52  71
ATOM     71  C   UNL A   1      45.027  42.577  24.043  1.00  0.00    -0.014 A 
ATOM     72  C   UNL A   1      45.405  42.516  22.685  1.00  0.00     0.009 A 
ATOM     73  C   UNL A   1      43.897  43.346  24.356  1.00  0.00     0.009 A 
ATOM     74  C   UNL A   1      44.632  43.103  21.679  1.00  0.00     0.001 A 
ATOM     75  C   UNL A   1      43.104  43.911  23.346  1.00  0.00     0.001 A 
ATOM     76  C   UNL A   1      43.464  43.777  22.009  1.00  0.00     0.000 A 
ENDBRANCH  52  71
BRANCH  64  77
ATOM     77  C   UNL A   1      49.144  41.165  28.971  1.00  0.00    -0.014 A 
ATOM     78  C   UNL A   1      50.393  41.745  29.229  1.00  0.00     0.009 A 
ATOM     79  C   UNL A   1      49.096  39.880  28.408  1.00  0.00     0.009 A 
ATOM     80  C   UNL A   1      51.569  41.038  28.960  1.00  0.00     0.001 A 
ATOM     81  C   UNL A   1      50.270  39.169  28.157  1.00  0.00     0.001 A 
ATOM     82  C   UNL A   1      51.505  39.747  28.438  1.00  0.00     0.000 A 
ENDBRANCH  64  77
ENDBRANCH  38  39
ENDBRANCH  30  33
ENDBRANCH  28  29
ENDBRANCH  27  28
ENDBRANCH   1  27
TORSDOF 14
ENDMDL
