MODEL 1
REMARK VINA RESULT:     -11.4      0.000      0.000
REMARK SMILES CCCc1cc(OC(F)(F)F)cc2c1O[C@@H](C(F)(F)F)C(C(=O)NCCCCNC(=O)c1ccc(-c3c4nc(c(-c5ccccc5)c5ccc([nH]5)c(-c5ccccc5)c5nc(c(-c6ccccc6)c6ccc3[nH]6)C=C5)C=C4)cc1)=C2
REMARK SMILES IDX 26 1 25 2 24 3 22 4 23 5 21 7 4 8 5 9 14 10 6 11 13 12 15 13
REMARK SMILES IDX 12 14 80 15 16 16 3 17 2 18 1 19 7 20 8 21 9 22 10 23 11 24
REMARK SMILES IDX 17 25 18 26 19 27 20 28 27 29 28 30 29 31 30 32 31 34 32 35
REMARK SMILES IDX 33 36 79 37 34 38 78 39 35 40 36 41 37 42 72 43 38 44 77 45
REMARK SMILES IDX 71 46 73 47 39 48 76 49 70 50 69 51 40 53 62 54 47 55 61 56
REMARK SMILES IDX 48 57 51 58 60 59 74 60 49 61 50 62 59 64 75 65 52 66 41 67
REMARK SMILES IDX 42 68 46 69 43 70 45 71 44 72 63 73 64 74 68 75 65 76 67 77
REMARK SMILES IDX 66 78 53 79 54 80 58 81 55 82 57 83 56 84
REMARK H PARENT 24 6 29 33 73 52 51 63
REMARK Flexibility Score: inf
ROOT
ATOM      1  C   UNL A   1      36.360  19.788  25.077  1.00  0.00     0.023 C 
ENDROOT
BRANCH   1   2
ATOM      2  C   UNL A   1      35.684  21.147  25.298  1.00  0.00     0.116 C 
BRANCH   2   3
ATOM      3  N   UNL A   1      36.094  22.077  24.259  1.00  0.00    -0.352 N 
ATOM      4  C   UNL A   1      35.534  23.217  23.769  1.00  0.00     0.251 C 
ATOM      5  O   UNL A   1      36.018  23.696  22.748  1.00  0.00    -0.270 OA
ATOM      6  H   UNL A   1      36.943  21.835  23.825  1.00  0.00     0.163 HD
BRANCH   4   7
ATOM      7  C   UNL A   1      34.430  23.936  24.463  1.00  0.00     0.067 C 
ATOM      8  C   UNL A   1      31.146  26.223  25.772  1.00  0.00    -0.002 A 
ATOM      9  C   UNL A   1      31.421  27.473  26.361  1.00  0.00     0.054 A 
ATOM     10  C   UNL A   1      32.223  25.395  25.414  1.00  0.00     0.131 A 
ATOM     11  C   UNL A   1      32.719  27.853  26.691  1.00  0.00     0.130 A 
ATOM     12  C   UNL A   1      33.526  25.787  25.712  1.00  0.00     0.021 A 
ATOM     13  O   UNL A   1      31.954  24.263  24.699  1.00  0.00    -0.475 OA
ATOM     14  C   UNL A   1      33.769  27.002  26.364  1.00  0.00     0.058 A 
ATOM     15  C   UNL A   1      34.651  25.009  25.231  1.00  0.00     0.025 C 
ATOM     16  C   UNL A   1      33.033  23.328  24.388  1.00  0.00     0.314 C 
BRANCH   8  17
ATOM     17  C   UNL A   1      29.704  25.836  25.516  1.00  0.00     0.039 C 
BRANCH  17  18
ATOM     18  C   UNL A   1      29.204  26.131  24.092  1.00  0.00     0.001 C 
ATOM     19  C   UNL A   1      29.620  27.486  23.531  1.00  0.00     0.004 C 
ENDBRANCH  17  18
ENDBRANCH   8  17
BRANCH  11  20
ATOM     20  O   UNL A   1      33.091  29.022  27.286  1.00  0.00    -0.406 OA
BRANCH  20  21
ATOM     21  C   UNL A   1      32.871  30.218  26.553  1.00  0.00     0.573 C 
ATOM     22  F   UNL A   1      33.733  31.184  26.933  1.00  0.00    -0.132 F 
ATOM     23  F   UNL A   1      32.986  30.006  25.225  1.00  0.00    -0.132 F 
ATOM     24  F   UNL A   1      31.616  30.652  26.803  1.00  0.00    -0.132 F 
ENDBRANCH  20  21
ENDBRANCH  11  20
BRANCH  16  25
ATOM     25  C   UNL A   1      32.646  22.602  23.078  1.00  0.00     0.429 C 
ATOM     26  F   UNL A   1      33.182  23.180  21.980  1.00  0.00    -0.167 F 
ATOM     27  F   UNL A   1      33.119  21.326  23.076  1.00  0.00    -0.167 F 
ATOM     28  F   UNL A   1      31.307  22.522  22.907  1.00  0.00    -0.167 F 
ENDBRANCH  16  25
ENDBRANCH   4   7
ENDBRANCH   2   3
ENDBRANCH   1   2
BRANCH   1  29
ATOM     29  C   UNL A   1      37.820  19.885  24.627  1.00  0.00     0.023 C 
BRANCH  29  30
ATOM     30  C   UNL A   1      38.810  20.158  25.752  1.00  0.00     0.116 C 
BRANCH  30  31
ATOM     31  N   UNL A   1      39.930  19.232  25.758  1.00  0.00    -0.352 N 
ATOM     32  C   UNL A   1      41.241  19.472  26.089  1.00  0.00     0.251 C 
ATOM     33  H   UNL A   1      39.722  18.309  25.488  1.00  0.00     0.163 HD
ATOM     34  O   UNL A   1      42.089  18.608  25.914  1.00  0.00    -0.269 OA
BRANCH  32  35
ATOM     35  C   UNL A   1      41.623  20.794  26.629  1.00  0.00     0.039 A 
ATOM     36  C   UNL A   1      42.050  21.781  25.738  1.00  0.00     0.014 A 
ATOM     37  C   UNL A   1      41.558  21.058  27.999  1.00  0.00     0.014 A 
ATOM     38  C   UNL A   1      42.377  23.047  26.222  1.00  0.00     0.010 A 
ATOM     39  C   UNL A   1      41.799  22.345  28.468  1.00  0.00     0.010 A 
ATOM     40  C   UNL A   1      42.233  23.346  27.587  1.00  0.00    -0.014 A 
BRANCH  40  41
ATOM     41  C   UNL A   1      42.565  24.695  28.105  1.00  0.00     0.031 A 
ATOM     42  C   UNL A   1      43.991  25.055  28.419  1.00  0.00     0.074 A 
ATOM     43  C   UNL A   1      41.578  25.588  28.313  1.00  0.00     0.049 A 
ATOM     44  N   UNL A   1      44.479  26.191  28.851  1.00  0.00    -0.248 NA
ATOM     45  C   UNL A   1      45.000  23.996  28.251  1.00  0.00     0.031 C 
ATOM     46  C   UNL A   1      40.151  25.342  28.093  1.00  0.00     0.029 A 
ATOM     47  N   UNL A   1      41.629  26.888  28.745  1.00  0.00    -0.354 N 
ATOM     48  C   UNL A   1      45.843  25.979  29.012  1.00  0.00     0.074 A 
ATOM     49  C   UNL A   1      46.096  24.591  28.698  1.00  0.00     0.031 C 
ATOM     50  C   UNL A   1      39.468  26.470  28.348  1.00  0.00     0.029 A 
ATOM     51  C   UNL A   1      40.401  27.504  28.783  1.00  0.00     0.049 A 
ATOM     52  H   UNL A   1      42.466  27.339  29.003  1.00  0.00     0.167 HD
ATOM     53  C   UNL A   1      46.804  26.864  29.364  1.00  0.00     0.031 A 
ATOM     54  C   UNL A   1      40.066  28.762  29.123  1.00  0.00     0.031 A 
ATOM     55  C   UNL A   1      46.552  28.246  29.673  1.00  0.00     0.049 A 
ATOM     56  C   UNL A   1      41.153  29.724  29.519  1.00  0.00     0.074 A 
ATOM     57  C   UNL A   1      47.462  29.240  29.990  1.00  0.00     0.029 A 
ATOM     58  N   UNL A   1      45.294  28.829  29.707  1.00  0.00    -0.354 N 
ATOM     59  N   UNL A   1      42.447  29.528  29.589  1.00  0.00    -0.248 NA
ATOM     60  C   UNL A   1      40.728  31.086  29.866  1.00  0.00     0.031 C 
ATOM     61  C   UNL A   1      46.748  30.409  30.275  1.00  0.00     0.029 A 
ATOM     62  C   UNL A   1      45.401  30.162  30.067  1.00  0.00     0.049 A 
ATOM     63  H   UNL A   1      44.450  28.364  29.506  1.00  0.00     0.167 HD
ATOM     64  C   UNL A   1      42.994  30.750  29.959  1.00  0.00     0.074 A 
ATOM     65  C   UNL A   1      41.892  31.685  30.073  1.00  0.00     0.031 C 
ATOM     66  C   UNL A   1      44.292  31.074  30.186  1.00  0.00     0.031 A 
BRANCH  53  67
ATOM     67  C   UNL A   1      48.219  26.356  29.439  1.00  0.00    -0.014 A 
ATOM     68  C   UNL A   1      49.079  26.420  28.329  1.00  0.00     0.009 A 
ATOM     69  C   UNL A   1      48.710  25.828  30.644  1.00  0.00     0.009 A 
ATOM     70  C   UNL A   1      50.382  25.927  28.411  1.00  0.00     0.001 A 
ATOM     71  C   UNL A   1      50.025  25.368  30.734  1.00  0.00     0.001 A 
ATOM     72  C   UNL A   1      50.856  25.407  29.616  1.00  0.00     0.000 A 
ENDBRANCH  53  67
BRANCH  54  73
ATOM     73  C   UNL A   1      38.645  29.195  29.081  1.00  0.00    -0.014 A 
ATOM     74  C   UNL A   1      37.844  29.134  30.232  1.00  0.00     0.009 A 
ATOM     75  C   UNL A   1      38.075  29.658  27.884  1.00  0.00     0.009 A 
ATOM     76  C   UNL A   1      36.496  29.495  30.178  1.00  0.00     0.001 A 
ATOM     77  C   UNL A   1      36.735  30.050  27.840  1.00  0.00     0.001 A 
ATOM     78  C   UNL A   1      35.944  29.955  28.983  1.00  0.00     0.000 A 
ENDBRANCH  54  73
BRANCH  66  79
ATOM     79  C   UNL A   1      44.586  32.505  30.546  1.00  0.00    -0.014 A 
ATOM     80  C   UNL A   1      44.832  33.474  29.561  1.00  0.00     0.009 A 
ATOM     81  C   UNL A   1      44.603  32.890  31.896  1.00  0.00     0.009 A 
ATOM     82  C   UNL A   1      45.139  34.787  29.923  1.00  0.00     0.001 A 
ATOM     83  C   UNL A   1      44.873  34.210  32.253  1.00  0.00     0.001 A 
ATOM     84  C   UNL A   1      45.156  35.154  31.267  1.00  0.00     0.000 A 
ENDBRANCH  66  79
ENDBRANCH  40  41
ENDBRANCH  32  35
ENDBRANCH  30  31
ENDBRANCH  29  30
ENDBRANCH   1  29
TORSDOF 16
ENDMDL
MODEL 2
REMARK VINA RESULT:     -11.3      3.288      8.791
REMARK SMILES CCCc1cc(OC(F)(F)F)cc2c1O[C@@H](C(F)(F)F)C(C(=O)NCCCCNC(=O)c1ccc(-c3c4nc(c(-c5ccccc5)c5ccc([nH]5)c(-c5ccccc5)c5nc(c(-c6ccccc6)c6ccc3[nH]6)C=C5)C=C4)cc1)=C2
REMARK SMILES IDX 26 1 25 2 24 3 22 4 23 5 21 7 4 8 5 9 14 10 6 11 13 12 15 13
REMARK SMILES IDX 12 14 80 15 16 16 3 17 2 18 1 19 7 20 8 21 9 22 10 23 11 24
REMARK SMILES IDX 17 25 18 26 19 27 20 28 27 29 28 30 29 31 30 32 31 34 32 35
REMARK SMILES IDX 33 36 79 37 34 38 78 39 35 40 36 41 37 42 72 43 38 44 77 45
REMARK SMILES IDX 71 46 73 47 39 48 76 49 70 50 69 51 40 53 62 54 47 55 61 56
REMARK SMILES IDX 48 57 51 58 60 59 74 60 49 61 50 62 59 64 75 65 52 66 41 67
REMARK SMILES IDX 42 68 46 69 43 70 45 71 44 72 63 73 64 74 68 75 65 76 67 77
REMARK SMILES IDX 66 78 53 79 54 80 58 81 55 82 57 83 56 84
REMARK H PARENT 24 6 29 33 73 52 51 63
REMARK Flexibility Score: inf
ROOT
ATOM      1  C   UNL A   1      31.029  30.970  25.355  1.00  0.00     0.023 C 
ENDROOT
BRANCH   1   2
ATOM      2  C   UNL A   1      31.945  29.741  25.296  1.00  0.00     0.116 C 
BRANCH   2   3
ATOM      3  N   UNL A   1      31.702  28.889  26.448  1.00  0.00    -0.352 N 
ATOM      4  C   UNL A   1      31.778  27.542  26.631  1.00  0.00     0.251 C 
ATOM      5  O   UNL A   1      31.326  27.082  27.675  1.00  0.00    -0.270 OA
ATOM      6  H   UNL A   1      31.429  29.383  27.254  1.00  0.00     0.163 HD
BRANCH   4   7
ATOM      7  C   UNL A   1      32.453  26.634  25.663  1.00  0.00     0.067 C 
ATOM      8  C   UNL A   1      33.956  23.552  23.220  1.00  0.00    -0.002 A 
ATOM      9  C   UNL A   1      35.198  22.989  23.577  1.00  0.00     0.054 A 
ATOM     10  C   UNL A   1      33.474  24.646  23.958  1.00  0.00     0.131 A 
ATOM     11  C   UNL A   1      35.998  23.559  24.564  1.00  0.00     0.130 A 
ATOM     12  C   UNL A   1      34.258  25.197  24.969  1.00  0.00     0.021 A 
ATOM     13  O   UNL A   1      32.203  25.078  23.711  1.00  0.00    -0.475 OA
ATOM     14  C   UNL A   1      35.522  24.666  25.256  1.00  0.00     0.058 A 
ATOM     15  C   UNL A   1      33.721  26.238  25.824  1.00  0.00     0.025 C 
ATOM     16  C   UNL A   1      31.698  26.270  24.389  1.00  0.00     0.314 C 
BRANCH   8  17
ATOM     17  C   UNL A   1      33.173  22.932  22.080  1.00  0.00     0.039 C 
BRANCH  17  18
ATOM     18  C   UNL A   1      32.168  21.849  22.506  1.00  0.00     0.001 C 
ATOM     19  C   UNL A   1      32.414  21.250  23.886  1.00  0.00     0.004 C 
ENDBRANCH  17  18
ENDBRANCH   8  17
BRANCH  11  20
ATOM     20  O   UNL A   1      37.223  23.113  24.965  1.00  0.00    -0.406 OA
BRANCH  20  21
ATOM     21  C   UNL A   1      37.311  21.763  25.393  1.00  0.00     0.573 C 
ATOM     22  F   UNL A   1      38.447  21.549  26.088  1.00  0.00    -0.132 F 
ATOM     23  F   UNL A   1      36.247  21.419  26.148  1.00  0.00    -0.132 F 
ATOM     24  F   UNL A   1      37.328  20.965  24.302  1.00  0.00    -0.132 F 
ENDBRANCH  20  21
ENDBRANCH  11  20
BRANCH  16  25
ATOM     25  C   UNL A   1      30.162  26.120  24.495  1.00  0.00     0.429 C 
ATOM     26  F   UNL A   1      29.508  27.291  24.333  1.00  0.00    -0.167 F 
ATOM     27  F   UNL A   1      29.687  25.308  23.512  1.00  0.00    -0.167 F 
ATOM     28  F   UNL A   1      29.776  25.575  25.671  1.00  0.00    -0.167 F 
ENDBRANCH  16  25
ENDBRANCH   4   7
ENDBRANCH   2   3
ENDBRANCH   1   2
BRANCH   1  29
ATOM     29  C   UNL A   1      31.122  31.755  26.666  1.00  0.00     0.023 C 
BRANCH  29  30
ATOM     30  C   UNL A   1      32.442  32.487  26.870  1.00  0.00     0.116 C 
BRANCH  30  31
ATOM     31  N   UNL A   1      32.281  33.770  27.534  1.00  0.00    -0.352 N 
ATOM     32  C   UNL A   1      33.086  34.355  28.479  1.00  0.00     0.251 C 
ATOM     33  H   UNL A   1      31.488  34.291  27.269  1.00  0.00     0.163 HD
ATOM     34  O   UNL A   1      32.735  35.387  29.035  1.00  0.00    -0.269 OA
BRANCH  32  35
ATOM     35  C   UNL A   1      34.364  33.709  28.845  1.00  0.00     0.039 A 
ATOM     36  C   UNL A   1      35.488  33.959  28.056  1.00  0.00     0.014 A 
ATOM     37  C   UNL A   1      34.453  32.868  29.956  1.00  0.00     0.014 A 
ATOM     38  C   UNL A   1      36.712  33.391  28.406  1.00  0.00     0.010 A 
ATOM     39  C   UNL A   1      35.691  32.375  30.355  1.00  0.00     0.010 A 
ATOM     40  C   UNL A   1      36.828  32.613  29.571  1.00  0.00    -0.014 A 
BRANCH  40  41
ATOM     41  C   UNL A   1      38.132  32.019  29.957  1.00  0.00     0.031 A 
ATOM     42  C   UNL A   1      39.035  32.738  30.920  1.00  0.00     0.074 A 
ATOM     43  C   UNL A   1      38.508  30.841  29.423  1.00  0.00     0.049 A 
ATOM     44  N   UNL A   1      40.196  32.364  31.398  1.00  0.00    -0.248 NA
ATOM     45  C   UNL A   1      38.593  34.062  31.390  1.00  0.00     0.031 C 
ATOM     46  C   UNL A   1      37.741  30.071  28.441  1.00  0.00     0.029 A 
ATOM     47  N   UNL A   1      39.629  30.081  29.640  1.00  0.00    -0.354 N 
ATOM     48  C   UNL A   1      40.621  33.406  32.213  1.00  0.00     0.074 A 
ATOM     49  C   UNL A   1      39.631  34.454  32.113  1.00  0.00     0.031 C 
ATOM     50  C   UNL A   1      38.393  28.926  28.177  1.00  0.00     0.029 A 
ATOM     51  C   UNL A   1      39.636  28.899  28.939  1.00  0.00     0.049 A 
ATOM     52  H   UNL A   1      40.359  30.356  30.242  1.00  0.00     0.167 HD
ATOM     53  C   UNL A   1      41.723  33.476  32.996  1.00  0.00     0.031 A 
ATOM     54  C   UNL A   1      40.541  27.903  28.920  1.00  0.00     0.031 A 
ATOM     55  C   UNL A   1      42.707  32.431  33.097  1.00  0.00     0.049 A 
ATOM     56  C   UNL A   1      41.761  28.009  29.792  1.00  0.00     0.074 A 
ATOM     57  C   UNL A   1      43.833  32.380  33.900  1.00  0.00     0.029 A 
ATOM     58  N   UNL A   1      42.682  31.252  32.365  1.00  0.00    -0.354 N 
ATOM     59  N   UNL A   1      42.109  28.966  30.618  1.00  0.00    -0.248 NA
ATOM     60  C   UNL A   1      42.705  26.885  29.739  1.00  0.00     0.031 C 
ATOM     61  C   UNL A   1      44.521  31.197  33.610  1.00  0.00     0.029 A 
ATOM     62  C   UNL A   1      43.788  30.479  32.678  1.00  0.00     0.049 A 
ATOM     63  H   UNL A   1      41.982  31.003  31.720  1.00  0.00     0.167 HD
ATOM     64  C   UNL A   1      43.295  28.546  31.205  1.00  0.00     0.074 A 
ATOM     65  C   UNL A   1      43.593  27.237  30.658  1.00  0.00     0.031 C 
ATOM     66  C   UNL A   1      44.073  29.185  32.116  1.00  0.00     0.031 A 
BRANCH  53  67
ATOM     67  C   UNL A   1      41.923  34.732  33.799  1.00  0.00    -0.014 A 
ATOM     68  C   UNL A   1      41.399  34.861  35.097  1.00  0.00     0.009 A 
ATOM     69  C   UNL A   1      42.666  35.796  33.263  1.00  0.00     0.009 A 
ATOM     70  C   UNL A   1      41.579  36.040  35.821  1.00  0.00     0.001 A 
ATOM     71  C   UNL A   1      42.873  36.961  34.002  1.00  0.00     0.001 A 
ATOM     72  C   UNL A   1      42.321  37.088  35.276  1.00  0.00     0.000 A 
ENDBRANCH  53  67
BRANCH  54  73
ATOM     73  C   UNL A   1      40.317  26.707  28.067  1.00  0.00    -0.014 A 
ATOM     74  C   UNL A   1      39.559  25.624  28.538  1.00  0.00     0.009 A 
ATOM     75  C   UNL A   1      40.873  26.634  26.779  1.00  0.00     0.009 A 
ATOM     76  C   UNL A   1      39.392  24.480  27.753  1.00  0.00     0.001 A 
ATOM     77  C   UNL A   1      40.677  25.504  25.984  1.00  0.00     0.001 A 
ATOM     78  C   UNL A   1      39.948  24.423  26.476  1.00  0.00     0.000 A 
ENDBRANCH  54  73
BRANCH  66  79
ATOM     79  C   UNL A   1      45.298  28.456  32.597  1.00  0.00    -0.014 A 
ATOM     80  C   UNL A   1      45.258  27.611  33.716  1.00  0.00     0.009 A 
ATOM     81  C   UNL A   1      46.511  28.610  31.906  1.00  0.00     0.009 A 
ATOM     82  C   UNL A   1      46.418  26.976  34.165  1.00  0.00     0.001 A 
ATOM     83  C   UNL A   1      47.660  27.945  32.334  1.00  0.00     0.001 A 
ATOM     84  C   UNL A   1      47.616  27.140  33.472  1.00  0.00     0.000 A 
ENDBRANCH  66  79
ENDBRANCH  40  41
ENDBRANCH  32  35
ENDBRANCH  30  31
ENDBRANCH  29  30
ENDBRANCH   1  29
TORSDOF 16
ENDMDL
MODEL 3
REMARK VINA RESULT:     -11.1      3.638      8.823
REMARK SMILES CCCc1cc(OC(F)(F)F)cc2c1O[C@@H](C(F)(F)F)C(C(=O)NCCCCNC(=O)c1ccc(-c3c4nc(c(-c5ccccc5)c5ccc([nH]5)c(-c5ccccc5)c5nc(c(-c6ccccc6)c6ccc3[nH]6)C=C5)C=C4)cc1)=C2
REMARK SMILES IDX 26 1 25 2 24 3 22 4 23 5 21 7 4 8 5 9 14 10 6 11 13 12 15 13
REMARK SMILES IDX 12 14 80 15 16 16 3 17 2 18 1 19 7 20 8 21 9 22 10 23 11 24
REMARK SMILES IDX 17 25 18 26 19 27 20 28 27 29 28 30 29 31 30 32 31 34 32 35
REMARK SMILES IDX 33 36 79 37 34 38 78 39 35 40 36 41 37 42 72 43 38 44 77 45
REMARK SMILES IDX 71 46 73 47 39 48 76 49 70 50 69 51 40 53 62 54 47 55 61 56
REMARK SMILES IDX 48 57 51 58 60 59 74 60 49 61 50 62 59 64 75 65 52 66 41 67
REMARK SMILES IDX 42 68 46 69 43 70 45 71 44 72 63 73 64 74 68 75 65 76 67 77
REMARK SMILES IDX 66 78 53 79 54 80 58 81 55 82 57 83 56 84
REMARK H PARENT 24 6 29 33 73 52 51 63
REMARK Flexibility Score: inf
ROOT
ATOM      1  C   UNL A   1      31.191  30.968  25.454  1.00  0.00     0.023 C 
ENDROOT
BRANCH   1   2
ATOM      2  C   UNL A   1      31.973  29.659  25.290  1.00  0.00     0.116 C 
BRANCH   2   3
ATOM      3  N   UNL A   1      31.742  28.799  26.440  1.00  0.00    -0.352 N 
ATOM      4  C   UNL A   1      31.819  27.451  26.613  1.00  0.00     0.251 C 
ATOM      5  O   UNL A   1      31.378  26.985  27.659  1.00  0.00    -0.270 OA
ATOM      6  H   UNL A   1      31.476  29.289  27.251  1.00  0.00     0.163 HD
BRANCH   4   7
ATOM      7  C   UNL A   1      32.486  26.550  25.633  1.00  0.00     0.067 C 
ATOM      8  C   UNL A   1      33.977  23.481  23.166  1.00  0.00    -0.002 A 
ATOM      9  C   UNL A   1      35.234  22.936  23.497  1.00  0.00     0.054 A 
ATOM     10  C   UNL A   1      33.496  24.570  23.911  1.00  0.00     0.131 A 
ATOM     11  C   UNL A   1      36.047  23.519  24.465  1.00  0.00     0.130 A 
ATOM     12  C   UNL A   1      34.294  25.135  24.904  1.00  0.00     0.021 A 
ATOM     13  O   UNL A   1      32.215  24.985  23.692  1.00  0.00    -0.475 OA
ATOM     14  C   UNL A   1      35.571  24.622  25.164  1.00  0.00     0.058 A 
ATOM     15  C   UNL A   1      33.762  26.171  25.768  1.00  0.00     0.025 C 
ATOM     16  C   UNL A   1      31.708  26.172  24.377  1.00  0.00     0.314 C 
BRANCH   8  17
ATOM     17  C   UNL A   1      33.178  22.848  22.045  1.00  0.00     0.039 C 
BRANCH  17  18
ATOM     18  C   UNL A   1      32.269  21.686  22.482  1.00  0.00     0.001 C 
ATOM     19  C   UNL A   1      32.300  21.370  23.973  1.00  0.00     0.004 C 
ENDBRANCH  17  18
ENDBRANCH   8  17
BRANCH  11  20
ATOM     20  O   UNL A   1      37.287  23.092  24.841  1.00  0.00    -0.406 OA
BRANCH  20  21
ATOM     21  C   UNL A   1      37.377  21.795  25.412  1.00  0.00     0.573 C 
ATOM     22  F   UNL A   1      37.441  20.848  24.454  1.00  0.00    -0.132 F 
ATOM     23  F   UNL A   1      38.450  21.692  26.224  1.00  0.00    -0.132 F 
ATOM     24  F   UNL A   1      36.267  21.572  26.151  1.00  0.00    -0.132 F 
ENDBRANCH  20  21
ENDBRANCH  11  20
BRANCH  16  25
ATOM     25  C   UNL A   1      30.177  26.002  24.517  1.00  0.00     0.429 C 
ATOM     26  F   UNL A   1      29.507  27.171  24.412  1.00  0.00    -0.167 F 
ATOM     27  F   UNL A   1      29.685  25.218  23.518  1.00  0.00    -0.167 F 
ATOM     28  F   UNL A   1      29.826  25.413  25.683  1.00  0.00    -0.167 F 
ENDBRANCH  16  25
ENDBRANCH   4   7
ENDBRANCH   2   3
ENDBRANCH   1   2
BRANCH   1  29
ATOM     29  C   UNL A   1      31.371  31.636  26.819  1.00  0.00     0.023 C 
BRANCH  29  30
ATOM     30  C   UNL A   1      32.647  32.456  26.957  1.00  0.00     0.116 C 
BRANCH  30  31
ATOM     31  N   UNL A   1      32.401  33.813  27.416  1.00  0.00    -0.352 N 
ATOM     32  C   UNL A   1      33.095  34.543  28.349  1.00  0.00     0.251 C 
ATOM     33  H   UNL A   1      31.635  34.271  27.001  1.00  0.00     0.163 HD
ATOM     34  O   UNL A   1      32.674  35.632  28.717  1.00  0.00    -0.269 OA
BRANCH  32  35
ATOM     35  C   UNL A   1      34.335  33.987  28.930  1.00  0.00     0.039 A 
ATOM     36  C   UNL A   1      34.236  33.162  30.051  1.00  0.00     0.014 A 
ATOM     37  C   UNL A   1      35.583  34.276  28.373  1.00  0.00     0.014 A 
ATOM     38  C   UNL A   1      35.389  32.596  30.591  1.00  0.00     0.010 A 
ATOM     39  C   UNL A   1      36.721  33.641  28.857  1.00  0.00     0.010 A 
ATOM     40  C   UNL A   1      36.639  32.812  29.985  1.00  0.00    -0.014 A 
BRANCH  40  41
ATOM     41  C   UNL A   1      37.868  32.200  30.546  1.00  0.00     0.031 A 
ATOM     42  C   UNL A   1      38.409  30.923  29.966  1.00  0.00     0.074 A 
ATOM     43  C   UNL A   1      38.483  32.786  31.592  1.00  0.00     0.049 A 
ATOM     44  N   UNL A   1      39.485  30.256  30.302  1.00  0.00    -0.248 NA
ATOM     45  C   UNL A   1      37.631  30.297  28.884  1.00  0.00     0.031 C 
ATOM     46  C   UNL A   1      38.027  33.999  32.273  1.00  0.00     0.029 A 
ATOM     47  N   UNL A   1      39.632  32.442  32.257  1.00  0.00    -0.354 N 
ATOM     48  C   UNL A   1      39.505  29.134  29.482  1.00  0.00     0.074 A 
ATOM     49  C   UNL A   1      38.303  29.174  28.680  1.00  0.00     0.031 C 
ATOM     50  C   UNL A   1      38.914  34.324  33.229  1.00  0.00     0.029 A 
ATOM     51  C   UNL A   1      39.975  33.324  33.253  1.00  0.00     0.049 A 
ATOM     52  H   UNL A   1      40.161  31.639  32.041  1.00  0.00     0.167 HD
ATOM     53  C   UNL A   1      40.450  28.171  29.384  1.00  0.00     0.031 A 
ATOM     54  C   UNL A   1      41.032  33.329  34.086  1.00  0.00     0.031 A 
ATOM     55  C   UNL A   1      41.648  28.133  30.179  1.00  0.00     0.049 A 
ATOM     56  C   UNL A   1      42.064  32.242  33.963  1.00  0.00     0.074 A 
ATOM     57  C   UNL A   1      42.695  27.230  30.122  1.00  0.00     0.029 A 
ATOM     58  N   UNL A   1      41.956  29.041  31.182  1.00  0.00    -0.354 N 
ATOM     59  N   UNL A   1      42.108  31.232  33.127  1.00  0.00    -0.248 NA
ATOM     60  C   UNL A   1      43.201  32.308  34.890  1.00  0.00     0.031 C 
ATOM     61  C   UNL A   1      43.607  27.556  31.132  1.00  0.00     0.029 A 
ATOM     62  C   UNL A   1      43.163  28.703  31.770  1.00  0.00     0.049 A 
ATOM     63  H   UNL A   1      41.398  29.811  31.438  1.00  0.00     0.167 HD
ATOM     64  C   UNL A   1      43.291  30.561  33.407  1.00  0.00     0.074 A 
ATOM     65  C   UNL A   1      43.945  31.294  34.473  1.00  0.00     0.031 C 
ATOM     66  C   UNL A   1      43.794  29.437  32.837  1.00  0.00     0.031 A 
BRANCH  53  67
ATOM     67  C   UNL A   1      40.218  27.073  28.380  1.00  0.00    -0.014 A 
ATOM     68  C   UNL A   1      40.753  27.143  27.083  1.00  0.00     0.009 A 
ATOM     69  C   UNL A   1      39.474  25.939  28.744  1.00  0.00     0.009 A 
ATOM     70  C   UNL A   1      40.511  26.124  26.160  1.00  0.00     0.001 A 
ATOM     71  C   UNL A   1      39.264  24.905  27.830  1.00  0.00     0.001 A 
ATOM     72  C   UNL A   1      39.772  25.003  26.536  1.00  0.00     0.000 A 
ENDBRANCH  53  67
BRANCH  54  73
ATOM     73  C   UNL A   1      41.184  34.411  35.094  1.00  0.00    -0.014 A 
ATOM     74  C   UNL A   1      41.888  35.585  34.782  1.00  0.00     0.009 A 
ATOM     75  C   UNL A   1      40.639  34.271  36.380  1.00  0.00     0.009 A 
ATOM     76  C   UNL A   1      42.072  36.579  35.746  1.00  0.00     0.001 A 
ATOM     77  C   UNL A   1      40.795  35.281  37.332  1.00  0.00     0.001 A 
ATOM     78  C   UNL A   1      41.522  36.427  37.018  1.00  0.00     0.000 A 
ENDBRANCH  54  73
BRANCH  66  79
ATOM     79  C   UNL A   1      45.130  28.958  33.335  1.00  0.00    -0.014 A 
ATOM     80  C   UNL A   1      45.236  28.086  34.429  1.00  0.00     0.009 A 
ATOM     81  C   UNL A   1      46.302  29.379  32.686  1.00  0.00     0.009 A 
ATOM     82  C   UNL A   1      46.490  27.686  34.895  1.00  0.00     0.001 A 
ATOM     83  C   UNL A   1      47.552  28.948  33.130  1.00  0.00     0.001 A 
ATOM     84  C   UNL A   1      47.646  28.114  34.243  1.00  0.00     0.000 A 
ENDBRANCH  66  79
ENDBRANCH  40  41
ENDBRANCH  32  35
ENDBRANCH  30  31
ENDBRANCH  29  30
ENDBRANCH   1  29
TORSDOF 16
ENDMDL
