MODEL 1
REMARK VINA RESULT:     -10.5      0.000      0.000
REMARK SMILES CCN(C=O)[C@](C)(C(=O)NCCCCNC(=O)c1ccc(-c2c3nc(c(-c4ccccc4)c4ccc([nH]4)c(-c4ccccc4)c4nc(c(-c5ccccc5)c5ccc2[nH]5)C=C4)C=C3)cc1)c1cc(F)c(C)cc1F
REMARK SMILES IDX 12 1 11 2 10 3 8 4 9 5 6 7 7 8 3 9 2 10 1 11 4 12 5 13 66 14
REMARK SMILES IDX 67 15 73 16 68 17 72 18 74 19 69 20 70 21 71 22 13 23 14 24
REMARK SMILES IDX 15 25 16 26 17 28 18 29 19 30 65 31 20 32 64 33 21 34 22 35
REMARK SMILES IDX 23 36 58 37 24 38 63 39 57 40 59 41 25 42 62 43 56 44 55 45
REMARK SMILES IDX 26 47 48 48 33 49 47 50 34 51 37 52 46 53 60 54 35 55 36 56
REMARK SMILES IDX 45 58 61 59 38 60 27 61 28 62 32 63 29 64 31 65 30 66 49 67
REMARK SMILES IDX 50 68 54 69 51 70 53 71 52 72 39 73 40 74 44 75 41 76 43 77
REMARK SMILES IDX 42 78
REMARK H PARENT 10 6 15 27 59 46 37 57
REMARK Flexibility Score: inf
ROOT
ATOM      1  C   UNL A   1      36.661  22.025  23.997  1.00  0.00     0.023 C 
ENDROOT
BRANCH   1   2
ATOM      2  C   UNL A   1      36.340  23.391  24.592  1.00  0.00     0.116 C 
BRANCH   2   3
ATOM      3  N   UNL A   1      35.424  24.153  23.764  1.00  0.00    -0.354 N 
ATOM      4  C   UNL A   1      34.134  24.546  23.999  1.00  0.00     0.250 C 
ATOM      5  O   UNL A   1      33.771  25.544  23.363  1.00  0.00    -0.272 OA
ATOM      6  H   UNL A   1      35.788  24.429  22.892  1.00  0.00     0.163 HD
BRANCH   4   7
ATOM      7  C   UNL A   1      33.241  23.885  25.125  1.00  0.00     0.147 C 
ATOM      8  C   UNL A   1      34.095  23.679  26.411  1.00  0.00     0.051 C 
BRANCH   7   9
ATOM      9  N   UNL A   1      32.036  24.780  25.303  1.00  0.00    -0.327 N 
BRANCH   9  10
ATOM     10  C   UNL A   1      30.723  24.356  24.790  1.00  0.00     0.117 C 
ATOM     11  C   UNL A   1      30.308  25.095  23.524  1.00  0.00     0.027 C 
ENDBRANCH   9  10
BRANCH   9  12
ATOM     12  C   UNL A   1      32.059  25.903  26.113  1.00  0.00     0.341 C 
ATOM     13  O   UNL A   1      31.261  26.193  26.993  1.00  0.00    -0.279 OA
ENDBRANCH   9  12
ENDBRANCH   7   9
BRANCH   7  14
ATOM     14  C   UNL A   1      32.833  22.435  24.740  1.00  0.00     0.026 A 
ATOM     15  C   UNL A   1      32.908  21.368  25.655  1.00  0.00     0.049 A 
ATOM     16  C   UNL A   1      32.583  22.101  23.396  1.00  0.00     0.129 A 
ATOM     17  C   UNL A   1      32.756  20.047  25.229  1.00  0.00     0.126 A 
ATOM     18  C   UNL A   1      32.406  20.781  22.976  1.00  0.00     0.046 A 
ATOM     19  F   UNL A   1      32.604  23.050  22.449  1.00  0.00    -0.207 F 
ATOM     20  F   UNL A   1      32.906  19.062  26.125  1.00  0.00    -0.207 F 
ATOM     21  C   UNL A   1      32.505  19.733  23.893  1.00  0.00    -0.012 A 
ATOM     22  C   UNL A   1      32.457  18.305  23.446  1.00  0.00     0.047 C 
ENDBRANCH   7  14
ENDBRANCH   4   7
ENDBRANCH   2   3
ENDBRANCH   1   2
BRANCH   1  23
ATOM     23  C   UNL A   1      37.094  20.973  25.021  1.00  0.00     0.023 C 
BRANCH  23  24
ATOM     24  C   UNL A   1      38.461  21.204  25.656  1.00  0.00     0.116 C 
BRANCH  24  25
ATOM     25  N   UNL A   1      39.333  20.039  25.580  1.00  0.00    -0.352 N 
ATOM     26  C   UNL A   1      40.656  19.936  25.939  1.00  0.00     0.251 C 
ATOM     27  H   UNL A   1      38.921  19.218  25.224  1.00  0.00     0.163 HD
ATOM     28  O   UNL A   1      41.291  18.909  25.723  1.00  0.00    -0.269 OA
BRANCH  26  29
ATOM     29  C   UNL A   1      41.313  21.100  26.559  1.00  0.00     0.039 A 
ATOM     30  C   UNL A   1      41.906  22.062  25.738  1.00  0.00     0.014 A 
ATOM     31  C   UNL A   1      41.265  21.274  27.944  1.00  0.00     0.014 A 
ATOM     32  C   UNL A   1      42.379  23.248  26.301  1.00  0.00     0.010 A 
ATOM     33  C   UNL A   1      41.676  22.483  28.493  1.00  0.00     0.010 A 
ATOM     34  C   UNL A   1      42.225  23.485  27.676  1.00  0.00    -0.014 A 
BRANCH  34  35
ATOM     35  C   UNL A   1      42.624  24.769  28.301  1.00  0.00     0.031 A 
ATOM     36  C   UNL A   1      41.594  25.843  28.510  1.00  0.00     0.074 A 
ATOM     37  C   UNL A   1      43.920  25.014  28.577  1.00  0.00     0.049 A 
ATOM     38  N   UNL A   1      41.760  27.092  28.860  1.00  0.00    -0.248 NA
ATOM     39  C   UNL A   1      40.194  25.465  28.259  1.00  0.00     0.031 C 
ATOM     40  C   UNL A   1      45.022  24.066  28.403  1.00  0.00     0.029 A 
ATOM     41  N   UNL A   1      44.532  26.152  29.041  1.00  0.00    -0.354 N 
ATOM     42  C   UNL A   1      40.492  27.658  28.836  1.00  0.00     0.074 A 
ATOM     43  C   UNL A   1      39.573  26.626  28.408  1.00  0.00     0.031 C 
ATOM     44  C   UNL A   1      46.172  24.657  28.768  1.00  0.00     0.029 A 
ATOM     45  C   UNL A   1      45.896  26.038  29.152  1.00  0.00     0.049 A 
ATOM     46  H   UNL A   1      44.039  26.971  29.275  1.00  0.00     0.167 HD
ATOM     47  C   UNL A   1      40.124  28.921  29.153  1.00  0.00     0.031 A 
ATOM     48  C   UNL A   1      46.823  26.950  29.502  1.00  0.00     0.031 A 
ATOM     49  C   UNL A   1      41.033  29.940  29.602  1.00  0.00     0.049 A 
ATOM     50  C   UNL A   1      46.390  28.349  29.842  1.00  0.00     0.074 A 
ATOM     51  C   UNL A   1      40.749  31.238  29.989  1.00  0.00     0.029 A 
ATOM     52  N   UNL A   1      42.401  29.772  29.730  1.00  0.00    -0.354 N 
ATOM     53  N   UNL A   1      45.184  28.861  29.845  1.00  0.00    -0.248 NA
ATOM     54  C   UNL A   1      47.448  29.294  30.231  1.00  0.00     0.031 C 
ATOM     55  C   UNL A   1      41.954  31.867  30.321  1.00  0.00     0.029 A 
ATOM     56  C   UNL A   1      42.979  30.945  30.182  1.00  0.00     0.049 A 
ATOM     57  H   UNL A   1      42.891  28.942  29.529  1.00  0.00     0.167 HD
ATOM     58  C   UNL A   1      45.333  30.176  30.269  1.00  0.00     0.074 A 
ATOM     59  C   UNL A   1      46.745  30.382  30.515  1.00  0.00     0.031 C 
ATOM     60  C   UNL A   1      44.382  31.126  30.441  1.00  0.00     0.031 A 
BRANCH  47  61
ATOM     61  C   UNL A   1      38.670  29.269  29.012  1.00  0.00    -0.014 A 
ATOM     62  C   UNL A   1      38.141  29.705  27.787  1.00  0.00     0.009 A 
ATOM     63  C   UNL A   1      37.812  29.138  30.116  1.00  0.00     0.009 A 
ATOM     64  C   UNL A   1      36.790  30.040  27.680  1.00  0.00     0.001 A 
ATOM     65  C   UNL A   1      36.457  29.446  29.998  1.00  0.00     0.001 A 
ATOM     66  C   UNL A   1      35.948  29.906  28.784  1.00  0.00     0.000 A 
ENDBRANCH  47  61
BRANCH  48  67
ATOM     67  C   UNL A   1      48.259  26.570  29.558  1.00  0.00    -0.014 A 
ATOM     68  C   UNL A   1      49.084  26.762  28.439  1.00  0.00     0.009 A 
ATOM     69  C   UNL A   1      48.808  26.006  30.718  1.00  0.00     0.009 A 
ATOM     70  C   UNL A   1      50.424  26.373  28.473  1.00  0.00     0.001 A 
ATOM     71  C   UNL A   1      50.156  25.641  30.758  1.00  0.00     0.001 A 
ATOM     72  C   UNL A   1      50.961  25.817  29.634  1.00  0.00     0.000 A 
ENDBRANCH  48  67
BRANCH  60  73
ATOM     73  C   UNL A   1      44.824  32.456  30.977  1.00  0.00    -0.014 A 
ATOM     74  C   UNL A   1      44.903  32.700  32.355  1.00  0.00     0.009 A 
ATOM     75  C   UNL A   1      45.230  33.459  30.081  1.00  0.00     0.009 A 
ATOM     76  C   UNL A   1      45.364  33.930  32.827  1.00  0.00     0.001 A 
ATOM     77  C   UNL A   1      45.711  34.679  30.556  1.00  0.00     0.001 A 
ATOM     78  C   UNL A   1      45.772  34.916  31.928  1.00  0.00     0.000 A 
ENDBRANCH  60  73
ENDBRANCH  34  35
ENDBRANCH  26  29
ENDBRANCH  24  25
ENDBRANCH  23  24
ENDBRANCH   1  23
TORSDOF 15
ENDMDL
MODEL 2
REMARK VINA RESULT:     -10.5      1.566      6.653
REMARK SMILES CCN(C=O)[C@](C)(C(=O)NCCCCNC(=O)c1ccc(-c2c3nc(c(-c4ccccc4)c4ccc([nH]4)c(-c4ccccc4)c4nc(c(-c5ccccc5)c5ccc2[nH]5)C=C4)C=C3)cc1)c1cc(F)c(C)cc1F
REMARK SMILES IDX 12 1 11 2 10 3 8 4 9 5 6 7 7 8 3 9 2 10 1 11 4 12 5 13 66 14
REMARK SMILES IDX 67 15 73 16 68 17 72 18 74 19 69 20 70 21 71 22 13 23 14 24
REMARK SMILES IDX 15 25 16 26 17 28 18 29 19 30 65 31 20 32 64 33 21 34 22 35
REMARK SMILES IDX 23 36 58 37 24 38 63 39 57 40 59 41 25 42 62 43 56 44 55 45
REMARK SMILES IDX 26 47 48 48 33 49 47 50 34 51 37 52 46 53 60 54 35 55 36 56
REMARK SMILES IDX 45 58 61 59 38 60 27 61 28 62 32 63 29 64 31 65 30 66 49 67
REMARK SMILES IDX 50 68 54 69 51 70 53 71 52 72 39 73 40 74 44 75 41 76 43 77
REMARK SMILES IDX 42 78
REMARK H PARENT 10 6 15 27 59 46 37 57
REMARK Flexibility Score: inf
ROOT
ATOM      1  C   UNL A   1      36.453  20.821  25.353  1.00  0.00     0.023 C 
ENDROOT
BRANCH   1   2
ATOM      2  C   UNL A   1      36.543  22.261  25.842  1.00  0.00     0.116 C 
BRANCH   2   3
ATOM      3  N   UNL A   1      35.515  22.578  26.816  1.00  0.00    -0.354 N 
ATOM      4  C   UNL A   1      34.267  23.116  26.645  1.00  0.00     0.250 C 
ATOM      5  O   UNL A   1      33.458  22.845  27.543  1.00  0.00    -0.272 OA
ATOM      6  H   UNL A   1      35.754  22.376  27.750  1.00  0.00     0.163 HD
BRANCH   4   7
ATOM      7  C   UNL A   1      33.847  23.871  25.321  1.00  0.00     0.147 C 
ATOM      8  C   UNL A   1      35.122  24.240  24.507  1.00  0.00     0.051 C 
BRANCH   7   9
ATOM      9  N   UNL A   1      32.874  22.968  24.598  1.00  0.00    -0.327 N 
BRANCH   9  10
ATOM     10  C   UNL A   1      32.223  23.428  23.360  1.00  0.00     0.117 C 
ATOM     11  C   UNL A   1      32.979  23.025  22.100  1.00  0.00     0.027 C 
ENDBRANCH   9  10
BRANCH   9  12
ATOM     12  C   UNL A   1      32.713  21.633  24.930  1.00  0.00     0.341 C 
ATOM     13  O   UNL A   1      31.695  21.093  25.338  1.00  0.00    -0.279 OA
ENDBRANCH   9  12
ENDBRANCH   7   9
BRANCH   7  14
ATOM     14  C   UNL A   1      33.221  25.258  25.639  1.00  0.00     0.026 A 
ATOM     15  C   UNL A   1      33.965  26.450  25.565  1.00  0.00     0.049 A 
ATOM     16  C   UNL A   1      31.944  25.343  26.225  1.00  0.00     0.129 A 
ATOM     17  C   UNL A   1      33.452  27.647  26.069  1.00  0.00     0.126 A 
ATOM     18  C   UNL A   1      31.423  26.546  26.707  1.00  0.00     0.046 A 
ATOM     19  F   UNL A   1      31.219  24.233  26.429  1.00  0.00    -0.207 F 
ATOM     20  F   UNL A   1      34.227  28.741  26.040  1.00  0.00    -0.207 F 
ATOM     21  C   UNL A   1      32.183  27.715  26.645  1.00  0.00    -0.012 A 
ATOM     22  C   UNL A   1      31.704  28.985  27.277  1.00  0.00     0.047 C 
ENDBRANCH   7  14
ENDBRANCH   4   7
ENDBRANCH   2   3
ENDBRANCH   1   2
BRANCH   1  23
ATOM     23  C   UNL A   1      37.784  20.223  24.891  1.00  0.00     0.023 C 
BRANCH  23  24
ATOM     24  C   UNL A   1      38.988  20.552  25.769  1.00  0.00     0.116 C 
BRANCH  24  25
ATOM     25  N   UNL A   1      39.977  19.484  25.811  1.00  0.00    -0.352 N 
ATOM     26  C   UNL A   1      41.307  19.562  26.150  1.00  0.00     0.251 C 
ATOM     27  H   UNL A   1      39.650  18.588  25.562  1.00  0.00     0.163 HD
ATOM     28  O   UNL A   1      42.045  18.588  26.042  1.00  0.00    -0.269 OA
BRANCH  26  29
ATOM     29  C   UNL A   1      41.843  20.854  26.615  1.00  0.00     0.039 A 
ATOM     30  C   UNL A   1      42.350  21.755  25.677  1.00  0.00     0.014 A 
ATOM     31  C   UNL A   1      41.764  21.197  27.967  1.00  0.00     0.014 A 
ATOM     32  C   UNL A   1      42.701  23.043  26.083  1.00  0.00     0.010 A 
ATOM     33  C   UNL A   1      42.052  22.499  28.356  1.00  0.00     0.010 A 
ATOM     34  C   UNL A   1      42.511  23.437  27.416  1.00  0.00    -0.014 A 
BRANCH  34  35
ATOM     35  C   UNL A   1      42.779  24.823  27.872  1.00  0.00     0.031 A 
ATOM     36  C   UNL A   1      44.166  25.206  28.305  1.00  0.00     0.074 A 
ATOM     37  C   UNL A   1      41.764  25.700  28.001  1.00  0.00     0.049 A 
ATOM     38  N   UNL A   1      44.574  26.293  28.907  1.00  0.00    -0.248 NA
ATOM     39  C   UNL A   1      45.227  24.218  28.054  1.00  0.00     0.031 C 
ATOM     40  C   UNL A   1      40.369  25.450  27.636  1.00  0.00     0.029 A 
ATOM     41  N   UNL A   1      41.752  26.978  28.503  1.00  0.00    -0.354 N 
ATOM     42  C   UNL A   1      45.930  26.104  29.140  1.00  0.00     0.074 A 
ATOM     43  C   UNL A   1      46.268  24.787  28.642  1.00  0.00     0.031 C 
ATOM     44  C   UNL A   1      39.639  26.543  27.914  1.00  0.00     0.029 A 
ATOM     45  C   UNL A   1      40.503  27.550  28.523  1.00  0.00     0.049 A 
ATOM     46  H   UNL A   1      42.561  27.442  28.818  1.00  0.00     0.167 HD
ATOM     47  C   UNL A   1      46.817  26.954  29.707  1.00  0.00     0.031 A 
ATOM     48  C   UNL A   1      40.095  28.743  28.997  1.00  0.00     0.031 A 
ATOM     49  C   UNL A   1      46.488  28.270  30.179  1.00  0.00     0.049 A 
ATOM     50  C   UNL A   1      41.099  29.667  29.631  1.00  0.00     0.074 A 
ATOM     51  C   UNL A   1      47.327  29.224  30.729  1.00  0.00     0.029 A 
ATOM     52  N   UNL A   1      45.217  28.821  30.149  1.00  0.00    -0.354 N 
ATOM     53  N   UNL A   1      42.384  29.487  29.816  1.00  0.00    -0.248 NA
ATOM     54  C   UNL A   1      40.594  30.960  30.116  1.00  0.00     0.031 C 
ATOM     55  C   UNL A   1      46.556  30.342  31.063  1.00  0.00     0.029 A 
ATOM     56  C   UNL A   1      45.246  30.099  30.680  1.00  0.00     0.049 A 
ATOM     57  H   UNL A   1      44.413  28.371  29.804  1.00  0.00     0.167 HD
ATOM     58  C   UNL A   1      42.847  30.656  30.406  1.00  0.00     0.074 A 
ATOM     59  C   UNL A   1      41.708  31.537  30.546  1.00  0.00     0.031 C 
ATOM     60  C   UNL A   1      44.107  30.970  30.793  1.00  0.00     0.031 A 
BRANCH  47  61
ATOM     61  C   UNL A   1      48.232  26.473  29.855  1.00  0.00    -0.014 A 
ATOM     62  C   UNL A   1      48.651  25.788  31.006  1.00  0.00     0.009 A 
ATOM     63  C   UNL A   1      49.153  26.688  28.817  1.00  0.00     0.009 A 
ATOM     64  C   UNL A   1      49.975  25.363  31.132  1.00  0.00     0.001 A 
ATOM     65  C   UNL A   1      50.468  26.237  28.935  1.00  0.00     0.001 A 
ATOM     66  C   UNL A   1      50.881  25.584  30.095  1.00  0.00     0.000 A 
ENDBRANCH  47  61
BRANCH  48  67
ATOM     67  C   UNL A   1      38.668  29.140  28.888  1.00  0.00    -0.014 A 
ATOM     68  C   UNL A   1      37.803  28.978  29.982  1.00  0.00     0.009 A 
ATOM     69  C   UNL A   1      38.159  29.670  27.694  1.00  0.00     0.009 A 
ATOM     70  C   UNL A   1      36.453  29.316  29.873  1.00  0.00     0.001 A 
ATOM     71  C   UNL A   1      36.813  30.031  27.596  1.00  0.00     0.001 A 
ATOM     72  C   UNL A   1      35.960  29.846  28.682  1.00  0.00     0.000 A 
ENDBRANCH  48  67
BRANCH  60  73
ATOM     73  C   UNL A   1      44.336  32.345  31.350  1.00  0.00    -0.014 A 
ATOM     74  C   UNL A   1      44.628  33.432  30.515  1.00  0.00     0.009 A 
ATOM     75  C   UNL A   1      44.192  32.562  32.730  1.00  0.00     0.009 A 
ATOM     76  C   UNL A   1      44.788  34.710  31.054  1.00  0.00     0.001 A 
ATOM     77  C   UNL A   1      44.331  33.843  33.263  1.00  0.00     0.001 A 
ATOM     78  C   UNL A   1      44.634  34.915  32.425  1.00  0.00     0.000 A 
ENDBRANCH  60  73
ENDBRANCH  34  35
ENDBRANCH  26  29
ENDBRANCH  24  25
ENDBRANCH  23  24
ENDBRANCH   1  23
TORSDOF 15
ENDMDL
MODEL 3
REMARK VINA RESULT:     -10.5      1.352      2.611
REMARK SMILES CCN(C=O)[C@](C)(C(=O)NCCCCNC(=O)c1ccc(-c2c3nc(c(-c4ccccc4)c4ccc([nH]4)c(-c4ccccc4)c4nc(c(-c5ccccc5)c5ccc2[nH]5)C=C4)C=C3)cc1)c1cc(F)c(C)cc1F
REMARK SMILES IDX 12 1 11 2 10 3 8 4 9 5 6 7 7 8 3 9 2 10 1 11 4 12 5 13 66 14
REMARK SMILES IDX 67 15 73 16 68 17 72 18 74 19 69 20 70 21 71 22 13 23 14 24
REMARK SMILES IDX 15 25 16 26 17 28 18 29 19 30 65 31 20 32 64 33 21 34 22 35
REMARK SMILES IDX 23 36 58 37 24 38 63 39 57 40 59 41 25 42 62 43 56 44 55 45
REMARK SMILES IDX 26 47 48 48 33 49 47 50 34 51 37 52 46 53 60 54 35 55 36 56
REMARK SMILES IDX 45 58 61 59 38 60 27 61 28 62 32 63 29 64 31 65 30 66 49 67
REMARK SMILES IDX 50 68 54 69 51 70 53 71 52 72 39 73 40 74 44 75 41 76 43 77
REMARK SMILES IDX 42 78
REMARK H PARENT 10 6 15 27 59 46 37 57
REMARK Flexibility Score: inf
ROOT
ATOM      1  C   UNL A   1      36.923  22.136  24.028  1.00  0.00     0.023 C 
ENDROOT
BRANCH   1   2
ATOM      2  C   UNL A   1      35.463  22.549  24.172  1.00  0.00     0.116 C 
BRANCH   2   3
ATOM      3  N   UNL A   1      35.319  23.938  24.564  1.00  0.00    -0.354 N 
ATOM      4  C   UNL A   1      34.192  24.687  24.776  1.00  0.00     0.250 C 
ATOM      5  O   UNL A   1      34.347  25.656  25.531  1.00  0.00    -0.272 OA
ATOM      6  H   UNL A   1      36.167  24.421  24.697  1.00  0.00     0.163 HD
BRANCH   4   7
ATOM      7  C   UNL A   1      32.771  24.244  24.241  1.00  0.00     0.147 C 
ATOM      8  C   UNL A   1      32.908  23.704  22.787  1.00  0.00     0.051 C 
BRANCH   7   9
ATOM      9  N   UNL A   1      32.224  23.248  25.237  1.00  0.00    -0.327 N 
BRANCH   9  10
ATOM     10  C   UNL A   1      31.747  21.934  24.778  1.00  0.00     0.117 C 
ATOM     11  C   UNL A   1      32.519  20.769  25.387  1.00  0.00     0.027 C 
ENDBRANCH   9  10
BRANCH   9  12
ATOM     12  C   UNL A   1      32.336  23.429  26.606  1.00  0.00     0.341 C 
ATOM     13  O   UNL A   1      31.449  23.756  27.381  1.00  0.00    -0.279 OA
ENDBRANCH   9  12
ENDBRANCH   7   9
BRANCH   7  14
ATOM     14  C   UNL A   1      31.827  25.469  24.072  1.00  0.00     0.026 A 
ATOM     15  C   UNL A   1      30.485  25.445  24.495  1.00  0.00     0.049 A 
ATOM     16  C   UNL A   1      32.225  26.568  23.288  1.00  0.00     0.129 A 
ATOM     17  C   UNL A   1      29.601  26.462  24.132  1.00  0.00     0.126 A 
ATOM     18  C   UNL A   1      31.344  27.597  22.946  1.00  0.00     0.046 A 
ATOM     19  F   UNL A   1      33.455  26.610  22.757  1.00  0.00    -0.207 F 
ATOM     20  F   UNL A   1      28.316  26.359  24.500  1.00  0.00    -0.207 F 
ATOM     21  C   UNL A   1      30.012  27.547  23.357  1.00  0.00    -0.012 A 
ATOM     22  C   UNL A   1      29.017  28.565  22.890  1.00  0.00     0.047 C 
ENDBRANCH   7  14
ENDBRANCH   4   7
ENDBRANCH   2   3
ENDBRANCH   1   2
BRANCH   1  23
ATOM     23  C   UNL A   1      37.352  20.988  24.945  1.00  0.00     0.023 C 
BRANCH  23  24
ATOM     24  C   UNL A   1      38.670  21.200  25.684  1.00  0.00     0.116 C 
BRANCH  24  25
ATOM     25  N   UNL A   1      39.551  20.042  25.626  1.00  0.00    -0.352 N 
ATOM     26  C   UNL A   1      40.877  19.958  25.981  1.00  0.00     0.251 C 
ATOM     27  H   UNL A   1      39.145  19.211  25.288  1.00  0.00     0.163 HD
ATOM     28  O   UNL A   1      41.521  18.933  25.783  1.00  0.00    -0.269 OA
BRANCH  26  29
ATOM     29  C   UNL A   1      41.526  21.141  26.575  1.00  0.00     0.039 A 
ATOM     30  C   UNL A   1      42.026  22.136  25.733  1.00  0.00     0.014 A 
ATOM     31  C   UNL A   1      41.561  21.295  27.964  1.00  0.00     0.014 A 
ATOM     32  C   UNL A   1      42.486  23.333  26.282  1.00  0.00     0.010 A 
ATOM     33  C   UNL A   1      41.959  22.512  28.503  1.00  0.00     0.010 A 
ATOM     34  C   UNL A   1      42.413  23.546  27.668  1.00  0.00    -0.014 A 
BRANCH  34  35
ATOM     35  C   UNL A   1      42.800  24.838  28.285  1.00  0.00     0.031 A 
ATOM     36  C   UNL A   1      41.756  25.895  28.507  1.00  0.00     0.074 A 
ATOM     37  C   UNL A   1      44.095  25.103  28.543  1.00  0.00     0.049 A 
ATOM     38  N   UNL A   1      41.907  27.148  28.853  1.00  0.00    -0.248 NA
ATOM     39  C   UNL A   1      40.358  25.495  28.276  1.00  0.00     0.031 C 
ATOM     40  C   UNL A   1      45.210  24.172  28.356  1.00  0.00     0.029 A 
ATOM     41  N   UNL A   1      44.695  26.252  28.997  1.00  0.00    -0.354 N 
ATOM     42  C   UNL A   1      40.630  27.693  28.845  1.00  0.00     0.074 A 
ATOM     43  C   UNL A   1      39.721  26.646  28.431  1.00  0.00     0.031 C 
ATOM     44  C   UNL A   1      46.355  24.782  28.703  1.00  0.00     0.029 A 
ATOM     45  C   UNL A   1      46.063  26.160  29.089  1.00  0.00     0.049 A 
ATOM     46  H   UNL A   1      44.193  27.064  29.236  1.00  0.00     0.167 HD
ATOM     47  C   UNL A   1      40.246  28.951  29.165  1.00  0.00     0.031 A 
ATOM     48  C   UNL A   1      46.980  27.087  29.425  1.00  0.00     0.031 A 
ATOM     49  C   UNL A   1      41.145  29.985  29.600  1.00  0.00     0.049 A 
ATOM     50  C   UNL A   1      46.530  28.480  29.769  1.00  0.00     0.074 A 
ATOM     51  C   UNL A   1      40.846  31.279  29.989  1.00  0.00     0.029 A 
ATOM     52  N   UNL A   1      42.517  29.839  29.710  1.00  0.00    -0.354 N 
ATOM     53  N   UNL A   1      45.315  28.973  29.788  1.00  0.00    -0.248 NA
ATOM     54  C   UNL A   1      47.577  29.442  30.141  1.00  0.00     0.031 C 
ATOM     55  C   UNL A   1      42.045  31.927  30.303  1.00  0.00     0.029 A 
ATOM     56  C   UNL A   1      43.083  31.022  30.152  1.00  0.00     0.049 A 
ATOM     57  H   UNL A   1      43.017  29.016  29.504  1.00  0.00     0.167 HD
ATOM     58  C   UNL A   1      45.450  30.290  30.207  1.00  0.00     0.074 A 
ATOM     59  C   UNL A   1      46.861  30.519  30.434  1.00  0.00     0.031 C 
ATOM     60  C   UNL A   1      44.486  31.225  30.391  1.00  0.00     0.031 A 
BRANCH  47  61
ATOM     61  C   UNL A   1      38.785  29.276  29.044  1.00  0.00    -0.014 A 
ATOM     62  C   UNL A   1      38.236  29.719  27.831  1.00  0.00     0.009 A 
ATOM     63  C   UNL A   1      37.941  29.115  30.155  1.00  0.00     0.009 A 
ATOM     64  C   UNL A   1      36.879  30.032  27.742  1.00  0.00     0.001 A 
ATOM     65  C   UNL A   1      36.579  29.401  30.055  1.00  0.00     0.001 A 
ATOM     66  C   UNL A   1      36.051  29.869  28.853  1.00  0.00     0.000 A 
ENDBRANCH  47  61
BRANCH  48  67
ATOM     67  C   UNL A   1      48.422  26.730  29.461  1.00  0.00    -0.014 A 
ATOM     68  C   UNL A   1      49.244  26.995  28.355  1.00  0.00     0.009 A 
ATOM     69  C   UNL A   1      48.981  26.114  30.590  1.00  0.00     0.009 A 
ATOM     70  C   UNL A   1      50.591  26.629  28.370  1.00  0.00     0.001 A 
ATOM     71  C   UNL A   1      50.335  25.772  30.612  1.00  0.00     0.001 A 
ATOM     72  C   UNL A   1      51.137  26.021  29.499  1.00  0.00     0.000 A 
ENDBRANCH  48  67
BRANCH  60  73
ATOM     73  C   UNL A   1      44.914  32.563  30.919  1.00  0.00    -0.014 A 
ATOM     74  C   UNL A   1      44.998  32.813  32.296  1.00  0.00     0.009 A 
ATOM     75  C   UNL A   1      45.302  33.567  30.017  1.00  0.00     0.009 A 
ATOM     76  C   UNL A   1      45.446  34.051  32.760  1.00  0.00     0.001 A 
ATOM     77  C   UNL A   1      45.770  34.796  30.483  1.00  0.00     0.001 A 
ATOM     78  C   UNL A   1      45.836  35.039  31.855  1.00  0.00     0.000 A 
ENDBRANCH  60  73
ENDBRANCH  34  35
ENDBRANCH  26  29
ENDBRANCH  24  25
ENDBRANCH  23  24
ENDBRANCH   1  23
TORSDOF 15
ENDMDL
