MODEL 1
REMARK VINA RESULT:     -10.2      0.000      0.000
REMARK SMILES O=C(NCCCCNC(=O)c1cc(Br)cnc1S)c1ccc(-c2c3nc(c(-c4ccccc4)c4ccc([nH]4)c(-c4ccccc4)c4nc(c(-c5ccccc5)c5ccc2[nH]5)C=C4)C=C3)cc1
REMARK SMILES IDX 5 1 4 2 3 3 1 4 2 5 19 7 20 8 66 9 21 10 65 11 22 12 23 13
REMARK SMILES IDX 24 14 59 15 25 16 64 17 58 18 60 19 26 20 63 21 57 22 56 23
REMARK SMILES IDX 27 25 49 26 34 27 48 28 35 29 38 30 47 31 61 32 36 33 37 34
REMARK SMILES IDX 46 36 62 37 39 38 28 39 29 40 33 41 30 42 32 43 31 44 50 45
REMARK SMILES IDX 51 46 55 47 52 48 54 49 53 50 40 51 41 52 45 53 42 54 44 55
REMARK SMILES IDX 43 56 6 57 7 58 8 59 9 60 10 62 11 63 12 64 17 65 13 66
REMARK SMILES IDX 16 67 14 68 15 69 18 70
REMARK H PARENT 3 6 60 24 38 35 8 61 18 71
REMARK Flexibility Score: inf
ROOT
ATOM      1  C   UNL A   1      33.472  28.581  27.301  1.00  0.00     0.023 C 
ENDROOT
BRANCH   1   2
ATOM      2  C   UNL A   1      33.905  29.956  26.800  1.00  0.00     0.116 C 
BRANCH   2   3
ATOM      3  N   UNL A   1      33.987  30.935  27.869  1.00  0.00    -0.352 N 
ATOM      4  O   UNL A   1      34.730  31.893  29.758  1.00  0.00    -0.269 OA
ATOM      5  C   UNL A   1      34.944  31.112  28.835  1.00  0.00     0.251 C 
ATOM      6  H   UNL A   1      33.238  31.572  27.905  1.00  0.00     0.163 HD
BRANCH   5   7
ATOM      7  C   UNL A   1      36.230  30.381  28.785  1.00  0.00     0.039 A 
ATOM      8  C   UNL A   1      36.699  29.772  29.955  1.00  0.00     0.014 A 
ATOM      9  C   UNL A   1      37.021  30.371  27.633  1.00  0.00     0.014 A 
ATOM     10  C   UNL A   1      37.948  29.144  29.968  1.00  0.00     0.010 A 
ATOM     11  C   UNL A   1      38.238  29.692  27.628  1.00  0.00     0.010 A 
ATOM     12  C   UNL A   1      38.728  29.100  28.803  1.00  0.00    -0.014 A 
BRANCH  12  13
ATOM     13  C   UNL A   1      40.102  28.537  28.809  1.00  0.00     0.031 A 
ATOM     14  C   UNL A   1      41.268  29.455  29.062  1.00  0.00     0.074 A 
ATOM     15  C   UNL A   1      40.315  27.234  28.546  1.00  0.00     0.049 A 
ATOM     16  N   UNL A   1      42.548  29.211  28.961  1.00  0.00    -0.248 NA
ATOM     17  C   UNL A   1      40.950  30.839  29.464  1.00  0.00     0.031 C 
ATOM     18  C   UNL A   1      39.273  26.238  28.300  1.00  0.00     0.029 A 
ATOM     19  N   UNL A   1      41.488  26.527  28.426  1.00  0.00    -0.354 N 
ATOM     20  C   UNL A   1      43.184  30.409  29.260  1.00  0.00     0.074 A 
ATOM     21  C   UNL A   1      42.154  31.390  29.513  1.00  0.00     0.031 C 
ATOM     22  C   UNL A   1      39.852  25.049  28.060  1.00  0.00     0.029 A 
ATOM     23  C   UNL A   1      41.305  25.209  28.085  1.00  0.00     0.049 A 
ATOM     24  H   UNL A   1      42.375  26.928  28.571  1.00  0.00     0.167 HD
ATOM     25  C   UNL A   1      44.511  30.663  29.333  1.00  0.00     0.031 A 
ATOM     26  C   UNL A   1      42.201  24.243  27.796  1.00  0.00     0.031 A 
ATOM     27  C   UNL A   1      45.533  29.676  29.123  1.00  0.00     0.049 A 
ATOM     28  C   UNL A   1      43.672  24.559  27.854  1.00  0.00     0.074 A 
ATOM     29  C   UNL A   1      46.904  29.835  29.222  1.00  0.00     0.029 A 
ATOM     30  N   UNL A   1      45.299  28.354  28.786  1.00  0.00    -0.354 N 
ATOM     31  N   UNL A   1      44.258  25.691  28.160  1.00  0.00    -0.248 NA
ATOM     32  C   UNL A   1      44.608  23.470  27.532  1.00  0.00     0.031 C 
ATOM     33  C   UNL A   1      47.504  28.620  28.891  1.00  0.00     0.029 A 
ATOM     34  C   UNL A   1      46.506  27.690  28.650  1.00  0.00     0.049 A 
ATOM     35  H   UNL A   1      44.411  27.948  28.662  1.00  0.00     0.167 HD
ATOM     36  C   UNL A   1      45.624  25.444  28.090  1.00  0.00     0.074 A 
ATOM     37  C   UNL A   1      45.784  24.054  27.725  1.00  0.00     0.031 C 
ATOM     38  C   UNL A   1      46.651  26.300  28.309  1.00  0.00     0.031 A 
BRANCH  25  39
ATOM     39  C   UNL A   1      44.957  32.057  29.668  1.00  0.00    -0.014 A 
ATOM     40  C   UNL A   1      45.034  32.457  31.012  1.00  0.00     0.009 A 
ATOM     41  C   UNL A   1      45.165  33.010  28.660  1.00  0.00     0.009 A 
ATOM     42  C   UNL A   1      45.285  33.789  31.340  1.00  0.00     0.001 A 
ATOM     43  C   UNL A   1      45.442  34.336  28.992  1.00  0.00     0.001 A 
ATOM     44  C   UNL A   1      45.489  34.728  30.330  1.00  0.00     0.000 A 
ENDBRANCH  25  39
BRANCH  26  45
ATOM     45  C   UNL A   1      41.724  22.888  27.412  1.00  0.00    -0.014 A 
ATOM     46  C   UNL A   1      41.748  21.834  28.341  1.00  0.00     0.009 A 
ATOM     47  C   UNL A   1      41.267  22.629  26.111  1.00  0.00     0.009 A 
ATOM     48  C   UNL A   1      41.343  20.549  27.970  1.00  0.00     0.001 A 
ATOM     49  C   UNL A   1      40.833  21.351  25.752  1.00  0.00     0.001 A 
ATOM     50  C   UNL A   1      40.879  20.310  26.679  1.00  0.00     0.000 A 
ENDBRANCH  26  45
BRANCH  38  51
ATOM     51  C   UNL A   1      48.057  25.784  28.192  1.00  0.00    -0.014 A 
ATOM     52  C   UNL A   1      48.794  25.516  29.357  1.00  0.00     0.009 A 
ATOM     53  C   UNL A   1      48.703  25.733  26.949  1.00  0.00     0.009 A 
ATOM     54  C   UNL A   1      50.160  25.242  29.283  1.00  0.00     0.001 A 
ATOM     55  C   UNL A   1      50.065  25.432  26.876  1.00  0.00     0.001 A 
ATOM     56  C   UNL A   1      50.794  25.201  28.043  1.00  0.00     0.000 A 
ENDBRANCH  38  51
ENDBRANCH  12  13
ENDBRANCH   5   7
ENDBRANCH   2   3
ENDBRANCH   1   2
BRANCH   1  57
ATOM     57  C   UNL A   1      31.975  28.278  27.197  1.00  0.00     0.023 C 
BRANCH  57  58
ATOM     58  C   UNL A   1      31.595  27.177  26.210  1.00  0.00     0.116 C 
BRANCH  58  59
ATOM     59  N   UNL A   1      31.156  25.959  26.873  1.00  0.00    -0.352 N 
ATOM     60  C   UNL A   1      31.547  24.665  26.646  1.00  0.00     0.254 C 
ATOM     61  H   UNL A   1      30.483  26.081  27.581  1.00  0.00     0.163 HD
ATOM     62  O   UNL A   1      31.026  23.737  27.254  1.00  0.00    -0.269 OA
BRANCH  60  63
ATOM     63  C   UNL A   1      32.575  24.380  25.640  1.00  0.00     0.072 A 
ATOM     64  C   UNL A   1      33.890  24.237  26.096  1.00  0.00     0.034 A 
ATOM     65  C   UNL A   1      32.301  24.264  24.277  1.00  0.00     0.106 A 
ATOM     66  C   UNL A   1      34.886  23.927  25.182  1.00  0.00     0.037 A 
ATOM     67  N   UNL A   1      33.272  23.941  23.384  1.00  0.00    -0.248 NA
ATOM     68  Br  UNL A   1      36.670  23.705  25.742  1.00  0.00    -0.049 Br
ATOM     69  C   UNL A   1      34.534  23.777  23.851  1.00  0.00     0.128 A 
BRANCH  65  70
ATOM     70  S   UNL A   1      30.699  24.514  23.537  1.00  0.00    -0.123 SA
ATOM     71  H   UNL A   1      30.491  23.573  22.578  1.00  0.00     0.109 HD
ENDBRANCH  65  70
ENDBRANCH  60  63
ENDBRANCH  58  59
ENDBRANCH  57  58
ENDBRANCH   1  57
TORSDOF 12
ENDMDL
MODEL 2
REMARK VINA RESULT:     -10.0      1.182      1.699
REMARK SMILES O=C(NCCCCNC(=O)c1cc(Br)cnc1S)c1ccc(-c2c3nc(c(-c4ccccc4)c4ccc([nH]4)c(-c4ccccc4)c4nc(c(-c5ccccc5)c5ccc2[nH]5)C=C4)C=C3)cc1
REMARK SMILES IDX 5 1 4 2 3 3 1 4 2 5 19 7 20 8 66 9 21 10 65 11 22 12 23 13
REMARK SMILES IDX 24 14 59 15 25 16 64 17 58 18 60 19 26 20 63 21 57 22 56 23
REMARK SMILES IDX 27 25 49 26 34 27 48 28 35 29 38 30 47 31 61 32 36 33 37 34
REMARK SMILES IDX 46 36 62 37 39 38 28 39 29 40 33 41 30 42 32 43 31 44 50 45
REMARK SMILES IDX 51 46 55 47 52 48 54 49 53 50 40 51 41 52 45 53 42 54 44 55
REMARK SMILES IDX 43 56 6 57 7 58 8 59 9 60 10 62 11 63 12 64 17 65 13 66
REMARK SMILES IDX 16 67 14 68 15 69 18 70
REMARK H PARENT 3 6 60 24 38 35 8 61 18 71
REMARK Flexibility Score: inf
ROOT
ATOM      1  C   UNL A   1      33.700  28.565  25.806  1.00  0.00     0.023 C 
ENDROOT
BRANCH   1   2
ATOM      2  C   UNL A   1      33.402  28.794  27.285  1.00  0.00     0.116 C 
BRANCH   2   3
ATOM      3  N   UNL A   1      33.523  30.189  27.666  1.00  0.00    -0.352 N 
ATOM      4  O   UNL A   1      34.383  32.003  28.671  1.00  0.00    -0.269 OA
ATOM      5  C   UNL A   1      34.557  30.854  28.275  1.00  0.00     0.251 C 
ATOM      6  H   UNL A   1      32.739  30.747  27.454  1.00  0.00     0.163 HD
BRANCH   5   7
ATOM      7  C   UNL A   1      35.878  30.213  28.460  1.00  0.00     0.039 A 
ATOM      8  C   UNL A   1      36.192  29.681  29.716  1.00  0.00     0.014 A 
ATOM      9  C   UNL A   1      36.840  30.216  27.447  1.00  0.00     0.014 A 
ATOM     10  C   UNL A   1      37.461  29.143  29.952  1.00  0.00     0.010 A 
ATOM     11  C   UNL A   1      38.083  29.624  27.663  1.00  0.00     0.010 A 
ATOM     12  C   UNL A   1      38.417  29.111  28.927  1.00  0.00    -0.014 A 
BRANCH  12  13
ATOM     13  C   UNL A   1      39.805  28.646  29.173  1.00  0.00     0.031 A 
ATOM     14  C   UNL A   1      40.802  29.601  29.773  1.00  0.00     0.074 A 
ATOM     15  C   UNL A   1      40.189  27.403  28.825  1.00  0.00     0.049 A 
ATOM     16  N   UNL A   1      42.092  29.458  29.930  1.00  0.00    -0.248 NA
ATOM     17  C   UNL A   1      40.280  30.899  30.241  1.00  0.00     0.031 C 
ATOM     18  C   UNL A   1      39.318  26.377  28.252  1.00  0.00     0.029 A 
ATOM     19  N   UNL A   1      41.421  26.797  28.890  1.00  0.00    -0.354 N 
ATOM     20  C   UNL A   1      42.537  30.650  30.488  1.00  0.00     0.074 A 
ATOM     21  C   UNL A   1      41.391  31.520  30.613  1.00  0.00     0.031 C 
ATOM     22  C   UNL A   1      40.043  25.269  28.018  1.00  0.00     0.029 A 
ATOM     23  C   UNL A   1      41.437  25.522  28.377  1.00  0.00     0.049 A 
ATOM     24  H   UNL A   1      42.217  27.235  29.268  1.00  0.00     0.167 HD
ATOM     25  C   UNL A   1      43.790  30.981  30.876  1.00  0.00     0.031 A 
ATOM     26  C   UNL A   1      42.459  24.663  28.190  1.00  0.00     0.031 A 
ATOM     27  C   UNL A   1      44.921  30.100  30.790  1.00  0.00     0.049 A 
ATOM     28  C   UNL A   1      43.850  25.068  28.603  1.00  0.00     0.074 A 
ATOM     29  C   UNL A   1      46.219  30.337  31.204  1.00  0.00     0.029 A 
ATOM     30  N   UNL A   1      44.886  28.817  30.270  1.00  0.00    -0.354 N 
ATOM     31  N   UNL A   1      44.251  26.189  29.149  1.00  0.00    -0.248 NA
ATOM     32  C   UNL A   1      44.929  24.092  28.378  1.00  0.00     0.031 C 
ATOM     33  C   UNL A   1      46.986  29.216  30.884  1.00  0.00     0.029 A 
ATOM     34  C   UNL A   1      46.150  28.258  30.332  1.00  0.00     0.049 A 
ATOM     35  H   UNL A   1      44.086  28.371  29.912  1.00  0.00     0.167 HD
ATOM     36  C   UNL A   1      45.618  26.045  29.355  1.00  0.00     0.074 A 
ATOM     37  C   UNL A   1      45.979  24.726  28.886  1.00  0.00     0.031 C 
ATOM     38  C   UNL A   1      46.492  26.934  29.883  1.00  0.00     0.031 A 
BRANCH  25  39
ATOM     39  C   UNL A   1      44.024  32.350  31.448  1.00  0.00    -0.014 A 
ATOM     40  C   UNL A   1      44.412  33.399  30.600  1.00  0.00     0.009 A 
ATOM     41  C   UNL A   1      43.997  32.567  32.833  1.00  0.00     0.009 A 
ATOM     42  C   UNL A   1      44.793  34.633  31.129  1.00  0.00     0.001 A 
ATOM     43  C   UNL A   1      44.354  33.810  33.358  1.00  0.00     0.001 A 
ATOM     44  C   UNL A   1      44.764  34.837  32.507  1.00  0.00     0.000 A 
ENDBRANCH  25  39
BRANCH  26  45
ATOM     45  C   UNL A   1      42.201  23.337  27.567  1.00  0.00    -0.014 A 
ATOM     46  C   UNL A   1      42.443  23.133  26.199  1.00  0.00     0.009 A 
ATOM     47  C   UNL A   1      41.686  22.275  28.326  1.00  0.00     0.009 A 
ATOM     48  C   UNL A   1      42.159  21.903  25.600  1.00  0.00     0.001 A 
ATOM     49  C   UNL A   1      41.432  21.037  27.732  1.00  0.00     0.001 A 
ATOM     50  C   UNL A   1      41.660  20.854  26.369  1.00  0.00     0.000 A 
ENDBRANCH  26  45
BRANCH  38  51
ATOM     51  C   UNL A   1      47.933  26.533  30.023  1.00  0.00    -0.014 A 
ATOM     52  C   UNL A   1      48.795  26.658  28.921  1.00  0.00     0.009 A 
ATOM     53  C   UNL A   1      48.387  25.874  31.174  1.00  0.00     0.009 A 
ATOM     54  C   UNL A   1      50.073  26.099  28.956  1.00  0.00     0.001 A 
ATOM     55  C   UNL A   1      49.677  25.340  31.215  1.00  0.00     0.001 A 
ATOM     56  C   UNL A   1      50.512  25.440  30.103  1.00  0.00     0.000 A 
ENDBRANCH  38  51
ENDBRANCH  12  13
ENDBRANCH   5   7
ENDBRANCH   2   3
ENDBRANCH   1   2
BRANCH   1  57
ATOM     57  C   UNL A   1      32.477  28.397  24.900  1.00  0.00     0.023 C 
BRANCH  57  58
ATOM     58  C   UNL A   1      32.094  26.955  24.577  1.00  0.00     0.116 C 
BRANCH  58  59
ATOM     59  N   UNL A   1      31.642  26.220  25.748  1.00  0.00    -0.352 N 
ATOM     60  C   UNL A   1      32.027  24.980  26.188  1.00  0.00     0.254 C 
ATOM     61  H   UNL A   1      30.967  26.676  26.300  1.00  0.00     0.163 HD
ATOM     62  O   UNL A   1      31.496  24.471  27.169  1.00  0.00    -0.269 OA
BRANCH  60  63
ATOM     63  C   UNL A   1      33.059  24.236  25.460  1.00  0.00     0.072 A 
ATOM     64  C   UNL A   1      34.372  24.341  25.931  1.00  0.00     0.034 A 
ATOM     65  C   UNL A   1      32.789  23.457  24.334  1.00  0.00     0.106 A 
ATOM     66  C   UNL A   1      35.371  23.620  25.295  1.00  0.00     0.037 A 
ATOM     67  N   UNL A   1      33.764  22.735  23.723  1.00  0.00    -0.248 NA
ATOM     68  Br  UNL A   1      37.153  23.709  25.897  1.00  0.00    -0.049 Br
ATOM     69  C   UNL A   1      35.025  22.828  24.213  1.00  0.00     0.128 A 
BRANCH  65  70
ATOM     70  S   UNL A   1      31.190  23.303  23.563  1.00  0.00    -0.123 SA
ATOM     71  H   UNL A   1      30.581  22.171  24.006  1.00  0.00     0.109 HD
ENDBRANCH  65  70
ENDBRANCH  60  63
ENDBRANCH  58  59
ENDBRANCH  57  58
ENDBRANCH   1  57
TORSDOF 12
ENDMDL
MODEL 3
REMARK VINA RESULT:     -10.0      2.377      7.761
REMARK SMILES O=C(NCCCCNC(=O)c1cc(Br)cnc1S)c1ccc(-c2c3nc(c(-c4ccccc4)c4ccc([nH]4)c(-c4ccccc4)c4nc(c(-c5ccccc5)c5ccc2[nH]5)C=C4)C=C3)cc1
REMARK SMILES IDX 5 1 4 2 3 3 1 4 2 5 19 7 20 8 66 9 21 10 65 11 22 12 23 13
REMARK SMILES IDX 24 14 59 15 25 16 64 17 58 18 60 19 26 20 63 21 57 22 56 23
REMARK SMILES IDX 27 25 49 26 34 27 48 28 35 29 38 30 47 31 61 32 36 33 37 34
REMARK SMILES IDX 46 36 62 37 39 38 28 39 29 40 33 41 30 42 32 43 31 44 50 45
REMARK SMILES IDX 51 46 55 47 52 48 54 49 53 50 40 51 41 52 45 53 42 54 44 55
REMARK SMILES IDX 43 56 6 57 7 58 8 59 9 60 10 62 11 63 12 64 17 65 13 66
REMARK SMILES IDX 16 67 14 68 15 69 18 70
REMARK H PARENT 3 6 60 24 38 35 8 61 18 71
REMARK Flexibility Score: inf
ROOT
ATOM      1  C   UNL A   1      37.863  20.030  24.745  1.00  0.00     0.023 C 
ENDROOT
BRANCH   1   2
ATOM      2  C   UNL A   1      38.939  20.360  25.776  1.00  0.00     0.116 C 
BRANCH   2   3
ATOM      3  N   UNL A   1      39.996  19.366  25.813  1.00  0.00    -0.352 N 
ATOM      4  O   UNL A   1      42.090  18.559  25.863  1.00  0.00    -0.269 OA
ATOM      5  C   UNL A   1      41.338  19.510  26.058  1.00  0.00     0.251 C 
ATOM      6  H   UNL A   1      39.704  18.443  25.634  1.00  0.00     0.163 HD
BRANCH   5   7
ATOM      7  C   UNL A   1      41.895  20.788  26.553  1.00  0.00     0.039 A 
ATOM      8  C   UNL A   1      41.913  21.019  27.934  1.00  0.00     0.014 A 
ATOM      9  C   UNL A   1      42.307  21.795  25.676  1.00  0.00     0.014 A 
ATOM     10  C   UNL A   1      42.354  22.248  28.434  1.00  0.00     0.010 A 
ATOM     11  C   UNL A   1      42.804  22.997  26.177  1.00  0.00     0.010 A 
ATOM     12  C   UNL A   1      42.803  23.247  27.559  1.00  0.00    -0.014 A 
BRANCH  12  13
ATOM     13  C   UNL A   1      43.176  24.598  28.047  1.00  0.00     0.031 A 
ATOM     14  C   UNL A   1      42.090  25.609  28.306  1.00  0.00     0.074 A 
ATOM     15  C   UNL A   1      44.467  24.940  28.216  1.00  0.00     0.049 A 
ATOM     16  N   UNL A   1      42.196  26.882  28.585  1.00  0.00    -0.248 NA
ATOM     17  C   UNL A   1      40.699  25.127  28.220  1.00  0.00     0.031 C 
ATOM     18  C   UNL A   1      45.611  24.050  28.016  1.00  0.00     0.029 A 
ATOM     19  N   UNL A   1      45.035  26.137  28.580  1.00  0.00    -0.354 N 
ATOM     20  C   UNL A   1      40.894  27.355  28.681  1.00  0.00     0.074 A 
ATOM     21  C   UNL A   1      40.012  26.246  28.399  1.00  0.00     0.031 C 
ATOM     22  C   UNL A   1      46.743  24.732  28.261  1.00  0.00     0.029 A 
ATOM     23  C   UNL A   1      46.409  26.117  28.585  1.00  0.00     0.049 A 
ATOM     24  H   UNL A   1      44.507  26.934  28.815  1.00  0.00     0.167 HD
ATOM     25  C   UNL A   1      40.473  28.602  28.994  1.00  0.00     0.031 A 
ATOM     26  C   UNL A   1      47.301  27.107  28.798  1.00  0.00     0.031 A 
ATOM     27  C   UNL A   1      41.350  29.693  29.316  1.00  0.00     0.049 A 
ATOM     28  C   UNL A   1      46.806  28.493  29.115  1.00  0.00     0.074 A 
ATOM     29  C   UNL A   1      41.007  30.980  29.691  1.00  0.00     0.029 A 
ATOM     30  N   UNL A   1      42.732  29.623  29.315  1.00  0.00    -0.354 N 
ATOM     31  N   UNL A   1      45.572  28.920  29.224  1.00  0.00    -0.248 NA
ATOM     32  C   UNL A   1      47.821  29.535  29.341  1.00  0.00     0.031 C 
ATOM     33  C   UNL A   1      42.184  31.707  29.863  1.00  0.00     0.029 A 
ATOM     34  C   UNL A   1      43.259  30.855  29.660  1.00  0.00     0.049 A 
ATOM     35  H   UNL A   1      43.260  28.821  29.100  1.00  0.00     0.167 HD
ATOM     36  C   UNL A   1      45.662  30.267  29.553  1.00  0.00     0.074 A 
ATOM     37  C   UNL A   1      47.070  30.588  29.638  1.00  0.00     0.031 C 
ATOM     38  C   UNL A   1      44.662  31.155  29.763  1.00  0.00     0.031 A 
BRANCH  25  39
ATOM     39  C   UNL A   1      38.996  28.872  29.025  1.00  0.00    -0.014 A 
ATOM     40  C   UNL A   1      38.363  29.397  27.886  1.00  0.00     0.009 A 
ATOM     41  C   UNL A   1      38.262  28.741  30.212  1.00  0.00     0.009 A 
ATOM     42  C   UNL A   1      37.031  29.808  27.943  1.00  0.00     0.001 A 
ATOM     43  C   UNL A   1      36.923  29.129  30.259  1.00  0.00     0.001 A 
ATOM     44  C   UNL A   1      36.312  29.674  29.129  1.00  0.00     0.000 A 
ENDBRANCH  25  39
BRANCH  26  45
ATOM     45  C   UNL A   1      48.757  26.816  28.704  1.00  0.00    -0.014 A 
ATOM     46  C   UNL A   1      49.493  26.482  29.853  1.00  0.00     0.009 A 
ATOM     47  C   UNL A   1      49.427  26.896  27.474  1.00  0.00     0.009 A 
ATOM     48  C   UNL A   1      50.869  26.254  29.775  1.00  0.00     0.001 A 
ATOM     49  C   UNL A   1      50.797  26.636  27.394  1.00  0.00     0.001 A 
ATOM     50  C   UNL A   1      51.519  26.324  28.545  1.00  0.00     0.000 A 
ENDBRANCH  26  45
BRANCH  38  51
ATOM     51  C   UNL A   1      45.018  32.568  30.133  1.00  0.00    -0.014 A 
ATOM     52  C   UNL A   1      45.032  32.945  31.486  1.00  0.00     0.009 A 
ATOM     53  C   UNL A   1      45.163  33.553  29.147  1.00  0.00     0.009 A 
ATOM     54  C   UNL A   1      45.148  34.289  31.844  1.00  0.00     0.001 A 
ATOM     55  C   UNL A   1      45.306  34.894  29.510  1.00  0.00     0.001 A 
ATOM     56  C   UNL A   1      45.284  35.262  30.855  1.00  0.00     0.000 A 
ENDBRANCH  38  51
ENDBRANCH  12  13
ENDBRANCH   5   7
ENDBRANCH   2   3
ENDBRANCH   1   2
BRANCH   1  57
ATOM     57  C   UNL A   1      36.444  20.483  25.100  1.00  0.00     0.023 C 
BRANCH  57  58
ATOM     58  C   UNL A   1      36.342  21.842  25.787  1.00  0.00     0.116 C 
BRANCH  58  59
ATOM     59  N   UNL A   1      35.438  21.826  26.927  1.00  0.00    -0.352 N 
ATOM     60  C   UNL A   1      34.210  22.420  27.061  1.00  0.00     0.254 C 
ATOM     61  H   UNL A   1      35.753  21.319  27.710  1.00  0.00     0.163 HD
ATOM     62  O   UNL A   1      33.599  22.363  28.122  1.00  0.00    -0.269 OA
BRANCH  60  63
ATOM     63  C   UNL A   1      33.633  23.163  25.937  1.00  0.00     0.072 A 
ATOM     64  C   UNL A   1      33.854  24.545  25.907  1.00  0.00     0.034 A 
ATOM     65  C   UNL A   1      32.878  22.563  24.929  1.00  0.00     0.106 A 
ATOM     66  C   UNL A   1      33.359  25.278  24.839  1.00  0.00     0.037 A 
ATOM     67  N   UNL A   1      32.411  23.277  23.873  1.00  0.00    -0.248 NA
ATOM     68  Br  UNL A   1      33.642  27.138  24.737  1.00  0.00    -0.049 Br
ATOM     69  C   UNL A   1      32.661  24.610  23.848  1.00  0.00     0.128 A 
BRANCH  65  70
ATOM     70  S   UNL A   1      32.433  20.837  24.882  1.00  0.00    -0.123 SA
ATOM     71  H   UNL A   1      32.103  20.490  23.610  1.00  0.00     0.109 HD
ENDBRANCH  65  70
ENDBRANCH  60  63
ENDBRANCH  58  59
ENDBRANCH  57  58
ENDBRANCH   1  57
TORSDOF 12
ENDMDL
