MODEL 1
REMARK VINA RESULT:     -10.9      0.000      0.000
REMARK SMILES O=C(C[C@H]1C[C@H]2CC[C@@H](C1)[N@H+]2[C@@H]1CCCSC1)NCCCCNC(=O)c1ccc(-c2c3nc(c(-c4ccccc4)c4ccc([nH]4)c(-c4ccccc4)c4nc(c(-c5ccccc5)c5ccc2[nH]5)C=C4)C=C3)cc1
REMARK SMILES IDX 20 1 19 2 18 3 1 4 2 5 3 7 4 8 5 9 10 10 6 11 9 12 7 13
REMARK SMILES IDX 11 14 8 15 12 17 13 18 17 19 14 20 16 21 15 22 21 23 22 24
REMARK SMILES IDX 23 25 24 26 25 28 26 29 27 30 73 31 28 32 72 33 29 34 30 35
REMARK SMILES IDX 31 36 66 37 32 38 71 39 65 40 67 41 33 42 70 43 64 44 63 45
REMARK SMILES IDX 34 47 56 48 41 49 55 50 42 51 45 52 54 53 68 54 43 55 44 56
REMARK SMILES IDX 53 58 69 59 46 60 35 61 36 62 40 63 37 64 39 65 38 66 57 67
REMARK SMILES IDX 58 68 62 69 59 70 61 71 60 72 47 73 48 74 52 75 49 76 51 77
REMARK SMILES IDX 50 78
REMARK H PARENT 18 6 11 16 23 27 67 46 45 57
REMARK Flexibility Score: inf
ROOT
ATOM      1  C   UNL A   1      34.583  34.663  28.881  1.00  0.00     0.023 C 
ENDROOT
BRANCH   1   2
ATOM      2  C   UNL A   1      34.462  33.170  29.189  1.00  0.00     0.116 C 
BRANCH   2   3
ATOM      3  N   UNL A   1      33.925  32.436  28.065  1.00  0.00    -0.356 N 
ATOM      4  O   UNL A   1      35.179  30.526  28.348  1.00  0.00    -0.275 OA
ATOM      5  C   UNL A   1      34.266  31.130  27.793  1.00  0.00     0.220 C 
ATOM      6  H   UNL A   1      33.289  32.890  27.466  1.00  0.00     0.163 HD
BRANCH   5   7
ATOM      7  C   UNL A   1      33.315  30.472  26.811  1.00  0.00     0.104 C 
BRANCH   7   8
ATOM      8  C   UNL A   1      33.148  28.955  27.062  1.00  0.00     0.010 C 
ATOM      9  C   UNL A   1      31.685  28.441  27.084  1.00  0.00     0.069 C 
ATOM     10  C   UNL A   1      34.075  28.147  26.114  1.00  0.00     0.069 C 
ATOM     11  C   UNL A   1      31.233  27.675  25.838  1.00  0.00     0.185 C 
ATOM     12  C   UNL A   1      33.362  27.341  25.011  1.00  0.00     0.185 C 
ATOM     13  C   UNL A   1      31.312  28.554  24.582  1.00  0.00     0.071 C 
ATOM     14  N   UNL A   1      32.174  26.636  25.467  1.00  0.00    -0.327 N 
ATOM     15  C   UNL A   1      32.700  28.283  23.998  1.00  0.00     0.071 C 
ATOM     16  H   UNL A   1      31.828  26.055  24.703  1.00  0.00     0.348 HD
BRANCH  14  17
ATOM     17  C   UNL A   1      32.221  25.365  26.198  1.00  0.00     0.194 C 
ATOM     18  C   UNL A   1      33.516  24.539  26.070  1.00  0.00     0.067 C 
ATOM     19  C   UNL A   1      30.948  24.560  25.841  1.00  0.00     0.134 C 
ATOM     20  C   UNL A   1      33.495  23.180  26.767  1.00  0.00     0.017 C 
ATOM     21  S   UNL A   1      30.786  22.966  26.699  1.00  0.00    -0.156 SA
ATOM     22  C   UNL A   1      32.395  22.276  26.245  1.00  0.00     0.070 C 
ENDBRANCH  14  17
ENDBRANCH   7   8
ENDBRANCH   5   7
ENDBRANCH   2   3
ENDBRANCH   1   2
BRANCH   1  23
ATOM     23  C   UNL A   1      33.276  35.469  28.954  1.00  0.00     0.023 C 
BRANCH  23  24
ATOM     24  C   UNL A   1      33.274  36.660  29.913  1.00  0.00     0.116 C 
BRANCH  24  25
ATOM     25  N   UNL A   1      32.381  36.447  31.040  1.00  0.00    -0.352 N 
ATOM     26  C   UNL A   1      32.484  35.609  32.123  1.00  0.00     0.251 C 
ATOM     27  H   UNL A   1      31.565  36.996  31.024  1.00  0.00     0.163 HD
ATOM     28  O   UNL A   1      31.496  35.431  32.832  1.00  0.00    -0.269 OA
BRANCH  26  29
ATOM     29  C   UNL A   1      33.746  34.906  32.455  1.00  0.00     0.039 A 
ATOM     30  C   UNL A   1      33.675  33.566  32.856  1.00  0.00     0.014 A 
ATOM     31  C   UNL A   1      34.981  35.558  32.465  1.00  0.00     0.014 A 
ATOM     32  C   UNL A   1      34.835  32.873  33.214  1.00  0.00     0.010 A 
ATOM     33  C   UNL A   1      36.149  34.849  32.765  1.00  0.00     0.010 A 
ATOM     34  C   UNL A   1      36.091  33.499  33.145  1.00  0.00    -0.014 A 
BRANCH  34  35
ATOM     35  C   UNL A   1      37.340  32.748  33.450  1.00  0.00     0.031 A 
ATOM     36  C   UNL A   1      38.102  33.003  34.724  1.00  0.00     0.074 A 
ATOM     37  C   UNL A   1      37.821  31.861  32.556  1.00  0.00     0.049 A 
ATOM     38  N   UNL A   1      39.234  32.479  35.127  1.00  0.00    -0.248 NA
ATOM     39  C   UNL A   1      37.529  33.984  35.657  1.00  0.00     0.031 C 
ATOM     40  C   UNL A   1      37.199  31.531  31.273  1.00  0.00     0.029 A 
ATOM     41  N   UNL A   1      38.950  31.081  32.588  1.00  0.00    -0.354 N 
ATOM     42  C   UNL A   1      39.513  33.075  36.351  1.00  0.00     0.074 A 
ATOM     43  C   UNL A   1      38.455  34.029  36.604  1.00  0.00     0.031 C 
ATOM     44  C   UNL A   1      37.943  30.605  30.648  1.00  0.00     0.029 A 
ATOM     45  C   UNL A   1      39.116  30.306  31.464  1.00  0.00     0.049 A 
ATOM     46  H   UNL A   1      39.582  31.077  33.343  1.00  0.00     0.167 HD
ATOM     47  C   UNL A   1      40.546  32.839  37.197  1.00  0.00     0.031 A 
ATOM     48  C   UNL A   1      40.105  29.459  31.119  1.00  0.00     0.031 A 
ATOM     49  C   UNL A   1      41.603  31.892  36.953  1.00  0.00     0.049 A 
ATOM     50  C   UNL A   1      41.258  29.242  32.059  1.00  0.00     0.074 A 
ATOM     51  C   UNL A   1      42.668  31.557  37.774  1.00  0.00     0.029 A 
ATOM     52  N   UNL A   1      41.734  31.133  35.801  1.00  0.00    -0.354 N 
ATOM     53  N   UNL A   1      41.473  29.770  33.238  1.00  0.00    -0.248 NA
ATOM     54  C   UNL A   1      42.299  28.301  31.622  1.00  0.00     0.031 C 
ATOM     55  C   UNL A   1      43.472  30.636  37.096  1.00  0.00     0.029 A 
ATOM     56  C   UNL A   1      42.875  30.349  35.879  1.00  0.00     0.049 A 
ATOM     57  H   UNL A   1      41.109  31.147  35.041  1.00  0.00     0.167 HD
ATOM     58  C   UNL A   1      42.658  29.206  33.696  1.00  0.00     0.074 A 
ATOM     59  C   UNL A   1      43.105  28.281  32.675  1.00  0.00     0.031 C 
ATOM     60  C   UNL A   1      43.314  29.433  34.860  1.00  0.00     0.031 A 
BRANCH  47  61
ATOM     61  C   UNL A   1      40.592  33.634  38.475  1.00  0.00    -0.014 A 
ATOM     62  C   UNL A   1      41.249  34.873  38.538  1.00  0.00     0.009 A 
ATOM     63  C   UNL A   1      39.927  33.162  39.618  1.00  0.00     0.009 A 
ATOM     64  C   UNL A   1      41.273  35.603  39.728  1.00  0.00     0.001 A 
ATOM     65  C   UNL A   1      39.926  33.908  40.798  1.00  0.00     0.001 A 
ATOM     66  C   UNL A   1      40.607  35.123  40.855  1.00  0.00     0.000 A 
ENDBRANCH  47  61
BRANCH  48  67
ATOM     67  C   UNL A   1      40.051  28.746  29.815  1.00  0.00    -0.014 A 
ATOM     68  C   UNL A   1      39.476  27.470  29.722  1.00  0.00     0.009 A 
ATOM     69  C   UNL A   1      40.587  29.334  28.659  1.00  0.00     0.009 A 
ATOM     70  C   UNL A   1      39.465  26.785  28.504  1.00  0.00     0.001 A 
ATOM     71  C   UNL A   1      40.547  28.661  27.437  1.00  0.00     0.001 A 
ATOM     72  C   UNL A   1      39.996  27.382  27.362  1.00  0.00     0.000 A 
ENDBRANCH  48  67
BRANCH  60  73
ATOM     73  C   UNL A   1      44.568  28.642  35.110  1.00  0.00    -0.014 A 
ATOM     74  C   UNL A   1      44.529  27.383  35.730  1.00  0.00     0.009 A 
ATOM     75  C   UNL A   1      45.806  29.151  34.685  1.00  0.00     0.009 A 
ATOM     76  C   UNL A   1      45.707  26.666  35.949  1.00  0.00     0.001 A 
ATOM     77  C   UNL A   1      46.978  28.419  34.879  1.00  0.00     0.001 A 
ATOM     78  C   UNL A   1      46.929  27.183  35.520  1.00  0.00     0.000 A 
ENDBRANCH  60  73
ENDBRANCH  34  35
ENDBRANCH  26  29
ENDBRANCH  24  25
ENDBRANCH  23  24
ENDBRANCH   1  23
TORSDOF 13
ENDMDL
MODEL 2
REMARK VINA RESULT:     -10.6      0.279      6.003
REMARK SMILES O=C(C[C@H]1C[C@H]2CC[C@@H](C1)[N@H+]2[C@@H]1CCCSC1)NCCCCNC(=O)c1ccc(-c2c3nc(c(-c4ccccc4)c4ccc([nH]4)c(-c4ccccc4)c4nc(c(-c5ccccc5)c5ccc2[nH]5)C=C4)C=C3)cc1
REMARK SMILES IDX 20 1 19 2 18 3 1 4 2 5 3 7 4 8 5 9 10 10 6 11 9 12 7 13
REMARK SMILES IDX 11 14 8 15 12 17 13 18 17 19 14 20 16 21 15 22 21 23 22 24
REMARK SMILES IDX 23 25 24 26 25 28 26 29 27 30 73 31 28 32 72 33 29 34 30 35
REMARK SMILES IDX 31 36 66 37 32 38 71 39 65 40 67 41 33 42 70 43 64 44 63 45
REMARK SMILES IDX 34 47 56 48 41 49 55 50 42 51 45 52 54 53 68 54 43 55 44 56
REMARK SMILES IDX 53 58 69 59 46 60 35 61 36 62 40 63 37 64 39 65 38 66 57 67
REMARK SMILES IDX 58 68 62 69 59 70 61 71 60 72 47 73 48 74 52 75 49 76 51 77
REMARK SMILES IDX 50 78
REMARK H PARENT 18 6 11 16 23 27 67 46 45 57
REMARK Flexibility Score: inf
ROOT
ATOM      1  C   UNL A   1      34.817  34.776  28.809  1.00  0.00     0.023 C 
ENDROOT
BRANCH   1   2
ATOM      2  C   UNL A   1      34.994  33.272  29.024  1.00  0.00     0.116 C 
BRANCH   2   3
ATOM      3  N   UNL A   1      34.344  32.505  27.985  1.00  0.00    -0.356 N 
ATOM      4  O   UNL A   1      35.215  30.453  28.559  1.00  0.00    -0.275 OA
ATOM      5  C   UNL A   1      34.439  31.134  27.897  1.00  0.00     0.220 C 
ATOM      6  H   UNL A   1      33.811  32.984  27.309  1.00  0.00     0.163 HD
BRANCH   5   7
ATOM      7  C   UNL A   1      33.395  30.537  26.973  1.00  0.00     0.104 C 
BRANCH   7   8
ATOM      8  C   UNL A   1      33.228  29.011  27.163  1.00  0.00     0.010 C 
ATOM      9  C   UNL A   1      31.764  28.509  27.263  1.00  0.00     0.069 C 
ATOM     10  C   UNL A   1      34.076  28.242  26.114  1.00  0.00     0.069 C 
ATOM     11  C   UNL A   1      31.217  27.808  26.018  1.00  0.00     0.185 C 
ATOM     12  C   UNL A   1      33.278  27.496  25.027  1.00  0.00     0.185 C 
ATOM     13  C   UNL A   1      31.218  28.745  24.803  1.00  0.00     0.071 C 
ATOM     14  N   UNL A   1      32.117  26.780  25.533  1.00  0.00    -0.327 N 
ATOM     15  C   UNL A   1      32.557  28.491  24.109  1.00  0.00     0.071 C 
ATOM     16  H   UNL A   1      31.711  26.239  24.768  1.00  0.00     0.348 HD
BRANCH  14  17
ATOM     17  C   UNL A   1      32.200  25.475  26.197  1.00  0.00     0.194 C 
ATOM     18  C   UNL A   1      33.532  24.712  26.062  1.00  0.00     0.067 C 
ATOM     19  C   UNL A   1      30.972  24.637  25.764  1.00  0.00     0.134 C 
ATOM     20  C   UNL A   1      33.553  23.318  26.686  1.00  0.00     0.017 C 
ATOM     21  S   UNL A   1      30.857  22.995  26.532  1.00  0.00    -0.156 SA
ATOM     22  C   UNL A   1      32.505  22.398  26.088  1.00  0.00     0.070 C 
ENDBRANCH  14  17
ENDBRANCH   7   8
ENDBRANCH   5   7
ENDBRANCH   2   3
ENDBRANCH   1   2
BRANCH   1  23
ATOM     23  C   UNL A   1      33.388  35.313  28.987  1.00  0.00     0.023 C 
BRANCH  23  24
ATOM     24  C   UNL A   1      33.239  36.545  29.879  1.00  0.00     0.116 C 
BRANCH  24  25
ATOM     25  N   UNL A   1      32.355  36.295  31.005  1.00  0.00    -0.352 N 
ATOM     26  C   UNL A   1      32.501  35.479  32.099  1.00  0.00     0.251 C 
ATOM     27  H   UNL A   1      31.508  36.796  30.979  1.00  0.00     0.163 HD
ATOM     28  O   UNL A   1      31.522  35.253  32.808  1.00  0.00    -0.269 OA
BRANCH  26  29
ATOM     29  C   UNL A   1      33.801  34.854  32.446  1.00  0.00     0.039 A 
ATOM     30  C   UNL A   1      33.805  33.519  32.867  1.00  0.00     0.014 A 
ATOM     31  C   UNL A   1      34.997  35.577  32.448  1.00  0.00     0.014 A 
ATOM     32  C   UNL A   1      35.002  32.899  33.239  1.00  0.00     0.010 A 
ATOM     33  C   UNL A   1      36.202  34.940  32.761  1.00  0.00     0.010 A 
ATOM     34  C   UNL A   1      36.220  33.595  33.162  1.00  0.00    -0.014 A 
BRANCH  34  35
ATOM     35  C   UNL A   1      37.509  32.922  33.481  1.00  0.00     0.031 A 
ATOM     36  C   UNL A   1      38.109  31.913  32.538  1.00  0.00     0.074 A 
ATOM     37  C   UNL A   1      38.126  33.184  34.651  1.00  0.00     0.049 A 
ATOM     38  N   UNL A   1      39.196  31.195  32.679  1.00  0.00    -0.248 NA
ATOM     39  C   UNL A   1      37.388  31.669  31.279  1.00  0.00     0.031 C 
ATOM     40  C   UNL A   1      37.648  34.120  35.670  1.00  0.00     0.029 A 
ATOM     41  N   UNL A   1      39.286  32.678  35.184  1.00  0.00    -0.354 N 
ATOM     42  C   UNL A   1      39.281  30.405  31.538  1.00  0.00     0.074 A 
ATOM     43  C   UNL A   1      38.114  30.703  30.735  1.00  0.00     0.031 C 
ATOM     44  C   UNL A   1      38.515  34.135  36.695  1.00  0.00     0.029 A 
ATOM     45  C   UNL A   1      39.586  33.181  36.428  1.00  0.00     0.049 A 
ATOM     46  H   UNL A   1      39.850  32.017  34.720  1.00  0.00     0.167 HD
ATOM     47  C   UNL A   1      40.247  29.525  31.181  1.00  0.00     0.031 A 
ATOM     48  C   UNL A   1      40.600  32.899  37.269  1.00  0.00     0.031 A 
ATOM     49  C   UNL A   1      41.410  29.223  31.975  1.00  0.00     0.049 A 
ATOM     50  C   UNL A   1      41.641  31.892  36.865  1.00  0.00     0.074 A 
ATOM     51  C   UNL A   1      42.464  28.375  31.673  1.00  0.00     0.029 A 
ATOM     52  N   UNL A   1      41.672  29.750  33.229  1.00  0.00    -0.354 N 
ATOM     53  N   UNL A   1      41.736  31.201  35.757  1.00  0.00    -0.248 NA
ATOM     54  C   UNL A   1      42.722  31.637  37.828  1.00  0.00     0.031 C 
ATOM     55  C   UNL A   1      43.334  28.349  32.767  1.00  0.00     0.029 A 
ATOM     56  C   UNL A   1      42.857  29.228  33.725  1.00  0.00     0.049 A 
ATOM     57  H   UNL A   1      41.101  30.401  33.698  1.00  0.00     0.167 HD
ATOM     58  C   UNL A   1      42.898  30.450  35.876  1.00  0.00     0.074 A 
ATOM     59  C   UNL A   1      43.484  30.785  37.157  1.00  0.00     0.031 C 
ATOM     60  C   UNL A   1      43.433  29.564  35.000  1.00  0.00     0.031 A 
BRANCH  47  61
ATOM     61  C   UNL A   1      40.083  28.808  29.868  1.00  0.00    -0.014 A 
ATOM     62  C   UNL A   1      40.527  29.381  28.666  1.00  0.00     0.009 A 
ATOM     63  C   UNL A   1      39.520  27.522  29.837  1.00  0.00     0.009 A 
ATOM     64  C   UNL A   1      40.377  28.699  27.457  1.00  0.00     0.001 A 
ATOM     65  C   UNL A   1      39.399  26.829  28.632  1.00  0.00     0.001 A 
ATOM     66  C   UNL A   1      39.818  27.422  27.442  1.00  0.00     0.000 A 
ENDBRANCH  47  61
BRANCH  48  67
ATOM     67  C   UNL A   1      40.684  33.583  38.587  1.00  0.00    -0.014 A 
ATOM     68  C   UNL A   1      41.407  34.777  38.727  1.00  0.00     0.009 A 
ATOM     69  C   UNL A   1      40.052  33.036  39.714  1.00  0.00     0.009 A 
ATOM     70  C   UNL A   1      41.519  35.394  39.975  1.00  0.00     0.001 A 
ATOM     71  C   UNL A   1      40.140  33.672  40.955  1.00  0.00     0.001 A 
ATOM     72  C   UNL A   1      40.882  34.845  41.086  1.00  0.00     0.000 A 
ENDBRANCH  48  67
BRANCH  60  73
ATOM     73  C   UNL A   1      44.737  28.920  35.380  1.00  0.00    -0.014 A 
ATOM     74  C   UNL A   1      45.968  29.517  35.065  1.00  0.00     0.009 A 
ATOM     75  C   UNL A   1      44.732  27.713  36.097  1.00  0.00     0.009 A 
ATOM     76  C   UNL A   1      47.167  28.900  35.431  1.00  0.00     0.001 A 
ATOM     77  C   UNL A   1      45.931  27.114  36.488  1.00  0.00     0.001 A 
ATOM     78  C   UNL A   1      47.146  27.702  36.146  1.00  0.00     0.000 A 
ENDBRANCH  60  73
ENDBRANCH  34  35
ENDBRANCH  26  29
ENDBRANCH  24  25
ENDBRANCH  23  24
ENDBRANCH   1  23
TORSDOF 13
ENDMDL
MODEL 3
REMARK VINA RESULT:     -10.5      6.975     12.355
REMARK SMILES O=C(C[C@H]1C[C@H]2CC[C@@H](C1)[N@H+]2[C@@H]1CCCSC1)NCCCCNC(=O)c1ccc(-c2c3nc(c(-c4ccccc4)c4ccc([nH]4)c(-c4ccccc4)c4nc(c(-c5ccccc5)c5ccc2[nH]5)C=C4)C=C3)cc1
REMARK SMILES IDX 20 1 19 2 18 3 1 4 2 5 3 7 4 8 5 9 10 10 6 11 9 12 7 13
REMARK SMILES IDX 11 14 8 15 12 17 13 18 17 19 14 20 16 21 15 22 21 23 22 24
REMARK SMILES IDX 23 25 24 26 25 28 26 29 27 30 73 31 28 32 72 33 29 34 30 35
REMARK SMILES IDX 31 36 66 37 32 38 71 39 65 40 67 41 33 42 70 43 64 44 63 45
REMARK SMILES IDX 34 47 56 48 41 49 55 50 42 51 45 52 54 53 68 54 43 55 44 56
REMARK SMILES IDX 53 58 69 59 46 60 35 61 36 62 40 63 37 64 39 65 38 66 57 67
REMARK SMILES IDX 58 68 62 69 59 70 61 71 60 72 47 73 48 74 52 75 49 76 51 77
REMARK SMILES IDX 50 78
REMARK H PARENT 18 6 11 16 23 27 67 46 45 57
REMARK Flexibility Score: inf
ROOT
ATOM      1  C   UNL A   1      42.127  20.407  26.900  1.00  0.00     0.023 C 
ENDROOT
BRANCH   1   2
ATOM      2  C   UNL A   1      41.399  21.607  26.291  1.00  0.00     0.116 C 
BRANCH   2   3
ATOM      3  N   UNL A   1      39.995  21.329  26.084  1.00  0.00    -0.356 N 
ATOM      4  O   UNL A   1      39.207  23.415  26.655  1.00  0.00    -0.275 OA
ATOM      5  C   UNL A   1      39.018  22.293  26.196  1.00  0.00     0.220 C 
ATOM      6  H   UNL A   1      39.726  20.410  25.853  1.00  0.00     0.163 HD
BRANCH   5   7
ATOM      7  C   UNL A   1      37.701  21.860  25.582  1.00  0.00     0.104 C 
BRANCH   7   8
ATOM      8  C   UNL A   1      36.940  23.027  24.910  1.00  0.00     0.010 C 
ATOM      9  C   UNL A   1      36.173  22.663  23.612  1.00  0.00     0.069 C 
ATOM     10  C   UNL A   1      36.069  23.774  25.956  1.00  0.00     0.069 C 
ATOM     11  C   UNL A   1      34.654  22.544  23.752  1.00  0.00     0.185 C 
ATOM     12  C   UNL A   1      34.545  23.604  25.800  1.00  0.00     0.185 C 
ATOM     13  C   UNL A   1      34.267  21.442  24.748  1.00  0.00     0.071 C 
ATOM     14  N   UNL A   1      34.078  23.692  24.424  1.00  0.00    -0.327 N 
ATOM     15  C   UNL A   1      34.132  22.156  26.094  1.00  0.00     0.071 C 
ATOM     16  H   UNL A   1      33.058  23.669  24.426  1.00  0.00     0.348 HD
BRANCH  14  17
ATOM     17  C   UNL A   1      33.887  24.964  23.718  1.00  0.00     0.194 C 
ATOM     18  C   UNL A   1      33.665  26.215  24.590  1.00  0.00     0.067 C 
ATOM     19  C   UNL A   1      32.780  24.759  22.654  1.00  0.00     0.134 C 
ATOM     20  C   UNL A   1      33.376  27.504  23.821  1.00  0.00     0.017 C 
ATOM     21  S   UNL A   1      32.434  26.213  21.621  1.00  0.00    -0.156 SA
ATOM     22  C   UNL A   1      32.136  27.398  22.954  1.00  0.00     0.070 C 
ENDBRANCH  14  17
ENDBRANCH   7   8
ENDBRANCH   5   7
ENDBRANCH   2   3
ENDBRANCH   1   2
BRANCH   1  23
ATOM     23  C   UNL A   1      42.377  19.224  25.951  1.00  0.00     0.023 C 
BRANCH  23  24
ATOM     24  C   UNL A   1      43.731  18.528  26.088  1.00  0.00     0.116 C 
BRANCH  24  25
ATOM     25  N   UNL A   1      44.439  18.465  24.821  1.00  0.00    -0.352 N 
ATOM     26  C   UNL A   1      44.924  19.462  24.012  1.00  0.00     0.251 C 
ATOM     27  H   UNL A   1      44.599  17.553  24.487  1.00  0.00     0.163 HD
ATOM     28  O   UNL A   1      45.287  19.178  22.872  1.00  0.00    -0.269 OA
BRANCH  26  29
ATOM     29  C   UNL A   1      45.012  20.870  24.467  1.00  0.00     0.039 A 
ATOM     30  C   UNL A   1      45.507  21.124  25.752  1.00  0.00     0.014 A 
ATOM     31  C   UNL A   1      44.540  21.933  23.692  1.00  0.00     0.014 A 
ATOM     32  C   UNL A   1      45.574  22.434  26.237  1.00  0.00     0.010 A 
ATOM     33  C   UNL A   1      44.663  23.248  24.153  1.00  0.00     0.010 A 
ATOM     34  C   UNL A   1      45.180  23.515  25.431  1.00  0.00    -0.014 A 
BRANCH  34  35
ATOM     35  C   UNL A   1      45.319  24.918  25.908  1.00  0.00     0.031 A 
ATOM     36  C   UNL A   1      46.654  25.615  25.881  1.00  0.00     0.074 A 
ATOM     37  C   UNL A   1      44.247  25.560  26.413  1.00  0.00     0.049 A 
ATOM     38  N   UNL A   1      46.968  26.815  26.304  1.00  0.00    -0.248 NA
ATOM     39  C   UNL A   1      47.786  24.861  25.321  1.00  0.00     0.031 C 
ATOM     40  C   UNL A   1      42.898  25.001  26.522  1.00  0.00     0.029 A 
ATOM     41  N   UNL A   1      44.125  26.823  26.940  1.00  0.00    -0.354 N 
ATOM     42  C   UNL A   1      48.331  26.954  26.074  1.00  0.00     0.074 A 
ATOM     43  C   UNL A   1      48.792  25.702  25.514  1.00  0.00     0.031 C 
ATOM     44  C   UNL A   1      42.083  25.920  27.062  1.00  0.00     0.029 A 
ATOM     45  C   UNL A   1      42.856  27.117  27.378  1.00  0.00     0.049 A 
ATOM     46  H   UNL A   1      44.876  27.457  26.998  1.00  0.00     0.167 HD
ATOM     47  C   UNL A   1      49.127  28.030  26.293  1.00  0.00     0.031 A 
ATOM     48  C   UNL A   1      42.367  28.220  27.979  1.00  0.00     0.031 A 
ATOM     49  C   UNL A   1      48.676  29.279  26.851  1.00  0.00     0.049 A 
ATOM     50  C   UNL A   1      43.278  29.386  28.244  1.00  0.00     0.074 A 
ATOM     51  C   UNL A   1      49.404  30.438  27.070  1.00  0.00     0.029 A 
ATOM     52  N   UNL A   1      47.385  29.532  27.286  1.00  0.00    -0.354 N 
ATOM     53  N   UNL A   1      44.551  29.521  27.964  1.00  0.00    -0.248 NA
ATOM     54  C   UNL A   1      42.678  30.558  28.897  1.00  0.00     0.031 C 
ATOM     55  C   UNL A   1      48.565  31.373  27.686  1.00  0.00     0.029 A 
ATOM     56  C   UNL A   1      47.300  30.819  27.793  1.00  0.00     0.049 A 
ATOM     57  H   UNL A   1      46.638  28.892  27.239  1.00  0.00     0.167 HD
ATOM     58  C   UNL A   1      44.897  30.800  28.383  1.00  0.00     0.074 A 
ATOM     59  C   UNL A   1      43.696  31.407  28.917  1.00  0.00     0.031 C 
ATOM     60  C   UNL A   1      46.103  31.416  28.325  1.00  0.00     0.031 A 
BRANCH  47  61
ATOM     61  C   UNL A   1      50.583  27.900  25.937  1.00  0.00    -0.014 A 
ATOM     62  C   UNL A   1      51.525  27.450  26.875  1.00  0.00     0.009 A 
ATOM     63  C   UNL A   1      51.013  28.186  24.631  1.00  0.00     0.009 A 
ATOM     64  C   UNL A   1      52.871  27.325  26.525  1.00  0.00     0.001 A 
ATOM     65  C   UNL A   1      52.353  28.032  24.274  1.00  0.00     0.001 A 
ATOM     66  C   UNL A   1      53.283  27.611  25.224  1.00  0.00     0.000 A 
ENDBRANCH  47  61
BRANCH  48  67
ATOM     67  C   UNL A   1      40.935  28.277  28.375  1.00  0.00    -0.014 A 
ATOM     68  C   UNL A   1      39.987  28.891  27.544  1.00  0.00     0.009 A 
ATOM     69  C   UNL A   1      40.512  27.727  29.596  1.00  0.00     0.009 A 
ATOM     70  C   UNL A   1      38.650  28.980  27.938  1.00  0.00     0.001 A 
ATOM     71  C   UNL A   1      39.169  27.789  29.974  1.00  0.00     0.001 A 
ATOM     72  C   UNL A   1      38.241  28.425  29.150  1.00  0.00     0.000 A 
ENDBRANCH  48  67
BRANCH  60  73
ATOM     73  C   UNL A   1      46.178  32.834  28.820  1.00  0.00    -0.014 A 
ATOM     74  C   UNL A   1      46.294  33.127  30.188  1.00  0.00     0.009 A 
ATOM     75  C   UNL A   1      46.167  33.892  27.898  1.00  0.00     0.009 A 
ATOM     76  C   UNL A   1      46.364  34.452  30.623  1.00  0.00     0.001 A 
ATOM     77  C   UNL A   1      46.268  35.214  28.334  1.00  0.00     0.001 A 
ATOM     78  C   UNL A   1      46.356  35.493  29.696  1.00  0.00     0.000 A 
ENDBRANCH  60  73
ENDBRANCH  34  35
ENDBRANCH  26  29
ENDBRANCH  24  25
ENDBRANCH  23  24
ENDBRANCH   1  23
TORSDOF 13
ENDMDL
