MODEL 1
REMARK VINA RESULT:     -11.6      0.000      0.000
REMARK SMILES O=C(NCCCCNC(=O)[C@@H]1C=C[C@@H]([NH+]2CC3(CCOCC3)C2)C1)c1ccc(-c2c3nc(c(-c4ccccc4)c4ccc([nH]4)c(-c4ccccc4)c4nc(c(-c5ccccc5)c5ccc2[nH]5)C=C4)C=C3)cc1
REMARK SMILES IDX 5 1 4 2 3 3 1 4 2 5 25 7 26 8 72 9 27 10 71 11 28 12 29 13
REMARK SMILES IDX 30 14 65 15 31 16 70 17 64 18 66 19 32 20 69 21 63 22 62 23
REMARK SMILES IDX 33 25 55 26 40 27 54 28 41 29 44 30 53 31 67 32 42 33 43 34
REMARK SMILES IDX 52 36 68 37 45 38 34 39 35 40 39 41 36 42 38 43 37 44 56 45
REMARK SMILES IDX 57 46 61 47 58 48 60 49 59 50 46 51 47 52 51 53 48 54 50 55
REMARK SMILES IDX 49 56 6 57 7 58 8 59 9 60 10 62 11 63 12 64 24 65 13 66
REMARK SMILES IDX 14 67 15 68 16 69 23 70 17 72 18 73 22 74 19 75 21 76 20 77
REMARK H PARENT 3 6 66 24 44 35 8 61 15 71
REMARK Flexibility Score: inf
ROOT
ATOM      1  C   UNL A   1      31.445  32.043  26.529  1.00  0.00     0.023 C 
ENDROOT
BRANCH   1   2
ATOM      2  C   UNL A   1      32.594  32.699  27.272  1.00  0.00     0.116 C 
BRANCH   2   3
ATOM      3  N   UNL A   1      32.297  34.069  27.659  1.00  0.00    -0.352 N 
ATOM      4  O   UNL A   1      32.543  35.947  28.890  1.00  0.00    -0.269 OA
ATOM      5  C   UNL A   1      32.962  34.853  28.568  1.00  0.00     0.251 C 
ATOM      6  H   UNL A   1      31.524  34.486  27.214  1.00  0.00     0.163 HD
BRANCH   5   7
ATOM      7  C   UNL A   1      34.190  34.303  29.163  1.00  0.00     0.039 A 
ATOM      8  C   UNL A   1      35.428  34.570  28.572  1.00  0.00     0.014 A 
ATOM      9  C   UNL A   1      34.077  33.465  30.271  1.00  0.00     0.014 A 
ATOM     10  C   UNL A   1      36.557  33.912  29.034  1.00  0.00     0.010 A 
ATOM     11  C   UNL A   1      35.223  32.862  30.778  1.00  0.00     0.010 A 
ATOM     12  C   UNL A   1      36.463  33.072  30.153  1.00  0.00    -0.014 A 
BRANCH  12  13
ATOM     13  C   UNL A   1      37.688  32.480  30.728  1.00  0.00     0.031 A 
ATOM     14  C   UNL A   1      38.331  31.283  30.102  1.00  0.00     0.074 A 
ATOM     15  C   UNL A   1      38.179  33.021  31.857  1.00  0.00     0.049 A 
ATOM     16  N   UNL A   1      39.347  30.581  30.531  1.00  0.00    -0.248 NA
ATOM     17  C   UNL A   1      37.753  30.802  28.838  1.00  0.00     0.031 C 
ATOM     18  C   UNL A   1      37.618  34.186  32.547  1.00  0.00     0.029 A 
ATOM     19  N   UNL A   1      39.247  32.655  32.631  1.00  0.00    -0.354 N 
ATOM     20  C   UNL A   1      39.515  29.558  29.609  1.00  0.00     0.074 A 
ATOM     21  C   UNL A   1      38.486  29.722  28.602  1.00  0.00     0.031 C 
ATOM     22  C   UNL A   1      38.352  34.444  33.638  1.00  0.00     0.029 A 
ATOM     23  C   UNL A   1      39.387  33.427  33.757  1.00  0.00     0.049 A 
ATOM     24  H   UNL A   1      39.852  31.913  32.403  1.00  0.00     0.167 HD
ATOM     25  C   UNL A   1      40.441  28.570  29.611  1.00  0.00     0.031 A 
ATOM     26  C   UNL A   1      40.231  33.304  34.796  1.00  0.00     0.031 A 
ATOM     27  C   UNL A   1      41.451  28.418  30.626  1.00  0.00     0.049 A 
ATOM     28  C   UNL A   1      41.224  32.184  34.793  1.00  0.00     0.074 A 
ATOM     29  C   UNL A   1      42.466  27.481  30.699  1.00  0.00     0.029 A 
ATOM     30  N   UNL A   1      41.563  29.220  31.752  1.00  0.00    -0.354 N 
ATOM     31  N   UNL A   1      41.400  31.246  33.894  1.00  0.00    -0.248 NA
ATOM     32  C   UNL A   1      42.132  32.103  35.942  1.00  0.00     0.031 C 
ATOM     33  C   UNL A   1      43.159  27.684  31.896  1.00  0.00     0.029 A 
ATOM     34  C   UNL A   1      42.611  28.781  32.543  1.00  0.00     0.049 A 
ATOM     35  H   UNL A   1      40.983  29.989  31.959  1.00  0.00     0.167 HD
ATOM     36  C   UNL A   1      42.451  30.470  34.359  1.00  0.00     0.074 A 
ATOM     37  C   UNL A   1      42.878  31.056  35.615  1.00  0.00     0.031 C 
ATOM     38  C   UNL A   1      43.013  29.375  33.793  1.00  0.00     0.031 A 
BRANCH  25  39
ATOM     39  C   UNL A   1      40.371  27.554  28.505  1.00  0.00    -0.014 A 
ATOM     40  C   UNL A   1      39.645  26.361  28.647  1.00  0.00     0.009 A 
ATOM     41  C   UNL A   1      41.030  27.807  27.292  1.00  0.00     0.009 A 
ATOM     42  C   UNL A   1      39.616  25.425  27.610  1.00  0.00     0.001 A 
ATOM     43  C   UNL A   1      40.977  26.882  26.247  1.00  0.00     0.001 A 
ATOM     44  C   UNL A   1      40.279  25.686  26.412  1.00  0.00     0.000 A 
ENDBRANCH  25  39
BRANCH  26  45
ATOM     45  C   UNL A   1      40.129  34.264  35.921  1.00  0.00    -0.014 A 
ATOM     46  C   UNL A   1      40.810  35.489  35.880  1.00  0.00     0.009 A 
ATOM     47  C   UNL A   1      39.282  33.991  37.008  1.00  0.00     0.009 A 
ATOM     48  C   UNL A   1      40.647  36.419  36.909  1.00  0.00     0.001 A 
ATOM     49  C   UNL A   1      39.101  34.934  38.021  1.00  0.00     0.001 A 
ATOM     50  C   UNL A   1      39.788  36.145  37.971  1.00  0.00     0.000 A 
ENDBRANCH  26  45
BRANCH  38  51
ATOM     51  C   UNL A   1      44.171  28.753  34.517  1.00  0.00    -0.014 A 
ATOM     52  C   UNL A   1      43.974  27.724  35.450  1.00  0.00     0.009 A 
ATOM     53  C   UNL A   1      45.478  29.166  34.218  1.00  0.00     0.009 A 
ATOM     54  C   UNL A   1      45.068  27.132  36.084  1.00  0.00     0.001 A 
ATOM     55  C   UNL A   1      46.569  28.557  34.836  1.00  0.00     0.001 A 
ATOM     56  C   UNL A   1      46.364  27.545  35.773  1.00  0.00     0.000 A 
ENDBRANCH  38  51
ENDBRANCH  12  13
ENDBRANCH   5   7
ENDBRANCH   2   3
ENDBRANCH   1   2
BRANCH   1  57
ATOM     57  C   UNL A   1      31.651  30.552  26.271  1.00  0.00     0.023 C 
BRANCH  57  58
ATOM     58  C   UNL A   1      33.122  30.139  26.176  1.00  0.00     0.116 C 
BRANCH  58  59
ATOM     59  N   UNL A   1      33.419  29.733  24.827  1.00  0.00    -0.356 N 
ATOM     60  C   UNL A   1      33.507  28.454  24.364  1.00  0.00     0.227 C 
ATOM     61  H   UNL A   1      33.577  30.453  24.173  1.00  0.00     0.163 HD
ATOM     62  O   UNL A   1      34.059  28.289  23.275  1.00  0.00    -0.274 OA
BRANCH  60  63
ATOM     63  C   UNL A   1      32.790  27.324  25.129  1.00  0.00     0.107 C 
ATOM     64  C   UNL A   1      33.551  26.395  26.030  1.00  0.00    -0.012 C 
ATOM     65  C   UNL A   1      32.147  26.338  24.150  1.00  0.00     0.087 C 
ATOM     66  C   UNL A   1      33.592  25.140  25.575  1.00  0.00     0.033 C 
ATOM     67  C   UNL A   1      32.890  24.993  24.264  1.00  0.00     0.208 C 
BRANCH  67  68
ATOM     68  N   UNL A   1      32.138  23.736  24.201  1.00  0.00    -0.328 N 
ATOM     69  C   UNL A   1      32.585  22.745  25.187  1.00  0.00     0.275 C 
ATOM     70  C   UNL A   1      32.489  22.859  23.079  1.00  0.00     0.275 C 
ATOM     71  H   UNL A   1      31.190  24.110  24.244  1.00  0.00     0.348 HD
ATOM     72  C   UNL A   1      33.194  21.868  24.056  1.00  0.00     0.073 C 
ATOM     73  C   UNL A   1      32.628  20.455  23.862  1.00  0.00     0.047 C 
ATOM     74  C   UNL A   1      34.731  21.809  24.065  1.00  0.00     0.047 C 
ATOM     75  C   UNL A   1      33.243  19.502  24.875  1.00  0.00     0.161 C 
ATOM     76  C   UNL A   1      35.215  20.766  25.062  1.00  0.00     0.161 C 
ATOM     77  O   UNL A   1      34.665  19.490  24.749  1.00  0.00    -0.381 OA
ENDBRANCH  67  68
ENDBRANCH  60  63
ENDBRANCH  58  59
ENDBRANCH  57  58
ENDBRANCH   1  57
TORSDOF 12
ENDMDL
MODEL 2
REMARK VINA RESULT:     -11.6      4.728     10.137
REMARK SMILES O=C(NCCCCNC(=O)[C@@H]1C=C[C@@H]([NH+]2CC3(CCOCC3)C2)C1)c1ccc(-c2c3nc(c(-c4ccccc4)c4ccc([nH]4)c(-c4ccccc4)c4nc(c(-c5ccccc5)c5ccc2[nH]5)C=C4)C=C3)cc1
REMARK SMILES IDX 5 1 4 2 3 3 1 4 2 5 25 7 26 8 72 9 27 10 71 11 28 12 29 13
REMARK SMILES IDX 30 14 65 15 31 16 70 17 64 18 66 19 32 20 69 21 63 22 62 23
REMARK SMILES IDX 33 25 55 26 40 27 54 28 41 29 44 30 53 31 67 32 42 33 43 34
REMARK SMILES IDX 52 36 68 37 45 38 34 39 35 40 39 41 36 42 38 43 37 44 56 45
REMARK SMILES IDX 57 46 61 47 58 48 60 49 59 50 46 51 47 52 51 53 48 54 50 55
REMARK SMILES IDX 49 56 6 57 7 58 8 59 9 60 10 62 11 63 12 64 24 65 13 66
REMARK SMILES IDX 14 67 15 68 16 69 23 70 17 72 18 73 22 74 19 75 21 76 20 77
REMARK H PARENT 3 6 66 24 44 35 8 61 15 71
REMARK Flexibility Score: inf
ROOT
ATOM      1  C   UNL A   1      37.790  20.005  24.955  1.00  0.00     0.023 C 
ENDROOT
BRANCH   1   2
ATOM      2  C   UNL A   1      39.028  20.371  25.752  1.00  0.00     0.116 C 
BRANCH   2   3
ATOM      3  N   UNL A   1      40.025  19.311  25.751  1.00  0.00    -0.352 N 
ATOM      4  O   UNL A   1      42.120  18.473  25.853  1.00  0.00    -0.269 OA
ATOM      5  C   UNL A   1      41.369  19.418  26.000  1.00  0.00     0.251 C 
ATOM      6  H   UNL A   1      39.694  18.407  25.547  1.00  0.00     0.163 HD
BRANCH   5   7
ATOM      7  C   UNL A   1      41.876  20.733  26.423  1.00  0.00     0.039 A 
ATOM      8  C   UNL A   1      41.974  21.034  27.785  1.00  0.00     0.014 A 
ATOM      9  C   UNL A   1      42.183  21.676  25.445  1.00  0.00     0.014 A 
ATOM     10  C   UNL A   1      42.286  22.326  28.174  1.00  0.00     0.010 A 
ATOM     11  C   UNL A   1      42.568  22.953  25.839  1.00  0.00     0.010 A 
ATOM     12  C   UNL A   1      42.606  23.287  27.203  1.00  0.00    -0.014 A 
BRANCH  12  13
ATOM     13  C   UNL A   1      43.072  24.624  27.622  1.00  0.00     0.031 A 
ATOM     14  C   UNL A   1      42.103  25.668  28.078  1.00  0.00     0.074 A 
ATOM     15  C   UNL A   1      44.388  24.889  27.534  1.00  0.00     0.049 A 
ATOM     16  N   UNL A   1      42.331  26.919  28.385  1.00  0.00    -0.248 NA
ATOM     17  C   UNL A   1      40.694  25.263  28.195  1.00  0.00     0.031 C 
ATOM     18  C   UNL A   1      45.412  23.937  27.094  1.00  0.00     0.029 A 
ATOM     19  N   UNL A   1      45.087  26.036  27.794  1.00  0.00    -0.354 N 
ATOM     20  C   UNL A   1      41.094  27.460  28.702  1.00  0.00     0.074 A 
ATOM     21  C   UNL A   1      40.115  26.405  28.539  1.00  0.00     0.031 C 
ATOM     22  C   UNL A   1      46.609  24.538  27.122  1.00  0.00     0.029 A 
ATOM     23  C   UNL A   1      46.426  25.928  27.517  1.00  0.00     0.049 A 
ATOM     24  H   UNL A   1      44.669  26.856  28.145  1.00  0.00     0.167 HD
ATOM     25  C   UNL A   1      40.806  28.726  29.089  1.00  0.00     0.031 A 
ATOM     26  C   UNL A   1      47.396  26.857  27.535  1.00  0.00     0.031 A 
ATOM     27  C   UNL A   1      41.792  29.764  29.239  1.00  0.00     0.049 A 
ATOM     28  C   UNL A   1      47.048  28.258  27.933  1.00  0.00     0.074 A 
ATOM     29  C   UNL A   1      41.615  31.066  29.670  1.00  0.00     0.029 A 
ATOM     30  N   UNL A   1      43.141  29.617  28.949  1.00  0.00    -0.354 N 
ATOM     31  N   UNL A   1      45.881  28.748  28.271  1.00  0.00    -0.248 NA
ATOM     32  C   UNL A   1      48.146  29.231  27.952  1.00  0.00     0.031 C 
ATOM     33  C   UNL A   1      42.848  31.722  29.589  1.00  0.00     0.029 A 
ATOM     34  C   UNL A   1      43.803  30.813  29.161  1.00  0.00     0.049 A 
ATOM     35  H   UNL A   1      43.565  28.784  28.638  1.00  0.00     0.167 HD
ATOM     36  C   UNL A   1      46.103  30.087  28.561  1.00  0.00     0.074 A 
ATOM     37  C   UNL A   1      47.520  30.325  28.368  1.00  0.00     0.031 C 
ATOM     38  C   UNL A   1      45.214  31.030  28.955  1.00  0.00     0.031 A 
BRANCH  25  39
ATOM     39  C   UNL A   1      39.361  29.063  29.331  1.00  0.00    -0.014 A 
ATOM     40  C   UNL A   1      38.754  28.846  30.578  1.00  0.00     0.009 A 
ATOM     41  C   UNL A   1      38.600  29.626  28.295  1.00  0.00     0.009 A 
ATOM     42  C   UNL A   1      37.403  29.149  30.768  1.00  0.00     0.001 A 
ATOM     43  C   UNL A   1      37.257  29.953  28.495  1.00  0.00     0.001 A 
ATOM     44  C   UNL A   1      36.657  29.703  29.729  1.00  0.00     0.000 A 
ENDBRANCH  25  39
BRANCH  26  45
ATOM     45  C   UNL A   1      48.770  26.470  27.134  1.00  0.00    -0.014 A 
ATOM     46  C   UNL A   1      49.684  25.991  28.082  1.00  0.00     0.009 A 
ATOM     47  C   UNL A   1      49.146  26.503  25.780  1.00  0.00     0.009 A 
ATOM     48  C   UNL A   1      50.949  25.556  27.682  1.00  0.00     0.001 A 
ATOM     49  C   UNL A   1      50.402  26.043  25.381  1.00  0.00     0.001 A 
ATOM     50  C   UNL A   1      51.303  25.574  26.334  1.00  0.00     0.000 A 
ENDBRANCH  26  45
BRANCH  38  51
ATOM     51  C   UNL A   1      45.754  32.402  29.229  1.00  0.00    -0.014 A 
ATOM     52  C   UNL A   1      46.254  32.745  30.494  1.00  0.00     0.009 A 
ATOM     53  C   UNL A   1      45.813  33.343  28.190  1.00  0.00     0.009 A 
ATOM     54  C   UNL A   1      46.788  34.016  30.716  1.00  0.00     0.001 A 
ATOM     55  C   UNL A   1      46.369  34.603  28.410  1.00  0.00     0.001 A 
ATOM     56  C   UNL A   1      46.850  34.941  29.674  1.00  0.00     0.000 A 
ENDBRANCH  38  51
ENDBRANCH  12  13
ENDBRANCH   5   7
ENDBRANCH   2   3
ENDBRANCH   1   2
BRANCH   1  57
ATOM     57  C   UNL A   1      36.615  20.956  25.171  1.00  0.00     0.023 C 
BRANCH  57  58
ATOM     58  C   UNL A   1      36.915  22.406  24.779  1.00  0.00     0.116 C 
BRANCH  58  59
ATOM     59  N   UNL A   1      36.226  22.722  23.555  1.00  0.00    -0.356 N 
ATOM     60  C   UNL A   1      35.056  23.412  23.436  1.00  0.00     0.227 C 
ATOM     61  H   UNL A   1      36.641  22.408  22.719  1.00  0.00     0.163 HD
ATOM     62  O   UNL A   1      34.463  23.329  22.359  1.00  0.00    -0.274 OA
BRANCH  60  63
ATOM     63  C   UNL A   1      34.622  24.363  24.569  1.00  0.00     0.107 C 
ATOM     64  C   UNL A   1      33.853  23.856  25.754  1.00  0.00    -0.012 C 
ATOM     65  C   UNL A   1      33.676  25.441  24.032  1.00  0.00     0.087 C 
ATOM     66  C   UNL A   1      32.602  24.319  25.804  1.00  0.00     0.033 C 
ATOM     67  C   UNL A   1      32.282  25.205  24.644  1.00  0.00     0.208 C 
BRANCH  67  68
ATOM     68  N   UNL A   1      31.464  26.350  25.057  1.00  0.00    -0.328 N 
ATOM     69  C   UNL A   1      32.102  27.644  24.784  1.00  0.00     0.275 C 
ATOM     70  C   UNL A   1      31.438  26.605  26.501  1.00  0.00     0.275 C 
ATOM     71  H   UNL A   1      30.590  26.102  24.594  1.00  0.00     0.348 HD
ATOM     72  C   UNL A   1      32.321  27.877  26.307  1.00  0.00     0.073 C 
ATOM     73  C   UNL A   1      31.635  29.089  26.952  1.00  0.00     0.047 C 
ATOM     74  C   UNL A   1      33.793  27.826  26.745  1.00  0.00     0.047 C 
ATOM     75  C   UNL A   1      32.443  30.349  26.686  1.00  0.00     0.161 C 
ATOM     76  C   UNL A   1      34.466  29.168  26.498  1.00  0.00     0.161 C 
ATOM     77  O   UNL A   1      33.772  30.203  27.187  1.00  0.00    -0.381 OA
ENDBRANCH  67  68
ENDBRANCH  60  63
ENDBRANCH  58  59
ENDBRANCH  57  58
ENDBRANCH   1  57
TORSDOF 12
ENDMDL
MODEL 3
REMARK VINA RESULT:     -11.5      2.317      4.302
REMARK SMILES O=C(NCCCCNC(=O)[C@@H]1C=C[C@@H]([NH+]2CC3(CCOCC3)C2)C1)c1ccc(-c2c3nc(c(-c4ccccc4)c4ccc([nH]4)c(-c4ccccc4)c4nc(c(-c5ccccc5)c5ccc2[nH]5)C=C4)C=C3)cc1
REMARK SMILES IDX 5 1 4 2 3 3 1 4 2 5 25 7 26 8 72 9 27 10 71 11 28 12 29 13
REMARK SMILES IDX 30 14 65 15 31 16 70 17 64 18 66 19 32 20 69 21 63 22 62 23
REMARK SMILES IDX 33 25 55 26 40 27 54 28 41 29 44 30 53 31 67 32 42 33 43 34
REMARK SMILES IDX 52 36 68 37 45 38 34 39 35 40 39 41 36 42 38 43 37 44 56 45
REMARK SMILES IDX 57 46 61 47 58 48 60 49 59 50 46 51 47 52 51 53 48 54 50 55
REMARK SMILES IDX 49 56 6 57 7 58 8 59 9 60 10 62 11 63 12 64 24 65 13 66
REMARK SMILES IDX 14 67 15 68 16 69 23 70 17 72 18 73 22 74 19 75 21 76 20 77
REMARK H PARENT 3 6 66 24 44 35 8 61 15 71
REMARK Flexibility Score: inf
ROOT
ATOM      1  C   UNL A   1      31.543  31.133  26.442  1.00  0.00     0.023 C 
ENDROOT
BRANCH   1   2
ATOM      2  C   UNL A   1      32.740  31.958  26.876  1.00  0.00     0.116 C 
BRANCH   2   3
ATOM      3  N   UNL A   1      32.369  33.303  27.290  1.00  0.00    -0.352 N 
ATOM      4  O   UNL A   1      32.527  35.174  28.547  1.00  0.00    -0.269 OA
ATOM      5  C   UNL A   1      33.005  34.111  28.198  1.00  0.00     0.251 C 
ATOM      6  H   UNL A   1      31.564  33.678  26.867  1.00  0.00     0.163 HD
BRANCH   5   7
ATOM      7  C   UNL A   1      34.275  33.627  28.761  1.00  0.00     0.039 A 
ATOM      8  C   UNL A   1      35.477  33.910  28.106  1.00  0.00     0.014 A 
ATOM      9  C   UNL A   1      34.238  32.834  29.906  1.00  0.00     0.014 A 
ATOM     10  C   UNL A   1      36.646  33.309  28.544  1.00  0.00     0.010 A 
ATOM     11  C   UNL A   1      35.425  32.291  30.387  1.00  0.00     0.010 A 
ATOM     12  C   UNL A   1      36.629  32.514  29.700  1.00  0.00    -0.014 A 
BRANCH  12  13
ATOM     13  C   UNL A   1      37.898  31.988  30.243  1.00  0.00     0.031 A 
ATOM     14  C   UNL A   1      38.520  30.748  29.683  1.00  0.00     0.074 A 
ATOM     15  C   UNL A   1      38.449  32.629  31.289  1.00  0.00     0.049 A 
ATOM     16  N   UNL A   1      39.572  30.097  30.105  1.00  0.00    -0.248 NA
ATOM     17  C   UNL A   1      37.872  30.154  28.504  1.00  0.00     0.031 C 
ATOM     18  C   UNL A   1      37.913  33.843  31.912  1.00  0.00     0.029 A 
ATOM     19  N   UNL A   1      39.569  32.343  32.022  1.00  0.00    -0.354 N 
ATOM     20  C   UNL A   1      39.698  29.000  29.264  1.00  0.00     0.074 A 
ATOM     21  C   UNL A   1      38.606  29.066  28.315  1.00  0.00     0.031 C 
ATOM     22  C   UNL A   1      38.710  34.203  32.927  1.00  0.00     0.029 A 
ATOM     23  C   UNL A   1      39.767  33.210  33.067  1.00  0.00     0.049 A 
ATOM     24  H   UNL A   1      40.171  31.590  31.820  1.00  0.00     0.167 HD
ATOM     25  C   UNL A   1      40.639  28.026  29.291  1.00  0.00     0.031 A 
ATOM     26  C   UNL A   1      40.676  33.187  34.056  1.00  0.00     0.031 A 
ATOM     27  C   UNL A   1      41.713  27.973  30.249  1.00  0.00     0.049 A 
ATOM     28  C   UNL A   1      41.685  32.082  34.086  1.00  0.00     0.074 A 
ATOM     29  C   UNL A   1      42.746  27.057  30.337  1.00  0.00     0.029 A 
ATOM     30  N   UNL A   1      41.882  28.871  31.294  1.00  0.00    -0.354 N 
ATOM     31  N   UNL A   1      41.819  31.072  33.260  1.00  0.00    -0.248 NA
ATOM     32  C   UNL A   1      42.664  32.110  35.177  1.00  0.00     0.031 C 
ATOM     33  C   UNL A   1      43.509  27.370  31.466  1.00  0.00     0.029 A 
ATOM     34  C   UNL A   1      42.984  28.513  32.050  1.00  0.00     0.049 A 
ATOM     35  H   UNL A   1      41.304  29.648  31.471  1.00  0.00     0.167 HD
ATOM     36  C   UNL A   1      42.911  30.351  33.722  1.00  0.00     0.074 A 
ATOM     37  C   UNL A   1      43.406  31.046  34.894  1.00  0.00     0.031 C 
ATOM     38  C   UNL A   1      43.454  29.216  33.217  1.00  0.00     0.031 A 
BRANCH  25  39
ATOM     39  C   UNL A   1      40.516  26.918  28.283  1.00  0.00    -0.014 A 
ATOM     40  C   UNL A   1      39.729  25.783  28.529  1.00  0.00     0.009 A 
ATOM     41  C   UNL A   1      41.189  27.024  27.055  1.00  0.00     0.009 A 
ATOM     42  C   UNL A   1      39.651  24.758  27.583  1.00  0.00     0.001 A 
ATOM     43  C   UNL A   1      41.088  26.011  26.100  1.00  0.00     0.001 A 
ATOM     44  C   UNL A   1      40.328  24.873  26.370  1.00  0.00     0.000 A 
ENDBRANCH  25  39
BRANCH  26  45
ATOM     45  C   UNL A   1      40.629  34.240  35.100  1.00  0.00    -0.014 A 
ATOM     46  C   UNL A   1      41.337  35.438  34.938  1.00  0.00     0.009 A 
ATOM     47  C   UNL A   1      39.807  34.079  36.228  1.00  0.00     0.009 A 
ATOM     48  C   UNL A   1      41.225  36.455  35.890  1.00  0.00     0.001 A 
ATOM     49  C   UNL A   1      39.677  35.107  37.163  1.00  0.00     0.001 A 
ATOM     50  C   UNL A   1      40.390  36.292  36.994  1.00  0.00     0.000 A 
ENDBRANCH  26  45
BRANCH  38  51
ATOM     51  C   UNL A   1      44.664  28.672  33.917  1.00  0.00    -0.014 A 
ATOM     52  C   UNL A   1      44.545  27.706  34.927  1.00  0.00     0.009 A 
ATOM     53  C   UNL A   1      45.943  29.092  33.518  1.00  0.00     0.009 A 
ATOM     54  C   UNL A   1      45.687  27.184  35.538  1.00  0.00     0.001 A 
ATOM     55  C   UNL A   1      47.081  28.551  34.114  1.00  0.00     0.001 A 
ATOM     56  C   UNL A   1      46.952  27.602  35.128  1.00  0.00     0.000 A 
ENDBRANCH  38  51
ENDBRANCH  12  13
ENDBRANCH   5   7
ENDBRANCH   2   3
ENDBRANCH   1   2
BRANCH   1  57
ATOM     57  C   UNL A   1      31.523  29.723  27.026  1.00  0.00     0.023 C 
BRANCH  57  58
ATOM     58  C   UNL A   1      32.681  28.841  26.549  1.00  0.00     0.116 C 
BRANCH  58  59
ATOM     59  N   UNL A   1      32.453  27.483  26.973  1.00  0.00    -0.356 N 
ATOM     60  C   UNL A   1      31.838  26.501  26.255  1.00  0.00     0.227 C 
ATOM     61  H   UNL A   1      32.774  27.241  27.872  1.00  0.00     0.163 HD
ATOM     62  O   UNL A   1      31.464  25.505  26.876  1.00  0.00    -0.274 OA
BRANCH  60  63
ATOM     63  C   UNL A   1      31.781  26.611  24.719  1.00  0.00     0.107 C 
ATOM     64  C   UNL A   1      32.632  27.603  23.981  1.00  0.00    -0.012 C 
ATOM     65  C   UNL A   1      30.377  27.016  24.261  1.00  0.00     0.087 C 
ATOM     66  C   UNL A   1      31.923  28.573  23.400  1.00  0.00     0.033 C 
ATOM     67  C   UNL A   1      30.458  28.432  23.660  1.00  0.00     0.208 C 
BRANCH  67  68
ATOM     68  N   UNL A   1      29.670  28.765  22.469  1.00  0.00    -0.328 N 
ATOM     69  C   UNL A   1      29.997  30.083  21.911  1.00  0.00     0.275 C 
ATOM     70  C   UNL A   1      28.282  29.159  22.733  1.00  0.00     0.275 C 
ATOM     71  H   UNL A   1      29.837  27.921  21.921  1.00  0.00     0.348 HD
ATOM     72  C   UNL A   1      28.620  30.640  22.375  1.00  0.00     0.073 C 
ATOM     73  C   UNL A   1      27.653  31.148  21.297  1.00  0.00     0.047 C 
ATOM     74  C   UNL A   1      28.710  31.671  23.511  1.00  0.00     0.047 C 
ATOM     75  C   UNL A   1      28.034  32.559  20.875  1.00  0.00     0.161 C 
ATOM     76  C   UNL A   1      29.020  33.052  22.951  1.00  0.00     0.161 C 
ATOM     77  O   UNL A   1      28.028  33.434  22.003  1.00  0.00    -0.381 OA
ENDBRANCH  67  68
ENDBRANCH  60  63
ENDBRANCH  58  59
ENDBRANCH  57  58
ENDBRANCH   1  57
TORSDOF 12
ENDMDL
