MODEL 1
REMARK VINA RESULT:     -11.6      0.000      0.000
REMARK SMILES C[NH+]1CCC(NC(=O)N[C@@H]2C=C[C@H](C(=O)NCCCCNC(=O)c3ccc(-c4c5nc(c(-c6ccccc6)c6ccc([nH]6)c(-c6ccccc6)c6nc(c(-c7ccccc7)c7ccc4[nH]7)C=C6)C=C5)cc3)C2)CC1
REMARK SMILES IDX 18 1 17 2 16 3 14 4 15 5 13 7 10 8 11 9 72 10 12 11 9 12
REMARK SMILES IDX 6 13 7 14 8 16 5 18 1 19 2 20 3 21 74 22 4 24 73 25 19 26
REMARK SMILES IDX 20 27 21 28 22 29 23 31 24 32 25 33 71 34 26 35 70 36 27 37
REMARK SMILES IDX 28 38 29 39 64 40 30 41 69 42 63 43 65 44 31 45 68 46 62 47
REMARK SMILES IDX 61 48 32 50 54 51 39 52 53 53 40 54 43 55 52 56 66 57 41 58
REMARK SMILES IDX 42 59 51 61 67 62 44 63 33 64 34 65 38 66 35 67 37 68 36 69
REMARK SMILES IDX 55 70 56 71 60 72 57 73 59 74 58 75 45 76 46 77 50 78 47 79
REMARK SMILES IDX 49 80 48 81
REMARK H PARENT 16 6 6 15 9 17 2 23 21 30 65 49 43 60
REMARK Flexibility Score: inf
ROOT
ATOM      1  C   UNL A   1      37.359  20.972  24.355  1.00  0.00     0.023 C 
ENDROOT
BRANCH   1   2
ATOM      2  C   UNL A   1      37.113  22.125  25.325  1.00  0.00     0.116 C 
BRANCH   2   3
ATOM      3  N   UNL A   1      36.282  21.705  26.436  1.00  0.00    -0.356 N 
ATOM      4  C   UNL A   1      34.924  21.772  26.557  1.00  0.00     0.227 C 
ATOM      5  O   UNL A   1      34.412  21.427  27.621  1.00  0.00    -0.274 OA
ATOM      6  H   UNL A   1      36.761  21.321  27.206  1.00  0.00     0.163 HD
BRANCH   4   7
ATOM      7  C   UNL A   1      34.113  22.209  25.344  1.00  0.00     0.103 C 
ATOM      8  C   UNL A   1      31.676  22.542  25.261  1.00  0.00     0.107 C 
ATOM      9  C   UNL A   1      32.076  21.182  24.794  1.00  0.00    -0.006 C 
ATOM     10  C   UNL A   1      32.989  23.186  25.716  1.00  0.00     0.047 C 
ATOM     11  C   UNL A   1      33.398  21.005  24.812  1.00  0.00    -0.016 C 
BRANCH   8  12
ATOM     12  N   UNL A   1      30.691  22.402  26.305  1.00  0.00    -0.332 N 
ATOM     13  N   UNL A   1      29.789  24.577  26.602  1.00  0.00    -0.335 N 
ATOM     14  C   UNL A   1      29.868  23.270  26.921  1.00  0.00     0.315 C 
ATOM     15  H   UNL A   1      29.141  25.082  27.144  1.00  0.00     0.165 HD
ATOM     16  O   UNL A   1      29.142  22.848  27.822  1.00  0.00    -0.249 OA
ATOM     17  H   UNL A   1      30.601  21.479  26.635  1.00  0.00     0.165 HD
BRANCH  13  18
ATOM     18  C   UNL A   1      30.476  25.375  25.608  1.00  0.00     0.095 C 
ATOM     19  C   UNL A   1      32.318  28.062  22.959  1.00  0.00     0.332 C 
ATOM     20  N   UNL A   1      31.405  27.591  24.007  1.00  0.00    -0.337 N 
ATOM     21  C   UNL A   1      32.189  27.113  25.157  1.00  0.00     0.264 C 
ATOM     22  C   UNL A   1      30.488  26.577  23.459  1.00  0.00     0.264 C 
ATOM     23  H   UNL A   1      30.820  28.356  24.342  1.00  0.00     0.347 HD
ATOM     24  C   UNL A   1      31.314  26.483  26.239  1.00  0.00     0.086 C 
ATOM     25  C   UNL A   1      29.576  25.976  24.538  1.00  0.00     0.086 C 
ENDBRANCH  13  18
ENDBRANCH   8  12
ENDBRANCH   4   7
ENDBRANCH   2   3
ENDBRANCH   1   2
BRANCH   1  26
ATOM     26  C   UNL A   1      38.046  19.756  24.988  1.00  0.00     0.023 C 
BRANCH  26  27
ATOM     27  C   UNL A   1      39.147  20.089  25.987  1.00  0.00     0.116 C 
BRANCH  27  28
ATOM     28  N   UNL A   1      40.291  19.199  25.880  1.00  0.00    -0.352 N 
ATOM     29  C   UNL A   1      41.623  19.473  26.070  1.00  0.00     0.251 C 
ATOM     30  H   UNL A   1      40.081  18.268  25.639  1.00  0.00     0.163 HD
ATOM     31  O   UNL A   1      42.467  18.629  25.797  1.00  0.00    -0.269 OA
BRANCH  29  32
ATOM     32  C   UNL A   1      42.037  20.801  26.571  1.00  0.00     0.039 A 
ATOM     33  C   UNL A   1      42.343  21.798  25.641  1.00  0.00     0.014 A 
ATOM     34  C   UNL A   1      42.126  21.066  27.940  1.00  0.00     0.014 A 
ATOM     35  C   UNL A   1      42.692  23.073  26.086  1.00  0.00     0.010 A 
ATOM     36  C   UNL A   1      42.395  22.359  28.381  1.00  0.00     0.010 A 
ATOM     37  C   UNL A   1      42.690  23.374  27.459  1.00  0.00    -0.014 A 
BRANCH  37  38
ATOM     38  C   UNL A   1      43.000  24.747  27.932  1.00  0.00     0.031 A 
ATOM     39  C   UNL A   1      44.423  25.181  28.146  1.00  0.00     0.074 A 
ATOM     40  C   UNL A   1      41.989  25.596  28.204  1.00  0.00     0.049 A 
ATOM     41  N   UNL A   1      44.881  26.345  28.534  1.00  0.00    -0.248 NA
ATOM     42  C   UNL A   1      45.470  24.170  27.920  1.00  0.00     0.031 C 
ATOM     43  C   UNL A   1      40.563  25.280  28.090  1.00  0.00     0.029 A 
ATOM     44  N   UNL A   1      42.008  26.901  28.626  1.00  0.00    -0.354 N 
ATOM     45  C   UNL A   1      46.261  26.203  28.609  1.00  0.00     0.074 A 
ATOM     46  C   UNL A   1      46.562  24.826  28.284  1.00  0.00     0.031 C 
ATOM     47  C   UNL A   1      39.846  26.372  28.398  1.00  0.00     0.029 A 
ATOM     48  C   UNL A   1      40.757  27.452  28.767  1.00  0.00     0.049 A 
ATOM     49  H   UNL A   1      42.839  27.396  28.811  1.00  0.00     0.167 HD
ATOM     50  C   UNL A   1      47.197  27.137  28.902  1.00  0.00     0.031 A 
ATOM     51  C   UNL A   1      40.383  28.687  29.148  1.00  0.00     0.031 A 
ATOM     52  C   UNL A   1      46.898  28.507  29.226  1.00  0.00     0.049 A 
ATOM     53  C   UNL A   1      41.439  29.707  29.468  1.00  0.00     0.074 A 
ATOM     54  C   UNL A   1      47.777  29.545  29.478  1.00  0.00     0.029 A 
ATOM     55  N   UNL A   1      45.618  29.026  29.353  1.00  0.00    -0.354 N 
ATOM     56  N   UNL A   1      42.744  29.580  29.447  1.00  0.00    -0.248 NA
ATOM     57  C   UNL A   1      40.969  31.046  29.846  1.00  0.00     0.031 C 
ATOM     58  C   UNL A   1      47.029  30.678  29.818  1.00  0.00     0.029 A 
ATOM     59  C   UNL A   1      45.684  30.364  29.709  1.00  0.00     0.049 A 
ATOM     60  H   UNL A   1      44.786  28.520  29.211  1.00  0.00     0.167 HD
ATOM     61  C   UNL A   1      43.251  30.830  29.781  1.00  0.00     0.074 A 
ATOM     62  C   UNL A   1      42.112  31.703  29.976  1.00  0.00     0.031 C 
ATOM     63  C   UNL A   1      44.543  31.220  29.911  1.00  0.00     0.031 A 
BRANCH  50  64
ATOM     64  C   UNL A   1      48.637  26.698  28.902  1.00  0.00    -0.014 A 
ATOM     65  C   UNL A   1      49.425  26.774  27.740  1.00  0.00     0.009 A 
ATOM     66  C   UNL A   1      49.224  26.228  30.087  1.00  0.00     0.009 A 
ATOM     67  C   UNL A   1      50.754  26.346  27.757  1.00  0.00     0.001 A 
ATOM     68  C   UNL A   1      50.563  25.834  30.107  1.00  0.00     0.001 A 
ATOM     69  C   UNL A   1      51.323  25.882  28.941  1.00  0.00     0.000 A 
ENDBRANCH  50  64
BRANCH  51  70
ATOM     70  C   UNL A   1      38.939  29.033  29.231  1.00  0.00    -0.014 A 
ATOM     71  C   UNL A   1      38.244  29.482  28.097  1.00  0.00     0.009 A 
ATOM     72  C   UNL A   1      38.248  28.915  30.447  1.00  0.00     0.009 A 
ATOM     73  C   UNL A   1      36.895  29.835  28.188  1.00  0.00     0.001 A 
ATOM     74  C   UNL A   1      36.892  29.238  30.527  1.00  0.00     0.001 A 
ATOM     75  C   UNL A   1      36.219  29.707  29.401  1.00  0.00     0.000 A 
ENDBRANCH  51  70
BRANCH  63  76
ATOM     76  C   UNL A   1      44.792  32.664  30.251  1.00  0.00    -0.014 A 
ATOM     77  C   UNL A   1      45.043  33.078  31.569  1.00  0.00     0.009 A 
ATOM     78  C   UNL A   1      44.791  33.626  29.228  1.00  0.00     0.009 A 
ATOM     79  C   UNL A   1      45.240  34.429  31.860  1.00  0.00     0.001 A 
ATOM     80  C   UNL A   1      45.024  34.970  29.516  1.00  0.00     0.001 A 
ATOM     81  C   UNL A   1      45.235  35.373  30.835  1.00  0.00     0.000 A 
ENDBRANCH  63  76
ENDBRANCH  37  38
ENDBRANCH  29  32
ENDBRANCH  27  28
ENDBRANCH  26  27
ENDBRANCH   1  26
TORSDOF 13
ENDMDL
MODEL 2
REMARK VINA RESULT:     -11.6      0.606      1.027
REMARK SMILES C[NH+]1CCC(NC(=O)N[C@@H]2C=C[C@H](C(=O)NCCCCNC(=O)c3ccc(-c4c5nc(c(-c6ccccc6)c6ccc([nH]6)c(-c6ccccc6)c6nc(c(-c7ccccc7)c7ccc4[nH]7)C=C6)C=C5)cc3)C2)CC1
REMARK SMILES IDX 18 1 17 2 16 3 14 4 15 5 13 7 10 8 11 9 72 10 12 11 9 12
REMARK SMILES IDX 6 13 7 14 8 16 5 18 1 19 2 20 3 21 74 22 4 24 73 25 19 26
REMARK SMILES IDX 20 27 21 28 22 29 23 31 24 32 25 33 71 34 26 35 70 36 27 37
REMARK SMILES IDX 28 38 29 39 64 40 30 41 69 42 63 43 65 44 31 45 68 46 62 47
REMARK SMILES IDX 61 48 32 50 54 51 39 52 53 53 40 54 43 55 52 56 66 57 41 58
REMARK SMILES IDX 42 59 51 61 67 62 44 63 33 64 34 65 38 66 35 67 37 68 36 69
REMARK SMILES IDX 55 70 56 71 60 72 57 73 59 74 58 75 45 76 46 77 50 78 47 79
REMARK SMILES IDX 49 80 48 81
REMARK H PARENT 16 6 6 15 9 17 2 23 21 30 65 49 43 60
REMARK Flexibility Score: inf
ROOT
ATOM      1  C   UNL A   1      37.243  20.627  24.342  1.00  0.00     0.023 C 
ENDROOT
BRANCH   1   2
ATOM      2  C   UNL A   1      37.099  21.869  25.218  1.00  0.00     0.116 C 
BRANCH   2   3
ATOM      3  N   UNL A   1      36.276  21.598  26.379  1.00  0.00    -0.356 N 
ATOM      4  C   UNL A   1      34.947  21.855  26.559  1.00  0.00     0.227 C 
ATOM      5  O   UNL A   1      34.447  21.611  27.657  1.00  0.00    -0.274 OA
ATOM      6  H   UNL A   1      36.736  21.172  27.138  1.00  0.00     0.163 HD
BRANCH   4   7
ATOM      7  C   UNL A   1      34.143  22.367  25.371  1.00  0.00     0.103 C 
ATOM      8  C   UNL A   1      31.707  22.707  25.296  1.00  0.00     0.107 C 
ATOM      9  C   UNL A   1      32.110  21.378  24.747  1.00  0.00    -0.006 C 
ATOM     10  C   UNL A   1      33.018  23.320  25.797  1.00  0.00     0.047 C 
ATOM     11  C   UNL A   1      33.431  21.199  24.762  1.00  0.00    -0.016 C 
BRANCH   8  12
ATOM     12  N   UNL A   1      30.716  22.504  26.322  1.00  0.00    -0.332 N 
ATOM     13  N   UNL A   1      29.683  24.620  26.615  1.00  0.00    -0.335 N 
ATOM     14  C   UNL A   1      29.834  23.318  26.929  1.00  0.00     0.315 C 
ATOM     15  H   UNL A   1      28.999  25.083  27.150  1.00  0.00     0.165 HD
ATOM     16  O   UNL A   1      29.120  22.849  27.817  1.00  0.00    -0.249 OA
ATOM     17  H   UNL A   1      30.676  21.575  26.646  1.00  0.00     0.165 HD
BRANCH  13  18
ATOM     18  C   UNL A   1      30.339  25.463  25.636  1.00  0.00     0.095 C 
ATOM     19  C   UNL A   1      32.075  28.269  23.041  1.00  0.00     0.332 C 
ATOM     20  N   UNL A   1      31.185  27.744  24.083  1.00  0.00    -0.337 N 
ATOM     21  C   UNL A   1      31.991  27.266  25.217  1.00  0.00     0.264 C 
ATOM     22  C   UNL A   1      30.298  26.714  23.517  1.00  0.00     0.264 C 
ATOM     23  H   UNL A   1      30.578  28.482  24.439  1.00  0.00     0.347 HD
ATOM     24  C   UNL A   1      31.144  26.582  26.288  1.00  0.00     0.086 C 
ATOM     25  C   UNL A   1      29.412  26.059  24.586  1.00  0.00     0.086 C 
ENDBRANCH  13  18
ENDBRANCH   8  12
ENDBRANCH   4   7
ENDBRANCH   2   3
ENDBRANCH   1   2
BRANCH   1  26
ATOM     26  C   UNL A   1      38.077  19.507  24.975  1.00  0.00     0.023 C 
BRANCH  26  27
ATOM     27  C   UNL A   1      39.250  19.982  25.825  1.00  0.00     0.116 C 
BRANCH  27  28
ATOM     28  N   UNL A   1      40.348  19.031  25.849  1.00  0.00    -0.352 N 
ATOM     29  C   UNL A   1      41.681  19.251  26.097  1.00  0.00     0.251 C 
ATOM     30  H   UNL A   1      40.102  18.096  25.662  1.00  0.00     0.163 HD
ATOM     31  O   UNL A   1      42.491  18.347  25.935  1.00  0.00    -0.269 OA
BRANCH  29  32
ATOM     32  C   UNL A   1      42.138  20.589  26.527  1.00  0.00     0.039 A 
ATOM     33  C   UNL A   1      42.537  21.503  25.549  1.00  0.00     0.014 A 
ATOM     34  C   UNL A   1      42.176  20.945  27.878  1.00  0.00     0.014 A 
ATOM     35  C   UNL A   1      42.929  22.788  25.923  1.00  0.00     0.010 A 
ATOM     36  C   UNL A   1      42.488  22.252  28.243  1.00  0.00     0.010 A 
ATOM     37  C   UNL A   1      42.878  23.185  27.270  1.00  0.00    -0.014 A 
BRANCH  37  38
ATOM     38  C   UNL A   1      43.234  24.571  27.664  1.00  0.00     0.031 A 
ATOM     39  C   UNL A   1      44.669  25.021  27.669  1.00  0.00     0.074 A 
ATOM     40  C   UNL A   1      42.262  25.418  28.055  1.00  0.00     0.049 A 
ATOM     41  N   UNL A   1      45.162  26.199  27.962  1.00  0.00    -0.248 NA
ATOM     42  C   UNL A   1      45.686  24.015  27.322  1.00  0.00     0.031 C 
ATOM     43  C   UNL A   1      40.838  25.087  28.148  1.00  0.00     0.029 A 
ATOM     44  N   UNL A   1      42.324  26.733  28.440  1.00  0.00    -0.354 N 
ATOM     45  C   UNL A   1      46.541  26.070  27.848  1.00  0.00     0.074 A 
ATOM     46  C   UNL A   1      46.809  24.688  27.515  1.00  0.00     0.031 C 
ATOM     47  C   UNL A   1      40.158  26.181  28.529  1.00  0.00     0.029 A 
ATOM     48  C   UNL A   1      41.098  27.276  28.742  1.00  0.00     0.049 A 
ATOM     49  H   UNL A   1      43.166  27.239  28.497  1.00  0.00     0.167 HD
ATOM     50  C   UNL A   1      47.498  27.019  27.987  1.00  0.00     0.031 A 
ATOM     51  C   UNL A   1      40.766  28.517  29.143  1.00  0.00     0.031 A 
ATOM     52  C   UNL A   1      47.231  28.393  28.317  1.00  0.00     0.049 A 
ATOM     53  C   UNL A   1      41.845  29.553  29.290  1.00  0.00     0.074 A 
ATOM     54  C   UNL A   1      48.124  29.445  28.421  1.00  0.00     0.029 A 
ATOM     55  N   UNL A   1      45.975  28.905  28.609  1.00  0.00    -0.354 N 
ATOM     56  N   UNL A   1      43.136  29.437  29.090  1.00  0.00    -0.248 NA
ATOM     57  C   UNL A   1      41.416  30.897  29.699  1.00  0.00     0.031 C 
ATOM     58  C   UNL A   1      47.418  30.579  28.835  1.00  0.00     0.029 A 
ATOM     59  C   UNL A   1      46.075  30.251  28.922  1.00  0.00     0.049 A 
ATOM     60  H   UNL A   1      45.137  28.388  28.597  1.00  0.00     0.167 HD
ATOM     61  C   UNL A   1      43.670  30.699  29.321  1.00  0.00     0.074 A 
ATOM     62  C   UNL A   1      42.558  31.567  29.653  1.00  0.00     0.031 C 
ATOM     63  C   UNL A   1      44.963  31.102  29.262  1.00  0.00     0.031 A 
BRANCH  50  64
ATOM     64  C   UNL A   1      48.929  26.592  27.795  1.00  0.00    -0.014 A 
ATOM     65  C   UNL A   1      49.713  26.152  28.876  1.00  0.00     0.009 A 
ATOM     66  C   UNL A   1      49.494  26.602  26.510  1.00  0.00     0.009 A 
ATOM     67  C   UNL A   1      51.043  25.776  28.679  1.00  0.00     0.001 A 
ATOM     68  C   UNL A   1      50.814  26.193  26.312  1.00  0.00     0.001 A 
ATOM     69  C   UNL A   1      51.591  25.792  27.397  1.00  0.00     0.000 A 
ENDBRANCH  50  64
BRANCH  51  70
ATOM     70  C   UNL A   1      39.344  28.853  29.418  1.00  0.00    -0.014 A 
ATOM     71  C   UNL A   1      38.800  28.670  30.699  1.00  0.00     0.009 A 
ATOM     72  C   UNL A   1      38.522  29.357  28.398  1.00  0.00     0.009 A 
ATOM     73  C   UNL A   1      37.455  28.959  30.943  1.00  0.00     0.001 A 
ATOM     74  C   UNL A   1      37.187  29.675  28.654  1.00  0.00     0.001 A 
ATOM     75  C   UNL A   1      36.651  29.466  29.923  1.00  0.00     0.000 A 
ENDBRANCH  51  70
BRANCH  63  76
ATOM     76  C   UNL A   1      45.239  32.556  29.530  1.00  0.00    -0.014 A 
ATOM     77  C   UNL A   1      45.546  33.021  30.820  1.00  0.00     0.009 A 
ATOM     78  C   UNL A   1      45.209  33.474  28.468  1.00  0.00     0.009 A 
ATOM     79  C   UNL A   1      45.768  34.381  31.046  1.00  0.00     0.001 A 
ATOM     80  C   UNL A   1      45.467  34.827  28.691  1.00  0.00     0.001 A 
ATOM     81  C   UNL A   1      45.733  35.282  29.982  1.00  0.00     0.000 A 
ENDBRANCH  63  76
ENDBRANCH  37  38
ENDBRANCH  29  32
ENDBRANCH  27  28
ENDBRANCH  26  27
ENDBRANCH   1  26
TORSDOF 13
ENDMDL
MODEL 3
REMARK VINA RESULT:     -11.3      2.344      6.994
REMARK SMILES C[NH+]1CCC(NC(=O)N[C@@H]2C=C[C@H](C(=O)NCCCCNC(=O)c3ccc(-c4c5nc(c(-c6ccccc6)c6ccc([nH]6)c(-c6ccccc6)c6nc(c(-c7ccccc7)c7ccc4[nH]7)C=C6)C=C5)cc3)C2)CC1
REMARK SMILES IDX 18 1 17 2 16 3 14 4 15 5 13 7 10 8 11 9 72 10 12 11 9 12
REMARK SMILES IDX 6 13 7 14 8 16 5 18 1 19 2 20 3 21 74 22 4 24 73 25 19 26
REMARK SMILES IDX 20 27 21 28 22 29 23 31 24 32 25 33 71 34 26 35 70 36 27 37
REMARK SMILES IDX 28 38 29 39 64 40 30 41 69 42 63 43 65 44 31 45 68 46 62 47
REMARK SMILES IDX 61 48 32 50 54 51 39 52 53 53 40 54 43 55 52 56 66 57 41 58
REMARK SMILES IDX 42 59 51 61 67 62 44 63 33 64 34 65 38 66 35 67 37 68 36 69
REMARK SMILES IDX 55 70 56 71 60 72 57 73 59 74 58 75 45 76 46 77 50 78 47 79
REMARK SMILES IDX 49 80 48 81
REMARK H PARENT 16 6 6 15 9 17 2 23 21 30 65 49 43 60
REMARK Flexibility Score: inf
ROOT
ATOM      1  C   UNL A   1      35.621  21.208  25.025  1.00  0.00     0.023 C 
ENDROOT
BRANCH   1   2
ATOM      2  C   UNL A   1      34.272  20.662  25.487  1.00  0.00     0.116 C 
BRANCH   2   3
ATOM      3  N   UNL A   1      33.933  21.153  26.808  1.00  0.00    -0.356 N 
ATOM      4  C   UNL A   1      32.972  22.056  27.160  1.00  0.00     0.227 C 
ATOM      5  O   UNL A   1      32.892  22.397  28.340  1.00  0.00    -0.274 OA
ATOM      6  H   UNL A   1      34.468  20.787  27.549  1.00  0.00     0.163 HD
BRANCH   4   7
ATOM      7  C   UNL A   1      32.008  22.540  26.084  1.00  0.00     0.103 C 
ATOM      8  C   UNL A   1      30.936  24.752  25.976  1.00  0.00     0.107 C 
ATOM      9  C   UNL A   1      30.062  23.732  26.627  1.00  0.00    -0.006 C 
ATOM     10  C   UNL A   1      32.248  24.009  25.708  1.00  0.00     0.047 C 
ATOM     11  C   UNL A   1      30.628  22.525  26.665  1.00  0.00    -0.016 C 
BRANCH   8  12
ATOM     12  N   UNL A   1      31.065  25.884  26.860  1.00  0.00    -0.332 N 
ATOM     13  N   UNL A   1      31.950  27.626  25.514  1.00  0.00    -0.335 N 
ATOM     14  C   UNL A   1      31.519  27.139  26.694  1.00  0.00     0.315 C 
ATOM     15  H   UNL A   1      32.252  28.561  25.553  1.00  0.00     0.165 HD
ATOM     16  O   UNL A   1      31.535  27.889  27.671  1.00  0.00    -0.249 OA
ATOM     17  H   UNL A   1      30.756  25.699  27.777  1.00  0.00     0.165 HD
BRANCH  13  18
ATOM     18  C   UNL A   1      32.049  27.029  24.197  1.00  0.00     0.095 C 
ATOM     19  C   UNL A   1      32.594  25.668  20.263  1.00  0.00     0.332 C 
ATOM     20  N   UNL A   1      32.570  26.609  21.389  1.00  0.00    -0.337 N 
ATOM     21  C   UNL A   1      33.540  26.176  22.407  1.00  0.00     0.264 C 
ATOM     22  C   UNL A   1      31.197  26.743  21.905  1.00  0.00     0.264 C 
ATOM     23  H   UNL A   1      32.854  27.539  21.084  1.00  0.00     0.347 HD
ATOM     24  C   UNL A   1      33.481  27.031  23.671  1.00  0.00     0.086 C 
ATOM     25  C   UNL A   1      31.130  27.640  23.150  1.00  0.00     0.086 C 
ENDBRANCH  13  18
ENDBRANCH   8  12
ENDBRANCH   4   7
ENDBRANCH   2   3
ENDBRANCH   1   2
BRANCH   1  26
ATOM     26  C   UNL A   1      35.676  22.737  24.925  1.00  0.00     0.023 C 
BRANCH  26  27
ATOM     27  C   UNL A   1      36.840  23.387  25.663  1.00  0.00     0.116 C 
BRANCH  27  28
ATOM     28  N   UNL A   1      37.937  22.466  25.904  1.00  0.00    -0.352 N 
ATOM     29  C   UNL A   1      39.191  22.723  26.404  1.00  0.00     0.251 C 
ATOM     30  H   UNL A   1      37.757  21.525  25.679  1.00  0.00     0.163 HD
ATOM     31  O   UNL A   1      40.041  21.842  26.407  1.00  0.00    -0.269 OA
BRANCH  29  32
ATOM     32  C   UNL A   1      39.521  24.074  26.905  1.00  0.00     0.039 A 
ATOM     33  C   UNL A   1      39.251  24.372  28.243  1.00  0.00     0.014 A 
ATOM     34  C   UNL A   1      40.089  25.041  26.071  1.00  0.00     0.014 A 
ATOM     35  C   UNL A   1      39.595  25.624  28.755  1.00  0.00     0.010 A 
ATOM     36  C   UNL A   1      40.505  26.258  26.603  1.00  0.00     0.010 A 
ATOM     37  C   UNL A   1      40.253  26.567  27.947  1.00  0.00    -0.014 A 
BRANCH  37  38
ATOM     38  C   UNL A   1      40.677  27.875  28.506  1.00  0.00     0.031 A 
ATOM     39  C   UNL A   1      39.677  28.979  28.713  1.00  0.00     0.074 A 
ATOM     40  C   UNL A   1      41.976  28.082  28.795  1.00  0.00     0.049 A 
ATOM     41  N   UNL A   1      39.863  30.177  29.209  1.00  0.00    -0.248 NA
ATOM     42  C   UNL A   1      38.293  28.715  28.287  1.00  0.00     0.031 C 
ATOM     43  C   UNL A   1      43.055  27.111  28.588  1.00  0.00     0.029 A 
ATOM     44  N   UNL A   1      42.611  29.174  29.331  1.00  0.00    -0.354 N 
ATOM     45  C   UNL A   1      38.627  30.810  29.143  1.00  0.00     0.074 A 
ATOM     46  C   UNL A   1      37.714  29.886  28.506  1.00  0.00     0.031 C 
ATOM     47  C   UNL A   1      44.209  27.639  29.026  1.00  0.00     0.029 A 
ATOM     48  C   UNL A   1      43.961  28.993  29.509  1.00  0.00     0.049 A 
ATOM     49  H   UNL A   1      42.142  30.008  29.564  1.00  0.00     0.167 HD
ATOM     50  C   UNL A   1      38.277  32.040  29.588  1.00  0.00     0.031 A 
ATOM     51  C   UNL A   1      44.896  29.824  30.006  1.00  0.00     0.031 A 
ATOM     52  C   UNL A   1      39.186  32.959  30.221  1.00  0.00     0.049 A 
ATOM     53  C   UNL A   1      44.484  31.184  30.494  1.00  0.00     0.074 A 
ATOM     54  C   UNL A   1      38.916  34.203  30.762  1.00  0.00     0.029 A 
ATOM     55  N   UNL A   1      40.544  32.737  30.388  1.00  0.00    -0.354 N 
ATOM     56  N   UNL A   1      43.293  31.732  30.506  1.00  0.00    -0.248 NA
ATOM     57  C   UNL A   1      45.544  32.031  31.056  1.00  0.00     0.031 C 
ATOM     58  C   UNL A   1      40.122  34.760  31.201  1.00  0.00     0.029 A 
ATOM     59  C   UNL A   1      41.132  33.834  30.998  1.00  0.00     0.049 A 
ATOM     60  H   UNL A   1      41.022  31.920  30.114  1.00  0.00     0.167 HD
ATOM     61  C   UNL A   1      43.455  32.977  31.101  1.00  0.00     0.074 A 
ATOM     62  C   UNL A   1      44.855  33.090  31.456  1.00  0.00     0.031 C 
ATOM     63  C   UNL A   1      42.529  33.939  31.335  1.00  0.00     0.031 A 
BRANCH  50  64
ATOM     64  C   UNL A   1      36.847  32.468  29.389  1.00  0.00    -0.014 A 
ATOM     65  C   UNL A   1      35.879  32.272  30.388  1.00  0.00     0.009 A 
ATOM     66  C   UNL A   1      36.469  33.102  28.195  1.00  0.00     0.009 A 
ATOM     67  C   UNL A   1      34.554  32.661  30.176  1.00  0.00     0.001 A 
ATOM     68  C   UNL A   1      35.151  33.520  28.001  1.00  0.00     0.001 A 
ATOM     69  C   UNL A   1      34.193  33.289  28.986  1.00  0.00     0.000 A 
ENDBRANCH  50  64
BRANCH  51  70
ATOM     70  C   UNL A   1      46.315  29.384  30.082  1.00  0.00    -0.014 A 
ATOM     71  C   UNL A   1      47.196  29.618  29.015  1.00  0.00     0.009 A 
ATOM     72  C   UNL A   1      46.794  28.725  31.226  1.00  0.00     0.009 A 
ATOM     73  C   UNL A   1      48.519  29.175  29.081  1.00  0.00     0.001 A 
ATOM     74  C   UNL A   1      48.126  28.312  31.301  1.00  0.00     0.001 A 
ATOM     75  C   UNL A   1      48.985  28.528  30.225  1.00  0.00     0.000 A 
ENDBRANCH  51  70
BRANCH  63  76
ATOM     76  C   UNL A   1      42.996  35.184  32.038  1.00  0.00    -0.014 A 
ATOM     77  C   UNL A   1      42.869  35.336  33.428  1.00  0.00     0.009 A 
ATOM     78  C   UNL A   1      43.591  36.216  31.295  1.00  0.00     0.009 A 
ATOM     79  C   UNL A   1      43.283  36.515  34.051  1.00  0.00     0.001 A 
ATOM     80  C   UNL A   1      44.037  37.378  31.925  1.00  0.00     0.001 A 
ATOM     81  C   UNL A   1      43.871  37.533  33.300  1.00  0.00     0.000 A 
ENDBRANCH  63  76
ENDBRANCH  37  38
ENDBRANCH  29  32
ENDBRANCH  27  28
ENDBRANCH  26  27
ENDBRANCH   1  26
TORSDOF 13
ENDMDL
