MODEL 1
REMARK VINA RESULT:     -11.5      0.000      0.000
REMARK SMILES Cc1ccc(S(=O)(=O)N[C@@H](C)C(=O)Oc2csc(C(=O)NCCCCNC(=O)c3ccc(-c4c5nc(c(-c6ccccc6)c6ccc([nH]6)c(-c6ccccc6)c6nc(c(-c7ccccc7)c7ccc4[nH]7)C=C6)C=C5)cc3)c2C)cc1
REMARK SMILES IDX 19 1 20 2 21 3 18 5 15 6 16 7 77 8 17 9 78 10 14 11 12 12
REMARK SMILES IDX 13 13 10 14 11 15 9 16 6 18 7 19 8 20 5 21 1 22 2 23 3 24
REMARK SMILES IDX 80 25 4 26 79 27 22 28 23 29 24 30 25 31 26 32 27 33 28 35
REMARK SMILES IDX 29 36 30 37 76 38 31 39 75 40 32 41 33 42 34 43 69 44 35 45
REMARK SMILES IDX 74 46 68 47 70 48 36 49 73 50 67 51 66 52 37 54 59 55 44 56
REMARK SMILES IDX 58 57 45 58 48 59 57 60 71 61 46 62 47 63 56 65 72 66 49 67
REMARK SMILES IDX 38 68 39 69 43 70 40 71 42 72 41 73 60 74 61 75 65 76 62 77
REMARK SMILES IDX 64 78 63 79 50 80 51 81 55 82 52 83 54 84 53 85
REMARK H PARENT 21 4 9 17 26 34 70 53 48 64
REMARK Flexibility Score: inf
ROOT
ATOM      1  C   UNL A   1      33.616  28.394  23.615  1.00  0.00     0.261 C 
ATOM      2  O   UNL A   1      34.407  28.794  22.750  1.00  0.00    -0.268 OA
ATOM      3  N   UNL A   1      33.273  29.396  24.490  1.00  0.00    -0.351 N 
ATOM      4  H   UNL A   1      33.729  30.244  24.286  1.00  0.00     0.163 HD
ENDROOT
BRANCH   1   5
ATOM      5  C   UNL A   1      33.113  27.009  23.640  1.00  0.00     0.099 A 
ATOM      6  C   UNL A   1      32.385  24.798  24.000  1.00  0.00     0.145 A 
ATOM      7  C   UNL A   1      32.026  24.945  22.689  1.00  0.00     0.113 A 
ATOM      8  C   UNL A   1      33.114  25.928  24.528  1.00  0.00     0.015 A 
ATOM      9  S   UNL A   1      32.374  26.509  22.132  1.00  0.00    -0.134 S 
ATOM     10  C   UNL A   1      33.784  25.804  25.846  1.00  0.00     0.050 C 
BRANCH   6  11
ATOM     11  O   UNL A   1      32.184  23.621  24.648  1.00  0.00    -0.424 OA
BRANCH  11  12
ATOM     12  C   UNL A   1      32.964  22.566  24.249  1.00  0.00     0.329 C 
ATOM     13  O   UNL A   1      32.968  22.062  23.130  1.00  0.00    -0.250 OA
BRANCH  12  14
ATOM     14  C   UNL A   1      33.890  22.097  25.371  1.00  0.00     0.177 C 
ATOM     15  C   UNL A   1      33.274  22.296  26.748  1.00  0.00     0.038 C 
BRANCH  14  16
ATOM     16  N   UNL A   1      35.182  22.764  25.207  1.00  0.00    -0.197 NA
ATOM     17  H   UNL A   1      35.010  23.551  24.579  1.00  0.00     0.142 HD
BRANCH  16  18
ATOM     18  S   UNL A   1      36.545  22.009  24.624  1.00  0.00     0.241 S 
ATOM     19  O   UNL A   1      36.827  22.578  23.315  1.00  0.00    -0.207 OA
ATOM     20  O   UNL A   1      36.315  20.604  24.799  1.00  0.00    -0.207 OA
BRANCH  18  21
ATOM     21  C   UNL A   1      37.878  22.472  25.697  1.00  0.00     0.082 A 
ATOM     22  C   UNL A   1      41.355  23.508  28.002  1.00  0.00     0.044 C 
ATOM     23  C   UNL A   1      40.135  23.154  27.203  1.00  0.00    -0.051 A 
ATOM     24  C   UNL A   1      40.025  21.879  26.634  1.00  0.00     0.005 A 
ATOM     25  C   UNL A   1      39.088  24.072  27.039  1.00  0.00     0.005 A 
ATOM     26  C   UNL A   1      38.908  21.543  25.872  1.00  0.00     0.022 A 
ATOM     27  C   UNL A   1      37.953  23.730  26.298  1.00  0.00     0.022 A 
ENDBRANCH  18  21
ENDBRANCH  16  18
ENDBRANCH  14  16
ENDBRANCH  12  14
ENDBRANCH  11  12
ENDBRANCH   6  11
ENDBRANCH   1   5
BRANCH   3  28
ATOM     28  C   UNL A   1      32.402  29.502  25.639  1.00  0.00     0.116 C 
BRANCH  28  29
ATOM     29  C   UNL A   1      33.156  29.191  26.943  1.00  0.00     0.023 C 
BRANCH  29  30
ATOM     30  C   UNL A   1      34.673  29.315  26.881  1.00  0.00     0.023 C 
BRANCH  30  31
ATOM     31  C   UNL A   1      35.208  30.490  27.675  1.00  0.00     0.116 C 
BRANCH  31  32
ATOM     32  N   UNL A   1      34.359  31.675  27.706  1.00  0.00    -0.352 N 
ATOM     33  C   UNL A   1      34.406  32.764  28.565  1.00  0.00     0.251 C 
ATOM     34  H   UNL A   1      33.653  31.707  27.021  1.00  0.00     0.163 HD
ATOM     35  O   UNL A   1      33.535  33.626  28.499  1.00  0.00    -0.269 OA
BRANCH  33  36
ATOM     36  C   UNL A   1      35.592  32.979  29.439  1.00  0.00     0.039 A 
ATOM     37  C   UNL A   1      36.678  33.670  28.884  1.00  0.00     0.014 A 
ATOM     38  C   UNL A   1      35.769  32.240  30.600  1.00  0.00     0.014 A 
ATOM     39  C   UNL A   1      37.966  33.333  29.280  1.00  0.00     0.010 A 
ATOM     40  C   UNL A   1      37.030  31.773  30.877  1.00  0.00     0.010 A 
ATOM     41  C   UNL A   1      38.120  32.271  30.161  1.00  0.00    -0.014 A 
BRANCH  41  42
ATOM     42  C   UNL A   1      39.367  31.566  30.381  1.00  0.00     0.031 A 
ATOM     43  C   UNL A   1      39.584  30.291  29.688  1.00  0.00     0.074 A 
ATOM     44  C   UNL A   1      40.344  32.170  31.092  1.00  0.00     0.049 A 
ATOM     45  N   UNL A   1      40.442  29.404  30.047  1.00  0.00    -0.248 NA
ATOM     46  C   UNL A   1      38.784  29.888  28.535  1.00  0.00     0.031 C 
ATOM     47  C   UNL A   1      41.750  31.794  31.199  1.00  0.00     0.029 A 
ATOM     48  N   UNL A   1      40.179  33.164  32.058  1.00  0.00    -0.354 N 
ATOM     49  C   UNL A   1      40.542  28.501  29.015  1.00  0.00     0.074 A 
ATOM     50  C   UNL A   1      39.411  28.771  28.165  1.00  0.00     0.031 C 
ATOM     51  C   UNL A   1      42.253  32.321  32.330  1.00  0.00     0.029 A 
ATOM     52  C   UNL A   1      41.141  32.916  33.056  1.00  0.00     0.049 A 
ATOM     53  H   UNL A   1      39.519  33.894  32.045  1.00  0.00     0.167 HD
ATOM     54  C   UNL A   1      41.674  27.750  28.918  1.00  0.00     0.031 A 
ATOM     55  C   UNL A   1      40.740  32.538  34.306  1.00  0.00     0.031 A 
ATOM     56  C   UNL A   1      42.513  27.913  30.108  1.00  0.00     0.049 A 
ATOM     57  C   UNL A   1      41.170  31.128  34.664  1.00  0.00     0.074 A 
ATOM     58  C   UNL A   1      43.665  28.639  30.363  1.00  0.00     0.029 A 
ATOM     59  N   UNL A   1      41.989  27.563  31.351  1.00  0.00    -0.354 N 
ATOM     60  N   UNL A   1      41.541  30.229  33.792  1.00  0.00    -0.248 NA
ATOM     61  C   UNL A   1      41.213  30.622  36.033  1.00  0.00     0.031 C 
ATOM     62  C   UNL A   1      43.768  28.816  31.771  1.00  0.00     0.029 A 
ATOM     63  C   UNL A   1      42.704  28.162  32.371  1.00  0.00     0.049 A 
ATOM     64  H   UNL A   1      41.215  26.970  31.484  1.00  0.00     0.167 HD
ATOM     65  C   UNL A   1      41.879  29.068  34.436  1.00  0.00     0.074 A 
ATOM     66  C   UNL A   1      41.662  29.367  35.841  1.00  0.00     0.031 C 
ATOM     67  C   UNL A   1      42.309  27.958  33.762  1.00  0.00     0.031 A 
BRANCH  54  68
ATOM     68  C   UNL A   1      42.149  27.125  27.623  1.00  0.00    -0.014 A 
ATOM     69  C   UNL A   1      41.242  26.965  26.561  1.00  0.00     0.009 A 
ATOM     70  C   UNL A   1      43.434  26.596  27.405  1.00  0.00     0.009 A 
ATOM     71  C   UNL A   1      41.571  26.256  25.396  1.00  0.00     0.001 A 
ATOM     72  C   UNL A   1      43.767  25.866  26.254  1.00  0.00     0.001 A 
ATOM     73  C   UNL A   1      42.831  25.689  25.251  1.00  0.00     0.000 A 
ENDBRANCH  54  68
BRANCH  55  74
ATOM     74  C   UNL A   1      39.461  33.192  34.722  1.00  0.00    -0.014 A 
ATOM     75  C   UNL A   1      38.253  32.628  34.253  1.00  0.00     0.009 A 
ATOM     76  C   UNL A   1      39.409  34.038  35.838  1.00  0.00     0.009 A 
ATOM     77  C   UNL A   1      37.062  32.778  34.971  1.00  0.00     0.001 A 
ATOM     78  C   UNL A   1      38.205  34.205  36.539  1.00  0.00     0.001 A 
ATOM     79  C   UNL A   1      37.048  33.537  36.136  1.00  0.00     0.000 A 
ENDBRANCH  55  74
BRANCH  67  80
ATOM     80  C   UNL A   1      42.467  26.569  34.342  1.00  0.00    -0.014 A 
ATOM     81  C   UNL A   1      41.528  25.938  35.166  1.00  0.00     0.009 A 
ATOM     82  C   UNL A   1      43.569  25.782  33.933  1.00  0.00     0.009 A 
ATOM     83  C   UNL A   1      41.703  24.614  35.596  1.00  0.00     0.001 A 
ATOM     84  C   UNL A   1      43.719  24.445  34.309  1.00  0.00     0.001 A 
ATOM     85  C   UNL A   1      42.790  23.864  35.157  1.00  0.00     0.000 A 
ENDBRANCH  67  80
ENDBRANCH  41  42
ENDBRANCH  33  36
ENDBRANCH  31  32
ENDBRANCH  30  31
ENDBRANCH  29  30
ENDBRANCH  28  29
ENDBRANCH   3  28
TORSDOF 17
ENDMDL
MODEL 2
REMARK VINA RESULT:     -11.3      2.805      8.498
REMARK SMILES Cc1ccc(S(=O)(=O)N[C@@H](C)C(=O)Oc2csc(C(=O)NCCCCNC(=O)c3ccc(-c4c5nc(c(-c6ccccc6)c6ccc([nH]6)c(-c6ccccc6)c6nc(c(-c7ccccc7)c7ccc4[nH]7)C=C6)C=C5)cc3)c2C)cc1
REMARK SMILES IDX 19 1 20 2 21 3 18 5 15 6 16 7 77 8 17 9 78 10 14 11 12 12
REMARK SMILES IDX 13 13 10 14 11 15 9 16 6 18 7 19 8 20 5 21 1 22 2 23 3 24
REMARK SMILES IDX 80 25 4 26 79 27 22 28 23 29 24 30 25 31 26 32 27 33 28 35
REMARK SMILES IDX 29 36 30 37 76 38 31 39 75 40 32 41 33 42 34 43 69 44 35 45
REMARK SMILES IDX 74 46 68 47 70 48 36 49 73 50 67 51 66 52 37 54 59 55 44 56
REMARK SMILES IDX 58 57 45 58 48 59 57 60 71 61 46 62 47 63 56 65 72 66 49 67
REMARK SMILES IDX 38 68 39 69 43 70 40 71 42 72 41 73 60 74 61 75 65 76 62 77
REMARK SMILES IDX 64 78 63 79 50 80 51 81 55 82 52 83 54 84 53 85
REMARK H PARENT 21 4 9 17 26 34 70 53 48 64
REMARK Flexibility Score: inf
ROOT
ATOM      1  C   UNL A   1      33.384  21.278  25.222  1.00  0.00     0.261 C 
ATOM      2  O   UNL A   1      32.344  20.650  25.469  1.00  0.00    -0.268 OA
ATOM      3  N   UNL A   1      34.444  20.814  25.961  1.00  0.00    -0.351 N 
ATOM      4  H   UNL A   1      34.187  20.081  26.567  1.00  0.00     0.163 HD
ENDROOT
BRANCH   1   5
ATOM      5  C   UNL A   1      33.427  22.362  24.224  1.00  0.00     0.099 A 
ATOM      6  C   UNL A   1      33.734  24.228  22.819  1.00  0.00     0.145 A 
ATOM      7  C   UNL A   1      32.818  23.533  22.079  1.00  0.00     0.113 A 
ATOM      8  C   UNL A   1      34.007  23.629  24.106  1.00  0.00     0.015 A 
ATOM      9  S   UNL A   1      32.426  22.058  22.819  1.00  0.00    -0.134 S 
ATOM     10  C   UNL A   1      34.779  24.401  25.111  1.00  0.00     0.050 C 
BRANCH   6  11
ATOM     11  O   UNL A   1      34.194  25.435  22.401  1.00  0.00    -0.424 OA
BRANCH  11  12
ATOM     12  C   UNL A   1      33.318  26.203  21.677  1.00  0.00     0.329 C 
ATOM     13  O   UNL A   1      32.966  25.990  20.520  1.00  0.00    -0.250 OA
BRANCH  12  14
ATOM     14  C   UNL A   1      32.774  27.365  22.505  1.00  0.00     0.177 C 
ATOM     15  C   UNL A   1      33.782  28.496  22.645  1.00  0.00     0.038 C 
BRANCH  14  16
ATOM     16  N   UNL A   1      32.309  26.835  23.787  1.00  0.00    -0.197 NA
ATOM     17  H   UNL A   1      31.955  25.899  23.589  1.00  0.00     0.142 HD
BRANCH  16  18
ATOM     18  S   UNL A   1      31.147  27.569  24.725  1.00  0.00     0.241 S 
ATOM     19  O   UNL A   1      30.577  26.544  25.586  1.00  0.00    -0.207 OA
ATOM     20  O   UNL A   1      30.334  28.324  23.815  1.00  0.00    -0.207 OA
BRANCH  18  21
ATOM     21  C   UNL A   1      31.994  28.723  25.770  1.00  0.00     0.082 A 
ATOM     22  C   UNL A   1      34.366  31.461  28.085  1.00  0.00     0.044 C 
ATOM     23  C   UNL A   1      33.528  30.512  27.279  1.00  0.00    -0.051 A 
ATOM     24  C   UNL A   1      33.946  29.185  27.118  1.00  0.00     0.005 A 
ATOM     25  C   UNL A   1      32.317  30.924  26.706  1.00  0.00     0.005 A 
ATOM     26  C   UNL A   1      33.189  28.297  26.355  1.00  0.00     0.022 A 
ATOM     27  C   UNL A   1      31.541  30.030  25.962  1.00  0.00     0.022 A 
ENDBRANCH  18  21
ENDBRANCH  16  18
ENDBRANCH  14  16
ENDBRANCH  12  14
ENDBRANCH  11  12
ENDBRANCH   6  11
ENDBRANCH   1   5
BRANCH   3  28
ATOM     28  C   UNL A   1      35.847  21.144  26.062  1.00  0.00     0.116 C 
BRANCH  28  29
ATOM     29  C   UNL A   1      36.658  20.498  24.926  1.00  0.00     0.023 C 
BRANCH  29  30
ATOM     30  C   UNL A   1      38.154  20.785  24.930  1.00  0.00     0.023 C 
BRANCH  30  31
ATOM     31  C   UNL A   1      38.526  21.994  25.764  1.00  0.00     0.116 C 
BRANCH  31  32
ATOM     32  N   UNL A   1      39.896  22.028  26.259  1.00  0.00    -0.352 N 
ATOM     33  C   UNL A   1      40.656  23.118  26.663  1.00  0.00     0.251 C 
ATOM     34  H   UNL A   1      40.348  21.155  26.316  1.00  0.00     0.163 HD
ATOM     35  O   UNL A   1      41.837  22.958  26.957  1.00  0.00    -0.269 OA
BRANCH  33  36
ATOM     36  C   UNL A   1      40.006  24.435  26.909  1.00  0.00     0.039 A 
ATOM     37  C   UNL A   1      40.485  25.530  26.179  1.00  0.00     0.014 A 
ATOM     38  C   UNL A   1      39.229  24.648  28.039  1.00  0.00     0.014 A 
ATOM     39  C   UNL A   1      40.485  26.788  26.770  1.00  0.00     0.010 A 
ATOM     40  C   UNL A   1      39.377  25.841  28.703  1.00  0.00     0.010 A 
ATOM     41  C   UNL A   1      40.071  26.886  28.092  1.00  0.00    -0.014 A 
BRANCH  41  42
ATOM     42  C   UNL A   1      40.352  28.018  28.954  1.00  0.00     0.031 A 
ATOM     43  C   UNL A   1      39.400  29.134  28.977  1.00  0.00     0.074 A 
ATOM     44  C   UNL A   1      41.392  27.946  29.812  1.00  0.00     0.049 A 
ATOM     45  N   UNL A   1      39.678  30.319  29.390  1.00  0.00    -0.248 NA
ATOM     46  C   UNL A   1      38.037  29.004  28.468  1.00  0.00     0.031 C 
ATOM     47  C   UNL A   1      41.690  28.811  30.948  1.00  0.00     0.029 A 
ATOM     48  N   UNL A   1      42.534  27.155  29.672  1.00  0.00    -0.354 N 
ATOM     49  C   UNL A   1      38.485  30.990  29.517  1.00  0.00     0.074 A 
ATOM     50  C   UNL A   1      37.519  30.182  28.817  1.00  0.00     0.031 C 
ATOM     51  C   UNL A   1      43.001  28.718  31.229  1.00  0.00     0.029 A 
ATOM     52  C   UNL A   1      43.608  27.910  30.182  1.00  0.00     0.049 A 
ATOM     53  H   UNL A   1      42.580  26.248  29.293  1.00  0.00     0.167 HD
ATOM     54  C   UNL A   1      38.430  32.064  30.353  1.00  0.00     0.031 A 
ATOM     55  C   UNL A   1      44.592  28.345  29.339  1.00  0.00     0.031 A 
ATOM     56  C   UNL A   1      39.770  32.435  30.815  1.00  0.00     0.049 A 
ATOM     57  C   UNL A   1      44.634  29.855  29.209  1.00  0.00     0.074 A 
ATOM     58  C   UNL A   1      40.453  32.228  32.002  1.00  0.00     0.029 A 
ATOM     59  N   UNL A   1      40.728  32.798  29.871  1.00  0.00    -0.354 N 
ATOM     60  N   UNL A   1      43.650  30.649  29.536  1.00  0.00    -0.248 NA
ATOM     61  C   UNL A   1      45.790  30.588  28.697  1.00  0.00     0.031 C 
ATOM     62  C   UNL A   1      41.845  32.364  31.735  1.00  0.00     0.029 A 
ATOM     63  C   UNL A   1      42.002  32.694  30.399  1.00  0.00     0.049 A 
ATOM     64  H   UNL A   1      40.527  33.089  28.953  1.00  0.00     0.167 HD
ATOM     65  C   UNL A   1      44.010  31.953  29.312  1.00  0.00     0.074 A 
ATOM     66  C   UNL A   1      45.363  31.861  28.791  1.00  0.00     0.031 C 
ATOM     67  C   UNL A   1      43.167  32.997  29.573  1.00  0.00     0.031 A 
BRANCH  54  68
ATOM     68  C   UNL A   1      37.146  32.566  30.980  1.00  0.00    -0.014 A 
ATOM     69  C   UNL A   1      36.658  31.945  32.143  1.00  0.00     0.009 A 
ATOM     70  C   UNL A   1      36.325  33.574  30.442  1.00  0.00     0.009 A 
ATOM     71  C   UNL A   1      35.401  32.255  32.685  1.00  0.00     0.001 A 
ATOM     72  C   UNL A   1      35.058  33.876  30.963  1.00  0.00     0.001 A 
ATOM     73  C   UNL A   1      34.591  33.208  32.081  1.00  0.00     0.000 A 
ENDBRANCH  54  68
BRANCH  55  74
ATOM     74  C   UNL A   1      44.887  27.366  28.248  1.00  0.00    -0.014 A 
ATOM     75  C   UNL A   1      45.322  26.075  28.625  1.00  0.00     0.009 A 
ATOM     76  C   UNL A   1      44.369  27.539  26.957  1.00  0.00     0.009 A 
ATOM     77  C   UNL A   1      45.100  24.970  27.798  1.00  0.00     0.001 A 
ATOM     78  C   UNL A   1      44.171  26.429  26.122  1.00  0.00     0.001 A 
ATOM     79  C   UNL A   1      44.490  25.144  26.561  1.00  0.00     0.000 A 
ENDBRANCH  55  74
BRANCH  67  80
ATOM     80  C   UNL A   1      43.365  34.433  29.136  1.00  0.00    -0.014 A 
ATOM     81  C   UNL A   1      43.278  34.882  27.813  1.00  0.00     0.009 A 
ATOM     82  C   UNL A   1      43.521  35.431  30.127  1.00  0.00     0.009 A 
ATOM     83  C   UNL A   1      43.387  36.244  27.494  1.00  0.00     0.001 A 
ATOM     84  C   UNL A   1      43.572  36.793  29.820  1.00  0.00     0.001 A 
ATOM     85  C   UNL A   1      43.520  37.199  28.497  1.00  0.00     0.000 A 
ENDBRANCH  67  80
ENDBRANCH  41  42
ENDBRANCH  33  36
ENDBRANCH  31  32
ENDBRANCH  30  31
ENDBRANCH  29  30
ENDBRANCH  28  29
ENDBRANCH   3  28
TORSDOF 17
ENDMDL
MODEL 3
REMARK VINA RESULT:     -11.1      1.728      2.454
REMARK SMILES Cc1ccc(S(=O)(=O)N[C@@H](C)C(=O)Oc2csc(C(=O)NCCCCNC(=O)c3ccc(-c4c5nc(c(-c6ccccc6)c6ccc([nH]6)c(-c6ccccc6)c6nc(c(-c7ccccc7)c7ccc4[nH]7)C=C6)C=C5)cc3)c2C)cc1
REMARK SMILES IDX 19 1 20 2 21 3 18 5 15 6 16 7 77 8 17 9 78 10 14 11 12 12
REMARK SMILES IDX 13 13 10 14 11 15 9 16 6 18 7 19 8 20 5 21 1 22 2 23 3 24
REMARK SMILES IDX 80 25 4 26 79 27 22 28 23 29 24 30 25 31 26 32 27 33 28 35
REMARK SMILES IDX 29 36 30 37 76 38 31 39 75 40 32 41 33 42 34 43 69 44 35 45
REMARK SMILES IDX 74 46 68 47 70 48 36 49 73 50 67 51 66 52 37 54 59 55 44 56
REMARK SMILES IDX 58 57 45 58 48 59 57 60 71 61 46 62 47 63 56 65 72 66 49 67
REMARK SMILES IDX 38 68 39 69 43 70 40 71 42 72 41 73 60 74 61 75 65 76 62 77
REMARK SMILES IDX 64 78 63 79 50 80 51 81 55 82 52 83 54 84 53 85
REMARK H PARENT 21 4 9 17 26 34 70 53 48 64
REMARK Flexibility Score: inf
ROOT
ATOM      1  C   UNL A   1      33.126  28.868  23.982  1.00  0.00     0.261 C 
ATOM      2  O   UNL A   1      33.665  29.186  22.912  1.00  0.00    -0.268 OA
ATOM      3  N   UNL A   1      33.488  29.714  25.002  1.00  0.00    -0.351 N 
ATOM      4  H   UNL A   1      34.122  30.407  24.707  1.00  0.00     0.163 HD
ENDROOT
BRANCH   1   5
ATOM      5  C   UNL A   1      32.196  27.729  24.085  1.00  0.00     0.099 A 
ATOM      6  C   UNL A   1      30.977  25.727  24.315  1.00  0.00     0.145 A 
ATOM      7  C   UNL A   1      29.944  26.602  24.127  1.00  0.00     0.113 A 
ATOM      8  C   UNL A   1      32.280  26.336  24.177  1.00  0.00     0.015 A 
ATOM      9  S   UNL A   1      30.510  28.195  23.986  1.00  0.00    -0.134 S 
ATOM     10  C   UNL A   1      33.480  25.466  24.101  1.00  0.00     0.050 C 
BRANCH   6  11
ATOM     11  O   UNL A   1      30.744  24.397  24.462  1.00  0.00    -0.424 OA
BRANCH  11  12
ATOM     12  C   UNL A   1      30.646  23.936  25.751  1.00  0.00     0.329 C 
ATOM     13  O   UNL A   1      30.045  24.491  26.666  1.00  0.00    -0.250 OA
BRANCH  12  14
ATOM     14  C   UNL A   1      31.351  22.591  25.921  1.00  0.00     0.177 C 
ATOM     15  C   UNL A   1      32.430  22.637  26.993  1.00  0.00     0.038 C 
BRANCH  14  16
ATOM     16  N   UNL A   1      31.848  22.167  24.611  1.00  0.00    -0.197 NA
ATOM     17  H   UNL A   1      31.056  22.252  23.973  1.00  0.00     0.142 HD
BRANCH  16  18
ATOM     18  S   UNL A   1      32.509  20.670  24.315  1.00  0.00     0.241 S 
ATOM     19  O   UNL A   1      32.278  20.366  22.910  1.00  0.00    -0.207 OA
ATOM     20  O   UNL A   1      32.020  19.815  25.358  1.00  0.00    -0.207 OA
BRANCH  18  21
ATOM     21  C   UNL A   1      34.260  20.836  24.536  1.00  0.00     0.082 A 
ATOM     22  C   UNL A   1      38.428  21.473  25.377  1.00  0.00     0.044 C 
ATOM     23  C   UNL A   1      36.975  21.239  25.079  1.00  0.00    -0.051 A 
ATOM     24  C   UNL A   1      36.132  22.333  24.845  1.00  0.00     0.005 A 
ATOM     25  C   UNL A   1      36.452  19.941  25.004  1.00  0.00     0.005 A 
ATOM     26  C   UNL A   1      34.777  22.134  24.588  1.00  0.00     0.022 A 
ATOM     27  C   UNL A   1      35.099  19.735  24.720  1.00  0.00     0.022 A 
ENDBRANCH  18  21
ENDBRANCH  16  18
ENDBRANCH  14  16
ENDBRANCH  12  14
ENDBRANCH  11  12
ENDBRANCH   6  11
ENDBRANCH   1   5
BRANCH   3  28
ATOM     28  C   UNL A   1      33.159  29.828  26.404  1.00  0.00     0.116 C 
BRANCH  28  29
ATOM     29  C   UNL A   1      34.416  30.077  27.255  1.00  0.00     0.023 C 
BRANCH  29  30
ATOM     30  C   UNL A   1      34.688  31.528  27.632  1.00  0.00     0.023 C 
BRANCH  30  31
ATOM     31  C   UNL A   1      34.419  31.823  29.094  1.00  0.00     0.116 C 
BRANCH  31  32
ATOM     32  N   UNL A   1      33.788  33.106  29.377  1.00  0.00    -0.352 N 
ATOM     33  C   UNL A   1      34.292  34.197  30.072  1.00  0.00     0.251 C 
ATOM     34  H   UNL A   1      32.874  33.214  29.027  1.00  0.00     0.163 HD
ATOM     35  O   UNL A   1      33.566  35.161  30.297  1.00  0.00    -0.269 OA
BRANCH  33  36
ATOM     36  C   UNL A   1      35.745  34.278  30.387  1.00  0.00     0.039 A 
ATOM     37  C   UNL A   1      36.621  34.498  29.316  1.00  0.00     0.014 A 
ATOM     38  C   UNL A   1      36.241  33.809  31.596  1.00  0.00     0.014 A 
ATOM     39  C   UNL A   1      37.886  33.924  29.349  1.00  0.00     0.010 A 
ATOM     40  C   UNL A   1      37.413  33.094  31.573  1.00  0.00     0.010 A 
ATOM     41  C   UNL A   1      38.197  33.095  30.419  1.00  0.00    -0.014 A 
BRANCH  41  42
ATOM     42  C   UNL A   1      39.295  32.148  30.426  1.00  0.00     0.031 A 
ATOM     43  C   UNL A   1      39.025  30.759  30.040  1.00  0.00     0.074 A 
ATOM     44  C   UNL A   1      40.549  32.601  30.641  1.00  0.00     0.049 A 
ATOM     45  N   UNL A   1      39.779  29.761  30.337  1.00  0.00    -0.248 NA
ATOM     46  C   UNL A   1      37.816  30.375  29.316  1.00  0.00     0.031 C 
ATOM     47  C   UNL A   1      41.813  31.908  30.415  1.00  0.00     0.029 A 
ATOM     48  N   UNL A   1      40.910  33.758  31.333  1.00  0.00    -0.354 N 
ATOM     49  C   UNL A   1      39.351  28.696  29.580  1.00  0.00     0.074 A 
ATOM     50  C   UNL A   1      38.064  29.088  29.066  1.00  0.00     0.031 C 
ATOM     51  C   UNL A   1      42.762  32.480  31.177  1.00  0.00     0.029 A 
ATOM     52  C   UNL A   1      42.097  33.455  32.028  1.00  0.00     0.049 A 
ATOM     53  H   UNL A   1      40.430  34.617  31.335  1.00  0.00     0.167 HD
ATOM     54  C   UNL A   1      40.224  27.678  29.341  1.00  0.00     0.031 A 
ATOM     55  C   UNL A   1      42.091  33.415  33.394  1.00  0.00     0.031 A 
ATOM     56  C   UNL A   1      41.438  27.830  30.148  1.00  0.00     0.049 A 
ATOM     57  C   UNL A   1      42.357  32.028  33.947  1.00  0.00     0.074 A 
ATOM     58  C   UNL A   1      42.717  28.275  29.859  1.00  0.00     0.029 A 
ATOM     59  N   UNL A   1      41.321  27.848  31.536  1.00  0.00    -0.354 N 
ATOM     60  N   UNL A   1      42.234  30.926  33.257  1.00  0.00    -0.248 NA
ATOM     61  C   UNL A   1      42.779  31.775  35.322  1.00  0.00     0.031 C 
ATOM     62  C   UNL A   1      43.331  28.665  31.083  1.00  0.00     0.029 A 
ATOM     63  C   UNL A   1      42.441  28.416  32.115  1.00  0.00     0.049 A 
ATOM     64  H   UNL A   1      40.548  27.502  32.037  1.00  0.00     0.167 HD
ATOM     65  C   UNL A   1      42.559  29.848  34.039  1.00  0.00     0.074 A 
ATOM     66  C   UNL A   1      42.899  30.435  35.324  1.00  0.00     0.031 C 
ATOM     67  C   UNL A   1      42.522  28.566  33.565  1.00  0.00     0.031 A 
BRANCH  54  68
ATOM     68  C   UNL A   1      40.101  26.736  28.161  1.00  0.00    -0.014 A 
ATOM     69  C   UNL A   1      39.298  25.588  28.277  1.00  0.00     0.009 A 
ATOM     70  C   UNL A   1      40.804  26.863  26.950  1.00  0.00     0.009 A 
ATOM     71  C   UNL A   1      39.263  24.597  27.284  1.00  0.00     0.001 A 
ATOM     72  C   UNL A   1      40.793  25.868  25.960  1.00  0.00     0.001 A 
ATOM     73  C   UNL A   1      40.028  24.728  26.133  1.00  0.00     0.000 A 
ENDBRANCH  54  68
BRANCH  55  74
ATOM     74  C   UNL A   1      41.176  34.433  33.995  1.00  0.00    -0.014 A 
ATOM     75  C   UNL A   1      39.844  34.041  34.263  1.00  0.00     0.009 A 
ATOM     76  C   UNL A   1      41.680  35.563  34.654  1.00  0.00     0.009 A 
ATOM     77  C   UNL A   1      39.100  34.662  35.271  1.00  0.00     0.001 A 
ATOM     78  C   UNL A   1      40.918  36.197  35.647  1.00  0.00     0.001 A 
ATOM     79  C   UNL A   1      39.653  35.718  35.988  1.00  0.00     0.000 A 
ENDBRANCH  55  74
BRANCH  67  80
ATOM     80  C   UNL A   1      42.617  27.305  34.398  1.00  0.00    -0.014 A 
ATOM     81  C   UNL A   1      41.518  26.598  34.901  1.00  0.00     0.009 A 
ATOM     82  C   UNL A   1      43.885  26.708  34.587  1.00  0.00     0.009 A 
ATOM     83  C   UNL A   1      41.681  25.388  35.592  1.00  0.00     0.001 A 
ATOM     84  C   UNL A   1      44.048  25.475  35.223  1.00  0.00     0.001 A 
ATOM     85  C   UNL A   1      42.943  24.821  35.741  1.00  0.00     0.000 A 
ENDBRANCH  67  80
ENDBRANCH  41  42
ENDBRANCH  33  36
ENDBRANCH  31  32
ENDBRANCH  30  31
ENDBRANCH  29  30
ENDBRANCH  28  29
ENDBRANCH   3  28
TORSDOF 17
ENDMDL
