MODEL 1
REMARK VINA RESULT:     -12.7      0.000      0.000
REMARK SMILES Cc1ccc([C@H](C)NC(=O)[C@H]2[C@@H]3CC[C@@H](C3)[C@@H]2C(=O)NCCCCNC(=O)c2ccc(-c3c4nc(c(-c5ccccc5)c5ccc([nH]5)c(-c5ccccc5)c5nc(c(-c6ccccc6)c6ccc3[nH]6)C=C5)C=C4)cc2)cc1
REMARK SMILES IDX 22 1 21 2 20 3 18 4 19 5 17 7 11 8 12 9 13 10 16 11 15 12
REMARK SMILES IDX 14 13 9 14 8 15 10 17 6 18 7 19 5 20 1 21 2 22 3 23 77 24
REMARK SMILES IDX 4 25 76 26 23 27 24 28 25 29 26 30 27 32 28 33 29 34 75 35
REMARK SMILES IDX 30 36 74 37 31 38 32 39 33 40 68 41 34 42 73 43 67 44 69 45
REMARK SMILES IDX 35 46 72 47 66 48 65 49 36 51 58 52 43 53 57 54 44 55 47 56
REMARK SMILES IDX 56 57 70 58 45 59 46 60 55 62 71 63 48 64 37 65 38 66 42 67
REMARK SMILES IDX 39 68 41 69 40 70 59 71 60 72 64 73 61 74 63 75 62 76 49 77
REMARK SMILES IDX 50 78 54 79 51 80 53 81 52 82
REMARK H PARENT 20 6 8 16 25 31 69 50 47 61
REMARK Flexibility Score: inf
ROOT
ATOM      1  C   UNL A   1      38.076  23.686  26.022  1.00  0.00     0.023 C 
ENDROOT
BRANCH   1   2
ATOM      2  C   UNL A   1      36.689  23.240  25.526  1.00  0.00     0.116 C 
BRANCH   2   3
ATOM      3  N   UNL A   1      35.966  22.458  26.514  1.00  0.00    -0.356 N 
ATOM      4  C   UNL A   1      34.650  22.250  26.761  1.00  0.00     0.224 C 
ATOM      5  O   UNL A   1      34.396  21.496  27.707  1.00  0.00    -0.275 OA
ATOM      6  H   UNL A   1      36.559  21.977  27.136  1.00  0.00     0.163 HD
BRANCH   4   7
ATOM      7  C   UNL A   1      33.521  22.762  25.866  1.00  0.00     0.094 C 
ATOM      8  C   UNL A   1      32.066  22.437  26.203  1.00  0.00     0.094 C 
ATOM      9  C   UNL A   1      31.512  21.768  24.922  1.00  0.00     0.002 C 
ATOM     10  C   UNL A   1      32.118  20.349  24.830  1.00  0.00     0.005 C 
ATOM     11  C   UNL A   1      32.268  22.468  23.803  1.00  0.00     0.009 C 
ATOM     12  C   UNL A   1      33.639  22.175  24.419  1.00  0.00     0.002 C 
ATOM     13  C   UNL A   1      33.582  20.630  24.456  1.00  0.00     0.005 C 
BRANCH   8  14
ATOM     14  C   UNL A   1      31.166  23.541  26.759  1.00  0.00     0.224 C 
ATOM     15  N   UNL A   1      31.196  24.854  26.449  1.00  0.00    -0.349 N 
ATOM     16  H   UNL A   1      30.559  25.377  26.987  1.00  0.00     0.164 HD
ATOM     17  O   UNL A   1      30.299  23.216  27.586  1.00  0.00    -0.275 OA
BRANCH  15  18
ATOM     18  C   UNL A   1      31.940  25.691  25.512  1.00  0.00     0.109 C 
ATOM     19  C   UNL A   1      31.110  25.903  24.244  1.00  0.00     0.036 C 
BRANCH  18  20
ATOM     20  C   UNL A   1      32.348  27.018  26.128  1.00  0.00    -0.026 A 
ATOM     21  C   UNL A   1      33.544  30.925  27.562  1.00  0.00     0.044 C 
ATOM     22  C   UNL A   1      33.126  29.561  27.098  1.00  0.00    -0.051 A 
ATOM     23  C   UNL A   1      34.057  28.725  26.476  1.00  0.00     0.004 A 
ATOM     24  C   UNL A   1      31.813  29.108  27.259  1.00  0.00     0.004 A 
ATOM     25  C   UNL A   1      33.671  27.473  25.992  1.00  0.00     0.006 A 
ATOM     26  C   UNL A   1      31.428  27.849  26.784  1.00  0.00     0.006 A 
ENDBRANCH  18  20
ENDBRANCH  15  18
ENDBRANCH   8  14
ENDBRANCH   4   7
ENDBRANCH   2   3
ENDBRANCH   1   2
BRANCH   1  27
ATOM     27  C   UNL A   1      39.122  22.568  26.113  1.00  0.00     0.023 C 
BRANCH  27  28
ATOM     28  C   UNL A   1      40.069  22.722  27.292  1.00  0.00     0.116 C 
BRANCH  28  29
ATOM     29  N   UNL A   1      41.383  23.258  26.956  1.00  0.00    -0.352 N 
ATOM     30  C   UNL A   1      41.774  24.586  26.824  1.00  0.00     0.251 C 
ATOM     31  H   UNL A   1      42.088  22.589  26.802  1.00  0.00     0.163 HD
ATOM     32  O   UNL A   1      42.904  24.875  26.503  1.00  0.00    -0.269 OA
BRANCH  30  33
ATOM     33  C   UNL A   1      40.807  25.646  27.217  1.00  0.00     0.039 A 
ATOM     34  C   UNL A   1      40.820  26.836  26.483  1.00  0.00     0.014 A 
ATOM     35  C   UNL A   1      40.103  25.562  28.415  1.00  0.00     0.014 A 
ATOM     36  C   UNL A   1      40.355  28.004  27.080  1.00  0.00     0.010 A 
ATOM     37  C   UNL A   1      39.734  26.733  29.049  1.00  0.00     0.010 A 
ATOM     38  C   UNL A   1      39.925  27.959  28.408  1.00  0.00    -0.014 A 
BRANCH  38  39
ATOM     39  C   UNL A   1      39.777  29.158  29.226  1.00  0.00     0.031 A 
ATOM     40  C   UNL A   1      38.744  30.158  28.903  1.00  0.00     0.074 A 
ATOM     41  C   UNL A   1      40.605  29.380  30.269  1.00  0.00     0.049 A 
ATOM     42  N   UNL A   1      38.892  31.430  29.080  1.00  0.00    -0.248 NA
ATOM     43  C   UNL A   1      37.461  29.792  28.312  1.00  0.00     0.031 C 
ATOM     44  C   UNL A   1      40.505  30.430  31.279  1.00  0.00     0.029 A 
ATOM     45  N   UNL A   1      41.850  28.814  30.494  1.00  0.00    -0.354 N 
ATOM     46  C   UNL A   1      37.656  32.001  28.909  1.00  0.00     0.074 A 
ATOM     47  C   UNL A   1      36.818  30.961  28.354  1.00  0.00     0.031 C 
ATOM     48  C   UNL A   1      41.710  30.599  31.849  1.00  0.00     0.029 A 
ATOM     49  C   UNL A   1      42.659  29.754  31.142  1.00  0.00     0.049 A 
ATOM     50  H   UNL A   1      42.121  27.902  30.240  1.00  0.00     0.167 HD
ATOM     51  C   UNL A   1      37.394  33.245  29.395  1.00  0.00     0.031 A 
ATOM     52  C   UNL A   1      43.817  30.188  30.565  1.00  0.00     0.031 A 
ATOM     53  C   UNL A   1      38.549  33.845  30.050  1.00  0.00     0.049 A 
ATOM     54  C   UNL A   1      43.799  31.658  30.194  1.00  0.00     0.074 A 
ATOM     55  C   UNL A   1      38.931  33.940  31.379  1.00  0.00     0.029 A 
ATOM     56  N   UNL A   1      39.671  34.170  29.296  1.00  0.00    -0.354 N 
ATOM     57  N   UNL A   1      42.727  32.401  30.197  1.00  0.00    -0.248 NA
ATOM     58  C   UNL A   1      44.978  32.391  29.735  1.00  0.00     0.031 C 
ATOM     59  C   UNL A   1      40.320  34.226  31.417  1.00  0.00     0.029 A 
ATOM     60  C   UNL A   1      40.772  34.338  30.115  1.00  0.00     0.049 A 
ATOM     61  H   UNL A   1      39.679  34.265  28.316  1.00  0.00     0.167 HD
ATOM     62  C   UNL A   1      43.031  33.646  29.717  1.00  0.00     0.074 A 
ATOM     63  C   UNL A   1      44.459  33.602  29.467  1.00  0.00     0.031 C 
ATOM     64  C   UNL A   1      42.081  34.610  29.542  1.00  0.00     0.031 A 
BRANCH  51  65
ATOM     65  C   UNL A   1      35.974  33.707  29.551  1.00  0.00    -0.014 A 
ATOM     66  C   UNL A   1      35.252  34.154  28.433  1.00  0.00     0.009 A 
ATOM     67  C   UNL A   1      35.334  33.799  30.800  1.00  0.00     0.009 A 
ATOM     68  C   UNL A   1      33.998  34.762  28.566  1.00  0.00     0.001 A 
ATOM     69  C   UNL A   1      34.099  34.445  30.943  1.00  0.00     0.001 A 
ATOM     70  C   UNL A   1      33.437  34.938  29.825  1.00  0.00     0.000 A 
ENDBRANCH  51  65
BRANCH  52  71
ATOM     71  C   UNL A   1      44.523  29.127  29.790  1.00  0.00    -0.014 A 
ATOM     72  C   UNL A   1      45.130  28.078  30.508  1.00  0.00     0.009 A 
ATOM     73  C   UNL A   1      44.287  28.951  28.420  1.00  0.00     0.009 A 
ATOM     74  C   UNL A   1      45.380  26.842  29.902  1.00  0.00     0.001 A 
ATOM     75  C   UNL A   1      44.552  27.716  27.813  1.00  0.00     0.001 A 
ATOM     76  C   UNL A   1      45.061  26.654  28.562  1.00  0.00     0.000 A 
ENDBRANCH  52  71
BRANCH  64  77
ATOM     77  C   UNL A   1      42.313  35.935  28.869  1.00  0.00    -0.014 A 
ATOM     78  C   UNL A   1      43.044  36.984  29.442  1.00  0.00     0.009 A 
ATOM     79  C   UNL A   1      41.886  36.103  27.534  1.00  0.00     0.009 A 
ATOM     80  C   UNL A   1      43.290  38.166  28.732  1.00  0.00     0.001 A 
ATOM     81  C   UNL A   1      42.163  37.265  26.811  1.00  0.00     0.001 A 
ATOM     82  C   UNL A   1      42.855  38.304  27.417  1.00  0.00     0.000 A 
ENDBRANCH  64  77
ENDBRANCH  38  39
ENDBRANCH  30  33
ENDBRANCH  28  29
ENDBRANCH  27  28
ENDBRANCH   1  27
TORSDOF 14
ENDMDL
MODEL 2
REMARK VINA RESULT:     -12.6      3.702      8.892
REMARK SMILES Cc1ccc([C@H](C)NC(=O)[C@H]2[C@@H]3CC[C@@H](C3)[C@@H]2C(=O)NCCCCNC(=O)c2ccc(-c3c4nc(c(-c5ccccc5)c5ccc([nH]5)c(-c5ccccc5)c5nc(c(-c6ccccc6)c6ccc3[nH]6)C=C5)C=C4)cc2)cc1
REMARK SMILES IDX 22 1 21 2 20 3 18 4 19 5 17 7 11 8 12 9 13 10 16 11 15 12
REMARK SMILES IDX 14 13 9 14 8 15 10 17 6 18 7 19 5 20 1 21 2 22 3 23 77 24
REMARK SMILES IDX 4 25 76 26 23 27 24 28 25 29 26 30 27 32 28 33 29 34 75 35
REMARK SMILES IDX 30 36 74 37 31 38 32 39 33 40 68 41 34 42 73 43 67 44 69 45
REMARK SMILES IDX 35 46 72 47 66 48 65 49 36 51 58 52 43 53 57 54 44 55 47 56
REMARK SMILES IDX 56 57 70 58 45 59 46 60 55 62 71 63 48 64 37 65 38 66 42 67
REMARK SMILES IDX 39 68 41 69 40 70 59 71 60 72 64 73 61 74 63 75 62 76 49 77
REMARK SMILES IDX 50 78 54 79 51 80 53 81 52 82
REMARK H PARENT 20 6 8 16 25 31 69 50 47 61
REMARK Flexibility Score: inf
ROOT
ATOM      1  C   UNL A   1      32.716  29.371  26.987  1.00  0.00     0.023 C 
ENDROOT
BRANCH   1   2
ATOM      2  C   UNL A   1      33.775  28.486  26.305  1.00  0.00     0.116 C 
BRANCH   2   3
ATOM      3  N   UNL A   1      34.030  28.878  24.930  1.00  0.00    -0.356 N 
ATOM      4  C   UNL A   1      33.708  28.339  23.729  1.00  0.00     0.224 C 
ATOM      5  O   UNL A   1      34.098  28.969  22.739  1.00  0.00    -0.275 OA
ATOM      6  H   UNL A   1      34.547  29.713  24.855  1.00  0.00     0.163 HD
BRANCH   4   7
ATOM      7  C   UNL A   1      32.796  27.124  23.554  1.00  0.00     0.094 C 
ATOM      8  C   UNL A   1      32.251  26.765  22.172  1.00  0.00     0.094 C 
ATOM      9  C   UNL A   1      30.716  26.715  22.361  1.00  0.00     0.002 C 
ATOM     10  C   UNL A   1      30.210  28.168  22.510  1.00  0.00     0.005 C 
ATOM     11  C   UNL A   1      30.553  26.214  23.788  1.00  0.00     0.009 C 
ATOM     12  C   UNL A   1      31.471  27.294  24.371  1.00  0.00     0.002 C 
ATOM     13  C   UNL A   1      30.709  28.558  23.910  1.00  0.00     0.005 C 
BRANCH   8  14
ATOM     14  C   UNL A   1      32.821  25.550  21.439  1.00  0.00     0.224 C 
ATOM     15  N   UNL A   1      33.101  24.338  21.963  1.00  0.00    -0.349 N 
ATOM     16  H   UNL A   1      33.522  23.738  21.305  1.00  0.00     0.164 HD
ATOM     17  O   UNL A   1      33.055  25.666  20.226  1.00  0.00    -0.275 OA
BRANCH  15  18
ATOM     18  C   UNL A   1      32.935  23.696  23.263  1.00  0.00     0.109 C 
ATOM     19  C   UNL A   1      32.303  22.315  23.076  1.00  0.00     0.036 C 
BRANCH  18  20
ATOM     20  C   UNL A   1      34.244  23.601  24.028  1.00  0.00    -0.026 A 
ATOM     21  C   UNL A   1      38.090  23.594  26.017  1.00  0.00     0.044 C 
ATOM     22  C   UNL A   1      36.747  23.570  25.348  1.00  0.00    -0.051 A 
ATOM     23  C   UNL A   1      36.642  23.149  24.021  1.00  0.00     0.004 A 
ATOM     24  C   UNL A   1      35.592  23.979  26.022  1.00  0.00     0.004 A 
ATOM     25  C   UNL A   1      35.408  23.170  23.368  1.00  0.00     0.006 A 
ATOM     26  C   UNL A   1      34.353  23.990  25.371  1.00  0.00     0.006 A 
ENDBRANCH  18  20
ENDBRANCH  15  18
ENDBRANCH   8  14
ENDBRANCH   4   7
ENDBRANCH   2   3
ENDBRANCH   1   2
BRANCH   1  27
ATOM     27  C   UNL A   1      33.201  30.767  27.394  1.00  0.00     0.023 C 
BRANCH  27  28
ATOM     28  C   UNL A   1      34.699  30.836  27.641  1.00  0.00     0.116 C 
BRANCH  28  29
ATOM     29  N   UNL A   1      35.083  31.418  28.921  1.00  0.00    -0.352 N 
ATOM     30  C   UNL A   1      36.076  31.006  29.803  1.00  0.00     0.251 C 
ATOM     31  H   UNL A   1      34.569  32.210  29.200  1.00  0.00     0.163 HD
ATOM     32  O   UNL A   1      36.254  31.575  30.855  1.00  0.00    -0.269 OA
BRANCH  30  33
ATOM     33  C   UNL A   1      37.003  29.928  29.363  1.00  0.00     0.039 A 
ATOM     34  C   UNL A   1      37.304  28.920  30.283  1.00  0.00     0.014 A 
ATOM     35  C   UNL A   1      37.737  30.055  28.187  1.00  0.00     0.014 A 
ATOM     36  C   UNL A   1      38.499  28.217  30.150  1.00  0.00     0.010 A 
ATOM     37  C   UNL A   1      38.969  29.433  28.106  1.00  0.00     0.010 A 
ATOM     38  C   UNL A   1      39.378  28.568  29.124  1.00  0.00    -0.014 A 
BRANCH  38  39
ATOM     39  C   UNL A   1      40.780  28.165  29.119  1.00  0.00     0.031 A 
ATOM     40  C   UNL A   1      41.184  26.876  28.532  1.00  0.00     0.074 A 
ATOM     41  C   UNL A   1      41.719  28.955  29.683  1.00  0.00     0.049 A 
ATOM     42  N   UNL A   1      42.151  26.149  28.985  1.00  0.00    -0.248 NA
ATOM     43  C   UNL A   1      40.490  26.286  27.391  1.00  0.00     0.031 C 
ATOM     44  C   UNL A   1      43.169  28.791  29.632  1.00  0.00     0.029 A 
ATOM     45  N   UNL A   1      41.527  29.962  30.616  1.00  0.00    -0.354 N 
ATOM     46  C   UNL A   1      42.389  25.174  28.048  1.00  0.00     0.074 A 
ATOM     47  C   UNL A   1      41.283  25.247  27.119  1.00  0.00     0.031 C 
ATOM     48  C   UNL A   1      43.719  29.476  30.650  1.00  0.00     0.029 A 
ATOM     49  C   UNL A   1      42.637  30.004  31.466  1.00  0.00     0.049 A 
ATOM     50  H   UNL A   1      40.739  30.551  30.671  1.00  0.00     0.167 HD
ATOM     51  C   UNL A   1      43.569  24.496  28.037  1.00  0.00     0.031 A 
ATOM     52  C   UNL A   1      42.492  29.793  32.807  1.00  0.00     0.031 A 
ATOM     53  C   UNL A   1      44.464  24.912  29.109  1.00  0.00     0.049 A 
ATOM     54  C   UNL A   1      43.174  28.534  33.302  1.00  0.00     0.074 A 
ATOM     55  C   UNL A   1      45.533  25.793  29.151  1.00  0.00     0.029 A 
ATOM     56  N   UNL A   1      44.114  24.658  30.430  1.00  0.00    -0.354 N 
ATOM     57  N   UNL A   1      43.656  27.605  32.522  1.00  0.00    -0.248 NA
ATOM     58  C   UNL A   1      43.314  28.193  34.718  1.00  0.00     0.031 C 
ATOM     59  C   UNL A   1      45.757  26.146  30.506  1.00  0.00     0.029 A 
ATOM     60  C   UNL A   1      44.850  25.453  31.287  1.00  0.00     0.049 A 
ATOM     61  H   UNL A   1      43.435  24.002  30.714  1.00  0.00     0.167 HD
ATOM     62  C   UNL A   1      44.111  26.560  33.279  1.00  0.00     0.074 A 
ATOM     63  C   UNL A   1      43.902  26.985  34.650  1.00  0.00     0.031 C 
ATOM     64  C   UNL A   1      44.603  25.417  32.720  1.00  0.00     0.031 A 
BRANCH  51  65
ATOM     65  C   UNL A   1      43.980  23.725  26.816  1.00  0.00    -0.014 A 
ATOM     66  C   UNL A   1      44.667  24.370  25.774  1.00  0.00     0.009 A 
ATOM     67  C   UNL A   1      43.635  22.377  26.612  1.00  0.00     0.009 A 
ATOM     68  C   UNL A   1      44.902  23.735  24.549  1.00  0.00     0.001 A 
ATOM     69  C   UNL A   1      43.829  21.752  25.373  1.00  0.00     0.001 A 
ATOM     70  C   UNL A   1      44.452  22.438  24.337  1.00  0.00     0.000 A 
ENDBRANCH  51  65
BRANCH  52  71
ATOM     71  C   UNL A   1      41.216  30.338  33.354  1.00  0.00    -0.014 A 
ATOM     72  C   UNL A   1      41.053  31.738  33.381  1.00  0.00     0.009 A 
ATOM     73  C   UNL A   1      40.079  29.529  33.485  1.00  0.00     0.009 A 
ATOM     74  C   UNL A   1      39.778  32.312  33.413  1.00  0.00     0.001 A 
ATOM     75  C   UNL A   1      38.804  30.109  33.531  1.00  0.00     0.001 A 
ATOM     76  C   UNL A   1      38.654  31.495  33.457  1.00  0.00     0.000 A 
ENDBRANCH  52  71
BRANCH  64  77
ATOM     77  C   UNL A   1      44.963  24.172  33.483  1.00  0.00    -0.014 A 
ATOM     78  C   UNL A   1      46.237  23.920  34.009  1.00  0.00     0.009 A 
ATOM     79  C   UNL A   1      43.941  23.253  33.805  1.00  0.00     0.009 A 
ATOM     80  C   UNL A   1      46.490  22.776  34.777  1.00  0.00     0.001 A 
ATOM     81  C   UNL A   1      44.181  22.132  34.603  1.00  0.00     0.001 A 
ATOM     82  C   UNL A   1      45.462  21.886  35.078  1.00  0.00     0.000 A 
ENDBRANCH  64  77
ENDBRANCH  38  39
ENDBRANCH  30  33
ENDBRANCH  28  29
ENDBRANCH  27  28
ENDBRANCH   1  27
TORSDOF 14
ENDMDL
MODEL 3
REMARK VINA RESULT:     -12.5      3.353      8.489
REMARK SMILES Cc1ccc([C@H](C)NC(=O)[C@H]2[C@@H]3CC[C@@H](C3)[C@@H]2C(=O)NCCCCNC(=O)c2ccc(-c3c4nc(c(-c5ccccc5)c5ccc([nH]5)c(-c5ccccc5)c5nc(c(-c6ccccc6)c6ccc3[nH]6)C=C5)C=C4)cc2)cc1
REMARK SMILES IDX 22 1 21 2 20 3 18 4 19 5 17 7 11 8 12 9 13 10 16 11 15 12
REMARK SMILES IDX 14 13 9 14 8 15 10 17 6 18 7 19 5 20 1 21 2 22 3 23 77 24
REMARK SMILES IDX 4 25 76 26 23 27 24 28 25 29 26 30 27 32 28 33 29 34 75 35
REMARK SMILES IDX 30 36 74 37 31 38 32 39 33 40 68 41 34 42 73 43 67 44 69 45
REMARK SMILES IDX 35 46 72 47 66 48 65 49 36 51 58 52 43 53 57 54 44 55 47 56
REMARK SMILES IDX 56 57 70 58 45 59 46 60 55 62 71 63 48 64 37 65 38 66 42 67
REMARK SMILES IDX 39 68 41 69 40 70 59 71 60 72 64 73 61 74 63 75 62 76 49 77
REMARK SMILES IDX 50 78 54 79 51 80 53 81 52 82
REMARK H PARENT 20 6 8 16 25 31 69 50 47 61
REMARK Flexibility Score: inf
ROOT
ATOM      1  C   UNL A   1      32.127  28.901  26.458  1.00  0.00     0.023 C 
ENDROOT
BRANCH   1   2
ATOM      2  C   UNL A   1      33.124  27.729  26.483  1.00  0.00     0.116 C 
BRANCH   2   3
ATOM      3  N   UNL A   1      32.466  26.437  26.570  1.00  0.00    -0.356 N 
ATOM      4  C   UNL A   1      32.621  25.263  25.910  1.00  0.00     0.224 C 
ATOM      5  O   UNL A   1      31.868  24.348  26.264  1.00  0.00    -0.275 OA
ATOM      6  H   UNL A   1      31.757  26.408  27.253  1.00  0.00     0.163 HD
BRANCH   4   7
ATOM      7  C   UNL A   1      33.736  24.990  24.900  1.00  0.00     0.094 C 
ATOM      8  C   UNL A   1      33.476  24.092  23.692  1.00  0.00     0.094 C 
ATOM      9  C   UNL A   1      34.567  22.998  23.779  1.00  0.00     0.002 C 
ATOM     10  C   UNL A   1      34.193  22.048  24.939  1.00  0.00     0.005 C 
ATOM     11  C   UNL A   1      35.753  23.731  24.388  1.00  0.00     0.009 C 
ATOM     12  C   UNL A   1      34.939  24.251  25.577  1.00  0.00     0.002 C 
ATOM     13  C   UNL A   1      34.477  22.906  26.182  1.00  0.00     0.005 C 
BRANCH   8  14
ATOM     14  C   UNL A   1      33.349  24.726  22.306  1.00  0.00     0.224 C 
ATOM     15  N   UNL A   1      33.093  26.020  22.020  1.00  0.00    -0.349 N 
ATOM     16  H   UNL A   1      32.994  26.174  21.053  1.00  0.00     0.164 HD
ATOM     17  O   UNL A   1      33.498  23.990  21.319  1.00  0.00    -0.275 OA
BRANCH  15  18
ATOM     18  C   UNL A   1      32.927  27.249  22.791  1.00  0.00     0.109 C 
ATOM     19  C   UNL A   1      33.880  28.320  22.259  1.00  0.00     0.036 C 
BRANCH  18  20
ATOM     20  C   UNL A   1      31.490  27.741  22.783  1.00  0.00    -0.026 A 
ATOM     21  C   UNL A   1      27.420  29.184  23.101  1.00  0.00     0.044 C 
ATOM     22  C   UNL A   1      28.826  28.682  22.956  1.00  0.00    -0.051 A 
ATOM     23  C   UNL A   1      29.162  27.415  23.441  1.00  0.00     0.004 A 
ATOM     24  C   UNL A   1      29.819  29.463  22.359  1.00  0.00     0.004 A 
ATOM     25  C   UNL A   1      30.479  26.955  23.360  1.00  0.00     0.006 A 
ATOM     26  C   UNL A   1      31.136  28.998  22.268  1.00  0.00     0.006 A 
ENDBRANCH  18  20
ENDBRANCH  15  18
ENDBRANCH   8  14
ENDBRANCH   4   7
ENDBRANCH   2   3
ENDBRANCH   1   2
BRANCH   1  27
ATOM     27  C   UNL A   1      32.554  30.133  27.265  1.00  0.00     0.023 C 
BRANCH  27  28
ATOM     28  C   UNL A   1      34.060  30.332  27.311  1.00  0.00     0.116 C 
BRANCH  28  29
ATOM     29  N   UNL A   1      34.528  31.222  28.366  1.00  0.00    -0.352 N 
ATOM     30  C   UNL A   1      35.641  31.086  29.190  1.00  0.00     0.251 C 
ATOM     31  H   UNL A   1      33.984  32.029  28.515  1.00  0.00     0.163 HD
ATOM     32  O   UNL A   1      35.882  31.899  30.053  1.00  0.00    -0.269 OA
BRANCH  30  33
ATOM     33  C   UNL A   1      36.600  29.987  28.900  1.00  0.00     0.039 A 
ATOM     34  C   UNL A   1      36.937  29.129  29.951  1.00  0.00     0.014 A 
ATOM     35  C   UNL A   1      37.327  29.969  27.713  1.00  0.00     0.014 A 
ATOM     36  C   UNL A   1      38.153  28.452  29.909  1.00  0.00     0.010 A 
ATOM     37  C   UNL A   1      38.578  29.382  27.711  1.00  0.00     0.010 A 
ATOM     38  C   UNL A   1      39.017  28.682  28.837  1.00  0.00    -0.014 A 
BRANCH  38  39
ATOM     39  C   UNL A   1      40.431  28.327  28.880  1.00  0.00     0.031 A 
ATOM     40  C   UNL A   1      40.895  27.042  28.327  1.00  0.00     0.074 A 
ATOM     41  C   UNL A   1      41.327  29.158  29.456  1.00  0.00     0.049 A 
ATOM     42  N   UNL A   1      41.873  26.356  28.820  1.00  0.00    -0.248 NA
ATOM     43  C   UNL A   1      40.254  26.410  27.178  1.00  0.00     0.031 C 
ATOM     44  C   UNL A   1      42.783  29.042  29.448  1.00  0.00     0.029 A 
ATOM     45  N   UNL A   1      41.074  30.174  30.364  1.00  0.00    -0.354 N 
ATOM     46  C   UNL A   1      42.169  25.374  27.908  1.00  0.00     0.074 A 
ATOM     47  C   UNL A   1      41.089  25.394  26.947  1.00  0.00     0.031 C 
ATOM     48  C   UNL A   1      43.280  29.763  30.468  1.00  0.00     0.029 A 
ATOM     49  C   UNL A   1      42.158  30.268  31.244  1.00  0.00     0.049 A 
ATOM     50  H   UNL A   1      40.267  30.736  30.387  1.00  0.00     0.167 HD
ATOM     51  C   UNL A   1      43.371  24.737  27.943  1.00  0.00     0.031 A 
ATOM     52  C   UNL A   1      41.981  30.075  32.584  1.00  0.00     0.031 A 
ATOM     53  C   UNL A   1      44.221  25.201  29.031  1.00  0.00     0.049 A 
ATOM     54  C   UNL A   1      42.691  28.848  33.121  1.00  0.00     0.074 A 
ATOM     55  C   UNL A   1      45.258  26.118  29.088  1.00  0.00     0.029 A 
ATOM     56  N   UNL A   1      43.841  24.957  30.346  1.00  0.00    -0.354 N 
ATOM     57  N   UNL A   1      43.225  27.923  32.371  1.00  0.00    -0.248 NA
ATOM     58  C   UNL A   1      42.802  28.536  34.546  1.00  0.00     0.031 C 
ATOM     59  C   UNL A   1      45.432  26.501  30.442  1.00  0.00     0.029 A 
ATOM     60  C   UNL A   1      44.526  25.792  31.209  1.00  0.00     0.049 A 
ATOM     61  H   UNL A   1      43.177  24.284  30.623  1.00  0.00     0.167 HD
ATOM     62  C   UNL A   1      43.693  26.907  33.160  1.00  0.00     0.074 A 
ATOM     63  C   UNL A   1      43.431  27.348  34.516  1.00  0.00     0.031 C 
ATOM     64  C   UNL A   1      44.239  25.771  32.635  1.00  0.00     0.031 A 
BRANCH  51  65
ATOM     65  C   UNL A   1      43.843  23.960  26.747  1.00  0.00    -0.014 A 
ATOM     66  C   UNL A   1      43.625  22.574  26.678  1.00  0.00     0.009 A 
ATOM     67  C   UNL A   1      44.584  24.540  25.703  1.00  0.00     0.009 A 
ATOM     68  C   UNL A   1      44.208  21.790  25.675  1.00  0.00     0.001 A 
ATOM     69  C   UNL A   1      45.205  23.755  24.722  1.00  0.00     0.001 A 
ATOM     70  C   UNL A   1      45.026  22.377  24.717  1.00  0.00     0.000 A 
ENDBRANCH  51  65
BRANCH  52  71
ATOM     71  C   UNL A   1      40.673  30.585  33.085  1.00  0.00    -0.014 A 
ATOM     72  C   UNL A   1      40.437  31.973  33.022  1.00  0.00     0.009 A 
ATOM     73  C   UNL A   1      39.578  29.728  33.259  1.00  0.00     0.009 A 
ATOM     74  C   UNL A   1      39.134  32.480  33.007  1.00  0.00     0.001 A 
ATOM     75  C   UNL A   1      38.275  30.242  33.258  1.00  0.00     0.001 A 
ATOM     76  C   UNL A   1      38.053  31.610  33.094  1.00  0.00     0.000 A 
ENDBRANCH  52  71
BRANCH  64  77
ATOM     77  C   UNL A   1      44.619  24.552  33.430  1.00  0.00    -0.014 A 
ATOM     78  C   UNL A   1      43.738  23.503  33.719  1.00  0.00     0.009 A 
ATOM     79  C   UNL A   1      45.969  24.380  33.803  1.00  0.00     0.009 A 
ATOM     80  C   UNL A   1      44.173  22.358  34.398  1.00  0.00     0.001 A 
ATOM     81  C   UNL A   1      46.415  23.222  34.446  1.00  0.00     0.001 A 
ATOM     82  C   UNL A   1      45.512  22.216  34.755  1.00  0.00     0.000 A 
ENDBRANCH  64  77
ENDBRANCH  38  39
ENDBRANCH  30  33
ENDBRANCH  28  29
ENDBRANCH  27  28
ENDBRANCH   1  27
TORSDOF 14
ENDMDL
