MODEL 1
REMARK VINA RESULT:     -10.9      0.000      0.000
REMARK SMILES Cc1onc(-c2cnn(C)c2C)c1C(=O)NCCCCNC(=O)c1ccc(-c2c3nc(c(-c4ccccc4)c4ccc([nH]4)c(-c4ccccc4)c4nc(c(-c5ccccc5)c5ccc2[nH]5)C=C4)C=C3)cc1
REMARK SMILES IDX 19 1 18 2 17 3 16 4 14 5 15 6 13 8 1 9 2 10 3 11 4 12 5 13
REMARK SMILES IDX 6 14 7 15 11 16 8 17 9 18 12 19 10 20 20 21 21 22 22 23
REMARK SMILES IDX 23 25 24 26 25 27 71 28 26 29 70 30 27 31 28 32 29 33 64 34
REMARK SMILES IDX 30 35 69 36 63 37 65 38 31 39 68 40 62 41 61 42 32 44 54 45
REMARK SMILES IDX 39 46 53 47 40 48 43 49 52 50 66 51 41 52 42 53 51 55 67 56
REMARK SMILES IDX 44 57 33 58 34 59 38 60 35 61 37 62 36 63 55 64 56 65 60 66
REMARK SMILES IDX 57 67 59 68 58 69 45 70 46 71 50 72 47 73 49 74 48 75
REMARK H PARENT 16 7 21 24 65 43 43 54
REMARK Flexibility Score: inf
ROOT
ATOM      1  C   UNL A   1      37.722  20.168  24.921  1.00  0.00     0.023 C 
ENDROOT
BRANCH   1   2
ATOM      2  C   UNL A   1      36.445  20.909  25.326  1.00  0.00     0.023 C 
BRANCH   2   3
ATOM      3  C   UNL A   1      36.585  22.430  25.416  1.00  0.00     0.116 C 
BRANCH   3   4
ATOM      4  N   UNL A   1      36.031  23.050  24.241  1.00  0.00    -0.352 N 
ATOM      5  C   UNL A   1      34.822  23.599  23.920  1.00  0.00     0.257 C 
ATOM      6  O   UNL A   1      34.757  23.945  22.738  1.00  0.00    -0.269 OA
ATOM      7  H   UNL A   1      36.673  23.086  23.495  1.00  0.00     0.163 HD
BRANCH   5   8
ATOM      8  C   UNL A   1      33.707  23.822  24.835  1.00  0.00     0.110 A 
ATOM      9  C   UNL A   1      33.614  26.324  25.822  1.00  0.00     0.092 C 
ATOM     10  C   UNL A   1      33.243  24.921  25.552  1.00  0.00     0.147 A 
ATOM     11  O   UNL A   1      32.108  24.586  26.226  1.00  0.00    -0.360 OA
ATOM     12  N   UNL A   1      31.810  23.270  26.029  1.00  0.00    -0.079 NA
ATOM     13  C   UNL A   1      32.776  22.798  25.240  1.00  0.00     0.130 A 
BRANCH  13  14
ATOM     14  C   UNL A   1      32.771  21.386  24.874  1.00  0.00     0.045 A 
ATOM     15  C   UNL A   1      32.983  20.301  25.743  1.00  0.00     0.145 A 
ATOM     16  C   UNL A   1      32.459  20.819  23.652  1.00  0.00     0.044 A 
ATOM     17  N   UNL A   1      32.834  19.124  25.127  1.00  0.00    -0.181 NA
ATOM     18  N   UNL A   1      32.528  19.464  23.860  1.00  0.00    -0.272 N 
ATOM     19  C   UNL A   1      32.108  21.458  22.360  1.00  0.00     0.067 C 
ATOM     20  C   UNL A   1      32.289  18.415  22.896  1.00  0.00     0.174 C 
ENDBRANCH  13  14
ENDBRANCH   5   8
ENDBRANCH   3   4
ENDBRANCH   2   3
ENDBRANCH   1   2
BRANCH   1  21
ATOM     21  C   UNL A   1      38.960  20.528  25.733  1.00  0.00     0.116 C 
BRANCH  21  22
ATOM     22  N   UNL A   1      39.978  19.489  25.734  1.00  0.00    -0.352 N 
ATOM     23  C   UNL A   1      41.296  19.590  26.108  1.00  0.00     0.251 C 
ATOM     24  H   UNL A   1      39.685  18.600  25.429  1.00  0.00     0.163 HD
ATOM     25  O   UNL A   1      42.058  18.639  25.973  1.00  0.00    -0.269 OA
BRANCH  23  26
ATOM     26  C   UNL A   1      41.796  20.877  26.627  1.00  0.00     0.039 A 
ATOM     27  C   UNL A   1      42.296  21.817  25.722  1.00  0.00     0.014 A 
ATOM     28  C   UNL A   1      41.720  21.172  27.990  1.00  0.00     0.014 A 
ATOM     29  C   UNL A   1      42.651  23.086  26.177  1.00  0.00     0.010 A 
ATOM     30  C   UNL A   1      42.013  22.457  28.431  1.00  0.00     0.010 A 
ATOM     31  C   UNL A   1      42.475  23.427  27.528  1.00  0.00    -0.014 A 
BRANCH  31  32
ATOM     32  C   UNL A   1      42.758  24.797  28.018  1.00  0.00     0.031 A 
ATOM     33  C   UNL A   1      44.155  25.181  28.413  1.00  0.00     0.074 A 
ATOM     34  C   UNL A   1      41.744  25.669  28.178  1.00  0.00     0.049 A 
ATOM     35  N   UNL A   1      44.586  26.303  28.931  1.00  0.00    -0.248 NA
ATOM     36  C   UNL A   1      45.200  24.161  28.230  1.00  0.00     0.031 C 
ATOM     37  C   UNL A   1      40.336  25.401  27.873  1.00  0.00     0.029 A 
ATOM     38  N   UNL A   1      41.743  26.958  28.648  1.00  0.00    -0.354 N 
ATOM     39  C   UNL A   1      45.944  26.116  29.155  1.00  0.00     0.074 A 
ATOM     40  C   UNL A   1      46.257  24.760  28.758  1.00  0.00     0.031 C 
ATOM     41  C   UNL A   1      39.613  26.500  28.142  1.00  0.00     0.029 A 
ATOM     42  C   UNL A   1      40.496  27.534  28.668  1.00  0.00     0.049 A 
ATOM     43  H   UNL A   1      42.558  27.425  28.943  1.00  0.00     0.167 HD
ATOM     44  C   UNL A   1      46.853  26.998  29.630  1.00  0.00     0.031 A 
ATOM     45  C   UNL A   1      40.109  28.760  29.069  1.00  0.00     0.031 A 
ATOM     46  C   UNL A   1      46.548  28.352  30.006  1.00  0.00     0.049 A 
ATOM     47  C   UNL A   1      41.139  29.725  29.584  1.00  0.00     0.074 A 
ATOM     48  C   UNL A   1      47.410  29.342  30.442  1.00  0.00     0.029 A 
ATOM     49  N   UNL A   1      45.278  28.906  29.988  1.00  0.00    -0.354 N 
ATOM     50  N   UNL A   1      42.431  29.553  29.727  1.00  0.00    -0.248 NA
ATOM     51  C   UNL A   1      40.658  31.055  29.982  1.00  0.00     0.031 C 
ATOM     52  C   UNL A   1      46.655  30.485  30.723  1.00  0.00     0.029 A 
ATOM     53  C   UNL A   1      45.330  30.219  30.420  1.00  0.00     0.049 A 
ATOM     54  H   UNL A   1      44.459  28.434  29.709  1.00  0.00     0.167 HD
ATOM     55  C   UNL A   1      42.921  30.762  30.203  1.00  0.00     0.074 A 
ATOM     56  C   UNL A   1      41.790  31.660  30.315  1.00  0.00     0.031 C 
ATOM     57  C   UNL A   1      44.195  31.099  30.519  1.00  0.00     0.031 A 
BRANCH  44  58
ATOM     58  C   UNL A   1      48.271  26.519  29.771  1.00  0.00    -0.014 A 
ATOM     59  C   UNL A   1      48.707  25.881  30.943  1.00  0.00     0.009 A 
ATOM     60  C   UNL A   1      49.173  26.685  28.710  1.00  0.00     0.009 A 
ATOM     61  C   UNL A   1      50.030  25.452  31.063  1.00  0.00     0.001 A 
ATOM     62  C   UNL A   1      50.489  26.231  28.823  1.00  0.00     0.001 A 
ATOM     63  C   UNL A   1      50.917  25.624  30.003  1.00  0.00     0.000 A 
ENDBRANCH  44  58
BRANCH  45  64
ATOM     64  C   UNL A   1      38.681  29.156  28.974  1.00  0.00    -0.014 A 
ATOM     65  C   UNL A   1      37.832  29.016  30.082  1.00  0.00     0.009 A 
ATOM     66  C   UNL A   1      38.159  29.672  27.778  1.00  0.00     0.009 A 
ATOM     67  C   UNL A   1      36.483  29.362  29.988  1.00  0.00     0.001 A 
ATOM     68  C   UNL A   1      36.814  30.039  27.694  1.00  0.00     0.001 A 
ATOM     69  C   UNL A   1      35.975  29.876  28.796  1.00  0.00     0.000 A 
ENDBRANCH  45  64
BRANCH  57  70
ATOM     70  C   UNL A   1      44.439  32.507  30.978  1.00  0.00    -0.014 A 
ATOM     71  C   UNL A   1      44.410  32.845  32.338  1.00  0.00     0.009 A 
ATOM     72  C   UNL A   1      44.746  33.499  30.033  1.00  0.00     0.009 A 
ATOM     73  C   UNL A   1      44.658  34.158  32.743  1.00  0.00     0.001 A 
ATOM     74  C   UNL A   1      45.018  34.805  30.443  1.00  0.00     0.001 A 
ATOM     75  C   UNL A   1      44.966  35.134  31.796  1.00  0.00     0.000 A 
ENDBRANCH  57  70
ENDBRANCH  31  32
ENDBRANCH  23  26
ENDBRANCH  21  22
ENDBRANCH   1  21
TORSDOF 12
ENDMDL
MODEL 2
REMARK VINA RESULT:     -10.9      1.122      2.586
REMARK SMILES Cc1onc(-c2cnn(C)c2C)c1C(=O)NCCCCNC(=O)c1ccc(-c2c3nc(c(-c4ccccc4)c4ccc([nH]4)c(-c4ccccc4)c4nc(c(-c5ccccc5)c5ccc2[nH]5)C=C4)C=C3)cc1
REMARK SMILES IDX 19 1 18 2 17 3 16 4 14 5 15 6 13 8 1 9 2 10 3 11 4 12 5 13
REMARK SMILES IDX 6 14 7 15 11 16 8 17 9 18 12 19 10 20 20 21 21 22 22 23
REMARK SMILES IDX 23 25 24 26 25 27 71 28 26 29 70 30 27 31 28 32 29 33 64 34
REMARK SMILES IDX 30 35 69 36 63 37 65 38 31 39 68 40 62 41 61 42 32 44 54 45
REMARK SMILES IDX 39 46 53 47 40 48 43 49 52 50 66 51 41 52 42 53 51 55 67 56
REMARK SMILES IDX 44 57 33 58 34 59 38 60 35 61 37 62 36 63 55 64 56 65 60 66
REMARK SMILES IDX 57 67 59 68 58 69 45 70 46 71 50 72 47 73 49 74 48 75
REMARK H PARENT 16 7 21 24 65 43 43 54
REMARK Flexibility Score: inf
ROOT
ATOM      1  C   UNL A   1      37.791  20.128  24.984  1.00  0.00     0.023 C 
ENDROOT
BRANCH   1   2
ATOM      2  C   UNL A   1      36.965  21.325  24.506  1.00  0.00     0.023 C 
BRANCH   2   3
ATOM      3  C   UNL A   1      36.742  22.413  25.558  1.00  0.00     0.116 C 
BRANCH   3   4
ATOM      4  N   UNL A   1      35.764  21.979  26.522  1.00  0.00    -0.352 N 
ATOM      5  C   UNL A   1      34.453  21.602  26.460  1.00  0.00     0.257 C 
ATOM      6  O   UNL A   1      33.969  21.385  27.575  1.00  0.00    -0.269 OA
ATOM      7  H   UNL A   1      36.125  21.947  27.438  1.00  0.00     0.163 HD
BRANCH   5   8
ATOM      8  C   UNL A   1      33.666  21.413  25.245  1.00  0.00     0.110 A 
ATOM      9  C   UNL A   1      33.400  18.833  24.530  1.00  0.00     0.092 C 
ATOM     10  C   UNL A   1      33.247  20.301  24.522  1.00  0.00     0.147 A 
ATOM     11  O   UNL A   1      32.475  20.698  23.472  1.00  0.00    -0.360 OA
ATOM     12  N   UNL A   1      32.396  22.057  23.428  1.00  0.00    -0.079 NA
ATOM     13  C   UNL A   1      33.134  22.492  24.451  1.00  0.00     0.130 A 
BRANCH  13  14
ATOM     14  C   UNL A   1      33.291  23.929  24.656  1.00  0.00     0.045 A 
ATOM     15  C   UNL A   1      34.071  24.799  23.876  1.00  0.00     0.145 A 
ATOM     16  C   UNL A   1      32.642  24.739  25.570  1.00  0.00     0.044 A 
ATOM     17  N   UNL A   1      33.948  26.072  24.262  1.00  0.00    -0.181 NA
ATOM     18  N   UNL A   1      33.086  26.009  25.296  1.00  0.00    -0.272 N 
ATOM     19  C   UNL A   1      31.665  24.396  26.631  1.00  0.00     0.067 C 
ATOM     20  C   UNL A   1      32.714  27.232  25.968  1.00  0.00     0.174 C 
ENDBRANCH  13  14
ENDBRANCH   5   8
ENDBRANCH   3   4
ENDBRANCH   2   3
ENDBRANCH   1   2
BRANCH   1  21
ATOM     21  C   UNL A   1      39.029  20.484  25.798  1.00  0.00     0.116 C 
BRANCH  21  22
ATOM     22  N   UNL A   1      40.063  19.462  25.762  1.00  0.00    -0.352 N 
ATOM     23  C   UNL A   1      41.390  19.582  26.099  1.00  0.00     0.251 C 
ATOM     24  H   UNL A   1      39.777  18.571  25.457  1.00  0.00     0.163 HD
ATOM     25  O   UNL A   1      42.163  18.645  25.935  1.00  0.00    -0.269 OA
BRANCH  23  26
ATOM     26  C   UNL A   1      41.883  20.873  26.616  1.00  0.00     0.039 A 
ATOM     27  C   UNL A   1      42.339  21.830  25.705  1.00  0.00     0.014 A 
ATOM     28  C   UNL A   1      41.842  21.154  27.983  1.00  0.00     0.014 A 
ATOM     29  C   UNL A   1      42.686  23.100  26.161  1.00  0.00     0.010 A 
ATOM     30  C   UNL A   1      42.126  22.440  28.427  1.00  0.00     0.010 A 
ATOM     31  C   UNL A   1      42.545  23.426  27.520  1.00  0.00    -0.014 A 
BRANCH  31  32
ATOM     32  C   UNL A   1      42.819  24.796  28.014  1.00  0.00     0.031 A 
ATOM     33  C   UNL A   1      44.214  25.189  28.408  1.00  0.00     0.074 A 
ATOM     34  C   UNL A   1      41.799  25.660  28.179  1.00  0.00     0.049 A 
ATOM     35  N   UNL A   1      44.638  26.312  28.929  1.00  0.00    -0.248 NA
ATOM     36  C   UNL A   1      45.266  24.177  28.219  1.00  0.00     0.031 C 
ATOM     37  C   UNL A   1      40.392  25.383  27.877  1.00  0.00     0.029 A 
ATOM     38  N   UNL A   1      41.789  26.948  28.654  1.00  0.00    -0.354 N 
ATOM     39  C   UNL A   1      45.997  26.134  29.150  1.00  0.00     0.074 A 
ATOM     40  C   UNL A   1      46.320  24.782  28.747  1.00  0.00     0.031 C 
ATOM     41  C   UNL A   1      39.662  26.476  28.151  1.00  0.00     0.029 A 
ATOM     42  C   UNL A   1      40.538  27.515  28.679  1.00  0.00     0.049 A 
ATOM     43  H   UNL A   1      42.602  27.419  28.949  1.00  0.00     0.167 HD
ATOM     44  C   UNL A   1      46.901  27.022  29.626  1.00  0.00     0.031 A 
ATOM     45  C   UNL A   1      40.143  28.736  29.085  1.00  0.00     0.031 A 
ATOM     46  C   UNL A   1      46.587  28.371  30.007  1.00  0.00     0.049 A 
ATOM     47  C   UNL A   1      41.167  29.706  29.601  1.00  0.00     0.074 A 
ATOM     48  C   UNL A   1      47.443  29.366  30.445  1.00  0.00     0.029 A 
ATOM     49  N   UNL A   1      45.312  28.916  29.994  1.00  0.00    -0.354 N 
ATOM     50  N   UNL A   1      42.461  29.544  29.742  1.00  0.00    -0.248 NA
ATOM     51  C   UNL A   1      40.677  31.032  30.005  1.00  0.00     0.031 C 
ATOM     52  C   UNL A   1      46.680  30.503  30.732  1.00  0.00     0.029 A 
ATOM     53  C   UNL A   1      45.356  30.228  30.431  1.00  0.00     0.049 A 
ATOM     54  H   UNL A   1      44.497  28.439  29.715  1.00  0.00     0.167 HD
ATOM     55  C   UNL A   1      42.943  30.754  30.221  1.00  0.00     0.074 A 
ATOM     56  C   UNL A   1      41.805  31.644  30.338  1.00  0.00     0.031 C 
ATOM     57  C   UNL A   1      44.215  31.099  30.535  1.00  0.00     0.031 A 
BRANCH  44  58
ATOM     58  C   UNL A   1      48.322  26.552  29.762  1.00  0.00    -0.014 A 
ATOM     59  C   UNL A   1      49.255  26.757  28.734  1.00  0.00     0.009 A 
ATOM     60  C   UNL A   1      48.738  25.919  30.943  1.00  0.00     0.009 A 
ATOM     61  C   UNL A   1      50.569  26.304  28.871  1.00  0.00     0.001 A 
ATOM     62  C   UNL A   1      50.060  25.492  31.088  1.00  0.00     0.001 A 
ATOM     63  C   UNL A   1      50.970  25.676  30.048  1.00  0.00     0.000 A 
ENDBRANCH  44  58
BRANCH  45  64
ATOM     64  C   UNL A   1      38.712  29.122  28.995  1.00  0.00    -0.014 A 
ATOM     65  C   UNL A   1      38.192  29.639  27.799  1.00  0.00     0.009 A 
ATOM     66  C   UNL A   1      37.861  28.980  30.101  1.00  0.00     0.009 A 
ATOM     67  C   UNL A   1      36.854  30.030  27.719  1.00  0.00     0.001 A 
ATOM     68  C   UNL A   1      36.517  29.348  30.011  1.00  0.00     0.001 A 
ATOM     69  C   UNL A   1      36.016  29.881  28.824  1.00  0.00     0.000 A 
ENDBRANCH  45  64
BRANCH  57  70
ATOM     70  C   UNL A   1      44.449  32.508  30.998  1.00  0.00    -0.014 A 
ATOM     71  C   UNL A   1      44.422  32.840  32.360  1.00  0.00     0.009 A 
ATOM     72  C   UNL A   1      44.746  33.506  30.057  1.00  0.00     0.009 A 
ATOM     73  C   UNL A   1      44.661  34.154  32.769  1.00  0.00     0.001 A 
ATOM     74  C   UNL A   1      45.009  34.812  30.471  1.00  0.00     0.001 A 
ATOM     75  C   UNL A   1      44.959  35.136  31.825  1.00  0.00     0.000 A 
ENDBRANCH  57  70
ENDBRANCH  31  32
ENDBRANCH  23  26
ENDBRANCH  21  22
ENDBRANCH   1  21
TORSDOF 12
ENDMDL
MODEL 3
REMARK VINA RESULT:     -10.9      4.644      9.657
REMARK SMILES Cc1onc(-c2cnn(C)c2C)c1C(=O)NCCCCNC(=O)c1ccc(-c2c3nc(c(-c4ccccc4)c4ccc([nH]4)c(-c4ccccc4)c4nc(c(-c5ccccc5)c5ccc2[nH]5)C=C4)C=C3)cc1
REMARK SMILES IDX 19 1 18 2 17 3 16 4 14 5 15 6 13 8 1 9 2 10 3 11 4 12 5 13
REMARK SMILES IDX 6 14 7 15 11 16 8 17 9 18 12 19 10 20 20 21 21 22 22 23
REMARK SMILES IDX 23 25 24 26 25 27 71 28 26 29 70 30 27 31 28 32 29 33 64 34
REMARK SMILES IDX 30 35 69 36 63 37 65 38 31 39 68 40 62 41 61 42 32 44 54 45
REMARK SMILES IDX 39 46 53 47 40 48 43 49 52 50 66 51 41 52 42 53 51 55 67 56
REMARK SMILES IDX 44 57 33 58 34 59 38 60 35 61 37 62 36 63 55 64 56 65 60 66
REMARK SMILES IDX 57 67 59 68 58 69 45 70 46 71 50 72 47 73 49 74 48 75
REMARK H PARENT 16 7 21 24 65 43 43 54
REMARK Flexibility Score: inf
ROOT
ATOM      1  C   UNL A   1      31.471  31.756  26.863  1.00  0.00     0.023 C 
ENDROOT
BRANCH   1   2
ATOM      2  C   UNL A   1      31.778  30.487  26.061  1.00  0.00     0.023 C 
BRANCH   2   3
ATOM      3  C   UNL A   1      32.561  29.418  26.826  1.00  0.00     0.116 C 
BRANCH   3   4
ATOM      4  N   UNL A   1      31.754  28.238  26.993  1.00  0.00    -0.352 N 
ATOM      5  C   UNL A   1      31.514  27.120  26.245  1.00  0.00     0.257 C 
ATOM      6  O   UNL A   1      30.662  26.384  26.751  1.00  0.00    -0.269 OA
ATOM      7  H   UNL A   1      31.260  28.235  27.846  1.00  0.00     0.163 HD
BRANCH   5   8
ATOM      8  C   UNL A   1      32.186  26.754  25.002  1.00  0.00     0.110 A 
ATOM      9  C   UNL A   1      34.403  25.276  25.377  1.00  0.00     0.092 C 
ATOM     10  C   UNL A   1      33.315  26.001  24.693  1.00  0.00     0.147 A 
ATOM     11  O   UNL A   1      33.468  25.935  23.341  1.00  0.00    -0.360 OA
ATOM     12  N   UNL A   1      32.503  26.666  22.717  1.00  0.00    -0.079 NA
ATOM     13  C   UNL A   1      31.762  27.190  23.695  1.00  0.00     0.130 A 
BRANCH  13  14
ATOM     14  C   UNL A   1      30.653  28.076  23.353  1.00  0.00     0.045 A 
ATOM     15  C   UNL A   1      30.757  29.357  22.787  1.00  0.00     0.145 A 
ATOM     16  C   UNL A   1      29.297  27.811  23.411  1.00  0.00     0.044 A 
ATOM     17  N   UNL A   1      29.562  29.887  22.512  1.00  0.00    -0.181 NA
ATOM     18  N   UNL A   1      28.693  28.937  22.909  1.00  0.00    -0.272 N 
ATOM     19  C   UNL A   1      28.575  26.605  23.885  1.00  0.00     0.067 C 
ATOM     20  C   UNL A   1      27.278  29.177  22.751  1.00  0.00     0.174 C 
ENDBRANCH  13  14
ENDBRANCH   5   8
ENDBRANCH   3   4
ENDBRANCH   2   3
ENDBRANCH   1   2
BRANCH   1  21
ATOM     21  C   UNL A   1      32.690  32.583  27.251  1.00  0.00     0.116 C 
BRANCH  21  22
ATOM     22  N   UNL A   1      32.372  33.957  27.606  1.00  0.00    -0.352 N 
ATOM     23  C   UNL A   1      33.004  34.768  28.517  1.00  0.00     0.251 C 
ATOM     24  H   UNL A   1      31.606  34.357  27.134  1.00  0.00     0.163 HD
ATOM     25  O   UNL A   1      32.565  35.885  28.770  1.00  0.00    -0.269 OA
BRANCH  23  26
ATOM     26  C   UNL A   1      34.193  34.257  29.226  1.00  0.00     0.039 A 
ATOM     27  C   UNL A   1      34.009  33.502  30.387  1.00  0.00     0.014 A 
ATOM     28  C   UNL A   1      35.474  34.478  28.715  1.00  0.00     0.014 A 
ATOM     29  C   UNL A   1      35.110  32.903  30.996  1.00  0.00     0.010 A 
ATOM     30  C   UNL A   1      36.561  33.826  29.287  1.00  0.00     0.010 A 
ATOM     31  C   UNL A   1      36.388  33.028  30.429  1.00  0.00    -0.014 A 
BRANCH  31  32
ATOM     32  C   UNL A   1      37.558  32.325  31.006  1.00  0.00     0.031 A 
ATOM     33  C   UNL A   1      38.203  32.842  32.260  1.00  0.00     0.074 A 
ATOM     34  C   UNL A   1      38.085  31.269  30.358  1.00  0.00     0.049 A 
ATOM     35  N   UNL A   1      39.274  32.409  32.875  1.00  0.00    -0.248 NA
ATOM     36  C   UNL A   1      37.578  34.015  32.891  1.00  0.00     0.031 C 
ATOM     37  C   UNL A   1      37.578  30.699  29.107  1.00  0.00     0.029 A 
ATOM     38  N   UNL A   1      39.173  30.490  30.661  1.00  0.00    -0.354 N 
ATOM     39  C   UNL A   1      39.464  33.268  33.949  1.00  0.00     0.074 A 
ATOM     40  C   UNL A   1      38.424  34.272  33.879  1.00  0.00     0.031 C 
ATOM     41  C   UNL A   1      38.341  29.649  28.763  1.00  0.00     0.029 A 
ATOM     42  C   UNL A   1      39.406  29.491  29.746  1.00  0.00     0.049 A 
ATOM     43  H   UNL A   1      39.734  30.633  31.457  1.00  0.00     0.167 HD
ATOM     44  C   UNL A   1      40.406  33.216  34.918  1.00  0.00     0.031 A 
ATOM     45  C   UNL A   1      40.373  28.556  29.705  1.00  0.00     0.031 A 
ATOM     46  C   UNL A   1      41.427  32.208  35.001  1.00  0.00     0.049 A 
ATOM     47  C   UNL A   1      41.403  28.514  30.798  1.00  0.00     0.074 A 
ATOM     48  C   UNL A   1      42.392  32.034  35.978  1.00  0.00     0.029 A 
ATOM     49  N   UNL A   1      41.614  31.199  34.070  1.00  0.00    -0.354 N 
ATOM     50  N   UNL A   1      41.529  29.295  31.843  1.00  0.00    -0.248 NA
ATOM     51  C   UNL A   1      42.417  27.454  30.710  1.00  0.00     0.031 C 
ATOM     52  C   UNL A   1      43.186  30.941  35.618  1.00  0.00     0.029 A 
ATOM     53  C   UNL A   1      42.688  30.409  34.440  1.00  0.00     0.049 A 
ATOM     54  H   UNL A   1      41.065  31.065  33.263  1.00  0.00     0.167 HD
ATOM     55  C   UNL A   1      42.616  28.803  32.553  1.00  0.00     0.074 A 
ATOM     56  C   UNL A   1      43.108  27.651  31.824  1.00  0.00     0.031 C 
ATOM     57  C   UNL A   1      43.159  29.264  33.706  1.00  0.00     0.031 A 
BRANCH  44  58
ATOM     58  C   UNL A   1      40.374  34.290  35.969  1.00  0.00    -0.014 A 
ATOM     59  C   UNL A   1      41.121  35.469  35.824  1.00  0.00     0.009 A 
ATOM     60  C   UNL A   1      39.568  34.130  37.107  1.00  0.00     0.009 A 
ATOM     61  C   UNL A   1      41.089  36.453  36.814  1.00  0.00     0.001 A 
ATOM     62  C   UNL A   1      39.518  35.127  38.083  1.00  0.00     0.001 A 
ATOM     63  C   UNL A   1      40.286  36.282  37.940  1.00  0.00     0.000 A 
ENDBRANCH  44  58
BRANCH  45  64
ATOM     64  C   UNL A   1      40.399  27.562  28.601  1.00  0.00    -0.014 A 
ATOM     65  C   UNL A   1      41.118  27.827  27.426  1.00  0.00     0.009 A 
ATOM     66  C   UNL A   1      39.704  26.348  28.715  1.00  0.00     0.009 A 
ATOM     67  C   UNL A   1      41.121  26.907  26.376  1.00  0.00     0.001 A 
ATOM     68  C   UNL A   1      39.729  25.419  27.673  1.00  0.00     0.001 A 
ATOM     69  C   UNL A   1      40.430  25.702  26.501  1.00  0.00     0.000 A 
ENDBRANCH  45  64
BRANCH  57  70
ATOM     70  C   UNL A   1      44.321  28.499  34.270  1.00  0.00    -0.014 A 
ATOM     71  C   UNL A   1      45.643  28.874  33.994  1.00  0.00     0.009 A 
ATOM     72  C   UNL A   1      44.084  27.414  35.129  1.00  0.00     0.009 A 
ATOM     73  C   UNL A   1      46.708  28.159  34.545  1.00  0.00     0.001 A 
ATOM     74  C   UNL A   1      45.150  26.717  35.698  1.00  0.00     0.001 A 
ATOM     75  C   UNL A   1      46.460  27.086  35.400  1.00  0.00     0.000 A 
ENDBRANCH  57  70
ENDBRANCH  31  32
ENDBRANCH  23  26
ENDBRANCH  21  22
ENDBRANCH   1  21
TORSDOF 12
ENDMDL
