MODEL 1
REMARK VINA RESULT:      -9.5      0.000      0.000
REMARK SMILES C[NH2+]C[C@H]1CCCC[N@H+]1[C@H](C)[C@@H](C)C(=O)NCCCCNC(=O)c1ccc(-c2c3nc(c(-c4ccccc4)c4ccc([nH]4)c(-c4ccccc4)c4nc(c(-c5ccccc5)c5ccc2[nH]5)C=C4)C=C3)cc1
REMARK SMILES IDX 17 1 16 2 14 3 15 4 12 6 13 7 10 8 11 9 9 10 4 11 5 12 6 13
REMARK SMILES IDX 8 14 7 16 3 17 2 18 1 19 18 22 19 23 20 24 21 25 22 26 23 28
REMARK SMILES IDX 24 29 25 30 71 31 26 32 70 33 27 34 28 35 29 36 64 37 30 38
REMARK SMILES IDX 69 39 63 40 65 41 31 42 68 43 62 44 61 45 32 47 54 48 39 49
REMARK SMILES IDX 53 50 40 51 43 52 52 53 66 54 41 55 42 56 51 58 67 59 44 60
REMARK SMILES IDX 33 61 34 62 38 63 35 64 37 65 36 66 55 67 56 68 60 69 57 70
REMARK SMILES IDX 59 71 58 72 45 73 46 74 50 75 47 76 49 77 48 78
REMARK H PARENT 16 5 9 15 2 20 2 21 21 27 65 46 43 57
REMARK Flexibility Score: inf
ROOT
ATOM      1  C   UNL A   1      33.400  36.457  28.706  1.00  0.00     0.116 C 
ENDROOT
BRANCH   1   2
ATOM      2  N   UNL A   1      33.374  37.383  29.825  1.00  0.00    -0.356 N 
ATOM      3  C   UNL A   1      33.326  37.201  31.171  1.00  0.00     0.228 C 
ATOM      4  O   UNL A   1      33.270  38.227  31.860  1.00  0.00    -0.275 OA
ATOM      5  H   UNL A   1      33.395  38.329  29.554  1.00  0.00     0.163 HD
BRANCH   3   6
ATOM      6  C   UNL A   1      33.395  35.831  31.838  1.00  0.00     0.133 C 
ATOM      7  C   UNL A   1      32.109  35.707  32.683  1.00  0.00     0.024 C 
BRANCH   6   8
ATOM      8  C   UNL A   1      34.757  35.470  32.553  1.00  0.00     0.193 C 
ATOM      9  C   UNL A   1      34.486  35.434  34.080  1.00  0.00     0.076 C 
BRANCH   8  10
ATOM     10  N   UNL A   1      35.410  34.182  32.118  1.00  0.00    -0.325 N 
ATOM     11  C   UNL A   1      36.880  34.220  31.875  1.00  0.00     0.239 C 
ATOM     12  C   UNL A   1      37.377  32.905  31.235  1.00  0.00     0.071 C 
ATOM     13  C   UNL A   1      36.991  31.657  32.010  1.00  0.00     0.012 C 
ATOM     14  C   UNL A   1      35.032  33.015  32.935  1.00  0.00     0.262 C 
ATOM     15  H   UNL A   1      35.006  34.061  31.190  1.00  0.00     0.348 HD
ATOM     16  C   UNL A   1      35.513  31.682  32.350  1.00  0.00     0.062 C 
BRANCH  11  17
ATOM     17  C   UNL A   1      37.839  34.662  33.031  1.00  0.00     0.326 C 
BRANCH  17  18
ATOM     18  N   UNL A   1      39.295  34.588  32.872  1.00  0.00    -0.344 N 
ATOM     19  C   UNL A   1      39.992  34.713  34.144  1.00  0.00     0.331 C 
ATOM     20  H   UNL A   1      39.534  33.690  32.453  1.00  0.00     0.346 HD
ATOM     21  H   UNL A   1      39.585  35.365  32.279  1.00  0.00     0.346 HD
ENDBRANCH  17  18
ENDBRANCH  11  17
ENDBRANCH   8  10
ENDBRANCH   6   8
ENDBRANCH   3   6
ENDBRANCH   1   2
BRANCH   1  22
ATOM     22  C   UNL A   1      34.464  35.362  28.832  1.00  0.00     0.023 C 
BRANCH  22  23
ATOM     23  C   UNL A   1      33.931  33.940  29.011  1.00  0.00     0.023 C 
BRANCH  23  24
ATOM     24  C   UNL A   1      34.848  32.852  28.487  1.00  0.00     0.116 C 
BRANCH  24  25
ATOM     25  N   UNL A   1      34.110  31.729  27.931  1.00  0.00    -0.352 N 
ATOM     26  C   UNL A   1      34.571  30.470  27.644  1.00  0.00     0.251 C 
ATOM     27  H   UNL A   1      33.160  31.894  27.737  1.00  0.00     0.163 HD
ATOM     28  O   UNL A   1      33.884  29.677  27.008  1.00  0.00    -0.269 OA
BRANCH  26  29
ATOM     29  C   UNL A   1      35.923  30.087  28.098  1.00  0.00     0.039 A 
ATOM     30  C   UNL A   1      36.082  29.482  29.346  1.00  0.00     0.014 A 
ATOM     31  C   UNL A   1      37.021  30.295  27.260  1.00  0.00     0.014 A 
ATOM     32  C   UNL A   1      37.346  29.029  29.733  1.00  0.00     0.010 A 
ATOM     33  C   UNL A   1      38.257  29.774  27.610  1.00  0.00     0.010 A 
ATOM     34  C   UNL A   1      38.434  29.147  28.855  1.00  0.00    -0.014 A 
BRANCH  34  35
ATOM     35  C   UNL A   1      39.793  28.677  29.211  1.00  0.00     0.031 A 
ATOM     36  C   UNL A   1      40.735  29.626  29.899  1.00  0.00     0.074 A 
ATOM     37  C   UNL A   1      40.215  27.460  28.821  1.00  0.00     0.049 A 
ATOM     38  N   UNL A   1      42.018  29.507  30.119  1.00  0.00    -0.248 NA
ATOM     39  C   UNL A   1      40.158  30.901  30.362  1.00  0.00     0.031 C 
ATOM     40  C   UNL A   1      39.403  26.457  28.128  1.00  0.00     0.029 A 
ATOM     41  N   UNL A   1      41.450  26.870  28.931  1.00  0.00    -0.354 N 
ATOM     42  C   UNL A   1      42.408  30.704  30.705  1.00  0.00     0.074 A 
ATOM     43  C   UNL A   1      41.237  31.551  30.771  1.00  0.00     0.031 C 
ATOM     44  C   UNL A   1      40.159  25.372  27.887  1.00  0.00     0.029 A 
ATOM     45  C   UNL A   1      41.517  25.623  28.359  1.00  0.00     0.049 A 
ATOM     46  H   UNL A   1      42.215  27.300  29.379  1.00  0.00     0.167 HD
ATOM     47  C   UNL A   1      43.629  31.062  31.163  1.00  0.00     0.031 A 
ATOM     48  C   UNL A   1      42.563  24.788  28.212  1.00  0.00     0.031 A 
ATOM     49  C   UNL A   1      44.781  30.204  31.125  1.00  0.00     0.049 A 
ATOM     50  C   UNL A   1      43.914  25.208  28.725  1.00  0.00     0.074 A 
ATOM     51  C   UNL A   1      46.052  30.445  31.616  1.00  0.00     0.029 A 
ATOM     52  N   UNL A   1      44.796  28.934  30.569  1.00  0.00    -0.354 N 
ATOM     53  N   UNL A   1      44.260  26.325  29.317  1.00  0.00    -0.248 NA
ATOM     54  C   UNL A   1      45.015  24.250  28.554  1.00  0.00     0.031 C 
ATOM     55  C   UNL A   1      46.847  29.334  31.320  1.00  0.00     0.029 A 
ATOM     56  C   UNL A   1      46.058  28.383  30.693  1.00  0.00     0.049 A 
ATOM     57  H   UNL A   1      44.024  28.491  30.149  1.00  0.00     0.167 HD
ATOM     58  C   UNL A   1      45.608  26.191  29.621  1.00  0.00     0.074 A 
ATOM     59  C   UNL A   1      46.016  24.882  29.151  1.00  0.00     0.031 C 
ATOM     60  C   UNL A   1      46.434  27.070  30.237  1.00  0.00     0.031 A 
BRANCH  47  61
ATOM     61  C   UNL A   1      43.778  32.443  31.735  1.00  0.00    -0.014 A 
ATOM     62  C   UNL A   1      44.145  33.532  30.928  1.00  0.00     0.009 A 
ATOM     63  C   UNL A   1      43.527  32.664  33.098  1.00  0.00     0.009 A 
ATOM     64  C   UNL A   1      44.297  34.804  31.482  1.00  0.00     0.001 A 
ATOM     65  C   UNL A   1      43.650  33.943  33.643  1.00  0.00     0.001 A 
ATOM     66  C   UNL A   1      44.046  35.010  32.838  1.00  0.00     0.000 A 
ENDBRANCH  47  61
BRANCH  48  67
ATOM     67  C   UNL A   1      42.377  23.467  27.556  1.00  0.00    -0.014 A 
ATOM     68  C   UNL A   1      41.891  22.374  28.292  1.00  0.00     0.009 A 
ATOM     69  C   UNL A   1      42.682  23.288  26.198  1.00  0.00     0.009 A 
ATOM     70  C   UNL A   1      41.740  21.125  27.687  1.00  0.00     0.001 A 
ATOM     71  C   UNL A   1      42.503  22.043  25.589  1.00  0.00     0.001 A 
ATOM     72  C   UNL A   1      42.041  20.962  26.335  1.00  0.00     0.000 A 
ENDBRANCH  48  67
BRANCH  60  73
ATOM     73  C   UNL A   1      47.846  26.633  30.495  1.00  0.00    -0.014 A 
ATOM     74  C   UNL A   1      48.883  26.950  29.606  1.00  0.00     0.009 A 
ATOM     75  C   UNL A   1      48.152  25.965  31.692  1.00  0.00     0.009 A 
ATOM     76  C   UNL A   1      50.199  26.592  29.904  1.00  0.00     0.001 A 
ATOM     77  C   UNL A   1      49.471  25.632  31.999  1.00  0.00     0.001 A 
ATOM     78  C   UNL A   1      50.492  25.942  31.103  1.00  0.00     0.000 A 
ENDBRANCH  60  73
ENDBRANCH  34  35
ENDBRANCH  26  29
ENDBRANCH  24  25
ENDBRANCH  23  24
ENDBRANCH  22  23
ENDBRANCH   1  22
TORSDOF 15
ENDMDL
MODEL 2
REMARK VINA RESULT:      -9.3      3.602      6.690
REMARK SMILES C[NH2+]C[C@H]1CCCC[N@H+]1[C@H](C)[C@@H](C)C(=O)NCCCCNC(=O)c1ccc(-c2c3nc(c(-c4ccccc4)c4ccc([nH]4)c(-c4ccccc4)c4nc(c(-c5ccccc5)c5ccc2[nH]5)C=C4)C=C3)cc1
REMARK SMILES IDX 17 1 16 2 14 3 15 4 12 6 13 7 10 8 11 9 9 10 4 11 5 12 6 13
REMARK SMILES IDX 8 14 7 16 3 17 2 18 1 19 18 22 19 23 20 24 21 25 22 26 23 28
REMARK SMILES IDX 24 29 25 30 71 31 26 32 70 33 27 34 28 35 29 36 64 37 30 38
REMARK SMILES IDX 69 39 63 40 65 41 31 42 68 43 62 44 61 45 32 47 54 48 39 49
REMARK SMILES IDX 53 50 40 51 43 52 52 53 66 54 41 55 42 56 51 58 67 59 44 60
REMARK SMILES IDX 33 61 34 62 38 63 35 64 37 65 36 66 55 67 56 68 60 69 57 70
REMARK SMILES IDX 59 71 58 72 45 73 46 74 50 75 47 76 49 77 48 78
REMARK H PARENT 16 5 9 15 2 20 2 21 21 27 65 46 43 57
REMARK Flexibility Score: inf
ROOT
ATOM      1  C   UNL A   1      32.229  28.471  23.906  1.00  0.00     0.116 C 
ENDROOT
BRANCH   1   2
ATOM      2  N   UNL A   1      32.955  27.583  23.015  1.00  0.00    -0.356 N 
ATOM      3  C   UNL A   1      33.100  26.232  22.976  1.00  0.00     0.228 C 
ATOM      4  O   UNL A   1      33.840  25.786  22.092  1.00  0.00    -0.275 OA
ATOM      5  H   UNL A   1      33.437  28.053  22.297  1.00  0.00     0.163 HD
BRANCH   3   6
ATOM      6  C   UNL A   1      32.363  25.280  23.914  1.00  0.00     0.133 C 
ATOM      7  C   UNL A   1      30.920  25.190  23.375  1.00  0.00     0.024 C 
BRANCH   6   8
ATOM      8  C   UNL A   1      32.533  25.554  25.461  1.00  0.00     0.193 C 
ATOM      9  C   UNL A   1      31.124  25.852  26.038  1.00  0.00     0.076 C 
BRANCH   8  10
ATOM     10  N   UNL A   1      33.191  24.455  26.258  1.00  0.00    -0.325 N 
ATOM     11  C   UNL A   1      32.294  23.430  26.861  1.00  0.00     0.239 C 
ATOM     12  C   UNL A   1      33.070  22.499  27.819  1.00  0.00     0.071 C 
ATOM     13  C   UNL A   1      34.289  21.846  27.190  1.00  0.00     0.012 C 
ATOM     14  C   UNL A   1      34.340  23.830  25.579  1.00  0.00     0.262 C 
ATOM     15  H   UNL A   1      33.545  24.980  27.057  1.00  0.00     0.348 HD
ATOM     16  C   UNL A   1      35.138  22.884  26.483  1.00  0.00     0.062 C 
BRANCH  11  17
ATOM     17  C   UNL A   1      31.348  22.595  25.933  1.00  0.00     0.326 C 
BRANCH  17  18
ATOM     18  N   UNL A   1      29.890  22.713  26.041  1.00  0.00    -0.344 N 
ATOM     19  C   UNL A   1      29.439  22.685  27.425  1.00  0.00     0.331 C 
ATOM     20  H   UNL A   1      29.599  23.594  25.619  1.00  0.00     0.346 HD
ATOM     21  H   UNL A   1      29.475  21.915  25.561  1.00  0.00     0.346 HD
ENDBRANCH  17  18
ENDBRANCH  11  17
ENDBRANCH   8  10
ENDBRANCH   6   8
ENDBRANCH   3   6
ENDBRANCH   1   2
BRANCH   1  22
ATOM     22  C   UNL A   1      33.132  29.320  24.807  1.00  0.00     0.023 C 
BRANCH  22  23
ATOM     23  C   UNL A   1      34.028  28.538  25.767  1.00  0.00     0.023 C 
BRANCH  23  24
ATOM     24  C   UNL A   1      33.672  28.698  27.233  1.00  0.00     0.116 C 
BRANCH  24  25
ATOM     25  N   UNL A   1      33.647  30.092  27.645  1.00  0.00    -0.352 N 
ATOM     26  C   UNL A   1      34.619  30.799  28.307  1.00  0.00     0.251 C 
ATOM     27  H   UNL A   1      32.829  30.591  27.421  1.00  0.00     0.163 HD
ATOM     28  O   UNL A   1      34.391  31.918  28.754  1.00  0.00    -0.269 OA
BRANCH  26  29
ATOM     29  C   UNL A   1      35.947  30.180  28.490  1.00  0.00     0.039 A 
ATOM     30  C   UNL A   1      36.879  30.234  27.453  1.00  0.00     0.014 A 
ATOM     31  C   UNL A   1      36.272  29.584  29.712  1.00  0.00     0.014 A 
ATOM     32  C   UNL A   1      38.168  29.738  27.661  1.00  0.00     0.010 A 
ATOM     33  C   UNL A   1      37.573  29.166  29.944  1.00  0.00     0.010 A 
ATOM     34  C   UNL A   1      38.530  29.227  28.917  1.00  0.00    -0.014 A 
BRANCH  34  35
ATOM     35  C   UNL A   1      39.885  28.696  29.196  1.00  0.00     0.031 A 
ATOM     36  C   UNL A   1      40.919  29.613  29.787  1.00  0.00     0.074 A 
ATOM     37  C   UNL A   1      40.216  27.447  28.818  1.00  0.00     0.049 A 
ATOM     38  N   UNL A   1      42.206  29.432  29.924  1.00  0.00    -0.248 NA
ATOM     39  C   UNL A   1      40.441  30.930  30.246  1.00  0.00     0.031 C 
ATOM     40  C   UNL A   1      39.308  26.468  28.216  1.00  0.00     0.029 A 
ATOM     41  N   UNL A   1      41.424  26.795  28.864  1.00  0.00    -0.354 N 
ATOM     42  C   UNL A   1      42.697  30.624  30.442  1.00  0.00     0.074 A 
ATOM     43  C   UNL A   1      41.578  31.533  30.559  1.00  0.00     0.031 C 
ATOM     44  C   UNL A   1      39.988  25.339  27.959  1.00  0.00     0.029 A 
ATOM     45  C   UNL A   1      41.387  25.531  28.330  1.00  0.00     0.049 A 
ATOM     46  H   UNL A   1      42.238  27.197  29.245  1.00  0.00     0.167 HD
ATOM     47  C   UNL A   1      43.964  30.929  30.804  1.00  0.00     0.031 A 
ATOM     48  C   UNL A   1      42.376  24.637  28.140  1.00  0.00     0.031 A 
ATOM     49  C   UNL A   1      45.065  30.010  30.717  1.00  0.00     0.049 A 
ATOM     50  C   UNL A   1      43.779  24.999  28.547  1.00  0.00     0.074 A 
ATOM     51  C   UNL A   1      46.377  30.197  31.112  1.00  0.00     0.029 A 
ATOM     52  N   UNL A   1      44.976  28.726  30.203  1.00  0.00    -0.354 N 
ATOM     53  N   UNL A   1      44.222  26.113  29.077  1.00  0.00    -0.248 NA
ATOM     54  C   UNL A   1      44.815  23.979  28.334  1.00  0.00     0.031 C 
ATOM     55  C   UNL A   1      47.092  29.038  30.800  1.00  0.00     0.029 A 
ATOM     56  C   UNL A   1      46.214  28.112  30.259  1.00  0.00     0.049 A 
ATOM     57  H   UNL A   1      44.155  28.312  29.852  1.00  0.00     0.167 HD
ATOM     58  C   UNL A   1      45.579  25.917  29.293  1.00  0.00     0.074 A 
ATOM     59  C   UNL A   1      45.886  24.574  28.841  1.00  0.00     0.031 C 
ATOM     60  C   UNL A   1      46.490  26.768  29.823  1.00  0.00     0.031 A 
BRANCH  47  61
ATOM     61  C   UNL A   1      44.223  32.317  31.319  1.00  0.00    -0.014 A 
ATOM     62  C   UNL A   1      44.132  32.616  32.688  1.00  0.00     0.009 A 
ATOM     63  C   UNL A   1      44.583  33.336  30.424  1.00  0.00     0.009 A 
ATOM     64  C   UNL A   1      44.357  33.916  33.144  1.00  0.00     0.001 A 
ATOM     65  C   UNL A   1      44.838  34.628  30.887  1.00  0.00     0.001 A 
ATOM     66  C   UNL A   1      44.714  34.920  32.245  1.00  0.00     0.000 A 
ENDBRANCH  47  61
BRANCH  48  67
ATOM     67  C   UNL A   1      42.077  23.309  27.543  1.00  0.00    -0.014 A 
ATOM     68  C   UNL A   1      41.536  22.283  28.333  1.00  0.00     0.009 A 
ATOM     69  C   UNL A   1      42.330  23.057  26.185  1.00  0.00     0.009 A 
ATOM     70  C   UNL A   1      41.279  21.026  27.782  1.00  0.00     0.001 A 
ATOM     71  C   UNL A   1      42.046  21.807  25.631  1.00  0.00     0.001 A 
ATOM     72  C   UNL A   1      41.529  20.790  26.431  1.00  0.00     0.000 A 
ENDBRANCH  48  67
BRANCH  60  73
ATOM     73  C   UNL A   1      47.892  26.264  29.998  1.00  0.00    -0.014 A 
ATOM     74  C   UNL A   1      48.833  26.348  28.963  1.00  0.00     0.009 A 
ATOM     75  C   UNL A   1      48.295  25.775  31.252  1.00  0.00     0.009 A 
ATOM     76  C   UNL A   1      50.151  25.937  29.176  1.00  0.00     0.001 A 
ATOM     77  C   UNL A   1      49.617  25.388  31.468  1.00  0.00     0.001 A 
ATOM     78  C   UNL A   1      50.543  25.466  30.429  1.00  0.00     0.000 A 
ENDBRANCH  60  73
ENDBRANCH  34  35
ENDBRANCH  26  29
ENDBRANCH  24  25
ENDBRANCH  23  24
ENDBRANCH  22  23
ENDBRANCH   1  22
TORSDOF 15
ENDMDL
MODEL 3
REMARK VINA RESULT:      -9.2      3.680      7.116
REMARK SMILES C[NH2+]C[C@H]1CCCC[N@H+]1[C@H](C)[C@@H](C)C(=O)NCCCCNC(=O)c1ccc(-c2c3nc(c(-c4ccccc4)c4ccc([nH]4)c(-c4ccccc4)c4nc(c(-c5ccccc5)c5ccc2[nH]5)C=C4)C=C3)cc1
REMARK SMILES IDX 17 1 16 2 14 3 15 4 12 6 13 7 10 8 11 9 9 10 4 11 5 12 6 13
REMARK SMILES IDX 8 14 7 16 3 17 2 18 1 19 18 22 19 23 20 24 21 25 22 26 23 28
REMARK SMILES IDX 24 29 25 30 71 31 26 32 70 33 27 34 28 35 29 36 64 37 30 38
REMARK SMILES IDX 69 39 63 40 65 41 31 42 68 43 62 44 61 45 32 47 54 48 39 49
REMARK SMILES IDX 53 50 40 51 43 52 52 53 66 54 41 55 42 56 51 58 67 59 44 60
REMARK SMILES IDX 33 61 34 62 38 63 35 64 37 65 36 66 55 67 56 68 60 69 57 70
REMARK SMILES IDX 59 71 58 72 45 73 46 74 50 75 47 76 49 77 48 78
REMARK H PARENT 16 5 9 15 2 20 2 21 21 27 65 46 43 57
REMARK Flexibility Score: inf
ROOT
ATOM      1  C   UNL A   1      30.800  26.923  26.025  1.00  0.00     0.116 C 
ENDROOT
BRANCH   1   2
ATOM      2  N   UNL A   1      31.070  25.663  26.697  1.00  0.00    -0.356 N 
ATOM      3  C   UNL A   1      31.511  24.457  26.252  1.00  0.00     0.228 C 
ATOM      4  O   UNL A   1      31.594  23.559  27.098  1.00  0.00    -0.275 OA
ATOM      5  H   UNL A   1      30.901  25.689  27.666  1.00  0.00     0.163 HD
BRANCH   3   6
ATOM      6  C   UNL A   1      31.944  24.199  24.812  1.00  0.00     0.133 C 
ATOM      7  C   UNL A   1      30.648  24.198  23.974  1.00  0.00     0.024 C 
BRANCH   6   8
ATOM      8  C   UNL A   1      32.940  22.992  24.588  1.00  0.00     0.193 C 
ATOM      9  C   UNL A   1      32.659  22.413  23.177  1.00  0.00     0.076 C 
BRANCH   8  10
ATOM     10  N   UNL A   1      34.407  23.311  24.729  1.00  0.00    -0.325 N 
ATOM     11  C   UNL A   1      35.056  22.944  26.019  1.00  0.00     0.239 C 
ATOM     12  C   UNL A   1      36.489  23.515  26.109  1.00  0.00     0.071 C 
ATOM     13  C   UNL A   1      37.376  23.142  24.934  1.00  0.00     0.012 C 
ATOM     14  C   UNL A   1      35.224  22.886  23.578  1.00  0.00     0.262 C 
ATOM     15  H   UNL A   1      34.385  24.330  24.741  1.00  0.00     0.348 HD
ATOM     16  C   UNL A   1      36.661  23.416  23.625  1.00  0.00     0.062 C 
BRANCH  11  17
ATOM     17  C   UNL A   1      35.031  21.452  26.495  1.00  0.00     0.326 C 
BRANCH  17  18
ATOM     18  N   UNL A   1      34.745  20.365  25.553  1.00  0.00    -0.344 N 
ATOM     19  C   UNL A   1      35.959  19.785  25.000  1.00  0.00     0.331 C 
ATOM     20  H   UNL A   1      34.224  19.636  26.041  1.00  0.00     0.346 HD
ATOM     21  H   UNL A   1      34.204  20.755  24.781  1.00  0.00     0.346 HD
ENDBRANCH  17  18
ENDBRANCH  11  17
ENDBRANCH   8  10
ENDBRANCH   6   8
ENDBRANCH   3   6
ENDBRANCH   1   2
BRANCH   1  22
ATOM     22  C   UNL A   1      31.654  28.090  26.528  1.00  0.00     0.023 C 
BRANCH  22  23
ATOM     23  C   UNL A   1      33.095  28.123  26.017  1.00  0.00     0.023 C 
BRANCH  23  24
ATOM     24  C   UNL A   1      34.120  28.554  27.048  1.00  0.00     0.116 C 
BRANCH  24  25
ATOM     25  N   UNL A   1      33.888  29.908  27.524  1.00  0.00    -0.352 N 
ATOM     26  C   UNL A   1      34.717  30.696  28.281  1.00  0.00     0.251 C 
ATOM     27  H   UNL A   1      33.026  30.310  27.271  1.00  0.00     0.163 HD
ATOM     28  O   UNL A   1      34.318  31.750  28.764  1.00  0.00    -0.269 OA
BRANCH  26  29
ATOM     29  C   UNL A   1      36.102  30.243  28.522  1.00  0.00     0.039 A 
ATOM     30  C   UNL A   1      36.443  29.710  29.767  1.00  0.00     0.014 A 
ATOM     31  C   UNL A   1      37.043  30.311  27.492  1.00  0.00     0.014 A 
ATOM     32  C   UNL A   1      37.725  29.190  29.963  1.00  0.00     0.010 A 
ATOM     33  C   UNL A   1      38.287  29.722  27.662  1.00  0.00     0.010 A 
ATOM     34  C   UNL A   1      38.644  29.167  28.902  1.00  0.00    -0.014 A 
BRANCH  34  35
ATOM     35  C   UNL A   1      40.012  28.620  29.052  1.00  0.00     0.031 A 
ATOM     36  C   UNL A   1      41.127  29.547  29.450  1.00  0.00     0.074 A 
ATOM     37  C   UNL A   1      40.272  27.341  28.725  1.00  0.00     0.049 A 
ATOM     38  N   UNL A   1      42.418  29.341  29.444  1.00  0.00    -0.248 NA
ATOM     39  C   UNL A   1      40.733  30.903  29.872  1.00  0.00     0.031 C 
ATOM     40  C   UNL A   1      39.280  26.349  28.305  1.00  0.00     0.029 A 
ATOM     41  N   UNL A   1      41.465  26.662  28.671  1.00  0.00    -0.354 N 
ATOM     42  C   UNL A   1      42.990  30.551  29.817  1.00  0.00     0.074 A 
ATOM     43  C   UNL A   1      41.910  31.496  30.004  1.00  0.00     0.031 C 
ATOM     44  C   UNL A   1      39.904  25.187  28.047  1.00  0.00     0.029 A 
ATOM     45  C   UNL A   1      41.341  25.366  28.233  1.00  0.00     0.049 A 
ATOM     46  H   UNL A   1      42.327  27.066  28.922  1.00  0.00     0.167 HD
ATOM     47  C   UNL A   1      44.297  30.846  30.002  1.00  0.00     0.031 A 
ATOM     48  C   UNL A   1      42.283  24.436  27.989  1.00  0.00     0.031 A 
ATOM     49  C   UNL A   1      45.362  29.895  29.847  1.00  0.00     0.049 A 
ATOM     50  C   UNL A   1      43.731  24.787  28.198  1.00  0.00     0.074 A 
ATOM     51  C   UNL A   1      46.716  30.073  30.069  1.00  0.00     0.029 A 
ATOM     52  N   UNL A   1      45.188  28.582  29.438  1.00  0.00    -0.354 N 
ATOM     53  N   UNL A   1      44.256  25.922  28.593  1.00  0.00    -0.248 NA
ATOM     54  C   UNL A   1      44.715  23.728  27.933  1.00  0.00     0.031 C 
ATOM     55  C   UNL A   1      47.366  28.877  29.754  1.00  0.00     0.029 A 
ATOM     56  C   UNL A   1      46.412  27.941  29.387  1.00  0.00     0.049 A 
ATOM     57  H   UNL A   1      44.323  28.168  29.217  1.00  0.00     0.167 HD
ATOM     58  C   UNL A   1      45.625  25.704  28.658  1.00  0.00     0.074 A 
ATOM     59  C   UNL A   1      45.850  24.327  28.266  1.00  0.00     0.031 C 
ATOM     60  C   UNL A   1      46.609  26.564  29.015  1.00  0.00     0.031 A 
BRANCH  47  61
ATOM     61  C   UNL A   1      44.641  32.258  30.385  1.00  0.00    -0.014 A 
ATOM     62  C   UNL A   1      44.723  32.650  31.731  1.00  0.00     0.009 A 
ATOM     63  C   UNL A   1      44.909  33.206  29.386  1.00  0.00     0.009 A 
ATOM     64  C   UNL A   1      45.025  33.970  32.066  1.00  0.00     0.001 A 
ATOM     65  C   UNL A   1      45.241  34.518  29.724  1.00  0.00     0.001 A 
ATOM     66  C   UNL A   1      45.289  34.903  31.063  1.00  0.00     0.000 A 
ENDBRANCH  47  61
BRANCH  48  67
ATOM     67  C   UNL A   1      41.890  23.080  27.524  1.00  0.00    -0.014 A 
ATOM     68  C   UNL A   1      41.881  22.776  26.153  1.00  0.00     0.009 A 
ATOM     69  C   UNL A   1      41.521  22.083  28.441  1.00  0.00     0.009 A 
ATOM     70  C   UNL A   1      41.487  21.511  25.711  1.00  0.00     0.001 A 
ATOM     71  C   UNL A   1      41.155  20.810  27.997  1.00  0.00     0.001 A 
ATOM     72  C   UNL A   1      41.129  20.529  26.633  1.00  0.00     0.000 A 
ENDBRANCH  48  67
BRANCH  60  73
ATOM     73  C   UNL A   1      48.012  26.036  29.055  1.00  0.00    -0.014 A 
ATOM     74  C   UNL A   1      48.833  26.054  27.919  1.00  0.00     0.009 A 
ATOM     75  C   UNL A   1      48.545  25.592  30.277  1.00  0.00     0.009 A 
ATOM     76  C   UNL A   1      50.158  25.622  28.002  1.00  0.00     0.001 A 
ATOM     77  C   UNL A   1      49.876  25.184  30.362  1.00  0.00     0.001 A 
ATOM     78  C   UNL A   1      50.680  25.196  29.224  1.00  0.00     0.000 A 
ENDBRANCH  60  73
ENDBRANCH  34  35
ENDBRANCH  26  29
ENDBRANCH  24  25
ENDBRANCH  23  24
ENDBRANCH  22  23
ENDBRANCH   1  22
TORSDOF 15
ENDMDL
