MODEL 1
REMARK VINA RESULT:     -12.6      0.000      0.000
REMARK SMILES Cc1ccc(N2C(=O)C[C@H](Sc3ccccc3C(=O)NCCCCNC(=O)c3ccc(-c4c5nc(c(-c6ccccc6)c6ccc([nH]6)c(-c6ccccc6)c6nc(c(-c7ccccc7)c7ccc4[nH]7)C=C6)C=C5)cc3)C2=O)cc1
REMARK SMILES IDX 22 1 21 2 20 3 18 4 19 5 17 7 12 8 13 9 14 10 16 11 15 12
REMARK SMILES IDX 11 13 10 14 6 15 7 16 76 17 8 18 9 19 77 20 5 21 1 22 2 23
REMARK SMILES IDX 3 24 79 25 4 26 78 27 23 28 24 29 25 30 26 31 27 33 28 34
REMARK SMILES IDX 29 35 75 36 30 37 74 38 31 39 32 40 33 41 68 42 34 43 73 44
REMARK SMILES IDX 67 45 69 46 35 47 72 48 66 49 65 50 36 52 58 53 43 54 57 55
REMARK SMILES IDX 44 56 47 57 56 58 70 59 45 60 46 61 55 63 71 64 48 65 37 66
REMARK SMILES IDX 38 67 42 68 39 69 41 70 40 71 59 72 60 73 64 74 61 75 63 76
REMARK SMILES IDX 62 77 49 78 50 79 54 80 51 81 53 82 52 83
REMARK H PARENT 20 6 25 32 69 51 47 62
REMARK Flexibility Score: inf
ROOT
ATOM      1  C   UNL A   1      32.220  30.723  26.776  1.00  0.00     0.023 C 
ENDROOT
BRANCH   1   2
ATOM      2  C   UNL A   1      31.997  29.334  27.377  1.00  0.00     0.116 C 
BRANCH   2   3
ATOM      3  N   UNL A   1      32.853  28.273  26.858  1.00  0.00    -0.352 N 
ATOM      4  C   UNL A   1      32.928  27.602  25.654  1.00  0.00     0.252 C 
ATOM      5  O   UNL A   1      33.885  26.846  25.493  1.00  0.00    -0.269 OA
ATOM      6  H   UNL A   1      33.526  27.969  27.510  1.00  0.00     0.163 HD
BRANCH   4   7
ATOM      7  C   UNL A   1      31.887  27.731  24.596  1.00  0.00     0.053 A 
ATOM      8  C   UNL A   1      30.680  26.991  24.613  1.00  0.00     0.021 A 
ATOM      9  C   UNL A   1      29.730  27.225  23.599  1.00  0.00     0.016 A 
ATOM     10  C   UNL A   1      29.981  28.126  22.563  1.00  0.00     0.001 A 
ATOM     11  C   UNL A   1      32.161  28.550  23.489  1.00  0.00     0.015 A 
ATOM     12  C   UNL A   1      31.211  28.767  22.493  1.00  0.00     0.001 A 
BRANCH   8  13
ATOM     13  S   UNL A   1      30.361  25.513  25.592  1.00  0.00    -0.111 SA
BRANCH  13  14
ATOM     14  C   UNL A   1      31.098  24.128  24.671  1.00  0.00     0.151 C 
ATOM     15  N   UNL A   1      33.384  23.724  24.438  1.00  0.00    -0.250 N 
ATOM     16  C   UNL A   1      33.005  24.396  23.297  1.00  0.00     0.235 C 
ATOM     17  C   UNL A   1      32.329  23.543  25.307  1.00  0.00     0.247 C 
ATOM     18  O   UNL A   1      33.699  24.791  22.370  1.00  0.00    -0.274 OA
ATOM     19  C   UNL A   1      31.510  24.455  23.256  1.00  0.00     0.126 C 
ATOM     20  O   UNL A   1      32.347  23.033  26.420  1.00  0.00    -0.273 OA
BRANCH  15  21
ATOM     21  C   UNL A   1      34.689  23.213  24.650  1.00  0.00     0.052 A 
ATOM     22  C   UNL A   1      38.579  21.600  25.646  1.00  0.00     0.044 C 
ATOM     23  C   UNL A   1      37.245  22.165  25.260  1.00  0.00    -0.051 A 
ATOM     24  C   UNL A   1      36.951  23.509  25.506  1.00  0.00     0.005 A 
ATOM     25  C   UNL A   1      36.254  21.349  24.706  1.00  0.00     0.005 A 
ATOM     26  C   UNL A   1      35.695  24.033  25.181  1.00  0.00     0.027 A 
ATOM     27  C   UNL A   1      34.988  21.865  24.417  1.00  0.00     0.027 A 
ENDBRANCH  15  21
ENDBRANCH  13  14
ENDBRANCH   8  13
ENDBRANCH   4   7
ENDBRANCH   2   3
ENDBRANCH   1   2
BRANCH   1  28
ATOM     28  C   UNL A   1      33.252  31.610  27.466  1.00  0.00     0.023 C 
BRANCH  28  29
ATOM     29  C   UNL A   1      34.644  31.014  27.638  1.00  0.00     0.116 C 
BRANCH  29  30
ATOM     30  N   UNL A   1      35.640  31.892  28.239  1.00  0.00    -0.352 N 
ATOM     31  C   UNL A   1      36.923  31.586  28.697  1.00  0.00     0.251 C 
ATOM     32  H   UNL A   1      35.370  32.834  28.336  1.00  0.00     0.163 HD
ATOM     33  O   UNL A   1      37.625  32.440  29.184  1.00  0.00    -0.269 OA
BRANCH  31  34
ATOM     34  C   UNL A   1      37.466  30.219  28.454  1.00  0.00     0.039 A 
ATOM     35  C   UNL A   1      37.489  29.327  29.532  1.00  0.00     0.014 A 
ATOM     36  C   UNL A   1      38.138  29.908  27.277  1.00  0.00     0.014 A 
ATOM     37  C   UNL A   1      38.411  28.283  29.529  1.00  0.00     0.010 A 
ATOM     38  C   UNL A   1      39.126  28.944  27.313  1.00  0.00     0.010 A 
ATOM     39  C   UNL A   1      39.316  28.189  28.474  1.00  0.00    -0.014 A 
BRANCH  39  40
ATOM     40  C   UNL A   1      40.588  27.482  28.586  1.00  0.00     0.031 A 
ATOM     41  C   UNL A   1      40.679  26.027  28.376  1.00  0.00     0.074 A 
ATOM     42  C   UNL A   1      41.712  28.196  28.815  1.00  0.00     0.049 A 
ATOM     43  N   UNL A   1      41.622  25.283  28.852  1.00  0.00    -0.248 NA
ATOM     44  C   UNL A   1      39.660  25.276  27.655  1.00  0.00     0.031 C 
ATOM     45  C   UNL A   1      43.098  27.758  28.677  1.00  0.00     0.029 A 
ATOM     46  N   UNL A   1      41.803  29.438  29.443  1.00  0.00    -0.354 N 
ATOM     47  C   UNL A   1      41.510  24.048  28.257  1.00  0.00     0.074 A 
ATOM     48  C   UNL A   1      40.217  24.062  27.613  1.00  0.00     0.031 C 
ATOM     49  C   UNL A   1      43.883  28.572  29.401  1.00  0.00     0.029 A 
ATOM     50  C   UNL A   1      43.013  29.461  30.154  1.00  0.00     0.049 A 
ATOM     51  H   UNL A   1      41.141  30.164  29.396  1.00  0.00     0.167 HD
ATOM     52  C   UNL A   1      42.585  23.210  28.245  1.00  0.00     0.031 A 
ATOM     53  C   UNL A   1      43.023  29.587  31.514  1.00  0.00     0.031 A 
ATOM     54  C   UNL A   1      43.697  23.738  29.037  1.00  0.00     0.049 A 
ATOM     55  C   UNL A   1      43.628  28.402  32.235  1.00  0.00     0.074 A 
ATOM     56  C   UNL A   1      44.886  24.366  28.698  1.00  0.00     0.029 A 
ATOM     57  N   UNL A   1      43.539  23.912  30.408  1.00  0.00    -0.354 N 
ATOM     58  N   UNL A   1      43.826  27.235  31.688  1.00  0.00    -0.248 NA
ATOM     59  C   UNL A   1      44.010  28.426  33.646  1.00  0.00     0.031 C 
ATOM     60  C   UNL A   1      45.403  24.987  29.866  1.00  0.00     0.029 A 
ATOM     61  C   UNL A   1      44.546  24.710  30.916  1.00  0.00     0.049 A 
ATOM     62  H   UNL A   1      42.811  23.521  30.942  1.00  0.00     0.167 HD
ATOM     63  C   UNL A   1      44.318  26.366  32.625  1.00  0.00     0.074 A 
ATOM     64  C   UNL A   1      44.436  27.164  33.831  1.00  0.00     0.031 C 
ATOM     65  C   UNL A   1      44.567  25.055  32.332  1.00  0.00     0.031 A 
BRANCH  52  66
ATOM     66  C   UNL A   1      42.738  22.059  27.270  1.00  0.00    -0.014 A 
ATOM     67  C   UNL A   1      42.008  20.872  27.477  1.00  0.00     0.009 A 
ATOM     68  C   UNL A   1      43.627  22.040  26.182  1.00  0.00     0.009 A 
ATOM     69  C   UNL A   1      42.228  19.716  26.713  1.00  0.00     0.001 A 
ATOM     70  C   UNL A   1      43.879  20.881  25.435  1.00  0.00     0.001 A 
ATOM     71  C   UNL A   1      43.187  19.711  25.710  1.00  0.00     0.000 A 
ENDBRANCH  52  66
BRANCH  53  72
ATOM     72  C   UNL A   1      41.901  30.409  32.048  1.00  0.00    -0.014 A 
ATOM     73  C   UNL A   1      41.922  31.801  31.823  1.00  0.00     0.009 A 
ATOM     74  C   UNL A   1      40.694  29.813  32.443  1.00  0.00     0.009 A 
ATOM     75  C   UNL A   1      40.746  32.554  31.881  1.00  0.00     0.001 A 
ATOM     76  C   UNL A   1      39.520  30.576  32.513  1.00  0.00     0.001 A 
ATOM     77  C   UNL A   1      39.540  31.935  32.200  1.00  0.00     0.000 A 
ENDBRANCH  53  72
BRANCH  65  78
ATOM     78  C   UNL A   1      44.909  23.975  33.326  1.00  0.00    -0.014 A 
ATOM     79  C   UNL A   1      44.055  22.919  33.671  1.00  0.00     0.009 A 
ATOM     80  C   UNL A   1      46.218  23.929  33.857  1.00  0.00     0.009 A 
ATOM     81  C   UNL A   1      44.473  21.896  34.536  1.00  0.00     0.001 A 
ATOM     82  C   UNL A   1      46.653  22.889  34.682  1.00  0.00     0.001 A 
ATOM     83  C   UNL A   1      45.773  21.877  35.032  1.00  0.00     0.000 A 
ENDBRANCH  65  78
ENDBRANCH  39  40
ENDBRANCH  31  34
ENDBRANCH  29  30
ENDBRANCH  28  29
ENDBRANCH   1  28
TORSDOF 14
ENDMDL
MODEL 2
REMARK VINA RESULT:     -12.4      3.164      9.123
REMARK SMILES Cc1ccc(N2C(=O)C[C@H](Sc3ccccc3C(=O)NCCCCNC(=O)c3ccc(-c4c5nc(c(-c6ccccc6)c6ccc([nH]6)c(-c6ccccc6)c6nc(c(-c7ccccc7)c7ccc4[nH]7)C=C6)C=C5)cc3)C2=O)cc1
REMARK SMILES IDX 22 1 21 2 20 3 18 4 19 5 17 7 12 8 13 9 14 10 16 11 15 12
REMARK SMILES IDX 11 13 10 14 6 15 7 16 76 17 8 18 9 19 77 20 5 21 1 22 2 23
REMARK SMILES IDX 3 24 79 25 4 26 78 27 23 28 24 29 25 30 26 31 27 33 28 34
REMARK SMILES IDX 29 35 75 36 30 37 74 38 31 39 32 40 33 41 68 42 34 43 73 44
REMARK SMILES IDX 67 45 69 46 35 47 72 48 66 49 65 50 36 52 58 53 43 54 57 55
REMARK SMILES IDX 44 56 47 57 56 58 70 59 45 60 46 61 55 63 71 64 48 65 37 66
REMARK SMILES IDX 38 67 42 68 39 69 41 70 40 71 59 72 60 73 64 74 61 75 63 76
REMARK SMILES IDX 62 77 49 78 50 79 54 80 51 81 53 82 52 83
REMARK H PARENT 20 6 25 32 69 51 47 62
REMARK Flexibility Score: inf
ROOT
ATOM      1  C   UNL A   1      37.453  21.265  24.684  1.00  0.00     0.023 C 
ENDROOT
BRANCH   1   2
ATOM      2  C   UNL A   1      36.266  22.219  24.814  1.00  0.00     0.116 C 
BRANCH   2   3
ATOM      3  N   UNL A   1      35.378  21.978  25.946  1.00  0.00    -0.352 N 
ATOM      4  C   UNL A   1      34.296  21.148  26.159  1.00  0.00     0.252 C 
ATOM      5  O   UNL A   1      33.855  21.085  27.305  1.00  0.00    -0.269 OA
ATOM      6  H   UNL A   1      35.600  22.529  26.732  1.00  0.00     0.163 HD
BRANCH   4   7
ATOM      7  C   UNL A   1      33.641  20.385  25.059  1.00  0.00     0.053 A 
ATOM      8  C   UNL A   1      32.678  20.961  24.194  1.00  0.00     0.021 A 
ATOM      9  C   UNL A   1      32.156  20.175  23.147  1.00  0.00     0.016 A 
ATOM     10  C   UNL A   1      32.532  18.841  22.983  1.00  0.00     0.001 A 
ATOM     11  C   UNL A   1      33.921  19.014  24.940  1.00  0.00     0.015 A 
ATOM     12  C   UNL A   1      33.393  18.252  23.900  1.00  0.00     0.001 A 
BRANCH   8  13
ATOM     13  S   UNL A   1      31.767  22.485  24.493  1.00  0.00    -0.111 SA
BRANCH  13  14
ATOM     14  C   UNL A   1      32.906  23.843  24.083  1.00  0.00     0.151 C 
ATOM     15  N   UNL A   1      32.703  26.047  24.819  1.00  0.00    -0.250 N 
ATOM     16  C   UNL A   1      32.143  26.019  23.562  1.00  0.00     0.235 C 
ATOM     17  C   UNL A   1      33.157  24.806  25.211  1.00  0.00     0.247 C 
ATOM     18  O   UNL A   1      31.574  26.916  22.953  1.00  0.00    -0.274 OA
ATOM     19  C   UNL A   1      32.472  24.707  22.924  1.00  0.00     0.126 C 
ATOM     20  O   UNL A   1      33.655  24.487  26.283  1.00  0.00    -0.273 OA
BRANCH  15  21
ATOM     21  C   UNL A   1      32.860  27.231  25.583  1.00  0.00     0.052 A 
ATOM     22  C   UNL A   1      33.222  31.031  27.621  1.00  0.00     0.044 C 
ATOM     23  C   UNL A   1      33.111  29.694  26.951  1.00  0.00    -0.051 A 
ATOM     24  C   UNL A   1      34.134  29.238  26.115  1.00  0.00     0.005 A 
ATOM     25  C   UNL A   1      31.963  28.912  27.100  1.00  0.00     0.005 A 
ATOM     26  C   UNL A   1      34.020  28.008  25.459  1.00  0.00     0.027 A 
ATOM     27  C   UNL A   1      31.834  27.700  26.413  1.00  0.00     0.027 A 
ENDBRANCH  15  21
ENDBRANCH  13  14
ENDBRANCH   8  13
ENDBRANCH   4   7
ENDBRANCH   2   3
ENDBRANCH   1   2
BRANCH   1  28
ATOM     28  C   UNL A   1      38.550  21.388  25.738  1.00  0.00     0.023 C 
BRANCH  28  29
ATOM     29  C   UNL A   1      38.951  22.806  26.129  1.00  0.00     0.116 C 
BRANCH  29  30
ATOM     30  N   UNL A   1      40.316  22.967  26.615  1.00  0.00    -0.352 N 
ATOM     31  C   UNL A   1      40.948  24.114  27.098  1.00  0.00     0.251 C 
ATOM     32  H   UNL A   1      40.869  22.154  26.600  1.00  0.00     0.163 HD
ATOM     33  O   UNL A   1      42.102  24.079  27.456  1.00  0.00    -0.269 OA
BRANCH  31  34
ATOM     34  C   UNL A   1      40.141  25.353  27.294  1.00  0.00     0.039 A 
ATOM     35  C   UNL A   1      40.449  26.461  26.497  1.00  0.00     0.014 A 
ATOM     36  C   UNL A   1      39.277  25.489  28.375  1.00  0.00     0.014 A 
ATOM     37  C   UNL A   1      40.127  27.737  26.956  1.00  0.00     0.010 A 
ATOM     38  C   UNL A   1      39.050  26.750  28.888  1.00  0.00     0.010 A 
ATOM     39  C   UNL A   1      39.551  27.871  28.218  1.00  0.00    -0.014 A 
BRANCH  39  40
ATOM     40  C   UNL A   1      39.618  29.109  28.988  1.00  0.00     0.031 A 
ATOM     41  C   UNL A   1      38.606  30.168  28.828  1.00  0.00     0.074 A 
ATOM     42  C   UNL A   1      40.589  29.247  29.916  1.00  0.00     0.049 A 
ATOM     43  N   UNL A   1      38.803  31.410  29.124  1.00  0.00    -0.248 NA
ATOM     44  C   UNL A   1      37.292  29.914  28.251  1.00  0.00     0.031 C 
ATOM     45  C   UNL A   1      40.678  30.241  30.982  1.00  0.00     0.029 A 
ATOM     46  N   UNL A   1      41.831  28.612  29.933  1.00  0.00    -0.354 N 
ATOM     47  C   UNL A   1      37.583  32.042  29.075  1.00  0.00     0.074 A 
ATOM     48  C   UNL A   1      36.703  31.101  28.423  1.00  0.00     0.031 C 
ATOM     49  C   UNL A   1      41.955  30.328  31.389  1.00  0.00     0.029 A 
ATOM     50  C   UNL A   1      42.754  29.510  30.490  1.00  0.00     0.049 A 
ATOM     51  H   UNL A   1      42.024  27.702  29.611  1.00  0.00     0.167 HD
ATOM     52  C   UNL A   1      37.415  33.227  29.728  1.00  0.00     0.031 A 
ATOM     53  C   UNL A   1      43.812  29.969  29.759  1.00  0.00     0.031 A 
ATOM     54  C   UNL A   1      38.674  33.726  30.284  1.00  0.00     0.049 A 
ATOM     55  C   UNL A   1      43.805  31.467  29.544  1.00  0.00     0.074 A 
ATOM     56  C   UNL A   1      39.206  33.733  31.565  1.00  0.00     0.029 A 
ATOM     57  N   UNL A   1      39.714  34.066  29.426  1.00  0.00    -0.354 N 
ATOM     58  N   UNL A   1      42.763  32.228  29.728  1.00  0.00    -0.248 NA
ATOM     59  C   UNL A   1      44.960  32.216  29.053  1.00  0.00     0.031 C 
ATOM     60  C   UNL A   1      40.595  34.005  31.461  1.00  0.00     0.029 A 
ATOM     61  C   UNL A   1      40.899  34.193  30.125  1.00  0.00     0.049 A 
ATOM     62  H   UNL A   1      39.620  34.198  28.456  1.00  0.00     0.167 HD
ATOM     63  C   UNL A   1      43.066  33.517  29.377  1.00  0.00     0.074 A 
ATOM     64  C   UNL A   1      44.462  33.463  28.980  1.00  0.00     0.031 C 
ATOM     65  C   UNL A   1      42.136  34.515  29.424  1.00  0.00     0.031 A 
BRANCH  52  66
ATOM     66  C   UNL A   1      36.060  33.780  30.123  1.00  0.00    -0.014 A 
ATOM     67  C   UNL A   1      35.135  34.134  29.121  1.00  0.00     0.009 A 
ATOM     68  C   UNL A   1      35.656  34.050  31.441  1.00  0.00     0.009 A 
ATOM     69  C   UNL A   1      33.937  34.804  29.411  1.00  0.00     0.001 A 
ATOM     70  C   UNL A   1      34.477  34.748  31.740  1.00  0.00     0.001 A 
ATOM     71  C   UNL A   1      33.622  35.139  30.721  1.00  0.00     0.000 A 
ENDBRANCH  52  66
BRANCH  53  72
ATOM     72  C   UNL A   1      44.331  28.983  28.770  1.00  0.00    -0.014 A 
ATOM     73  C   UNL A   1      44.999  27.838  29.250  1.00  0.00     0.009 A 
ATOM     74  C   UNL A   1      43.877  28.985  27.443  1.00  0.00     0.009 A 
ATOM     75  C   UNL A   1      45.108  26.688  28.462  1.00  0.00     0.001 A 
ATOM     76  C   UNL A   1      44.001  27.834  26.653  1.00  0.00     0.001 A 
ATOM     77  C   UNL A   1      44.585  26.679  27.172  1.00  0.00     0.000 A 
ENDBRANCH  53  72
BRANCH  65  78
ATOM     78  C   UNL A   1      42.302  35.908  28.871  1.00  0.00    -0.014 A 
ATOM     79  C   UNL A   1      43.128  36.889  29.436  1.00  0.00     0.009 A 
ATOM     80  C   UNL A   1      41.701  36.224  27.632  1.00  0.00     0.009 A 
ATOM     81  C   UNL A   1      43.307  38.135  28.818  1.00  0.00     0.001 A 
ATOM     82  C   UNL A   1      41.913  37.447  26.990  1.00  0.00     0.001 A 
ATOM     83  C   UNL A   1      42.708  38.409  27.593  1.00  0.00     0.000 A 
ENDBRANCH  65  78
ENDBRANCH  39  40
ENDBRANCH  31  34
ENDBRANCH  29  30
ENDBRANCH  28  29
ENDBRANCH   1  28
TORSDOF 14
ENDMDL
MODEL 3
REMARK VINA RESULT:     -12.3      1.494      2.123
REMARK SMILES Cc1ccc(N2C(=O)C[C@H](Sc3ccccc3C(=O)NCCCCNC(=O)c3ccc(-c4c5nc(c(-c6ccccc6)c6ccc([nH]6)c(-c6ccccc6)c6nc(c(-c7ccccc7)c7ccc4[nH]7)C=C6)C=C5)cc3)C2=O)cc1
REMARK SMILES IDX 22 1 21 2 20 3 18 4 19 5 17 7 12 8 13 9 14 10 16 11 15 12
REMARK SMILES IDX 11 13 10 14 6 15 7 16 76 17 8 18 9 19 77 20 5 21 1 22 2 23
REMARK SMILES IDX 3 24 79 25 4 26 78 27 23 28 24 29 25 30 26 31 27 33 28 34
REMARK SMILES IDX 29 35 75 36 30 37 74 38 31 39 32 40 33 41 68 42 34 43 73 44
REMARK SMILES IDX 67 45 69 46 35 47 72 48 66 49 65 50 36 52 58 53 43 54 57 55
REMARK SMILES IDX 44 56 47 57 56 58 70 59 45 60 46 61 55 63 71 64 48 65 37 66
REMARK SMILES IDX 38 67 42 68 39 69 41 70 40 71 59 72 60 73 64 74 61 75 63 76
REMARK SMILES IDX 62 77 49 78 50 79 54 80 51 81 53 82 52 83
REMARK H PARENT 20 6 25 32 69 51 47 62
REMARK Flexibility Score: inf
ROOT
ATOM      1  C   UNL A   1      31.492  29.641  26.838  1.00  0.00     0.023 C 
ENDROOT
BRANCH   1   2
ATOM      2  C   UNL A   1      31.983  28.304  27.394  1.00  0.00     0.116 C 
BRANCH   2   3
ATOM      3  N   UNL A   1      31.071  27.177  27.237  1.00  0.00    -0.352 N 
ATOM      4  C   UNL A   1      30.775  26.320  26.196  1.00  0.00     0.252 C 
ATOM      5  O   UNL A   1      30.046  25.363  26.449  1.00  0.00    -0.269 OA
ATOM      6  H   UNL A   1      30.553  26.985  28.052  1.00  0.00     0.163 HD
BRANCH   4   7
ATOM      7  C   UNL A   1      31.265  26.544  24.807  1.00  0.00     0.053 A 
ATOM      8  C   UNL A   1      32.508  26.046  24.343  1.00  0.00     0.021 A 
ATOM      9  C   UNL A   1      32.859  26.260  22.995  1.00  0.00     0.016 A 
ATOM     10  C   UNL A   1      32.035  26.990  22.136  1.00  0.00     0.001 A 
ATOM     11  C   UNL A   1      30.507  27.364  23.956  1.00  0.00     0.015 A 
ATOM     12  C   UNL A   1      30.872  27.567  22.627  1.00  0.00     0.001 A 
BRANCH   8  13
ATOM     13  S   UNL A   1      33.867  25.470  25.374  1.00  0.00    -0.111 SA
BRANCH  13  14
ATOM     14  C   UNL A   1      34.164  23.740  24.900  1.00  0.00     0.151 C 
ATOM     15  N   UNL A   1      36.255  22.714  24.767  1.00  0.00    -0.250 N 
ATOM     16  C   UNL A   1      35.948  23.105  23.483  1.00  0.00     0.235 C 
ATOM     17  C   UNL A   1      35.271  23.066  25.664  1.00  0.00     0.247 C 
ATOM     18  O   UNL A   1      36.631  23.027  22.470  1.00  0.00    -0.274 OA
ATOM     19  C   UNL A   1      34.513  23.531  23.447  1.00  0.00     0.126 C 
ATOM     20  O   UNL A   1      35.264  22.909  26.879  1.00  0.00    -0.273 OA
BRANCH  15  21
ATOM     21  C   UNL A   1      37.413  21.969  25.104  1.00  0.00     0.052 A 
ATOM     22  C   UNL A   1      40.806  19.656  26.467  1.00  0.00     0.044 C 
ATOM     23  C   UNL A   1      39.650  20.461  25.955  1.00  0.00    -0.051 A 
ATOM     24  C   UNL A   1      39.580  21.834  26.209  1.00  0.00     0.005 A 
ATOM     25  C   UNL A   1      38.596  19.847  25.272  1.00  0.00     0.005 A 
ATOM     26  C   UNL A   1      38.486  22.584  25.766  1.00  0.00     0.027 A 
ATOM     27  C   UNL A   1      37.485  20.591  24.862  1.00  0.00     0.027 A 
ENDBRANCH  15  21
ENDBRANCH  13  14
ENDBRANCH   8  13
ENDBRANCH   4   7
ENDBRANCH   2   3
ENDBRANCH   1   2
BRANCH   1  28
ATOM     28  C   UNL A   1      32.422  30.839  27.010  1.00  0.00     0.023 C 
BRANCH  28  29
ATOM     29  C   UNL A   1      33.875  30.520  27.342  1.00  0.00     0.116 C 
BRANCH  29  30
ATOM     30  N   UNL A   1      34.590  31.539  28.101  1.00  0.00    -0.352 N 
ATOM     31  C   UNL A   1      35.818  31.448  28.758  1.00  0.00     0.251 C 
ATOM     32  H   UNL A   1      34.143  32.414  28.160  1.00  0.00     0.163 HD
ATOM     33  O   UNL A   1      36.270  32.395  29.357  1.00  0.00    -0.269 OA
BRANCH  31  34
ATOM     34  C   UNL A   1      36.630  30.207  28.596  1.00  0.00     0.039 A 
ATOM     35  C   UNL A   1      36.831  29.410  29.729  1.00  0.00     0.014 A 
ATOM     36  C   UNL A   1      37.355  29.965  27.435  1.00  0.00     0.014 A 
ATOM     37  C   UNL A   1      37.947  28.578  29.783  1.00  0.00     0.010 A 
ATOM     38  C   UNL A   1      38.519  29.227  27.522  1.00  0.00     0.010 A 
ATOM     39  C   UNL A   1      38.855  28.603  28.726  1.00  0.00    -0.014 A 
BRANCH  39  40
ATOM     40  C   UNL A   1      40.244  28.179  28.870  1.00  0.00     0.031 A 
ATOM     41  C   UNL A   1      40.714  26.892  28.329  1.00  0.00     0.074 A 
ATOM     42  C   UNL A   1      41.126  29.023  29.448  1.00  0.00     0.049 A 
ATOM     43  N   UNL A   1      41.758  26.263  28.758  1.00  0.00    -0.248 NA
ATOM     44  C   UNL A   1      39.992  26.170  27.289  1.00  0.00     0.031 C 
ATOM     45  C   UNL A   1      42.584  28.945  29.437  1.00  0.00     0.029 A 
ATOM     46  N   UNL A   1      40.842  30.034  30.366  1.00  0.00    -0.354 N 
ATOM     47  C   UNL A   1      42.018  25.245  27.870  1.00  0.00     0.074 A 
ATOM     48  C   UNL A   1      40.835  25.162  27.045  1.00  0.00     0.031 C 
ATOM     49  C   UNL A   1      43.065  29.675  30.456  1.00  0.00     0.029 A 
ATOM     50  C   UNL A   1      41.929  30.116  31.250  1.00  0.00     0.049 A 
ATOM     51  H   UNL A   1      40.029  30.587  30.389  1.00  0.00     0.167 HD
ATOM     52  C   UNL A   1      43.263  24.691  27.831  1.00  0.00     0.031 A 
ATOM     53  C   UNL A   1      41.768  29.861  32.582  1.00  0.00     0.031 A 
ATOM     54  C   UNL A   1      44.122  25.204  28.899  1.00  0.00     0.049 A 
ATOM     55  C   UNL A   1      42.571  28.680  33.081  1.00  0.00     0.074 A 
ATOM     56  C   UNL A   1      45.146  26.138  28.924  1.00  0.00     0.029 A 
ATOM     57  N   UNL A   1      43.786  24.955  30.226  1.00  0.00    -0.354 N 
ATOM     58  N   UNL A   1      43.107  27.779  32.307  1.00  0.00    -0.248 NA
ATOM     59  C   UNL A   1      42.789  28.395  34.499  1.00  0.00     0.031 C 
ATOM     60  C   UNL A   1      45.370  26.507  30.276  1.00  0.00     0.029 A 
ATOM     61  C   UNL A   1      44.506  25.776  31.071  1.00  0.00     0.049 A 
ATOM     62  H   UNL A   1      43.126  24.287  30.521  1.00  0.00     0.167 HD
ATOM     63  C   UNL A   1      43.701  26.810  33.071  1.00  0.00     0.074 A 
ATOM     64  C   UNL A   1      43.493  27.250  34.438  1.00  0.00     0.031 C 
ATOM     65  C   UNL A   1      44.295  25.714  32.512  1.00  0.00     0.031 A 
BRANCH  52  66
ATOM     66  C   UNL A   1      43.795  23.913  26.643  1.00  0.00    -0.014 A 
ATOM     67  C   UNL A   1      43.443  22.557  26.486  1.00  0.00     0.009 A 
ATOM     68  C   UNL A   1      44.697  24.417  25.692  1.00  0.00     0.009 A 
ATOM     69  C   UNL A   1      44.032  21.740  25.510  1.00  0.00     0.001 A 
ATOM     70  C   UNL A   1      45.316  23.602  24.734  1.00  0.00     0.001 A 
ATOM     71  C   UNL A   1      44.993  22.256  24.652  1.00  0.00     0.000 A 
ENDBRANCH  52  66
BRANCH  53  72
ATOM     72  C   UNL A   1      40.429  30.247  33.108  1.00  0.00    -0.014 A 
ATOM     73  C   UNL A   1      40.104  31.617  33.178  1.00  0.00     0.009 A 
ATOM     74  C   UNL A   1      39.391  29.308  33.199  1.00  0.00     0.009 A 
ATOM     75  C   UNL A   1      38.771  32.036  33.222  1.00  0.00     0.001 A 
ATOM     76  C   UNL A   1      38.057  29.734  33.256  1.00  0.00     0.001 A 
ATOM     77  C   UNL A   1      37.747  31.094  33.234  1.00  0.00     0.000 A 
ENDBRANCH  53  72
BRANCH  65  78
ATOM     78  C   UNL A   1      44.791  24.500  33.256  1.00  0.00    -0.014 A 
ATOM     79  C   UNL A   1      46.090  24.358  33.762  1.00  0.00     0.009 A 
ATOM     80  C   UNL A   1      43.867  23.484  33.590  1.00  0.00     0.009 A 
ATOM     81  C   UNL A   1      46.458  23.239  34.524  1.00  0.00     0.001 A 
ATOM     82  C   UNL A   1      44.217  22.390  34.387  1.00  0.00     0.001 A 
ATOM     83  C   UNL A   1      45.520  22.263  34.844  1.00  0.00     0.000 A 
ENDBRANCH  65  78
ENDBRANCH  39  40
ENDBRANCH  31  34
ENDBRANCH  29  30
ENDBRANCH  28  29
ENDBRANCH   1  28
TORSDOF 14
ENDMDL
