MODEL 1
REMARK VINA RESULT:     -12.5      0.000      0.000
REMARK SMILES Cc1nc(-c2ccccc2)sc1C(=O)N[C@@H](CC1=c2ccccc2=NC1)C(=O)NCCCCNC(=O)c1ccc(-c2c3nc(c(-c4ccccc4)c4ccc([nH]4)c(-c4ccccc4)c4nc(c(-c5ccccc5)c5ccc2[nH]5)C=C4)C=C3)cc1
REMARK SMILES IDX 31 1 30 2 29 3 27 4 28 5 16 7 15 8 13 9 14 10 12 12 1 13
REMARK SMILES IDX 2 14 3 15 4 16 11 17 5 18 6 19 10 20 7 21 9 22 8 23 17 24
REMARK SMILES IDX 18 25 19 26 26 27 20 28 24 29 25 30 21 31 23 32 22 33 32 34
REMARK SMILES IDX 33 35 34 36 35 37 36 39 37 40 38 41 84 42 39 43 83 44 40 45
REMARK SMILES IDX 41 46 42 47 77 48 43 49 82 50 76 51 78 52 44 53 81 54 75 55
REMARK SMILES IDX 74 56 45 58 67 59 52 60 66 61 53 62 56 63 65 64 79 65 54 66
REMARK SMILES IDX 55 67 64 69 80 70 57 71 46 72 47 73 51 74 48 75 50 76 49 77
REMARK SMILES IDX 68 78 69 79 73 80 70 81 72 82 71 83 58 84 59 85 63 86 60 87
REMARK SMILES IDX 62 88 61 89
REMARK H PARENT 29 6 15 11 34 38 78 57 56 68
REMARK Flexibility Score: inf
ROOT
ATOM      1  C   UNL A   1      32.903  27.817  25.264  1.00  0.00     0.023 C 
ENDROOT
BRANCH   1   2
ATOM      2  C   UNL A   1      32.714  26.533  26.052  1.00  0.00     0.116 C 
BRANCH   2   3
ATOM      3  N   UNL A   1      31.389  26.331  26.584  1.00  0.00    -0.354 N 
ATOM      4  C   UNL A   1      30.297  25.789  25.979  1.00  0.00     0.242 C 
ATOM      5  O   UNL A   1      29.466  25.252  26.723  1.00  0.00    -0.273 OA
ATOM      6  H   UNL A   1      31.256  26.626  27.514  1.00  0.00     0.163 HD
BRANCH   4   7
ATOM      7  C   UNL A   1      30.095  25.733  24.446  1.00  0.00     0.175 C 
BRANCH   7   8
ATOM      8  N   UNL A   1      30.139  24.407  23.857  1.00  0.00    -0.339 N 
ATOM      9  C   UNL A   1      31.130  23.607  23.359  1.00  0.00     0.263 C 
ATOM     10  O   UNL A   1      30.664  22.576  22.854  1.00  0.00    -0.268 OA
ATOM     11  H   UNL A   1      29.250  23.986  23.803  1.00  0.00     0.164 HD
BRANCH   9  12
ATOM     12  C   UNL A   1      32.568  23.867  23.413  1.00  0.00     0.115 A 
ATOM     13  C   UNL A   1      33.387  25.966  22.023  1.00  0.00     0.068 C 
ATOM     14  C   UNL A   1      33.492  24.794  22.929  1.00  0.00     0.062 A 
ATOM     15  N   UNL A   1      34.798  24.599  23.357  1.00  0.00    -0.241 NA
ATOM     16  C   UNL A   1      34.917  23.505  24.063  1.00  0.00     0.124 A 
ATOM     17  S   UNL A   1      33.471  22.661  24.328  1.00  0.00    -0.108 S 
BRANCH  16  18
ATOM     18  C   UNL A   1      36.196  23.054  24.599  1.00  0.00     0.010 A 
ATOM     19  C   UNL A   1      36.608  21.737  24.348  1.00  0.00     0.011 A 
ATOM     20  C   UNL A   1      36.946  23.854  25.469  1.00  0.00     0.011 A 
ATOM     21  C   UNL A   1      37.745  21.222  24.966  1.00  0.00     0.001 A 
ATOM     22  C   UNL A   1      38.080  23.332  26.095  1.00  0.00     0.001 A 
ATOM     23  C   UNL A   1      38.475  22.018  25.848  1.00  0.00     0.000 A 
ENDBRANCH  16  18
ENDBRANCH   9  12
ENDBRANCH   7   8
BRANCH   7  24
ATOM     24  C   UNL A   1      28.921  26.588  23.898  1.00  0.00     0.068 C 
BRANCH  24  25
ATOM     25  C   UNL A   1      29.252  27.816  23.105  1.00  0.00    -0.037 C 
ATOM     26  C   UNL A   1      28.594  28.972  23.015  1.00  0.00     0.001 A 
ATOM     27  C   UNL A   1      30.515  27.870  22.295  1.00  0.00     0.174 C 
ATOM     28  C   UNL A   1      27.379  29.496  23.549  1.00  0.00     0.010 A 
ATOM     29  C   UNL A   1      29.568  29.837  22.322  1.00  0.00     0.065 A 
ATOM     30  N   UNL A   1      30.661  29.288  21.890  1.00  0.00    -0.280 NA
ATOM     31  C   UNL A   1      27.169  30.822  23.493  1.00  0.00     0.001 A 
ATOM     32  C   UNL A   1      29.260  31.283  22.289  1.00  0.00     0.028 A 
ATOM     33  C   UNL A   1      28.135  31.719  22.881  1.00  0.00     0.002 A 
ENDBRANCH  24  25
ENDBRANCH   7  24
ENDBRANCH   4   7
ENDBRANCH   2   3
ENDBRANCH   1   2
BRANCH   1  34
ATOM     34  C   UNL A   1      33.763  28.874  25.945  1.00  0.00     0.023 C 
BRANCH  34  35
ATOM     35  C   UNL A   1      33.548  29.044  27.445  1.00  0.00     0.116 C 
BRANCH  35  36
ATOM     36  N   UNL A   1      33.687  30.422  27.908  1.00  0.00    -0.352 N 
ATOM     37  C   UNL A   1      34.773  31.037  28.480  1.00  0.00     0.251 C 
ATOM     38  H   UNL A   1      32.890  30.988  27.796  1.00  0.00     0.163 HD
ATOM     39  O   UNL A   1      34.693  32.170  28.931  1.00  0.00    -0.269 OA
BRANCH  37  40
ATOM     40  C   UNL A   1      36.041  30.283  28.579  1.00  0.00     0.039 A 
ATOM     41  C   UNL A   1      36.927  30.296  27.502  1.00  0.00     0.014 A 
ATOM     42  C   UNL A   1      36.381  29.643  29.774  1.00  0.00     0.014 A 
ATOM     43  C   UNL A   1      38.202  29.751  27.658  1.00  0.00     0.010 A 
ATOM     44  C   UNL A   1      37.679  29.181  29.955  1.00  0.00     0.010 A 
ATOM     45  C   UNL A   1      38.606  29.239  28.901  1.00  0.00    -0.014 A 
BRANCH  45  46
ATOM     46  C   UNL A   1      39.996  28.770  29.132  1.00  0.00     0.031 A 
ATOM     47  C   UNL A   1      41.011  29.694  29.743  1.00  0.00     0.074 A 
ATOM     48  C   UNL A   1      40.366  27.541  28.716  1.00  0.00     0.049 A 
ATOM     49  N   UNL A   1      42.286  29.495  29.956  1.00  0.00    -0.248 NA
ATOM     50  C   UNL A   1      40.537  31.032  30.137  1.00  0.00     0.031 C 
ATOM     51  C   UNL A   1      39.495  26.567  28.056  1.00  0.00     0.029 A 
ATOM     52  N   UNL A   1      41.581  26.907  28.782  1.00  0.00    -0.354 N 
ATOM     53  C   UNL A   1      42.770  30.686  30.481  1.00  0.00     0.074 A 
ATOM     54  C   UNL A   1      41.664  31.619  30.509  1.00  0.00     0.031 C 
ATOM     55  C   UNL A   1      40.195  25.448  27.808  1.00  0.00     0.029 A 
ATOM     56  C   UNL A   1      41.569  25.637  28.256  1.00  0.00     0.049 A 
ATOM     57  H   UNL A   1      42.385  27.322  29.171  1.00  0.00     0.167 HD
ATOM     58  C   UNL A   1      44.016  30.974  30.925  1.00  0.00     0.031 A 
ATOM     59  C   UNL A   1      42.556  24.728  28.149  1.00  0.00     0.031 A 
ATOM     60  C   UNL A   1      45.111  30.043  30.924  1.00  0.00     0.049 A 
ATOM     61  C   UNL A   1      43.926  25.064  28.666  1.00  0.00     0.074 A 
ATOM     62  C   UNL A   1      46.393  30.218  31.412  1.00  0.00     0.029 A 
ATOM     63  N   UNL A   1      45.049  28.757  30.410  1.00  0.00    -0.354 N 
ATOM     64  N   UNL A   1      44.349  26.171  29.227  1.00  0.00    -0.248 NA
ATOM     65  C   UNL A   1      44.953  24.018  28.546  1.00  0.00     0.031 C 
ATOM     66  C   UNL A   1      47.120  29.049  31.161  1.00  0.00     0.029 A 
ATOM     67  C   UNL A   1      46.275  28.132  30.556  1.00  0.00     0.049 A 
ATOM     68  H   UNL A   1      44.252  28.349  30.001  1.00  0.00     0.167 HD
ATOM     69  C   UNL A   1      45.680  25.946  29.552  1.00  0.00     0.074 A 
ATOM     70  C   UNL A   1      45.990  24.593  29.137  1.00  0.00     0.031 C 
ATOM     71  C   UNL A   1      46.565  26.784  30.141  1.00  0.00     0.031 A 
BRANCH  58  72
ATOM     72  C   UNL A   1      44.254  32.360  31.452  1.00  0.00    -0.014 A 
ATOM     73  C   UNL A   1      44.057  32.665  32.809  1.00  0.00     0.009 A 
ATOM     74  C   UNL A   1      44.699  33.372  30.586  1.00  0.00     0.009 A 
ATOM     75  C   UNL A   1      44.262  33.963  33.279  1.00  0.00     0.001 A 
ATOM     76  C   UNL A   1      44.929  34.662  31.065  1.00  0.00     0.001 A 
ATOM     77  C   UNL A   1      44.701  34.959  32.409  1.00  0.00     0.000 A 
ENDBRANCH  58  72
BRANCH  59  78
ATOM     78  C   UNL A   1      42.280  23.396  27.553  1.00  0.00    -0.014 A 
ATOM     79  C   UNL A   1      41.761  22.359  28.345  1.00  0.00     0.009 A 
ATOM     80  C   UNL A   1      42.541  23.147  26.197  1.00  0.00     0.009 A 
ATOM     81  C   UNL A   1      41.534  21.095  27.798  1.00  0.00     0.001 A 
ATOM     82  C   UNL A   1      42.289  21.888  25.646  1.00  0.00     0.001 A 
ATOM     83  C   UNL A   1      41.794  20.861  26.448  1.00  0.00     0.000 A 
ENDBRANCH  59  78
BRANCH  71  84
ATOM     84  C   UNL A   1      47.943  26.251  30.407  1.00  0.00    -0.014 A 
ATOM     85  C   UNL A   1      48.300  25.756  31.671  1.00  0.00     0.009 A 
ATOM     86  C   UNL A   1      48.884  26.207  29.366  1.00  0.00     0.009 A 
ATOM     87  C   UNL A   1      49.584  25.256  31.895  1.00  0.00     0.001 A 
ATOM     88  C   UNL A   1      50.157  25.682  29.587  1.00  0.00     0.001 A 
ATOM     89  C   UNL A   1      50.509  25.215  30.851  1.00  0.00     0.000 A 
ENDBRANCH  71  84
ENDBRANCH  45  46
ENDBRANCH  37  40
ENDBRANCH  35  36
ENDBRANCH  34  35
ENDBRANCH   1  34
TORSDOF 16
ENDMDL
MODEL 2
REMARK VINA RESULT:     -12.1      2.615      6.813
REMARK SMILES Cc1nc(-c2ccccc2)sc1C(=O)N[C@@H](CC1=c2ccccc2=NC1)C(=O)NCCCCNC(=O)c1ccc(-c2c3nc(c(-c4ccccc4)c4ccc([nH]4)c(-c4ccccc4)c4nc(c(-c5ccccc5)c5ccc2[nH]5)C=C4)C=C3)cc1
REMARK SMILES IDX 31 1 30 2 29 3 27 4 28 5 16 7 15 8 13 9 14 10 12 12 1 13
REMARK SMILES IDX 2 14 3 15 4 16 11 17 5 18 6 19 10 20 7 21 9 22 8 23 17 24
REMARK SMILES IDX 18 25 19 26 26 27 20 28 24 29 25 30 21 31 23 32 22 33 32 34
REMARK SMILES IDX 33 35 34 36 35 37 36 39 37 40 38 41 84 42 39 43 83 44 40 45
REMARK SMILES IDX 41 46 42 47 77 48 43 49 82 50 76 51 78 52 44 53 81 54 75 55
REMARK SMILES IDX 74 56 45 58 67 59 52 60 66 61 53 62 56 63 65 64 79 65 54 66
REMARK SMILES IDX 55 67 64 69 80 70 57 71 46 72 47 73 51 74 48 75 50 76 49 77
REMARK SMILES IDX 68 78 69 79 73 80 70 81 72 82 71 83 58 84 59 85 63 86 60 87
REMARK SMILES IDX 62 88 61 89
REMARK H PARENT 29 6 15 11 34 38 78 57 56 68
REMARK Flexibility Score: inf
ROOT
ATOM      1  C   UNL A   1      31.712  28.868  26.834  1.00  0.00     0.023 C 
ENDROOT
BRANCH   1   2
ATOM      2  C   UNL A   1      32.917  27.945  26.850  1.00  0.00     0.116 C 
BRANCH   2   3
ATOM      3  N   UNL A   1      33.729  27.981  25.658  1.00  0.00    -0.354 N 
ATOM      4  C   UNL A   1      33.557  27.312  24.484  1.00  0.00     0.242 C 
ATOM      5  O   UNL A   1      34.024  27.849  23.472  1.00  0.00    -0.273 OA
ATOM      6  H   UNL A   1      34.516  28.570  25.698  1.00  0.00     0.163 HD
BRANCH   4   7
ATOM      7  C   UNL A   1      32.751  25.998  24.347  1.00  0.00     0.175 C 
BRANCH   7   8
ATOM      8  N   UNL A   1      32.231  25.450  25.586  1.00  0.00    -0.339 N 
ATOM      9  C   UNL A   1      32.323  24.240  26.217  1.00  0.00     0.263 C 
ATOM     10  O   UNL A   1      31.606  24.205  27.228  1.00  0.00    -0.268 OA
ATOM     11  H   UNL A   1      31.686  26.098  26.088  1.00  0.00     0.164 HD
BRANCH   9  12
ATOM     12  C   UNL A   1      33.160  23.111  25.816  1.00  0.00     0.115 A 
ATOM     13  C   UNL A   1      35.755  23.424  26.234  1.00  0.00     0.068 C 
ATOM     14  C   UNL A   1      34.504  22.735  25.827  1.00  0.00     0.062 A 
ATOM     15  N   UNL A   1      34.760  21.456  25.353  1.00  0.00    -0.241 NA
ATOM     16  C   UNL A   1      33.678  20.887  24.889  1.00  0.00     0.124 A 
ATOM     17  S   UNL A   1      32.262  21.805  25.045  1.00  0.00    -0.108 S 
BRANCH  16  18
ATOM     18  C   UNL A   1      33.687  19.553  24.299  1.00  0.00     0.010 A 
ATOM     19  C   UNL A   1      32.602  19.159  23.503  1.00  0.00     0.011 A 
ATOM     20  C   UNL A   1      34.676  18.617  24.624  1.00  0.00     0.011 A 
ATOM     21  C   UNL A   1      32.499  17.847  23.048  1.00  0.00     0.001 A 
ATOM     22  C   UNL A   1      34.565  17.300  24.175  1.00  0.00     0.001 A 
ATOM     23  C   UNL A   1      33.476  16.915  23.393  1.00  0.00     0.000 A 
ENDBRANCH  16  18
ENDBRANCH   9  12
ENDBRANCH   7   8
BRANCH   7  24
ATOM     24  C   UNL A   1      31.703  25.978  23.202  1.00  0.00     0.068 C 
BRANCH  24  25
ATOM     25  C   UNL A   1      30.401  26.686  23.423  1.00  0.00    -0.037 C 
ATOM     26  C   UNL A   1      30.034  27.920  23.077  1.00  0.00     0.001 A 
ATOM     27  C   UNL A   1      29.258  25.968  24.082  1.00  0.00     0.174 C 
ATOM     28  C   UNL A   1      30.667  29.028  22.438  1.00  0.00     0.010 A 
ATOM     29  C   UNL A   1      28.579  27.898  23.319  1.00  0.00     0.065 A 
ATOM     30  N   UNL A   1      28.078  26.841  23.880  1.00  0.00    -0.280 NA
ATOM     31  C   UNL A   1      29.899  30.028  21.972  1.00  0.00     0.001 A 
ATOM     32  C   UNL A   1      27.804  29.040  22.788  1.00  0.00     0.028 A 
ATOM     33  C   UNL A   1      28.455  30.012  22.127  1.00  0.00     0.002 A 
ENDBRANCH  24  25
ENDBRANCH   7  24
ENDBRANCH   4   7
ENDBRANCH   2   3
ENDBRANCH   1   2
BRANCH   1  34
ATOM     34  C   UNL A   1      31.986  30.284  26.346  1.00  0.00     0.023 C 
BRANCH  34  35
ATOM     35  C   UNL A   1      32.882  31.135  27.240  1.00  0.00     0.116 C 
BRANCH  35  36
ATOM     36  N   UNL A   1      32.418  32.510  27.402  1.00  0.00    -0.352 N 
ATOM     37  C   UNL A   1      33.012  33.550  28.074  1.00  0.00     0.251 C 
ATOM     38  H   UNL A   1      31.559  32.721  26.969  1.00  0.00     0.163 HD
ATOM     39  O   UNL A   1      32.436  34.617  28.224  1.00  0.00    -0.269 OA
BRANCH  37  40
ATOM     40  C   UNL A   1      34.356  33.341  28.654  1.00  0.00     0.039 A 
ATOM     41  C   UNL A   1      34.472  32.701  29.889  1.00  0.00     0.014 A 
ATOM     42  C   UNL A   1      35.494  33.700  27.927  1.00  0.00     0.014 A 
ATOM     43  C   UNL A   1      35.736  32.330  30.350  1.00  0.00     0.010 A 
ATOM     44  C   UNL A   1      36.740  33.251  28.346  1.00  0.00     0.010 A 
ATOM     45  C   UNL A   1      36.873  32.553  29.558  1.00  0.00    -0.014 A 
BRANCH  45  46
ATOM     46  C   UNL A   1      38.211  32.055  29.965  1.00  0.00     0.031 A 
ATOM     47  C   UNL A   1      38.712  30.735  29.450  1.00  0.00     0.074 A 
ATOM     48  C   UNL A   1      38.940  32.750  30.862  1.00  0.00     0.049 A 
ATOM     49  N   UNL A   1      39.817  30.100  29.746  1.00  0.00    -0.248 NA
ATOM     50  C   UNL A   1      37.842  30.020  28.501  1.00  0.00     0.031 C 
ATOM     51  C   UNL A   1      38.544  34.015  31.484  1.00  0.00     0.029 A 
ATOM     52  N   UNL A   1      40.168  32.481  31.413  1.00  0.00    -0.354 N 
ATOM     53  C   UNL A   1      39.761  28.902  29.044  1.00  0.00     0.074 A 
ATOM     54  C   UNL A   1      38.493  28.877  28.347  1.00  0.00     0.031 C 
ATOM     55  C   UNL A   1      39.524  34.428  32.305  1.00  0.00     0.029 A 
ATOM     56  C   UNL A   1      40.599  33.442  32.296  1.00  0.00     0.049 A 
ATOM     57  H   UNL A   1      40.692  31.676  31.195  1.00  0.00     0.167 HD
ATOM     58  C   UNL A   1      40.689  27.921  28.964  1.00  0.00     0.031 A 
ATOM     59  C   UNL A   1      41.734  33.519  33.016  1.00  0.00     0.031 A 
ATOM     60  C   UNL A   1      41.961  27.954  29.633  1.00  0.00     0.049 A 
ATOM     61  C   UNL A   1      42.758  32.427  32.896  1.00  0.00     0.074 A 
ATOM     62  C   UNL A   1      42.997  27.039  29.563  1.00  0.00     0.029 A 
ATOM     63  N   UNL A   1      42.371  28.959  30.495  1.00  0.00    -0.354 N 
ATOM     64  N   UNL A   1      42.720  31.335  32.170  1.00  0.00    -0.248 NA
ATOM     65  C   UNL A   1      43.988  32.583  33.686  1.00  0.00     0.031 C 
ATOM     66  C   UNL A   1      44.020  27.472  30.412  1.00  0.00     0.029 A 
ATOM     67  C   UNL A   1      43.638  28.680  30.975  1.00  0.00     0.049 A 
ATOM     68  H   UNL A   1      41.839  29.753  30.731  1.00  0.00     0.167 HD
ATOM     69  C   UNL A   1      43.929  30.691  32.394  1.00  0.00     0.074 A 
ATOM     70  C   UNL A   1      44.684  31.520  33.312  1.00  0.00     0.031 C 
ATOM     71  C   UNL A   1      44.375  29.517  31.885  1.00  0.00     0.031 A 
BRANCH  58  72
ATOM     72  C   UNL A   1      40.356  26.727  28.115  1.00  0.00    -0.014 A 
ATOM     73  C   UNL A   1      40.833  26.616  26.799  1.00  0.00     0.009 A 
ATOM     74  C   UNL A   1      39.569  25.691  28.643  1.00  0.00     0.009 A 
ATOM     75  C   UNL A   1      40.497  25.511  26.016  1.00  0.00     0.001 A 
ATOM     76  C   UNL A   1      39.258  24.574  27.866  1.00  0.00     0.001 A 
ATOM     77  C   UNL A   1      39.713  24.490  26.550  1.00  0.00     0.000 A 
ENDBRANCH  58  72
BRANCH  59  78
ATOM     78  C   UNL A   1      41.979  34.691  33.896  1.00  0.00    -0.014 A 
ATOM     79  C   UNL A   1      42.633  35.828  33.394  1.00  0.00     0.009 A 
ATOM     80  C   UNL A   1      41.574  34.678  35.239  1.00  0.00     0.009 A 
ATOM     81  C   UNL A   1      42.899  36.917  34.226  1.00  0.00     0.001 A 
ATOM     82  C   UNL A   1      41.818  35.780  36.062  1.00  0.00     0.001 A 
ATOM     83  C   UNL A   1      42.488  36.894  35.558  1.00  0.00     0.000 A 
ENDBRANCH  59  78
BRANCH  71  84
ATOM     84  C   UNL A   1      45.756  29.079  32.278  1.00  0.00    -0.014 A 
ATOM     85  C   UNL A   1      46.881  29.465  31.533  1.00  0.00     0.009 A 
ATOM     86  C   UNL A   1      45.936  28.302  33.433  1.00  0.00     0.009 A 
ATOM     87  C   UNL A   1      48.158  29.055  31.922  1.00  0.00     0.001 A 
ATOM     88  C   UNL A   1      47.215  27.915  33.832  1.00  0.00     0.001 A 
ATOM     89  C   UNL A   1      48.323  28.284  33.073  1.00  0.00     0.000 A 
ENDBRANCH  71  84
ENDBRANCH  45  46
ENDBRANCH  37  40
ENDBRANCH  35  36
ENDBRANCH  34  35
ENDBRANCH   1  34
TORSDOF 16
ENDMDL
MODEL 3
REMARK VINA RESULT:     -12.0      1.877      5.954
REMARK SMILES Cc1nc(-c2ccccc2)sc1C(=O)N[C@@H](CC1=c2ccccc2=NC1)C(=O)NCCCCNC(=O)c1ccc(-c2c3nc(c(-c4ccccc4)c4ccc([nH]4)c(-c4ccccc4)c4nc(c(-c5ccccc5)c5ccc2[nH]5)C=C4)C=C3)cc1
REMARK SMILES IDX 31 1 30 2 29 3 27 4 28 5 16 7 15 8 13 9 14 10 12 12 1 13
REMARK SMILES IDX 2 14 3 15 4 16 11 17 5 18 6 19 10 20 7 21 9 22 8 23 17 24
REMARK SMILES IDX 18 25 19 26 26 27 20 28 24 29 25 30 21 31 23 32 22 33 32 34
REMARK SMILES IDX 33 35 34 36 35 37 36 39 37 40 38 41 84 42 39 43 83 44 40 45
REMARK SMILES IDX 41 46 42 47 77 48 43 49 82 50 76 51 78 52 44 53 81 54 75 55
REMARK SMILES IDX 74 56 45 58 67 59 52 60 66 61 53 62 56 63 65 64 79 65 54 66
REMARK SMILES IDX 55 67 64 69 80 70 57 71 46 72 47 73 51 74 48 75 50 76 49 77
REMARK SMILES IDX 68 78 69 79 73 80 70 81 72 82 71 83 58 84 59 85 63 86 60 87
REMARK SMILES IDX 62 88 61 89
REMARK H PARENT 29 6 15 11 34 38 78 57 56 68
REMARK Flexibility Score: inf
ROOT
ATOM      1  C   UNL A   1      32.345  28.903  27.217  1.00  0.00     0.023 C 
ENDROOT
BRANCH   1   2
ATOM      2  C   UNL A   1      31.510  28.176  26.178  1.00  0.00     0.116 C 
BRANCH   2   3
ATOM      3  N   UNL A   1      30.763  27.046  26.676  1.00  0.00    -0.354 N 
ATOM      4  C   UNL A   1      30.381  25.916  26.019  1.00  0.00     0.242 C 
ATOM      5  O   UNL A   1      30.226  24.903  26.713  1.00  0.00    -0.273 OA
ATOM      6  H   UNL A   1      30.493  27.099  27.621  1.00  0.00     0.163 HD
BRANCH   4   7
ATOM      7  C   UNL A   1      30.225  25.818  24.483  1.00  0.00     0.175 C 
BRANCH   7   8
ATOM      8  N   UNL A   1      30.337  24.482  23.926  1.00  0.00    -0.339 N 
ATOM      9  C   UNL A   1      31.377  23.637  23.652  1.00  0.00     0.263 C 
ATOM     10  O   UNL A   1      30.985  22.617  23.068  1.00  0.00    -0.268 OA
ATOM     11  H   UNL A   1      29.463  24.095  23.691  1.00  0.00     0.164 HD
BRANCH   9  12
ATOM     12  C   UNL A   1      32.781  23.845  24.002  1.00  0.00     0.115 A 
ATOM     13  C   UNL A   1      33.634  26.344  23.816  1.00  0.00     0.068 C 
ATOM     14  C   UNL A   1      33.701  24.889  24.107  1.00  0.00     0.062 A 
ATOM     15  N   UNL A   1      34.957  24.521  24.567  1.00  0.00    -0.241 NA
ATOM     16  C   UNL A   1      35.057  23.226  24.718  1.00  0.00     0.124 A 
ATOM     17  S   UNL A   1      33.640  22.355  24.388  1.00  0.00    -0.108 S 
BRANCH  16  18
ATOM     18  C   UNL A   1      36.289  22.581  25.156  1.00  0.00     0.010 A 
ATOM     19  C   UNL A   1      37.252  23.346  25.828  1.00  0.00     0.011 A 
ATOM     20  C   UNL A   1      36.589  21.261  24.797  1.00  0.00     0.011 A 
ATOM     21  C   UNL A   1      38.501  22.808  26.127  1.00  0.00     0.001 A 
ATOM     22  C   UNL A   1      37.846  20.726  25.089  1.00  0.00     0.001 A 
ATOM     23  C   UNL A   1      38.801  21.500  25.748  1.00  0.00     0.000 A 
ENDBRANCH  16  18
ENDBRANCH   9  12
ENDBRANCH   7   8
BRANCH   7  24
ATOM     24  C   UNL A   1      29.035  26.614  23.883  1.00  0.00     0.068 C 
BRANCH  24  25
ATOM     25  C   UNL A   1      29.336  27.873  23.127  1.00  0.00    -0.037 C 
ATOM     26  C   UNL A   1      28.626  28.997  23.030  1.00  0.00     0.001 A 
ATOM     27  C   UNL A   1      30.628  28.007  22.374  1.00  0.00     0.174 C 
ATOM     28  C   UNL A   1      27.364  29.449  23.521  1.00  0.00     0.010 A 
ATOM     29  C   UNL A   1      29.582  29.923  22.396  1.00  0.00     0.065 A 
ATOM     30  N   UNL A   1      30.719  29.438  22.002  1.00  0.00    -0.280 NA
ATOM     31  C   UNL A   1      27.089  30.764  23.479  1.00  0.00     0.001 A 
ATOM     32  C   UNL A   1      29.204  31.352  22.376  1.00  0.00     0.028 A 
ATOM     33  C   UNL A   1      28.034  31.720  22.927  1.00  0.00     0.002 A 
ENDBRANCH  24  25
ENDBRANCH   7  24
ENDBRANCH   4   7
ENDBRANCH   2   3
ENDBRANCH   1   2
BRANCH   1  34
ATOM     34  C   UNL A   1      33.822  28.529  27.238  1.00  0.00     0.023 C 
BRANCH  34  35
ATOM     35  C   UNL A   1      34.803  29.694  27.304  1.00  0.00     0.116 C 
BRANCH  35  36
ATOM     36  N   UNL A   1      34.905  30.305  28.626  1.00  0.00    -0.352 N 
ATOM     37  C   UNL A   1      35.944  30.261  29.523  1.00  0.00     0.251 C 
ATOM     38  H   UNL A   1      34.118  30.821  28.916  1.00  0.00     0.163 HD
ATOM     39  O   UNL A   1      35.829  30.723  30.648  1.00  0.00    -0.269 OA
BRANCH  37  40
ATOM     40  C   UNL A   1      37.202  29.600  29.114  1.00  0.00     0.039 A 
ATOM     41  C   UNL A   1      37.679  29.788  27.816  1.00  0.00     0.014 A 
ATOM     42  C   UNL A   1      37.945  28.872  30.048  1.00  0.00     0.014 A 
ATOM     43  C   UNL A   1      38.954  29.328  27.483  1.00  0.00     0.010 A 
ATOM     44  C   UNL A   1      39.246  28.495  29.740  1.00  0.00     0.010 A 
ATOM     45  C   UNL A   1      39.768  28.727  28.457  1.00  0.00    -0.014 A 
BRANCH  45  46
ATOM     46  C   UNL A   1      41.172  28.346  28.165  1.00  0.00     0.031 A 
ATOM     47  C   UNL A   1      41.516  26.916  27.856  1.00  0.00     0.074 A 
ATOM     48  C   UNL A   1      42.150  29.270  28.260  1.00  0.00     0.049 A 
ATOM     49  N   UNL A   1      42.689  26.376  27.648  1.00  0.00    -0.248 NA
ATOM     50  C   UNL A   1      40.396  25.961  27.807  1.00  0.00     0.031 C 
ATOM     51  C   UNL A   1      41.961  30.679  28.609  1.00  0.00     0.029 A 
ATOM     52  N   UNL A   1      43.506  29.154  28.078  1.00  0.00    -0.354 N 
ATOM     53  C   UNL A   1      42.451  25.019  27.470  1.00  0.00     0.074 A 
ATOM     54  C   UNL A   1      41.030  24.810  27.645  1.00  0.00     0.031 C 
ATOM     55  C   UNL A   1      43.150  31.303  28.583  1.00  0.00     0.029 A 
ATOM     56  C   UNL A   1      44.188  30.334  28.253  1.00  0.00     0.049 A 
ATOM     57  H   UNL A   1      43.948  28.306  27.842  1.00  0.00     0.167 HD
ATOM     58  C   UNL A   1      43.330  24.035  27.165  1.00  0.00     0.031 A 
ATOM     59  C   UNL A   1      45.504  30.604  28.157  1.00  0.00     0.031 A 
ATOM     60  C   UNL A   1      44.738  24.243  26.965  1.00  0.00     0.049 A 
ATOM     61  C   UNL A   1      46.458  29.500  27.799  1.00  0.00     0.074 A 
ATOM     62  C   UNL A   1      45.700  23.323  26.589  1.00  0.00     0.029 A 
ATOM     63  N   UNL A   1      45.385  25.458  27.123  1.00  0.00    -0.354 N 
ATOM     64  N   UNL A   1      46.206  28.235  27.562  1.00  0.00    -0.248 NA
ATOM     65  C   UNL A   1      47.877  29.864  27.681  1.00  0.00     0.031 C 
ATOM     66  C   UNL A   1      46.938  23.974  26.554  1.00  0.00     0.029 A 
ATOM     67  C   UNL A   1      46.736  25.310  26.866  1.00  0.00     0.049 A 
ATOM     68  H   UNL A   1      44.947  26.302  27.381  1.00  0.00     0.167 HD
ATOM     69  C   UNL A   1      47.428  27.660  27.241  1.00  0.00     0.074 A 
ATOM     70  C   UNL A   1      48.418  28.716  27.300  1.00  0.00     0.031 C 
ATOM     71  C   UNL A   1      47.706  26.372  26.926  1.00  0.00     0.031 A 
BRANCH  58  72
ATOM     72  C   UNL A   1      42.783  22.643  27.028  1.00  0.00    -0.014 A 
ATOM     73  C   UNL A   1      42.223  21.972  28.127  1.00  0.00     0.009 A 
ATOM     74  C   UNL A   1      42.810  22.000  25.780  1.00  0.00     0.009 A 
ATOM     75  C   UNL A   1      41.738  20.671  27.988  1.00  0.00     0.001 A 
ATOM     76  C   UNL A   1      42.299  20.709  25.639  1.00  0.00     0.001 A 
ATOM     77  C   UNL A   1      41.773  20.041  26.745  1.00  0.00     0.000 A 
ENDBRANCH  58  72
BRANCH  59  78
ATOM     78  C   UNL A   1      45.998  31.987  28.374  1.00  0.00    -0.014 A 
ATOM     79  C   UNL A   1      46.085  32.886  27.297  1.00  0.00     0.009 A 
ATOM     80  C   UNL A   1      46.395  32.417  29.649  1.00  0.00     0.009 A 
ATOM     81  C   UNL A   1      46.583  34.175  27.489  1.00  0.00     0.001 A 
ATOM     82  C   UNL A   1      46.869  33.717  29.843  1.00  0.00     0.001 A 
ATOM     83  C   UNL A   1      46.971  34.592  28.762  1.00  0.00     0.000 A 
ENDBRANCH  59  78
BRANCH  71  84
ATOM     84  C   UNL A   1      49.129  26.042  26.583  1.00  0.00    -0.014 A 
ATOM     85  C   UNL A   1      49.651  26.311  25.308  1.00  0.00     0.009 A 
ATOM     86  C   UNL A   1      49.970  25.489  27.562  1.00  0.00     0.009 A 
ATOM     87  C   UNL A   1      50.981  26.004  25.012  1.00  0.00     0.001 A 
ATOM     88  C   UNL A   1      51.304  25.208  27.270  1.00  0.00     0.001 A 
ATOM     89  C   UNL A   1      51.807  25.458  25.995  1.00  0.00     0.000 A 
ENDBRANCH  71  84
ENDBRANCH  45  46
ENDBRANCH  37  40
ENDBRANCH  35  36
ENDBRANCH  34  35
ENDBRANCH   1  34
TORSDOF 16
ENDMDL
