MODEL 1
REMARK VINA RESULT:     -12.0      0.000      0.000
REMARK SMILES CC1(C)CCCC[C@H]1NC(=O)Nc1ccccc1C(=O)NCCCCNC(=O)c1ccc(-c2c3nc(c(-c4ccccc4)c4ccc([nH]4)c(-c4ccccc4)c4nc(c(-c5ccccc5)c5ccc2[nH]5)C=C4)C=C3)cc1
REMARK SMILES IDX 23 1 22 2 21 3 19 4 20 5 18 7 13 8 14 9 15 10 17 11 16 12
REMARK SMILES IDX 12 13 9 14 10 15 11 17 8 19 1 20 2 21 3 22 4 23 5 24 7 25
REMARK SMILES IDX 6 26 24 27 25 28 26 29 27 30 28 32 29 33 30 34 76 35 31 36
REMARK SMILES IDX 75 37 32 38 33 39 34 40 69 41 35 42 74 43 68 44 70 45 36 46
REMARK SMILES IDX 73 47 67 48 66 49 37 51 59 52 44 53 58 54 45 55 48 56 57 57
REMARK SMILES IDX 71 58 46 59 47 60 56 62 72 63 49 64 38 65 39 66 43 67 40 68
REMARK SMILES IDX 42 69 41 70 60 71 61 72 65 73 62 74 64 75 63 76 50 77 51 78
REMARK SMILES IDX 55 79 52 80 54 81 53 82
REMARK H PARENT 21 6 9 16 12 18 26 31 70 50 48 61
REMARK Flexibility Score: inf
ROOT
ATOM      1  C   UNL A   1      35.722  21.746  26.318  1.00  0.00     0.023 C 
ENDROOT
BRANCH   1   2
ATOM      2  C   UNL A   1      34.362  21.594  26.993  1.00  0.00     0.116 C 
BRANCH   2   3
ATOM      3  N   UNL A   1      33.563  20.515  26.459  1.00  0.00    -0.352 N 
ATOM      4  C   UNL A   1      32.722  20.472  25.378  1.00  0.00     0.253 C 
ATOM      5  O   UNL A   1      32.079  19.430  25.220  1.00  0.00    -0.269 OA
ATOM      6  H   UNL A   1      33.635  19.668  26.956  1.00  0.00     0.163 HD
BRANCH   4   7
ATOM      7  C   UNL A   1      32.454  21.620  24.458  1.00  0.00     0.063 A 
ATOM      8  C   UNL A   1      31.410  22.564  24.495  1.00  0.00     0.055 A 
ATOM      9  C   UNL A   1      31.262  23.457  23.412  1.00  0.00     0.027 A 
ATOM     10  C   UNL A   1      32.210  23.536  22.391  1.00  0.00     0.002 A 
ATOM     11  C   UNL A   1      33.414  21.734  23.421  1.00  0.00     0.016 A 
ATOM     12  C   UNL A   1      33.308  22.693  22.414  1.00  0.00     0.001 A 
BRANCH   8  13
ATOM     13  N   UNL A   1      30.486  22.802  25.533  1.00  0.00    -0.307 N 
ATOM     14  N   UNL A   1      31.331  24.591  26.836  1.00  0.00    -0.335 N 
ATOM     15  C   UNL A   1      30.517  23.536  26.664  1.00  0.00     0.319 C 
ATOM     16  H   UNL A   1      31.529  24.821  27.772  1.00  0.00     0.165 HD
ATOM     17  O   UNL A   1      29.711  23.270  27.560  1.00  0.00    -0.248 OA
ATOM     18  H   UNL A   1      29.633  22.331  25.403  1.00  0.00     0.171 HD
BRANCH  14  19
ATOM     19  C   UNL A   1      31.964  25.446  25.843  1.00  0.00     0.089 C 
ATOM     20  C   UNL A   1      31.292  27.685  26.954  1.00  0.00     0.013 C 
ATOM     21  C   UNL A   1      31.256  26.825  25.668  1.00  0.00    -0.015 C 
ATOM     22  C   UNL A   1      29.778  26.639  25.260  1.00  0.00     0.013 C 
ATOM     23  C   UNL A   1      31.982  27.554  24.502  1.00  0.00     0.008 C 
ATOM     24  C   UNL A   1      33.499  27.655  24.681  1.00  0.00     0.001 C 
ATOM     25  C   UNL A   1      33.459  25.611  26.146  1.00  0.00     0.025 C 
ATOM     26  C   UNL A   1      34.148  26.308  24.982  1.00  0.00     0.002 C 
ENDBRANCH  14  19
ENDBRANCH   8  13
ENDBRANCH   4   7
ENDBRANCH   2   3
ENDBRANCH   1   2
BRANCH   1  27
ATOM     27  C   UNL A   1      36.167  23.189  26.043  1.00  0.00     0.023 C 
BRANCH  27  28
ATOM     28  C   UNL A   1      37.359  23.379  25.101  1.00  0.00     0.116 C 
BRANCH  28  29
ATOM     29  N   UNL A   1      38.533  22.602  25.472  1.00  0.00    -0.352 N 
ATOM     30  C   UNL A   1      39.657  22.954  26.186  1.00  0.00     0.251 C 
ATOM     31  H   UNL A   1      38.522  21.668  25.160  1.00  0.00     0.163 HD
ATOM     32  O   UNL A   1      40.600  22.179  26.283  1.00  0.00    -0.269 OA
BRANCH  30  33
ATOM     33  C   UNL A   1      39.745  24.288  26.819  1.00  0.00     0.039 A 
ATOM     34  C   UNL A   1      39.163  24.480  28.075  1.00  0.00     0.014 A 
ATOM     35  C   UNL A   1      40.397  25.344  26.181  1.00  0.00     0.014 A 
ATOM     36  C   UNL A   1      39.328  25.700  28.736  1.00  0.00     0.010 A 
ATOM     37  C   UNL A   1      40.624  26.533  26.869  1.00  0.00     0.010 A 
ATOM     38  C   UNL A   1      40.109  26.717  28.162  1.00  0.00    -0.014 A 
BRANCH  38  39
ATOM     39  C   UNL A   1      40.439  27.955  28.915  1.00  0.00     0.031 A 
ATOM     40  C   UNL A   1      41.731  28.074  29.671  1.00  0.00     0.074 A 
ATOM     41  C   UNL A   1      39.523  28.940  28.998  1.00  0.00     0.049 A 
ATOM     42  N   UNL A   1      42.150  29.047  30.441  1.00  0.00    -0.248 NA
ATOM     43  C   UNL A   1      42.662  26.939  29.575  1.00  0.00     0.031 C 
ATOM     44  C   UNL A   1      38.200  28.927  28.369  1.00  0.00     0.029 A 
ATOM     45  N   UNL A   1      39.560  30.142  29.662  1.00  0.00    -0.354 N 
ATOM     46  C   UNL A   1      43.376  28.631  30.943  1.00  0.00     0.074 A 
ATOM     47  C   UNL A   1      43.615  27.302  30.422  1.00  0.00     0.031 C 
ATOM     48  C   UNL A   1      37.564  30.074  28.657  1.00  0.00     0.029 A 
ATOM     49  C   UNL A   1      38.416  30.887  29.518  1.00  0.00     0.049 A 
ATOM     50  H   UNL A   1      40.335  30.440  30.192  1.00  0.00     0.167 HD
ATOM     51  C   UNL A   1      44.233  29.297  31.754  1.00  0.00     0.031 A 
ATOM     52  C   UNL A   1      38.083  32.090  30.022  1.00  0.00     0.031 A 
ATOM     53  C   UNL A   1      44.010  30.626  32.256  1.00  0.00     0.049 A 
ATOM     54  C   UNL A   1      39.062  32.824  30.892  1.00  0.00     0.074 A 
ATOM     55  C   UNL A   1      44.859  31.415  33.014  1.00  0.00     0.029 A 
ATOM     56  N   UNL A   1      42.854  31.361  32.056  1.00  0.00    -0.354 N 
ATOM     57  N   UNL A   1      40.254  32.450  31.288  1.00  0.00    -0.248 NA
ATOM     58  C   UNL A   1      38.653  34.150  31.375  1.00  0.00     0.031 C 
ATOM     59  C   UNL A   1      44.199  32.614  33.304  1.00  0.00     0.029 A 
ATOM     60  C   UNL A   1      42.956  32.587  32.692  1.00  0.00     0.049 A 
ATOM     61  H   UNL A   1      42.074  31.058  31.537  1.00  0.00     0.167 HD
ATOM     62  C   UNL A   1      40.745  33.502  32.049  1.00  0.00     0.074 A 
ATOM     63  C   UNL A   1      39.729  34.534  32.047  1.00  0.00     0.031 C 
ATOM     64  C   UNL A   1      41.935  33.602  32.690  1.00  0.00     0.031 A 
BRANCH  51  65
ATOM     65  C   UNL A   1      45.494  28.582  32.152  1.00  0.00    -0.014 A 
ATOM     66  C   UNL A   1      46.668  28.699  31.392  1.00  0.00     0.009 A 
ATOM     67  C   UNL A   1      45.511  27.794  33.313  1.00  0.00     0.009 A 
ATOM     68  C   UNL A   1      47.821  28.002  31.760  1.00  0.00     0.001 A 
ATOM     69  C   UNL A   1      46.673  27.120  33.694  1.00  0.00     0.001 A 
ATOM     70  C   UNL A   1      47.823  27.216  32.911  1.00  0.00     0.000 A 
ENDBRANCH  51  65
BRANCH  52  71
ATOM     71  C   UNL A   1      36.765  32.687  29.691  1.00  0.00    -0.014 A 
ATOM     72  C   UNL A   1      35.682  32.543  30.571  1.00  0.00     0.009 A 
ATOM     73  C   UNL A   1      36.589  33.417  28.506  1.00  0.00     0.009 A 
ATOM     74  C   UNL A   1      34.441  33.106  30.262  1.00  0.00     0.001 A 
ATOM     75  C   UNL A   1      35.353  33.998  28.211  1.00  0.00     0.001 A 
ATOM     76  C   UNL A   1      34.279  33.836  29.086  1.00  0.00     0.000 A 
ENDBRANCH  52  71
BRANCH  64  77
ATOM     77  C   UNL A   1      42.211  34.882  33.425  1.00  0.00    -0.014 A 
ATOM     78  C   UNL A   1      41.779  35.066  34.747  1.00  0.00     0.009 A 
ATOM     79  C   UNL A   1      42.947  35.900  32.799  1.00  0.00     0.009 A 
ATOM     80  C   UNL A   1      42.055  36.260  35.419  1.00  0.00     0.001 A 
ATOM     81  C   UNL A   1      43.241  37.081  33.481  1.00  0.00     0.001 A 
ATOM     82  C   UNL A   1      42.788  37.263  34.786  1.00  0.00     0.000 A 
ENDBRANCH  64  77
ENDBRANCH  38  39
ENDBRANCH  30  33
ENDBRANCH  28  29
ENDBRANCH  27  28
ENDBRANCH   1  27
TORSDOF 13
ENDMDL
MODEL 2
REMARK VINA RESULT:     -11.8      2.946      7.856
REMARK SMILES CC1(C)CCCC[C@H]1NC(=O)Nc1ccccc1C(=O)NCCCCNC(=O)c1ccc(-c2c3nc(c(-c4ccccc4)c4ccc([nH]4)c(-c4ccccc4)c4nc(c(-c5ccccc5)c5ccc2[nH]5)C=C4)C=C3)cc1
REMARK SMILES IDX 23 1 22 2 21 3 19 4 20 5 18 7 13 8 14 9 15 10 17 11 16 12
REMARK SMILES IDX 12 13 9 14 10 15 11 17 8 19 1 20 2 21 3 22 4 23 5 24 7 25
REMARK SMILES IDX 6 26 24 27 25 28 26 29 27 30 28 32 29 33 30 34 76 35 31 36
REMARK SMILES IDX 75 37 32 38 33 39 34 40 69 41 35 42 74 43 68 44 70 45 36 46
REMARK SMILES IDX 73 47 67 48 66 49 37 51 59 52 44 53 58 54 45 55 48 56 57 57
REMARK SMILES IDX 71 58 46 59 47 60 56 62 72 63 49 64 38 65 39 66 43 67 40 68
REMARK SMILES IDX 42 69 41 70 60 71 61 72 65 73 62 74 64 75 63 76 50 77 51 78
REMARK SMILES IDX 55 79 52 80 54 81 53 82
REMARK H PARENT 21 6 9 16 12 18 26 31 70 50 48 61
REMARK Flexibility Score: inf
ROOT
ATOM      1  C   UNL A   1      33.452  29.480  24.822  1.00  0.00     0.023 C 
ENDROOT
BRANCH   1   2
ATOM      2  C   UNL A   1      33.389  28.970  23.385  1.00  0.00     0.116 C 
BRANCH   2   3
ATOM      3  N   UNL A   1      32.120  29.208  22.737  1.00  0.00    -0.352 N 
ATOM      4  C   UNL A   1      30.965  28.469  22.727  1.00  0.00     0.253 C 
ATOM      5  O   UNL A   1      30.060  28.869  21.988  1.00  0.00    -0.269 OA
ATOM      6  H   UNL A   1      32.077  30.040  22.213  1.00  0.00     0.163 HD
BRANCH   4   7
ATOM      7  C   UNL A   1      30.771  27.177  23.454  1.00  0.00     0.063 A 
ATOM      8  C   UNL A   1      30.951  25.860  22.989  1.00  0.00     0.055 A 
ATOM      9  C   UNL A   1      30.535  24.788  23.807  1.00  0.00     0.027 A 
ATOM     10  C   UNL A   1      30.103  24.989  25.118  1.00  0.00     0.002 A 
ATOM     11  C   UNL A   1      30.349  27.354  24.796  1.00  0.00     0.016 A 
ATOM     12  C   UNL A   1      30.042  26.276  25.625  1.00  0.00     0.001 A 
BRANCH   8  13
ATOM     13  N   UNL A   1      31.573  25.433  21.798  1.00  0.00    -0.307 N 
ATOM     14  N   UNL A   1      33.831  24.937  22.318  1.00  0.00    -0.335 N 
ATOM     15  C   UNL A   1      32.854  25.215  21.437  1.00  0.00     0.319 C 
ATOM     16  H   UNL A   1      34.743  25.143  22.011  1.00  0.00     0.165 HD
ATOM     17  O   UNL A   1      33.131  25.199  20.235  1.00  0.00    -0.248 OA
ATOM     18  H   UNL A   1      30.933  25.255  21.073  1.00  0.00     0.171 HD
BRANCH  14  19
ATOM     19  C   UNL A   1      33.741  24.376  23.657  1.00  0.00     0.089 C 
ATOM     20  C   UNL A   1      35.618  22.623  23.337  1.00  0.00     0.013 C 
ATOM     21  C   UNL A   1      34.142  22.870  23.729  1.00  0.00    -0.015 C 
ATOM     22  C   UNL A   1      33.253  22.017  22.796  1.00  0.00     0.013 C 
ATOM     23  C   UNL A   1      33.878  22.407  25.189  1.00  0.00     0.008 C 
ATOM     24  C   UNL A   1      34.556  23.280  26.249  1.00  0.00     0.001 C 
ATOM     25  C   UNL A   1      34.543  25.223  24.653  1.00  0.00     0.025 C 
ATOM     26  C   UNL A   1      34.252  24.764  26.074  1.00  0.00     0.002 C 
ENDBRANCH  14  19
ENDBRANCH   8  13
ENDBRANCH   4   7
ENDBRANCH   2   3
ENDBRANCH   1   2
BRANCH   1  27
ATOM     27  C   UNL A   1      33.680  28.409  25.897  1.00  0.00     0.023 C 
BRANCH  27  28
ATOM     28  C   UNL A   1      33.293  28.774  27.333  1.00  0.00     0.116 C 
BRANCH  28  29
ATOM     29  N   UNL A   1      33.440  30.190  27.640  1.00  0.00    -0.352 N 
ATOM     30  C   UNL A   1      34.505  30.894  28.156  1.00  0.00     0.251 C 
ATOM     31  H   UNL A   1      32.643  30.735  27.447  1.00  0.00     0.163 HD
ATOM     32  O   UNL A   1      34.382  32.072  28.461  1.00  0.00    -0.269 OA
BRANCH  30  33
ATOM     33  C   UNL A   1      35.803  30.219  28.374  1.00  0.00     0.039 A 
ATOM     34  C   UNL A   1      36.719  30.159  27.320  1.00  0.00     0.014 A 
ATOM     35  C   UNL A   1      36.118  29.647  29.608  1.00  0.00     0.014 A 
ATOM     36  C   UNL A   1      37.991  29.622  27.536  1.00  0.00     0.010 A 
ATOM     37  C   UNL A   1      37.408  29.179  29.844  1.00  0.00     0.010 A 
ATOM     38  C   UNL A   1      38.364  29.179  28.816  1.00  0.00    -0.014 A 
BRANCH  38  39
ATOM     39  C   UNL A   1      39.760  28.763  29.112  1.00  0.00     0.031 A 
ATOM     40  C   UNL A   1      40.731  29.718  29.744  1.00  0.00     0.074 A 
ATOM     41  C   UNL A   1      40.182  27.545  28.717  1.00  0.00     0.049 A 
ATOM     42  N   UNL A   1      42.004  29.550  30.004  1.00  0.00    -0.248 NA
ATOM     43  C   UNL A   1      40.213  31.047  30.104  1.00  0.00     0.031 C 
ATOM     44  C   UNL A   1      39.364  26.543  28.031  1.00  0.00     0.029 A 
ATOM     45  N   UNL A   1      41.415  26.949  28.822  1.00  0.00    -0.354 N 
ATOM     46  C   UNL A   1      42.445  30.758  30.530  1.00  0.00     0.074 A 
ATOM     47  C   UNL A   1      41.314  31.661  30.515  1.00  0.00     0.031 C 
ATOM     48  C   UNL A   1      40.108  25.449  27.800  1.00  0.00     0.029 A 
ATOM     49  C   UNL A   1      41.463  25.686  28.287  1.00  0.00     0.049 A 
ATOM     50  H   UNL A   1      42.191  27.387  29.242  1.00  0.00     0.167 HD
ATOM     51  C   UNL A   1      43.674  31.084  30.995  1.00  0.00     0.031 A 
ATOM     52  C   UNL A   1      42.482  24.811  28.193  1.00  0.00     0.031 A 
ATOM     53  C   UNL A   1      44.795  30.183  31.032  1.00  0.00     0.049 A 
ATOM     54  C   UNL A   1      43.829  25.182  28.745  1.00  0.00     0.074 A 
ATOM     55  C   UNL A   1      46.056  30.396  31.563  1.00  0.00     0.029 A 
ATOM     56  N   UNL A   1      44.792  28.899  30.514  1.00  0.00    -0.354 N 
ATOM     57  N   UNL A   1      44.206  26.300  29.316  1.00  0.00    -0.248 NA
ATOM     58  C   UNL A   1      44.886  24.165  28.648  1.00  0.00     0.031 C 
ATOM     59  C   UNL A   1      46.828  29.253  31.330  1.00  0.00     0.029 A 
ATOM     60  C   UNL A   1      46.034  28.313  30.692  1.00  0.00     0.049 A 
ATOM     61  H   UNL A   1      44.020  28.465  30.082  1.00  0.00     0.167 HD
ATOM     62  C   UNL A   1      45.536  26.115  29.664  1.00  0.00     0.074 A 
ATOM     63  C   UNL A   1      45.896  24.773  29.254  1.00  0.00     0.031 C 
ATOM     64  C   UNL A   1      46.383  26.981  30.273  1.00  0.00     0.031 A 
BRANCH  51  65
ATOM     65  C   UNL A   1      43.867  32.488  31.495  1.00  0.00    -0.014 A 
ATOM     66  C   UNL A   1      43.677  32.811  32.848  1.00  0.00     0.009 A 
ATOM     67  C   UNL A   1      44.260  33.498  30.603  1.00  0.00     0.009 A 
ATOM     68  C   UNL A   1      43.830  34.128  33.288  1.00  0.00     0.001 A 
ATOM     69  C   UNL A   1      44.438  34.808  31.052  1.00  0.00     0.001 A 
ATOM     70  C   UNL A   1      44.212  35.124  32.391  1.00  0.00     0.000 A 
ENDBRANCH  51  65
BRANCH  52  71
ATOM     71  C   UNL A   1      42.256  23.482  27.571  1.00  0.00    -0.014 A 
ATOM     72  C   UNL A   1      42.554  23.276  26.216  1.00  0.00     0.009 A 
ATOM     73  C   UNL A   1      41.762  22.412  28.332  1.00  0.00     0.009 A 
ATOM     74  C   UNL A   1      42.344  22.026  25.629  1.00  0.00     0.001 A 
ATOM     75  C   UNL A   1      41.574  21.157  27.747  1.00  0.00     0.001 A 
ATOM     76  C   UNL A   1      41.859  20.967  26.395  1.00  0.00     0.000 A 
ENDBRANCH  52  71
BRANCH  64  77
ATOM     77  C   UNL A   1      47.776  26.495  30.551  1.00  0.00    -0.014 A 
ATOM     78  C   UNL A   1      48.806  26.671  29.614  1.00  0.00     0.009 A 
ATOM     79  C   UNL A   1      48.069  25.890  31.783  1.00  0.00     0.009 A 
ATOM     80  C   UNL A   1      50.098  26.222  29.896  1.00  0.00     0.001 A 
ATOM     81  C   UNL A   1      49.367  25.464  32.070  1.00  0.00     0.001 A 
ATOM     82  C   UNL A   1      50.378  25.624  31.125  1.00  0.00     0.000 A 
ENDBRANCH  64  77
ENDBRANCH  38  39
ENDBRANCH  30  33
ENDBRANCH  28  29
ENDBRANCH  27  28
ENDBRANCH   1  27
TORSDOF 13
ENDMDL
MODEL 3
REMARK VINA RESULT:     -11.8      2.279      6.697
REMARK SMILES CC1(C)CCCC[C@H]1NC(=O)Nc1ccccc1C(=O)NCCCCNC(=O)c1ccc(-c2c3nc(c(-c4ccccc4)c4ccc([nH]4)c(-c4ccccc4)c4nc(c(-c5ccccc5)c5ccc2[nH]5)C=C4)C=C3)cc1
REMARK SMILES IDX 23 1 22 2 21 3 19 4 20 5 18 7 13 8 14 9 15 10 17 11 16 12
REMARK SMILES IDX 12 13 9 14 10 15 11 17 8 19 1 20 2 21 3 22 4 23 5 24 7 25
REMARK SMILES IDX 6 26 24 27 25 28 26 29 27 30 28 32 29 33 30 34 76 35 31 36
REMARK SMILES IDX 75 37 32 38 33 39 34 40 69 41 35 42 74 43 68 44 70 45 36 46
REMARK SMILES IDX 73 47 67 48 66 49 37 51 59 52 44 53 58 54 45 55 48 56 57 57
REMARK SMILES IDX 71 58 46 59 47 60 56 62 72 63 49 64 38 65 39 66 43 67 40 68
REMARK SMILES IDX 42 69 41 70 60 71 61 72 65 73 62 74 64 75 63 76 50 77 51 78
REMARK SMILES IDX 55 79 52 80 54 81 53 82
REMARK H PARENT 21 6 9 16 12 18 26 31 70 50 48 61
REMARK Flexibility Score: inf
ROOT
ATOM      1  C   UNL A   1      35.539  21.956  25.913  1.00  0.00     0.023 C 
ENDROOT
BRANCH   1   2
ATOM      2  C   UNL A   1      34.455  21.475  26.872  1.00  0.00     0.116 C 
BRANCH   2   3
ATOM      3  N   UNL A   1      33.650  20.395  26.349  1.00  0.00    -0.352 N 
ATOM      4  C   UNL A   1      32.764  20.362  25.303  1.00  0.00     0.253 C 
ATOM      5  O   UNL A   1      32.130  19.314  25.150  1.00  0.00    -0.269 OA
ATOM      6  H   UNL A   1      33.754  19.539  26.824  1.00  0.00     0.163 HD
BRANCH   4   7
ATOM      7  C   UNL A   1      32.441  21.525  24.420  1.00  0.00     0.063 A 
ATOM      8  C   UNL A   1      31.399  22.465  24.533  1.00  0.00     0.055 A 
ATOM      9  C   UNL A   1      31.187  23.375  23.476  1.00  0.00     0.027 A 
ATOM     10  C   UNL A   1      32.074  23.475  22.404  1.00  0.00     0.002 A 
ATOM     11  C   UNL A   1      33.340  21.660  23.332  1.00  0.00     0.016 A 
ATOM     12  C   UNL A   1      33.174  22.636  22.349  1.00  0.00     0.001 A 
BRANCH   8  13
ATOM     13  N   UNL A   1      30.535  22.682  25.626  1.00  0.00    -0.307 N 
ATOM     14  N   UNL A   1      31.453  24.447  26.912  1.00  0.00    -0.335 N 
ATOM     15  C   UNL A   1      30.631  23.394  26.767  1.00  0.00     0.319 C 
ATOM     16  H   UNL A   1      31.703  24.660  27.840  1.00  0.00     0.165 HD
ATOM     17  O   UNL A   1      29.876  23.110  27.702  1.00  0.00    -0.248 OA
ATOM     18  H   UNL A   1      29.676  22.212  25.536  1.00  0.00     0.171 HD
BRANCH  14  19
ATOM     19  C   UNL A   1      32.028  25.321  25.901  1.00  0.00     0.089 C 
ATOM     20  C   UNL A   1      31.388  27.539  27.074  1.00  0.00     0.013 C 
ATOM     21  C   UNL A   1      31.299  26.696  25.780  1.00  0.00    -0.015 C 
ATOM     22  C   UNL A   1      29.804  26.499  25.442  1.00  0.00     0.013 C 
ATOM     23  C   UNL A   1      31.959  27.447  24.589  1.00  0.00     0.008 C 
ATOM     24  C   UNL A   1      33.482  27.561  24.696  1.00  0.00     0.001 C 
ATOM     25  C   UNL A   1      33.534  25.499  26.133  1.00  0.00     0.025 C 
ATOM     26  C   UNL A   1      34.159  26.218  24.946  1.00  0.00     0.002 C 
ENDBRANCH  14  19
ENDBRANCH   8  13
ENDBRANCH   4   7
ENDBRANCH   2   3
ENDBRANCH   1   2
BRANCH   1  27
ATOM     27  C   UNL A   1      36.494  20.872  25.394  1.00  0.00     0.023 C 
BRANCH  27  28
ATOM     28  C   UNL A   1      37.986  21.215  25.371  1.00  0.00     0.116 C 
BRANCH  28  29
ATOM     29  N   UNL A   1      38.858  20.053  25.460  1.00  0.00    -0.352 N 
ATOM     30  C   UNL A   1      40.156  19.933  25.903  1.00  0.00     0.251 C 
ATOM     31  H   UNL A   1      38.452  19.210  25.151  1.00  0.00     0.163 HD
ATOM     32  O   UNL A   1      40.762  18.877  25.777  1.00  0.00    -0.269 OA
BRANCH  30  33
ATOM     33  C   UNL A   1      40.842  21.095  26.510  1.00  0.00     0.039 A 
ATOM     34  C   UNL A   1      41.519  21.991  25.678  1.00  0.00     0.014 A 
ATOM     35  C   UNL A   1      40.819  21.302  27.890  1.00  0.00     0.014 A 
ATOM     36  C   UNL A   1      42.080  23.151  26.219  1.00  0.00     0.010 A 
ATOM     37  C   UNL A   1      41.314  22.492  28.419  1.00  0.00     0.010 A 
ATOM     38  C   UNL A   1      41.932  23.438  27.586  1.00  0.00    -0.014 A 
BRANCH  38  39
ATOM     39  C   UNL A   1      42.371  24.740  28.153  1.00  0.00     0.031 A 
ATOM     40  C   UNL A   1      41.384  25.845  28.397  1.00  0.00     0.074 A 
ATOM     41  C   UNL A   1      43.685  24.961  28.356  1.00  0.00     0.049 A 
ATOM     42  N   UNL A   1      41.599  27.067  28.814  1.00  0.00    -0.248 NA
ATOM     43  C   UNL A   1      39.972  25.548  28.106  1.00  0.00     0.031 C 
ATOM     44  C   UNL A   1      44.759  24.000  28.098  1.00  0.00     0.029 A 
ATOM     45  N   UNL A   1      44.343  26.077  28.815  1.00  0.00    -0.354 N 
ATOM     46  C   UNL A   1      40.359  27.693  28.808  1.00  0.00     0.074 A 
ATOM     47  C   UNL A   1      39.403  26.728  28.308  1.00  0.00     0.031 C 
ATOM     48  C   UNL A   1      45.937  24.557  28.424  1.00  0.00     0.029 A 
ATOM     49  C   UNL A   1      45.706  25.924  28.879  1.00  0.00     0.049 A 
ATOM     50  H   UNL A   1      43.880  26.907  29.072  1.00  0.00     0.167 HD
ATOM     51  C   UNL A   1      40.040  28.952  29.194  1.00  0.00     0.031 A 
ATOM     52  C   UNL A   1      46.668  26.785  29.259  1.00  0.00     0.031 A 
ATOM     53  C   UNL A   1      40.983  29.907  29.711  1.00  0.00     0.049 A 
ATOM     54  C   UNL A   1      46.288  28.165  29.714  1.00  0.00     0.074 A 
ATOM     55  C   UNL A   1      40.740  31.177  30.208  1.00  0.00     0.029 A 
ATOM     56  N   UNL A   1      42.350  29.700  29.796  1.00  0.00    -0.354 N 
ATOM     57  N   UNL A   1      45.099  28.712  29.781  1.00  0.00    -0.248 NA
ATOM     58  C   UNL A   1      47.383  29.040  30.156  1.00  0.00     0.031 C 
ATOM     59  C   UNL A   1      41.966  31.752  30.557  1.00  0.00     0.029 A 
ATOM     60  C   UNL A   1      42.968  30.825  30.316  1.00  0.00     0.049 A 
ATOM     61  H   UNL A   1      42.814  28.875  29.526  1.00  0.00     0.167 HD
ATOM     62  C   UNL A   1      45.299  29.988  30.291  1.00  0.00     0.074 A 
ATOM     63  C   UNL A   1      46.721  30.127  30.529  1.00  0.00     0.031 C 
ATOM     64  C   UNL A   1      44.384  30.955  30.541  1.00  0.00     0.031 A 
BRANCH  51  65
ATOM     65  C   UNL A   1      38.602  29.366  29.059  1.00  0.00    -0.014 A 
ATOM     66  C   UNL A   1      38.099  29.869  27.848  1.00  0.00     0.009 A 
ATOM     67  C   UNL A   1      37.734  29.238  30.154  1.00  0.00     0.009 A 
ATOM     68  C   UNL A   1      36.768  30.279  27.751  1.00  0.00     0.001 A 
ATOM     69  C   UNL A   1      36.397  29.623  30.047  1.00  0.00     0.001 A 
ATOM     70  C   UNL A   1      35.918  30.154  28.849  1.00  0.00     0.000 A 
ENDBRANCH  51  65
BRANCH  52  71
ATOM     71  C   UNL A   1      48.088  26.353  29.250  1.00  0.00    -0.014 A 
ATOM     72  C   UNL A   1      48.879  26.548  28.108  1.00  0.00     0.009 A 
ATOM     73  C   UNL A   1      48.663  25.763  30.386  1.00  0.00     0.009 A 
ATOM     74  C   UNL A   1      50.216  26.143  28.097  1.00  0.00     0.001 A 
ATOM     75  C   UNL A   1      50.007  25.381  30.379  1.00  0.00     0.001 A 
ATOM     76  C   UNL A   1      50.779  25.565  29.233  1.00  0.00     0.000 A 
ENDBRANCH  52  71
BRANCH  64  77
ATOM     77  C   UNL A   1      44.890  32.244  31.122  1.00  0.00    -0.014 A 
ATOM     78  C   UNL A   1      45.263  33.315  30.295  1.00  0.00     0.009 A 
ATOM     79  C   UNL A   1      44.959  32.400  32.514  1.00  0.00     0.009 A 
ATOM     80  C   UNL A   1      45.722  34.510  30.854  1.00  0.00     0.001 A 
ATOM     81  C   UNL A   1      45.395  33.604  33.070  1.00  0.00     0.001 A 
ATOM     82  C   UNL A   1      45.783  34.654  32.239  1.00  0.00     0.000 A 
ENDBRANCH  64  77
ENDBRANCH  38  39
ENDBRANCH  30  33
ENDBRANCH  28  29
ENDBRANCH  27  28
ENDBRANCH   1  27
TORSDOF 13
ENDMDL
