MODEL 1
REMARK VINA RESULT:     -11.8      0.000      0.000
REMARK SMILES O=C(NCCCCNC(=O)[C@H]1CCCN1S(=O)(=O)c1ccccc1Cl)c1ccc(-c2c3nc(c(-c4ccccc4)c4ccc([nH]4)c(-c4ccccc4)c4nc(c(-c5ccccc5)c5ccc2[nH]5)C=C4)C=C3)cc1
REMARK SMILES IDX 5 1 4 2 3 3 1 4 2 5 26 7 27 8 73 9 28 10 72 11 29 12 30 13
REMARK SMILES IDX 31 14 66 15 32 16 71 17 65 18 67 19 33 20 70 21 64 22 63 23
REMARK SMILES IDX 34 25 56 26 41 27 55 28 42 29 45 30 54 31 68 32 43 33 44 34
REMARK SMILES IDX 53 36 69 37 46 38 35 39 36 40 40 41 37 42 39 43 38 44 57 45
REMARK SMILES IDX 58 46 62 47 59 48 61 49 60 50 47 51 48 52 52 53 49 54 51 55
REMARK SMILES IDX 50 56 6 57 7 58 8 59 9 60 10 62 11 63 12 64 15 65 13 66
REMARK SMILES IDX 14 67 16 68 17 69 18 70 19 71 20 72 24 73 21 74 23 75 25 76
REMARK SMILES IDX 22 77
REMARK H PARENT 3 6 67 24 45 35 8 61
REMARK Flexibility Score: inf
ROOT
ATOM      1  C   UNL A   1      31.452  32.161  26.571  1.00  0.00     0.023 C 
ENDROOT
BRANCH   1   2
ATOM      2  C   UNL A   1      32.575  32.851  27.328  1.00  0.00     0.116 C 
BRANCH   2   3
ATOM      3  N   UNL A   1      32.282  34.235  27.674  1.00  0.00    -0.352 N 
ATOM      4  O   UNL A   1      32.538  36.167  28.826  1.00  0.00    -0.269 OA
ATOM      5  C   UNL A   1      32.949  35.042  28.565  1.00  0.00     0.251 C 
ATOM      6  H   UNL A   1      31.513  34.642  27.214  1.00  0.00     0.163 HD
BRANCH   5   7
ATOM      7  C   UNL A   1      34.150  34.511  29.238  1.00  0.00     0.039 A 
ATOM      8  C   UNL A   1      35.398  34.608  28.618  1.00  0.00     0.014 A 
ATOM      9  C   UNL A   1      34.010  33.854  30.462  1.00  0.00     0.014 A 
ATOM     10  C   UNL A   1      36.478  33.917  29.147  1.00  0.00     0.010 A 
ATOM     11  C   UNL A   1      35.121  33.233  31.037  1.00  0.00     0.010 A 
ATOM     12  C   UNL A   1      36.353  33.232  30.366  1.00  0.00    -0.014 A 
BRANCH  12  13
ATOM     13  C   UNL A   1      37.544  32.571  30.948  1.00  0.00     0.031 A 
ATOM     14  C   UNL A   1      38.153  33.051  32.235  1.00  0.00     0.074 A 
ATOM     15  C   UNL A   1      38.060  31.504  30.308  1.00  0.00     0.049 A 
ATOM     16  N   UNL A   1      39.198  32.587  32.871  1.00  0.00    -0.248 NA
ATOM     17  C   UNL A   1      37.513  34.203  32.889  1.00  0.00     0.031 C 
ATOM     18  C   UNL A   1      37.545  30.945  29.054  1.00  0.00     0.029 A 
ATOM     19  N   UNL A   1      39.112  30.689  30.629  1.00  0.00    -0.354 N 
ATOM     20  C   UNL A   1      39.360  33.402  33.984  1.00  0.00     0.074 A 
ATOM     21  C   UNL A   1      38.312  34.401  33.930  1.00  0.00     0.031 C 
ATOM     22  C   UNL A   1      38.252  29.851  28.740  1.00  0.00     0.029 A 
ATOM     23  C   UNL A   1      39.309  29.673  29.727  1.00  0.00     0.049 A 
ATOM     24  H   UNL A   1      39.672  30.818  31.429  1.00  0.00     0.167 HD
ATOM     25  C   UNL A   1      40.297  33.325  34.959  1.00  0.00     0.031 A 
ATOM     26  C   UNL A   1      40.250  28.714  29.684  1.00  0.00     0.031 A 
ATOM     27  C   UNL A   1      41.334  32.326  35.007  1.00  0.00     0.049 A 
ATOM     28  C   UNL A   1      41.292  28.670  30.759  1.00  0.00     0.074 A 
ATOM     29  C   UNL A   1      42.316  32.148  35.967  1.00  0.00     0.029 A 
ATOM     30  N   UNL A   1      41.525  31.339  34.053  1.00  0.00    -0.354 N 
ATOM     31  N   UNL A   1      41.422  29.442  31.811  1.00  0.00    -0.248 NA
ATOM     32  C   UNL A   1      42.319  27.629  30.639  1.00  0.00     0.031 C 
ATOM     33  C   UNL A   1      43.128  31.080  35.570  1.00  0.00     0.029 A 
ATOM     34  C   UNL A   1      42.621  30.562  34.389  1.00  0.00     0.049 A 
ATOM     35  H   UNL A   1      40.963  31.208  33.256  1.00  0.00     0.167 HD
ATOM     36  C   UNL A   1      42.539  28.973  32.485  1.00  0.00     0.074 A 
ATOM     37  C   UNL A   1      43.036  27.837  31.734  1.00  0.00     0.031 C 
ATOM     38  C   UNL A   1      43.105  29.444  33.622  1.00  0.00     0.031 A 
BRANCH  25  39
ATOM     39  C   UNL A   1      40.267  34.371  36.038  1.00  0.00    -0.014 A 
ATOM     40  C   UNL A   1      40.950  35.589  35.896  1.00  0.00     0.009 A 
ATOM     41  C   UNL A   1      39.505  34.152  37.197  1.00  0.00     0.009 A 
ATOM     42  C   UNL A   1      40.894  36.552  36.906  1.00  0.00     0.001 A 
ATOM     43  C   UNL A   1      39.432  35.127  38.194  1.00  0.00     0.001 A 
ATOM     44  C   UNL A   1      40.132  36.323  38.051  1.00  0.00     0.000 A 
ENDBRANCH  25  39
BRANCH  26  45
ATOM     45  C   UNL A   1      40.248  27.738  28.567  1.00  0.00    -0.014 A 
ATOM     46  C   UNL A   1      40.930  28.016  27.375  1.00  0.00     0.009 A 
ATOM     47  C   UNL A   1      39.595  26.502  28.707  1.00  0.00     0.009 A 
ATOM     48  C   UNL A   1      40.946  27.081  26.337  1.00  0.00     0.001 A 
ATOM     49  C   UNL A   1      39.639  25.558  27.679  1.00  0.00     0.001 A 
ATOM     50  C   UNL A   1      40.308  25.851  26.493  1.00  0.00     0.000 A 
ENDBRANCH  26  45
BRANCH  38  51
ATOM     51  C   UNL A   1      44.313  28.710  34.128  1.00  0.00    -0.014 A 
ATOM     52  C   UNL A   1      45.608  29.098  33.750  1.00  0.00     0.009 A 
ATOM     53  C   UNL A   1      44.152  27.630  35.009  1.00  0.00     0.009 A 
ATOM     54  C   UNL A   1      46.718  28.395  34.221  1.00  0.00     0.001 A 
ATOM     55  C   UNL A   1      45.265  26.945  35.497  1.00  0.00     0.001 A 
ATOM     56  C   UNL A   1      46.546  27.322  35.096  1.00  0.00     0.000 A 
ENDBRANCH  38  51
ENDBRANCH  12  13
ENDBRANCH   5   7
ENDBRANCH   2   3
ENDBRANCH   1   2
BRANCH   1  57
ATOM     57  C   UNL A   1      31.734  30.714  26.174  1.00  0.00     0.023 C 
BRANCH  57  58
ATOM     58  C   UNL A   1      32.499  29.890  27.208  1.00  0.00     0.116 C 
BRANCH  58  59
ATOM     59  N   UNL A   1      31.878  28.603  27.422  1.00  0.00    -0.355 N 
ATOM     60  C   UNL A   1      31.789  27.490  26.650  1.00  0.00     0.238 C 
ATOM     61  H   UNL A   1      31.432  28.517  28.296  1.00  0.00     0.163 HD
ATOM     62  O   UNL A   1      31.141  26.558  27.150  1.00  0.00    -0.273 OA
BRANCH  60  63
ATOM     63  C   UNL A   1      32.356  27.324  25.240  1.00  0.00     0.162 C 
ATOM     64  C   UNL A   1      33.690  26.590  25.239  1.00  0.00     0.032 C 
ATOM     65  N   UNL A   1      31.549  26.685  24.164  1.00  0.00    -0.185 NA
ATOM     66  C   UNL A   1      33.365  25.181  24.799  1.00  0.00     0.019 C 
ATOM     67  C   UNL A   1      32.092  25.287  23.977  1.00  0.00     0.103 C 
BRANCH  65  68
ATOM     68  S   UNL A   1      31.511  27.496  22.638  1.00  0.00     0.245 S 
ATOM     69  O   UNL A   1      32.637  28.407  22.607  1.00  0.00    -0.207 OA
ATOM     70  O   UNL A   1      31.430  26.447  21.642  1.00  0.00    -0.207 OA
BRANCH  68  71
ATOM     71  C   UNL A   1      29.993  28.413  22.558  1.00  0.00     0.101 A 
ATOM     72  C   UNL A   1      30.067  29.728  22.059  1.00  0.00     0.023 A 
ATOM     73  C   UNL A   1      28.789  27.962  23.113  1.00  0.00     0.061 A 
ATOM     74  C   UNL A   1      28.949  30.564  22.083  1.00  0.00     0.002 A 
ATOM     75  C   UNL A   1      27.664  28.800  23.099  1.00  0.00     0.022 A 
ATOM     76  Cl  UNL A   1      28.536  26.416  23.845  1.00  0.00    -0.083 Cl
ATOM     77  C   UNL A   1      27.743  30.096  22.591  1.00  0.00     0.002 A 
ENDBRANCH  68  71
ENDBRANCH  65  68
ENDBRANCH  60  63
ENDBRANCH  58  59
ENDBRANCH  57  58
ENDBRANCH   1  57
TORSDOF 13
ENDMDL
MODEL 2
REMARK VINA RESULT:     -11.7      0.422      5.995
REMARK SMILES O=C(NCCCCNC(=O)[C@H]1CCCN1S(=O)(=O)c1ccccc1Cl)c1ccc(-c2c3nc(c(-c4ccccc4)c4ccc([nH]4)c(-c4ccccc4)c4nc(c(-c5ccccc5)c5ccc2[nH]5)C=C4)C=C3)cc1
REMARK SMILES IDX 5 1 4 2 3 3 1 4 2 5 26 7 27 8 73 9 28 10 72 11 29 12 30 13
REMARK SMILES IDX 31 14 66 15 32 16 71 17 65 18 67 19 33 20 70 21 64 22 63 23
REMARK SMILES IDX 34 25 56 26 41 27 55 28 42 29 45 30 54 31 68 32 43 33 44 34
REMARK SMILES IDX 53 36 69 37 46 38 35 39 36 40 40 41 37 42 39 43 38 44 57 45
REMARK SMILES IDX 58 46 62 47 59 48 61 49 60 50 47 51 48 52 52 53 49 54 51 55
REMARK SMILES IDX 50 56 6 57 7 58 8 59 9 60 10 62 11 63 12 64 15 65 13 66
REMARK SMILES IDX 14 67 16 68 17 69 18 70 19 71 20 72 24 73 21 74 23 75 25 76
REMARK SMILES IDX 22 77
REMARK H PARENT 3 6 67 24 45 35 8 61
REMARK Flexibility Score: inf
ROOT
ATOM      1  C   UNL A   1      31.501  32.122  26.511  1.00  0.00     0.023 C 
ENDROOT
BRANCH   1   2
ATOM      2  C   UNL A   1      32.605  32.814  27.293  1.00  0.00     0.116 C 
BRANCH   2   3
ATOM      3  N   UNL A   1      32.308  34.201  27.624  1.00  0.00    -0.352 N 
ATOM      4  O   UNL A   1      32.527  36.134  28.781  1.00  0.00    -0.269 OA
ATOM      5  C   UNL A   1      32.941  35.005  28.541  1.00  0.00     0.251 C 
ATOM      6  H   UNL A   1      31.563  34.612  27.129  1.00  0.00     0.163 HD
BRANCH   5   7
ATOM      7  C   UNL A   1      34.107  34.467  29.267  1.00  0.00     0.039 A 
ATOM      8  C   UNL A   1      35.386  34.583  28.718  1.00  0.00     0.014 A 
ATOM      9  C   UNL A   1      33.906  33.784  30.468  1.00  0.00     0.014 A 
ATOM     10  C   UNL A   1      36.441  33.887  29.291  1.00  0.00     0.010 A 
ATOM     11  C   UNL A   1      34.987  33.158  31.091  1.00  0.00     0.010 A 
ATOM     12  C   UNL A   1      36.254  33.177  30.488  1.00  0.00    -0.014 A 
BRANCH  12  13
ATOM     13  C   UNL A   1      37.416  32.511  31.120  1.00  0.00     0.031 A 
ATOM     14  C   UNL A   1      38.119  31.365  30.451  1.00  0.00     0.074 A 
ATOM     15  C   UNL A   1      37.850  32.975  32.308  1.00  0.00     0.049 A 
ATOM     16  N   UNL A   1      39.145  30.671  30.875  1.00  0.00    -0.248 NA
ATOM     17  C   UNL A   1      37.604  30.937  29.141  1.00  0.00     0.031 C 
ATOM     18  C   UNL A   1      37.247  34.088  33.048  1.00  0.00     0.029 A 
ATOM     19  N   UNL A   1      38.904  32.587  33.091  1.00  0.00    -0.354 N 
ATOM     20  C   UNL A   1      39.383  29.709  29.903  1.00  0.00     0.074 A 
ATOM     21  C   UNL A   1      38.385  29.898  28.870  1.00  0.00     0.031 C 
ATOM     22  C   UNL A   1      37.971  34.324  34.150  1.00  0.00     0.029 A 
ATOM     23  C   UNL A   1      39.041  33.338  34.231  1.00  0.00     0.049 A 
ATOM     24  H   UNL A   1      39.505  31.842  32.858  1.00  0.00     0.167 HD
ATOM     25  C   UNL A   1      40.344  28.754  29.875  1.00  0.00     0.031 A 
ATOM     26  C   UNL A   1      39.918  33.235  35.245  1.00  0.00     0.031 A 
ATOM     27  C   UNL A   1      41.335  28.574  30.905  1.00  0.00     0.049 A 
ATOM     28  C   UNL A   1      40.951  32.151  35.203  1.00  0.00     0.074 A 
ATOM     29  C   UNL A   1      42.367  27.652  30.957  1.00  0.00     0.029 A 
ATOM     30  N   UNL A   1      41.416  29.330  32.064  1.00  0.00    -0.354 N 
ATOM     31  N   UNL A   1      41.169  31.257  34.269  1.00  0.00    -0.248 NA
ATOM     32  C   UNL A   1      41.855  32.058  36.356  1.00  0.00     0.031 C 
ATOM     33  C   UNL A   1      43.044  27.822  32.170  1.00  0.00     0.029 A 
ATOM     34  C   UNL A   1      42.465  28.882  32.849  1.00  0.00     0.049 A 
ATOM     35  H   UNL A   1      40.817  30.076  32.295  1.00  0.00     0.167 HD
ATOM     36  C   UNL A   1      42.242  30.502  34.716  1.00  0.00     0.074 A 
ATOM     37  C   UNL A   1      42.644  31.057  35.993  1.00  0.00     0.031 C 
ATOM     38  C   UNL A   1      42.840  29.441  34.122  1.00  0.00     0.031 A 
BRANCH  25  39
ATOM     39  C   UNL A   1      40.350  27.805  28.709  1.00  0.00    -0.014 A 
ATOM     40  C   UNL A   1      41.075  28.087  27.541  1.00  0.00     0.009 A 
ATOM     41  C   UNL A   1      39.655  26.589  28.800  1.00  0.00     0.009 A 
ATOM     42  C   UNL A   1      41.079  27.182  26.476  1.00  0.00     0.001 A 
ATOM     43  C   UNL A   1      39.680  25.676  27.743  1.00  0.00     0.001 A 
ATOM     44  C   UNL A   1      40.386  25.976  26.580  1.00  0.00     0.000 A 
ENDBRANCH  25  39
BRANCH  26  45
ATOM     45  C   UNL A   1      39.830  34.177  36.387  1.00  0.00    -0.014 A 
ATOM     46  C   UNL A   1      40.509  35.403  36.355  1.00  0.00     0.009 A 
ATOM     47  C   UNL A   1      39.033  33.868  37.501  1.00  0.00     0.009 A 
ATOM     48  C   UNL A   1      40.400  36.296  37.423  1.00  0.00     0.001 A 
ATOM     49  C   UNL A   1      38.904  34.775  38.553  1.00  0.00     0.001 A 
ATOM     50  C   UNL A   1      39.593  35.986  38.517  1.00  0.00     0.000 A 
ENDBRANCH  26  45
BRANCH  38  51
ATOM     51  C   UNL A   1      44.005  28.831  34.846  1.00  0.00    -0.014 A 
ATOM     52  C   UNL A   1      43.823  27.769  35.746  1.00  0.00     0.009 A 
ATOM     53  C   UNL A   1      45.301  29.312  34.608  1.00  0.00     0.009 A 
ATOM     54  C   UNL A   1      44.918  27.223  36.419  1.00  0.00     0.001 A 
ATOM     55  C   UNL A   1      46.395  28.748  35.265  1.00  0.00     0.001 A 
ATOM     56  C   UNL A   1      46.202  27.711  36.176  1.00  0.00     0.000 A 
ENDBRANCH  38  51
ENDBRANCH  12  13
ENDBRANCH   5   7
ENDBRANCH   2   3
ENDBRANCH   1   2
BRANCH   1  57
ATOM     57  C   UNL A   1      31.774  30.662  26.158  1.00  0.00     0.023 C 
BRANCH  57  58
ATOM     58  C   UNL A   1      32.588  29.882  27.189  1.00  0.00     0.116 C 
BRANCH  58  59
ATOM     59  N   UNL A   1      32.001  28.588  27.455  1.00  0.00    -0.355 N 
ATOM     60  C   UNL A   1      31.894  27.461  26.707  1.00  0.00     0.238 C 
ATOM     61  H   UNL A   1      31.602  28.510  28.352  1.00  0.00     0.163 HD
ATOM     62  O   UNL A   1      31.289  26.527  27.254  1.00  0.00    -0.273 OA
BRANCH  60  63
ATOM     63  C   UNL A   1      32.392  27.281  25.272  1.00  0.00     0.162 C 
ATOM     64  C   UNL A   1      33.650  26.426  25.204  1.00  0.00     0.032 C 
ATOM     65  N   UNL A   1      31.491  26.749  24.213  1.00  0.00    -0.185 NA
ATOM     66  C   UNL A   1      33.179  25.066  24.744  1.00  0.00     0.019 C 
ATOM     67  C   UNL A   1      31.892  25.312  23.973  1.00  0.00     0.103 C 
BRANCH  65  68
ATOM     68  S   UNL A   1      31.476  27.601  22.709  1.00  0.00     0.245 S 
ATOM     69  O   UNL A   1      32.579  28.540  22.735  1.00  0.00    -0.207 OA
ATOM     70  O   UNL A   1      31.449  26.579  21.683  1.00  0.00    -0.207 OA
BRANCH  68  71
ATOM     71  C   UNL A   1      29.938  28.484  22.611  1.00  0.00     0.101 A 
ATOM     72  C   UNL A   1      29.988  29.801  22.114  1.00  0.00     0.023 A 
ATOM     73  C   UNL A   1      28.737  28.004  23.149  1.00  0.00     0.061 A 
ATOM     74  C   UNL A   1      28.851  30.610  22.124  1.00  0.00     0.002 A 
ATOM     75  C   UNL A   1      27.594  28.815  23.121  1.00  0.00     0.022 A 
ATOM     76  Cl  UNL A   1      28.510  26.451  23.875  1.00  0.00    -0.083 Cl
ATOM     77  C   UNL A   1      27.649  30.114  22.616  1.00  0.00     0.002 A 
ENDBRANCH  68  71
ENDBRANCH  65  68
ENDBRANCH  60  63
ENDBRANCH  58  59
ENDBRANCH  57  58
ENDBRANCH   1  57
TORSDOF 13
ENDMDL
MODEL 3
REMARK VINA RESULT:     -11.7      1.546      3.172
REMARK SMILES O=C(NCCCCNC(=O)[C@H]1CCCN1S(=O)(=O)c1ccccc1Cl)c1ccc(-c2c3nc(c(-c4ccccc4)c4ccc([nH]4)c(-c4ccccc4)c4nc(c(-c5ccccc5)c5ccc2[nH]5)C=C4)C=C3)cc1
REMARK SMILES IDX 5 1 4 2 3 3 1 4 2 5 26 7 27 8 73 9 28 10 72 11 29 12 30 13
REMARK SMILES IDX 31 14 66 15 32 16 71 17 65 18 67 19 33 20 70 21 64 22 63 23
REMARK SMILES IDX 34 25 56 26 41 27 55 28 42 29 45 30 54 31 68 32 43 33 44 34
REMARK SMILES IDX 53 36 69 37 46 38 35 39 36 40 40 41 37 42 39 43 38 44 57 45
REMARK SMILES IDX 58 46 62 47 59 48 61 49 60 50 47 51 48 52 52 53 49 54 51 55
REMARK SMILES IDX 50 56 6 57 7 58 8 59 9 60 10 62 11 63 12 64 15 65 13 66
REMARK SMILES IDX 14 67 16 68 17 69 18 70 19 71 20 72 24 73 21 74 23 75 25 76
REMARK SMILES IDX 22 77
REMARK H PARENT 3 6 67 24 45 35 8 61
REMARK Flexibility Score: inf
ROOT
ATOM      1  C   UNL A   1      31.462  31.945  26.600  1.00  0.00     0.023 C 
ENDROOT
BRANCH   1   2
ATOM      2  C   UNL A   1      32.630  32.662  27.258  1.00  0.00     0.116 C 
BRANCH   2   3
ATOM      3  N   UNL A   1      32.334  34.038  27.635  1.00  0.00    -0.352 N 
ATOM      4  O   UNL A   1      32.605  35.954  28.810  1.00  0.00    -0.269 OA
ATOM      5  C   UNL A   1      33.019  34.838  28.519  1.00  0.00     0.251 C 
ATOM      6  H   UNL A   1      31.547  34.443  27.205  1.00  0.00     0.163 HD
BRANCH   5   7
ATOM      7  C   UNL A   1      34.245  34.308  29.147  1.00  0.00     0.039 A 
ATOM      8  C   UNL A   1      35.483  34.498  28.530  1.00  0.00     0.014 A 
ATOM      9  C   UNL A   1      34.140  33.561  30.322  1.00  0.00     0.014 A 
ATOM     10  C   UNL A   1      36.594  33.815  29.004  1.00  0.00     0.010 A 
ATOM     11  C   UNL A   1      35.278  32.945  30.847  1.00  0.00     0.010 A 
ATOM     12  C   UNL A   1      36.505  33.041  30.172  1.00  0.00    -0.014 A 
BRANCH  12  13
ATOM     13  C   UNL A   1      37.725  32.389  30.700  1.00  0.00     0.031 A 
ATOM     14  C   UNL A   1      38.442  32.931  31.903  1.00  0.00     0.074 A 
ATOM     15  C   UNL A   1      38.169  31.273  30.090  1.00  0.00     0.049 A 
ATOM     16  N   UNL A   1      39.525  32.482  32.485  1.00  0.00    -0.248 NA
ATOM     17  C   UNL A   1      37.877  34.135  32.532  1.00  0.00     0.031 C 
ATOM     18  C   UNL A   1      37.547  30.652  28.916  1.00  0.00     0.029 A 
ATOM     19  N   UNL A   1      39.227  30.454  30.379  1.00  0.00    -0.354 N 
ATOM     20  C   UNL A   1      39.789  33.359  33.529  1.00  0.00     0.074 A 
ATOM     21  C   UNL A   1      38.760  34.377  33.494  1.00  0.00     0.031 C 
ATOM     22  C   UNL A   1      38.206  29.524  28.617  1.00  0.00     0.029 A 
ATOM     23  C   UNL A   1      39.333  29.381  29.530  1.00  0.00     0.049 A 
ATOM     24  H   UNL A   1      39.850  30.618  31.124  1.00  0.00     0.167 HD
ATOM     25  C   UNL A   1      40.798  33.319  34.432  1.00  0.00     0.031 A 
ATOM     26  C   UNL A   1      40.250  28.399  29.474  1.00  0.00     0.031 A 
ATOM     27  C   UNL A   1      41.817  32.301  34.462  1.00  0.00     0.049 A 
ATOM     28  C   UNL A   1      41.372  28.396  30.466  1.00  0.00     0.074 A 
ATOM     29  C   UNL A   1      42.868  32.158  35.353  1.00  0.00     0.029 A 
ATOM     30  N   UNL A   1      41.914  31.253  33.559  1.00  0.00    -0.354 N 
ATOM     31  N   UNL A   1      41.599  29.227  31.454  1.00  0.00    -0.248 NA
ATOM     32  C   UNL A   1      42.366  27.325  30.332  1.00  0.00     0.031 C 
ATOM     33  C   UNL A   1      43.625  31.048  34.961  1.00  0.00     0.029 A 
ATOM     34  C   UNL A   1      43.018  30.472  33.857  1.00  0.00     0.049 A 
ATOM     35  H   UNL A   1      41.288  31.088  32.817  1.00  0.00     0.167 HD
ATOM     36  C   UNL A   1      42.757  28.773  32.068  1.00  0.00     0.074 A 
ATOM     37  C   UNL A   1      43.171  27.582  31.353  1.00  0.00     0.031 C 
ATOM     38  C   UNL A   1      43.419  29.298  33.127  1.00  0.00     0.031 A 
BRANCH  25  39
ATOM     39  C   UNL A   1      40.873  34.429  35.443  1.00  0.00    -0.014 A 
ATOM     40  C   UNL A   1      40.201  34.345  36.673  1.00  0.00     0.009 A 
ATOM     41  C   UNL A   1      41.665  35.557  35.178  1.00  0.00     0.009 A 
ATOM     42  C   UNL A   1      40.298  35.383  37.603  1.00  0.00     0.001 A 
ATOM     43  C   UNL A   1      41.780  36.582  36.121  1.00  0.00     0.001 A 
ATOM     44  C   UNL A   1      41.090  36.497  37.329  1.00  0.00     0.000 A 
ENDBRANCH  25  39
BRANCH  26  45
ATOM     45  C   UNL A   1      40.142  27.357  28.424  1.00  0.00    -0.014 A 
ATOM     46  C   UNL A   1      40.772  27.527  27.183  1.00  0.00     0.009 A 
ATOM     47  C   UNL A   1      39.439  26.167  28.674  1.00  0.00     0.009 A 
ATOM     48  C   UNL A   1      40.689  26.530  26.208  1.00  0.00     0.001 A 
ATOM     49  C   UNL A   1      39.382  25.161  27.709  1.00  0.00     0.001 A 
ATOM     50  C   UNL A   1      40.001  25.346  26.474  1.00  0.00     0.000 A 
ENDBRANCH  26  45
BRANCH  38  51
ATOM     51  C   UNL A   1      44.648  28.568  33.583  1.00  0.00    -0.014 A 
ATOM     52  C   UNL A   1      45.917  28.905  33.086  1.00  0.00     0.009 A 
ATOM     53  C   UNL A   1      44.536  27.544  34.535  1.00  0.00     0.009 A 
ATOM     54  C   UNL A   1      47.047  28.205  33.513  1.00  0.00     0.001 A 
ATOM     55  C   UNL A   1      45.671  26.863  34.978  1.00  0.00     0.001 A 
ATOM     56  C   UNL A   1      46.924  27.188  34.459  1.00  0.00     0.000 A 
ENDBRANCH  38  51
ENDBRANCH  12  13
ENDBRANCH   5   7
ENDBRANCH   2   3
ENDBRANCH   1   2
BRANCH   1  57
ATOM     57  C   UNL A   1      31.674  30.453  26.357  1.00  0.00     0.023 C 
BRANCH  57  58
ATOM     58  C   UNL A   1      33.116  30.035  26.072  1.00  0.00     0.116 C 
BRANCH  58  59
ATOM     59  N   UNL A   1      33.303  29.706  24.677  1.00  0.00    -0.355 N 
ATOM     60  C   UNL A   1      32.939  28.631  23.933  1.00  0.00     0.238 C 
ATOM     61  H   UNL A   1      33.790  30.395  24.169  1.00  0.00     0.163 HD
ATOM     62  O   UNL A   1      33.298  28.670  22.747  1.00  0.00    -0.273 OA
BRANCH  60  63
ATOM     63  C   UNL A   1      32.198  27.393  24.442  1.00  0.00     0.162 C 
ATOM     64  C   UNL A   1      30.686  27.559  24.369  1.00  0.00     0.032 C 
ATOM     65  N   UNL A   1      32.479  26.048  23.869  1.00  0.00    -0.185 NA
ATOM     66  C   UNL A   1      30.261  26.773  23.151  1.00  0.00     0.019 C 
ATOM     67  C   UNL A   1      31.329  25.711  22.949  1.00  0.00     0.103 C 
BRANCH  65  68
ATOM     68  S   UNL A   1      32.710  24.759  24.998  1.00  0.00     0.245 S 
ATOM     69  O   UNL A   1      32.713  25.343  26.324  1.00  0.00    -0.207 OA
ATOM     70  O   UNL A   1      31.705  23.769  24.669  1.00  0.00    -0.207 OA
BRANCH  68  71
ATOM     71  C   UNL A   1      34.295  24.031  24.659  1.00  0.00     0.101 A 
ATOM     72  C   UNL A   1      35.315  24.257  25.603  1.00  0.00     0.023 A 
ATOM     73  C   UNL A   1      34.612  23.404  23.448  1.00  0.00     0.061 A 
ATOM     74  C   UNL A   1      36.622  23.833  25.354  1.00  0.00     0.002 A 
ATOM     75  C   UNL A   1      35.921  22.953  23.225  1.00  0.00     0.022 A 
ATOM     76  Cl  UNL A   1      33.513  23.120  22.144  1.00  0.00    -0.083 Cl
ATOM     77  C   UNL A   1      36.924  23.169  24.170  1.00  0.00     0.002 A 
ENDBRANCH  68  71
ENDBRANCH  65  68
ENDBRANCH  60  63
ENDBRANCH  58  59
ENDBRANCH  57  58
ENDBRANCH   1  57
TORSDOF 13
ENDMDL
