MODEL 1
REMARK VINA RESULT:     -13.5      0.000      0.000
REMARK SMILES CC(=O)c1ccc(N2CCN(c3ccc(C(=O)NCCCCNC(=O)c4ccc(-c5c6nc(c(-c7ccccc7)c7ccc([nH]7)c(-c7ccccc7)c7nc(c(-c8ccccc8)c8ccc5[nH]8)C=C7)C=C6)cc4)cc3NS(=O)(=O)c3ccc(C)cc3)CC2)cc1
REMARK SMILES IDX 20 1 19 2 18 3 16 4 17 5 15 7 12 8 13 9 75 10 14 11 74 12
REMARK SMILES IDX 11 13 8 14 9 15 88 16 10 17 87 18 7 19 4 20 5 21 90 22 6 23
REMARK SMILES IDX 89 24 2 25 1 26 3 27 76 28 77 30 78 31 79 32 80 33 81 34
REMARK SMILES IDX 86 35 82 36 85 37 83 38 84 39 21 40 22 41 23 42 24 43 25 45
REMARK SMILES IDX 26 46 27 47 73 48 28 49 72 50 29 51 30 52 31 53 66 54 32 55
REMARK SMILES IDX 71 56 65 57 67 58 33 59 70 60 64 61 63 62 34 64 56 65 41 66
REMARK SMILES IDX 55 67 42 68 45 69 54 70 68 71 43 72 44 73 53 75 69 76 46 77
REMARK SMILES IDX 35 78 36 79 40 80 37 81 39 82 38 83 57 84 58 85 62 86 59 87
REMARK SMILES IDX 61 88 60 89 47 90 48 91 52 92 49 93 51 94 50 95
REMARK H PARENT 18 6 76 29 23 44 67 63 45 74
REMARK Flexibility Score: inf
ROOT
ATOM      1  C   UNL A   1      40.781  22.648  27.926  1.00  0.00     0.023 C 
ENDROOT
BRANCH   1   2
ATOM      2  C   UNL A   1      39.519  22.291  26.178  1.00  0.00     0.116 C 
BRANCH   2   3
ATOM      3  N   UNL A   1      38.342  21.245  25.837  1.00  0.00    -0.352 N 
ATOM      4  C   UNL A   1      37.137  21.303  25.168  1.00  0.00     0.251 C 
ATOM      5  O   UNL A   1      36.571  20.248  24.884  1.00  0.00    -0.269 OA
ATOM      6  H   UNL A   1      38.527  20.346  26.192  1.00  0.00     0.163 HD
BRANCH   4   7
ATOM      7  C   UNL A   1      36.431  22.582  24.918  1.00  0.00     0.042 A 
ATOM      8  C   UNL A   1      34.528  24.554  24.347  1.00  0.00     0.061 A 
ATOM      9  C   UNL A   1      35.292  24.002  23.318  1.00  0.00     0.029 A 
ATOM     10  C   UNL A   1      34.742  24.050  25.648  1.00  0.00     0.073 A 
ATOM     11  C   UNL A   1      36.180  22.956  23.592  1.00  0.00     0.016 A 
ATOM     12  C   UNL A   1      35.873  23.325  25.940  1.00  0.00     0.042 A 
BRANCH   8  13
ATOM     13  N   UNL A   1      33.560  25.511  24.135  1.00  0.00    -0.366 N 
ATOM     14  N   UNL A   1      31.412  27.301  24.454  1.00  0.00    -0.368 N 
ATOM     15  C   UNL A   1      31.142  25.908  24.062  1.00  0.00     0.138 C 
ATOM     16  C   UNL A   1      32.663  27.571  25.177  1.00  0.00     0.138 C 
ATOM     17  C   UNL A   1      32.362  25.310  23.314  1.00  0.00     0.138 C 
ATOM     18  C   UNL A   1      33.861  26.928  24.455  1.00  0.00     0.138 C 
BRANCH  14  19
ATOM     19  C   UNL A   1      30.610  28.323  24.009  1.00  0.00     0.037 A 
ATOM     20  C   UNL A   1      28.931  30.406  23.123  1.00  0.00     0.017 A 
ATOM     21  C   UNL A   1      28.741  29.102  22.661  1.00  0.00     0.014 A 
ATOM     22  C   UNL A   1      29.962  30.674  24.025  1.00  0.00     0.014 A 
ATOM     23  C   UNL A   1      29.587  28.076  23.089  1.00  0.00     0.026 A 
ATOM     24  C   UNL A   1      30.782  29.634  24.469  1.00  0.00     0.026 A 
BRANCH  20  25
ATOM     25  C   UNL A   1      28.010  31.469  22.641  1.00  0.00     0.159 C 
ATOM     26  C   UNL A   1      28.127  31.929  21.212  1.00  0.00     0.093 C 
ATOM     27  O   UNL A   1      27.149  31.917  23.395  1.00  0.00    -0.295 OA
ENDBRANCH  20  25
ENDBRANCH  14  19
ENDBRANCH   8  13
BRANCH  10  28
ATOM     28  N   UNL A   1      33.594  24.011  26.506  1.00  0.00    -0.277 N 
ATOM     29  H   UNL A   1      33.322  24.872  26.899  1.00  0.00     0.180 HD
BRANCH  28  30
ATOM     30  S   UNL A   1      32.668  22.697  26.920  1.00  0.00     0.261 S 
ATOM     31  O   UNL A   1      33.247  22.117  28.113  1.00  0.00    -0.201 OA
ATOM     32  O   UNL A   1      31.293  23.142  26.887  1.00  0.00    -0.201 OA
BRANCH  30  33
ATOM     33  C   UNL A   1      32.820  21.456  25.645  1.00  0.00     0.087 A 
ATOM     34  C   UNL A   1      33.212  19.745  26.007  1.00  0.00     0.022 A 
ATOM     35  C   UNL A   1      32.207  21.926  24.010  1.00  0.00     0.022 A 
ATOM     36  C   UNL A   1      33.124  18.502  24.690  1.00  0.00     0.005 A 
ATOM     37  C   UNL A   1      32.090  20.700  22.698  1.00  0.00     0.005 A 
ATOM     38  C   UNL A   1      32.492  18.964  23.050  1.00  0.00    -0.051 A 
ATOM     39  C   UNL A   1      32.163  17.897  22.051  1.00  0.00     0.044 C 
ENDBRANCH  30  33
ENDBRANCH  28  30
ENDBRANCH  10  28
ENDBRANCH   4   7
ENDBRANCH   2   3
ENDBRANCH   1   2
BRANCH   1  40
ATOM     40  C   UNL A   1      42.207  23.582  28.272  1.00  0.00     0.023 C 
BRANCH  40  41
ATOM     41  C   UNL A   1      43.189  23.983  27.160  1.00  0.00     0.116 C 
BRANCH  41  42
ATOM     42  N   UNL A   1      44.072  22.914  26.729  1.00  0.00    -0.352 N 
ATOM     43  C   UNL A   1      45.398  23.007  26.393  1.00  0.00     0.251 C 
ATOM     44  H   UNL A   1      43.671  22.016  26.673  1.00  0.00     0.163 HD
ATOM     45  O   UNL A   1      46.021  22.036  25.978  1.00  0.00    -0.269 OA
BRANCH  43  46
ATOM     46  C   UNL A   1      46.067  24.317  26.488  1.00  0.00     0.039 A 
ATOM     47  C   UNL A   1      46.462  24.946  25.309  1.00  0.00     0.014 A 
ATOM     48  C   UNL A   1      46.309  24.914  27.729  1.00  0.00     0.014 A 
ATOM     49  C   UNL A   1      47.087  26.188  25.372  1.00  0.00     0.010 A 
ATOM     50  C   UNL A   1      46.881  26.185  27.788  1.00  0.00     0.010 A 
ATOM     51  C   UNL A   1      47.295  26.824  26.610  1.00  0.00    -0.014 A 
BRANCH  51  52
ATOM     52  C   UNL A   1      47.990  28.134  26.649  1.00  0.00     0.031 A 
ATOM     53  C   UNL A   1      49.490  28.198  26.561  1.00  0.00     0.074 A 
ATOM     54  C   UNL A   1      47.267  29.267  26.712  1.00  0.00     0.049 A 
ATOM     55  N   UNL A   1      50.262  29.245  26.415  1.00  0.00    -0.248 NA
ATOM     56  C   UNL A   1      50.219  26.924  26.662  1.00  0.00     0.031 C 
ATOM     57  C   UNL A   1      45.810  29.334  26.843  1.00  0.00     0.029 A 
ATOM     58  N   UNL A   1      47.656  30.581  26.643  1.00  0.00    -0.354 N 
ATOM     59  C   UNL A   1      51.562  28.754  26.397  1.00  0.00     0.074 A 
ATOM     60  C   UNL A   1      51.480  27.327  26.614  1.00  0.00     0.031 C 
ATOM     61  C   UNL A   1      45.423  30.619  26.788  1.00  0.00     0.029 A 
ATOM     62  C   UNL A   1      46.604  31.465  26.639  1.00  0.00     0.049 A 
ATOM     63  H   UNL A   1      48.598  30.864  26.600  1.00  0.00     0.167 HD
ATOM     64  C   UNL A   1      52.721  29.426  26.190  1.00  0.00     0.031 A 
ATOM     65  C   UNL A   1      46.591  32.804  26.502  1.00  0.00     0.031 A 
ATOM     66  C   UNL A   1      52.801  30.847  25.984  1.00  0.00     0.049 A 
ATOM     67  C   UNL A   1      47.890  33.528  26.277  1.00  0.00     0.074 A 
ATOM     68  C   UNL A   1      53.920  31.622  25.737  1.00  0.00     0.029 A 
ATOM     69  N   UNL A   1      51.715  31.708  26.009  1.00  0.00    -0.354 N 
ATOM     70  N   UNL A   1      49.103  33.041  26.181  1.00  0.00    -0.248 NA
ATOM     71  C   UNL A   1      47.810  34.987  26.115  1.00  0.00     0.031 C 
ATOM     72  C   UNL A   1      53.517  32.960  25.663  1.00  0.00     0.029 A 
ATOM     73  C   UNL A   1      52.139  33.010  25.800  1.00  0.00     0.049 A 
ATOM     74  H   UNL A   1      50.780  31.435  26.154  1.00  0.00     0.167 HD
ATOM     75  C   UNL A   1      49.928  34.128  25.913  1.00  0.00     0.074 A 
ATOM     76  C   UNL A   1      49.070  35.294  25.843  1.00  0.00     0.031 C 
ATOM     77  C   UNL A   1      51.272  34.158  25.738  1.00  0.00     0.031 A 
BRANCH  64  78
ATOM     78  C   UNL A   1      53.992  28.622  26.187  1.00  0.00    -0.014 A 
ATOM     79  C   UNL A   1      54.496  28.061  25.002  1.00  0.00     0.009 A 
ATOM     80  C   UNL A   1      54.706  28.435  27.380  1.00  0.00     0.009 A 
ATOM     81  C   UNL A   1      55.663  27.294  25.020  1.00  0.00     0.001 A 
ATOM     82  C   UNL A   1      55.890  27.695  27.391  1.00  0.00     0.001 A 
ATOM     83  C   UNL A   1      56.362  27.116  26.214  1.00  0.00     0.000 A 
ENDBRANCH  64  78
BRANCH  65  84
ATOM     84  C   UNL A   1      45.301  33.547  26.530  1.00  0.00    -0.014 A 
ATOM     85  C   UNL A   1      44.760  34.001  27.743  1.00  0.00     0.009 A 
ATOM     86  C   UNL A   1      44.595  33.790  25.341  1.00  0.00     0.009 A 
ATOM     87  C   UNL A   1      43.524  34.653  27.768  1.00  0.00     0.001 A 
ATOM     88  C   UNL A   1      43.377  34.470  25.366  1.00  0.00     0.001 A 
ATOM     89  C   UNL A   1      42.836  34.890  26.580  1.00  0.00     0.000 A 
ENDBRANCH  65  84
BRANCH  77  90
ATOM     90  C   UNL A   1      51.888  35.492  25.415  1.00  0.00    -0.014 A 
ATOM     91  C   UNL A   1      52.130  35.888  24.090  1.00  0.00     0.009 A 
ATOM     92  C   UNL A   1      52.216  36.372  26.458  1.00  0.00     0.009 A 
ATOM     93  C   UNL A   1      52.732  37.119  23.820  1.00  0.00     0.001 A 
ATOM     94  C   UNL A   1      52.786  37.616  26.184  1.00  0.00     0.001 A 
ATOM     95  C   UNL A   1      53.056  37.982  24.866  1.00  0.00     0.000 A 
ENDBRANCH  77  90
ENDBRANCH  51  52
ENDBRANCH  43  46
ENDBRANCH  41  42
ENDBRANCH  40  41
ENDBRANCH   1  40
TORSDOF 17
ENDMDL
MODEL 2
REMARK VINA RESULT:     -13.4      8.719     12.453
REMARK SMILES CC(=O)c1ccc(N2CCN(c3ccc(C(=O)NCCCCNC(=O)c4ccc(-c5c6nc(c(-c7ccccc7)c7ccc([nH]7)c(-c7ccccc7)c7nc(c(-c8ccccc8)c8ccc5[nH]8)C=C7)C=C6)cc4)cc3NS(=O)(=O)c3ccc(C)cc3)CC2)cc1
REMARK SMILES IDX 20 1 19 2 18 3 16 4 17 5 15 7 12 8 13 9 75 10 14 11 74 12
REMARK SMILES IDX 11 13 8 14 9 15 88 16 10 17 87 18 7 19 4 20 5 21 90 22 6 23
REMARK SMILES IDX 89 24 2 25 1 26 3 27 76 28 77 30 78 31 79 32 80 33 81 34
REMARK SMILES IDX 86 35 82 36 85 37 83 38 84 39 21 40 22 41 23 42 24 43 25 45
REMARK SMILES IDX 26 46 27 47 73 48 28 49 72 50 29 51 30 52 31 53 66 54 32 55
REMARK SMILES IDX 71 56 65 57 67 58 33 59 70 60 64 61 63 62 34 64 56 65 41 66
REMARK SMILES IDX 55 67 42 68 45 69 54 70 68 71 43 72 44 73 53 75 69 76 46 77
REMARK SMILES IDX 35 78 36 79 40 80 37 81 39 82 38 83 57 84 58 85 62 86 59 87
REMARK SMILES IDX 61 88 60 89 47 90 48 91 52 92 49 93 51 94 50 95
REMARK H PARENT 18 6 76 29 23 44 67 63 45 74
REMARK Flexibility Score: inf
ROOT
ATOM      1  C   UNL A   1      35.596  29.701  28.120  1.00  0.00     0.023 C 
ENDROOT
BRANCH   1   2
ATOM      2  C   UNL A   1      33.718  30.680  27.584  1.00  0.00     0.116 C 
BRANCH   2   3
ATOM      3  N   UNL A   1      32.678  30.524  26.363  1.00  0.00    -0.352 N 
ATOM      4  C   UNL A   1      31.971  29.483  25.800  1.00  0.00     0.251 C 
ATOM      5  O   UNL A   1      31.070  29.746  25.004  1.00  0.00    -0.269 OA
ATOM      6  H   UNL A   1      32.506  31.379  25.908  1.00  0.00     0.163 HD
BRANCH   4   7
ATOM      7  C   UNL A   1      32.356  28.065  25.998  1.00  0.00     0.042 A 
ATOM      8  C   UNL A   1      32.619  25.284  25.822  1.00  0.00     0.061 A 
ATOM      9  C   UNL A   1      31.668  25.842  26.677  1.00  0.00     0.029 A 
ATOM     10  C   UNL A   1      33.394  26.176  25.050  1.00  0.00     0.073 A 
ATOM     11  C   UNL A   1      31.479  27.228  26.699  1.00  0.00     0.016 A 
ATOM     12  C   UNL A   1      33.459  27.510  25.380  1.00  0.00     0.042 A 
BRANCH   8  13
ATOM     13  N   UNL A   1      32.788  23.924  25.669  1.00  0.00    -0.366 N 
ATOM     14  N   UNL A   1      33.676  21.386  24.840  1.00  0.00    -0.368 N 
ATOM     15  C   UNL A   1      32.619  22.069  24.076  1.00  0.00     0.138 C 
ATOM     16  C   UNL A   1      34.588  22.225  25.631  1.00  0.00     0.138 C 
ATOM     17  C   UNL A   1      31.832  23.043  24.992  1.00  0.00     0.138 C 
ATOM     18  C   UNL A   1      33.799  23.224  26.497  1.00  0.00     0.138 C 
BRANCH  14  19
ATOM     19  C   UNL A   1      33.697  20.018  24.940  1.00  0.00     0.037 A 
ATOM     20  C   UNL A   1      33.770  17.210  25.177  1.00  0.00     0.017 A 
ATOM     21  C   UNL A   1      34.810  17.892  24.542  1.00  0.00     0.014 A 
ATOM     22  C   UNL A   1      32.689  17.928  25.691  1.00  0.00     0.014 A 
ATOM     23  C   UNL A   1      34.761  19.281  24.410  1.00  0.00     0.026 A 
ATOM     24  C   UNL A   1      32.666  19.321  25.581  1.00  0.00     0.026 A 
BRANCH  20  25
ATOM     25  C   UNL A   1      33.860  15.731  25.294  1.00  0.00     0.159 C 
ATOM     26  C   UNL A   1      32.585  14.939  25.414  1.00  0.00     0.093 C 
ATOM     27  O   UNL A   1      34.958  15.182  25.248  1.00  0.00    -0.295 OA
ENDBRANCH  20  25
ENDBRANCH  14  19
ENDBRANCH   8  13
BRANCH  10  28
ATOM     28  N   UNL A   1      33.780  25.714  23.750  1.00  0.00    -0.277 N 
ATOM     29  H   UNL A   1      34.451  24.994  23.732  1.00  0.00     0.180 HD
BRANCH  28  30
ATOM     30  S   UNL A   1      33.239  26.242  22.272  1.00  0.00     0.261 S 
ATOM     31  O   UNL A   1      33.976  27.444  21.944  1.00  0.00    -0.201 OA
ATOM     32  O   UNL A   1      33.250  25.088  21.399  1.00  0.00    -0.201 OA
BRANCH  30  33
ATOM     33  C   UNL A   1      31.531  26.736  22.423  1.00  0.00     0.087 A 
ATOM     34  C   UNL A   1      30.326  25.772  23.335  1.00  0.00     0.022 A 
ATOM     35  C   UNL A   1      31.153  28.432  21.921  1.00  0.00     0.022 A 
ATOM     36  C   UNL A   1      28.671  26.450  23.636  1.00  0.00     0.005 A 
ATOM     37  C   UNL A   1      29.523  29.129  22.234  1.00  0.00     0.005 A 
ATOM     38  C   UNL A   1      28.291  28.159  23.150  1.00  0.00    -0.051 A 
ATOM     39  C   UNL A   1      27.031  28.809  23.635  1.00  0.00     0.044 C 
ENDBRANCH  30  33
ENDBRANCH  28  30
ENDBRANCH  10  28
ENDBRANCH   4   7
ENDBRANCH   2   3
ENDBRANCH   1   2
BRANCH   1  40
ATOM     40  C   UNL A   1      36.581  29.576  29.549  1.00  0.00     0.023 C 
BRANCH  40  41
ATOM     41  C   UNL A   1      37.634  30.642  29.889  1.00  0.00     0.116 C 
BRANCH  41  42
ATOM     42  N   UNL A   1      37.083  31.953  30.179  1.00  0.00    -0.352 N 
ATOM     43  C   UNL A   1      37.279  32.716  31.302  1.00  0.00     0.251 C 
ATOM     44  H   UNL A   1      36.501  32.343  29.486  1.00  0.00     0.163 HD
ATOM     45  O   UNL A   1      36.701  33.786  31.456  1.00  0.00    -0.269 OA
BRANCH  43  46
ATOM     46  C   UNL A   1      38.168  32.206  32.362  1.00  0.00     0.039 A 
ATOM     47  C   UNL A   1      39.530  32.492  32.278  1.00  0.00     0.014 A 
ATOM     48  C   UNL A   1      37.664  31.446  33.422  1.00  0.00     0.014 A 
ATOM     49  C   UNL A   1      40.388  32.030  33.273  1.00  0.00     0.010 A 
ATOM     50  C   UNL A   1      38.515  31.035  34.447  1.00  0.00     0.010 A 
ATOM     51  C   UNL A   1      39.889  31.304  34.370  1.00  0.00    -0.014 A 
BRANCH  51  52
ATOM     52  C   UNL A   1      40.832  30.799  35.398  1.00  0.00     0.031 A 
ATOM     53  C   UNL A   1      41.500  29.463  35.222  1.00  0.00     0.074 A 
ATOM     54  C   UNL A   1      41.123  31.565  36.465  1.00  0.00     0.049 A 
ATOM     55  N   UNL A   1      42.468  28.928  35.922  1.00  0.00    -0.248 NA
ATOM     56  C   UNL A   1      41.011  28.613  34.125  1.00  0.00     0.031 C 
ATOM     57  C   UNL A   1      40.509  32.860  36.769  1.00  0.00     0.029 A 
ATOM     58  N   UNL A   1      42.033  31.383  37.476  1.00  0.00    -0.354 N 
ATOM     59  C   UNL A   1      42.709  27.687  35.344  1.00  0.00     0.074 A 
ATOM     60  C   UNL A   1      41.743  27.520  34.282  1.00  0.00     0.031 C 
ATOM     61  C   UNL A   1      41.099  33.381  37.858  1.00  0.00     0.029 A 
ATOM     62  C   UNL A   1      42.115  32.449  38.339  1.00  0.00     0.049 A 
ATOM     63  H   UNL A   1      42.575  30.567  37.574  1.00  0.00     0.167 HD
ATOM     64  C   UNL A   1      43.666  26.779  35.651  1.00  0.00     0.031 A 
ATOM     65  C   UNL A   1      42.937  32.663  39.384  1.00  0.00     0.031 A 
ATOM     66  C   UNL A   1      44.619  26.943  36.716  1.00  0.00     0.049 A 
ATOM     67  C   UNL A   1      43.990  31.639  39.708  1.00  0.00     0.074 A 
ATOM     68  C   UNL A   1      45.648  26.098  37.092  1.00  0.00     0.029 A 
ATOM     69  N   UNL A   1      44.655  28.027  37.580  1.00  0.00    -0.354 N 
ATOM     70  N   UNL A   1      44.258  30.507  39.102  1.00  0.00    -0.248 NA
ATOM     71  C   UNL A   1      44.870  31.937  40.846  1.00  0.00     0.031 C 
ATOM     72  C   UNL A   1      46.274  26.647  38.217  1.00  0.00     0.029 A 
ATOM     73  C   UNL A   1      45.677  27.864  38.501  1.00  0.00     0.049 A 
ATOM     74  H   UNL A   1      44.045  28.799  37.544  1.00  0.00     0.167 HD
ATOM     75  C   UNL A   1      45.359  29.975  39.763  1.00  0.00     0.074 A 
ATOM     76  C   UNL A   1      45.718  30.920  40.802  1.00  0.00     0.031 C 
ATOM     77  C   UNL A   1      46.015  28.812  39.530  1.00  0.00     0.031 A 
BRANCH  64  78
ATOM     78  C   UNL A   1      43.714  25.523  34.825  1.00  0.00    -0.014 A 
ATOM     79  C   UNL A   1      44.472  25.458  33.643  1.00  0.00     0.009 A 
ATOM     80  C   UNL A   1      43.009  24.383  35.238  1.00  0.00     0.009 A 
ATOM     81  C   UNL A   1      44.486  24.294  32.872  1.00  0.00     0.001 A 
ATOM     82  C   UNL A   1      43.049  23.210  34.483  1.00  0.00     0.001 A 
ATOM     83  C   UNL A   1      43.778  23.169  33.295  1.00  0.00     0.000 A 
ENDBRANCH  64  78
BRANCH  65  84
ATOM     84  C   UNL A   1      42.830  33.919  40.175  1.00  0.00    -0.014 A 
ATOM     85  C   UNL A   1      41.976  33.997  41.287  1.00  0.00     0.009 A 
ATOM     86  C   UNL A   1      43.569  35.055  39.809  1.00  0.00     0.009 A 
ATOM     87  C   UNL A   1      41.842  35.194  41.995  1.00  0.00     0.001 A 
ATOM     88  C   UNL A   1      43.457  36.240  40.538  1.00  0.00     0.001 A 
ATOM     89  C   UNL A   1      42.584  36.313  41.622  1.00  0.00     0.000 A 
ENDBRANCH  65  84
BRANCH  77  90
ATOM     90  C   UNL A   1      47.213  28.520  40.393  1.00  0.00    -0.014 A 
ATOM     91  C   UNL A   1      47.103  27.776  41.577  1.00  0.00     0.009 A 
ATOM     92  C   UNL A   1      48.477  28.986  39.999  1.00  0.00     0.009 A 
ATOM     93  C   UNL A   1      48.226  27.547  42.374  1.00  0.00     0.001 A 
ATOM     94  C   UNL A   1      49.605  28.727  40.779  1.00  0.00     0.001 A 
ATOM     95  C   UNL A   1      49.475  28.019  41.974  1.00  0.00     0.000 A 
ENDBRANCH  77  90
ENDBRANCH  51  52
ENDBRANCH  43  46
ENDBRANCH  41  42
ENDBRANCH  40  41
ENDBRANCH   1  40
TORSDOF 17
ENDMDL
MODEL 3
REMARK VINA RESULT:     -12.9      7.831      9.934
REMARK SMILES CC(=O)c1ccc(N2CCN(c3ccc(C(=O)NCCCCNC(=O)c4ccc(-c5c6nc(c(-c7ccccc7)c7ccc([nH]7)c(-c7ccccc7)c7nc(c(-c8ccccc8)c8ccc5[nH]8)C=C7)C=C6)cc4)cc3NS(=O)(=O)c3ccc(C)cc3)CC2)cc1
REMARK SMILES IDX 20 1 19 2 18 3 16 4 17 5 15 7 12 8 13 9 75 10 14 11 74 12
REMARK SMILES IDX 11 13 8 14 9 15 88 16 10 17 87 18 7 19 4 20 5 21 90 22 6 23
REMARK SMILES IDX 89 24 2 25 1 26 3 27 76 28 77 30 78 31 79 32 80 33 81 34
REMARK SMILES IDX 86 35 82 36 85 37 83 38 84 39 21 40 22 41 23 42 24 43 25 45
REMARK SMILES IDX 26 46 27 47 73 48 28 49 72 50 29 51 30 52 31 53 66 54 32 55
REMARK SMILES IDX 71 56 65 57 67 58 33 59 70 60 64 61 63 62 34 64 56 65 41 66
REMARK SMILES IDX 55 67 42 68 45 69 54 70 68 71 43 72 44 73 53 75 69 76 46 77
REMARK SMILES IDX 35 78 36 79 40 80 37 81 39 82 38 83 57 84 58 85 62 86 59 87
REMARK SMILES IDX 61 88 60 89 47 90 48 91 52 92 49 93 51 94 50 95
REMARK H PARENT 18 6 76 29 23 44 67 63 45 74
REMARK Flexibility Score: inf
ROOT
ATOM      1  C   UNL A   1      39.811  24.113  27.461  1.00  0.00     0.023 C 
ENDROOT
BRANCH   1   2
ATOM      2  C   UNL A   1      39.656  22.316  26.227  1.00  0.00     0.116 C 
BRANCH   2   3
ATOM      3  N   UNL A   1      38.477  21.262  25.922  1.00  0.00    -0.352 N 
ATOM      4  C   UNL A   1      37.266  21.304  25.262  1.00  0.00     0.251 C 
ATOM      5  O   UNL A   1      36.697  20.242  25.008  1.00  0.00    -0.269 OA
ATOM      6  H   UNL A   1      38.665  20.372  26.296  1.00  0.00     0.163 HD
BRANCH   4   7
ATOM      7  C   UNL A   1      36.557  22.576  24.988  1.00  0.00     0.042 A 
ATOM      8  C   UNL A   1      34.639  24.539  24.435  1.00  0.00     0.061 A 
ATOM      9  C   UNL A   1      35.326  23.920  23.390  1.00  0.00     0.029 A 
ATOM     10  C   UNL A   1      34.936  24.106  25.745  1.00  0.00     0.073 A 
ATOM     11  C   UNL A   1      36.221  22.879  23.663  1.00  0.00     0.016 A 
ATOM     12  C   UNL A   1      36.077  23.383  26.000  1.00  0.00     0.042 A 
BRANCH   8  13
ATOM     13  N   UNL A   1      33.668  25.496  24.234  1.00  0.00    -0.366 N 
ATOM     14  N   UNL A   1      31.356  27.087  24.441  1.00  0.00    -0.368 N 
ATOM     15  C   UNL A   1      31.311  25.843  23.655  1.00  0.00     0.138 C 
ATOM     16  C   UNL A   1      32.370  27.181  25.501  1.00  0.00     0.138 C 
ATOM     17  C   UNL A   1      32.723  25.494  23.114  1.00  0.00     0.138 C 
ATOM     18  C   UNL A   1      33.758  26.782  24.968  1.00  0.00     0.138 C 
BRANCH  14  19
ATOM     19  C   UNL A   1      30.596  28.171  24.082  1.00  0.00     0.037 A 
ATOM     20  C   UNL A   1      29.004  30.388  23.375  1.00  0.00     0.017 A 
ATOM     21  C   UNL A   1      28.641  29.101  22.972  1.00  0.00     0.014 A 
ATOM     22  C   UNL A   1      30.165  30.572  24.128  1.00  0.00     0.014 A 
ATOM     23  C   UNL A   1      29.442  28.008  23.309  1.00  0.00     0.026 A 
ATOM     24  C   UNL A   1      30.942  29.467  24.485  1.00  0.00     0.026 A 
BRANCH  20  25
ATOM     25  C   UNL A   1      28.125  31.524  22.993  1.00  0.00     0.159 C 
ATOM     26  C   UNL A   1      28.567  32.433  21.877  1.00  0.00     0.093 C 
ATOM     27  O   UNL A   1      27.044  31.674  23.558  1.00  0.00    -0.295 OA
ENDBRANCH  20  25
ENDBRANCH  14  19
ENDBRANCH   8  13
BRANCH  10  28
ATOM     28  N   UNL A   1      33.849  24.131  26.678  1.00  0.00    -0.277 N 
ATOM     29  H   UNL A   1      33.810  24.915  27.272  1.00  0.00     0.180 HD
BRANCH  28  30
ATOM     30  S   UNL A   1      32.649  23.002  26.885  1.00  0.00     0.261 S 
ATOM     31  O   UNL A   1      32.871  22.361  28.163  1.00  0.00    -0.201 OA
ATOM     32  O   UNL A   1      31.404  23.674  26.583  1.00  0.00    -0.201 OA
BRANCH  30  33
ATOM     33  C   UNL A   1      32.837  21.724  25.653  1.00  0.00     0.087 A 
ATOM     34  C   UNL A   1      33.360  20.060  26.063  1.00  0.00     0.022 A 
ATOM     35  C   UNL A   1      32.130  22.085  24.028  1.00  0.00     0.022 A 
ATOM     36  C   UNL A   1      33.308  18.761  24.798  1.00  0.00     0.005 A 
ATOM     37  C   UNL A   1      32.049  20.801  22.769  1.00  0.00     0.005 A 
ATOM     38  C   UNL A   1      32.583  19.113  23.170  1.00  0.00    -0.051 A 
ATOM     39  C   UNL A   1      32.290  17.986  22.226  1.00  0.00     0.044 C 
ENDBRANCH  30  33
ENDBRANCH  28  30
ENDBRANCH  10  28
ENDBRANCH   4   7
ENDBRANCH   2   3
ENDBRANCH   1   2
BRANCH   1  40
ATOM     40  C   UNL A   1      38.869  25.556  27.698  1.00  0.00     0.023 C 
BRANCH  40  41
ATOM     41  C   UNL A   1      39.459  26.788  28.402  1.00  0.00     0.116 C 
BRANCH  41  42
ATOM     42  N   UNL A   1      38.857  28.048  28.004  1.00  0.00    -0.352 N 
ATOM     43  C   UNL A   1      38.786  29.210  28.730  1.00  0.00     0.251 C 
ATOM     44  H   UNL A   1      38.453  28.072  27.106  1.00  0.00     0.163 HD
ATOM     45  O   UNL A   1      38.189  30.192  28.305  1.00  0.00    -0.269 OA
BRANCH  43  46
ATOM     46  C   UNL A   1      39.402  29.251  30.068  1.00  0.00     0.039 A 
ATOM     47  C   UNL A   1      40.634  29.888  30.211  1.00  0.00     0.014 A 
ATOM     48  C   UNL A   1      38.776  28.659  31.169  1.00  0.00     0.014 A 
ATOM     49  C   UNL A   1      41.231  29.950  31.467  1.00  0.00     0.010 A 
ATOM     50  C   UNL A   1      39.347  28.773  32.437  1.00  0.00     0.010 A 
ATOM     51  C   UNL A   1      40.591  29.400  32.592  1.00  0.00    -0.014 A 
BRANCH  51  52
ATOM     52  C   UNL A   1      41.265  29.454  33.913  1.00  0.00     0.031 A 
ATOM     53  C   UNL A   1      42.258  28.392  34.299  1.00  0.00     0.074 A 
ATOM     54  C   UNL A   1      41.021  30.486  34.741  1.00  0.00     0.049 A 
ATOM     55  N   UNL A   1      43.065  28.355  35.330  1.00  0.00    -0.248 NA
ATOM     56  C   UNL A   1      42.350  27.214  33.423  1.00  0.00     0.031 C 
ATOM     57  C   UNL A   1      40.050  31.554  34.498  1.00  0.00     0.029 A 
ATOM     58  N   UNL A   1      41.593  30.823  35.942  1.00  0.00    -0.354 N 
ATOM     59  C   UNL A   1      43.763  27.159  35.219  1.00  0.00     0.074 A 
ATOM     60  C   UNL A   1      43.240  26.469  34.061  1.00  0.00     0.031 C 
ATOM     61  C   UNL A   1      40.133  32.457  35.488  1.00  0.00     0.029 A 
ATOM     62  C   UNL A   1      41.147  32.022  36.444  1.00  0.00     0.049 A 
ATOM     63  H   UNL A   1      42.259  30.262  36.400  1.00  0.00     0.167 HD
ATOM     64  C   UNL A   1      44.770  26.689  35.993  1.00  0.00     0.031 A 
ATOM     65  C   UNL A   1      41.531  32.706  37.539  1.00  0.00     0.031 A 
ATOM     66  C   UNL A   1      45.282  27.372  37.151  1.00  0.00     0.049 A 
ATOM     67  C   UNL A   1      42.649  32.162  38.385  1.00  0.00     0.074 A 
ATOM     68  C   UNL A   1      46.318  26.997  37.988  1.00  0.00     0.029 A 
ATOM     69  N   UNL A   1      44.787  28.572  37.638  1.00  0.00    -0.354 N 
ATOM     70  N   UNL A   1      43.355  31.069  38.221  1.00  0.00    -0.248 NA
ATOM     71  C   UNL A   1      43.037  32.962  39.555  1.00  0.00     0.031 C 
ATOM     72  C   UNL A   1      46.417  27.946  39.012  1.00  0.00     0.029 A 
ATOM     73  C   UNL A   1      45.485  28.944  38.775  1.00  0.00     0.049 A 
ATOM     74  H   UNL A   1      44.050  29.085  37.236  1.00  0.00     0.167 HD
ATOM     75  C   UNL A   1      44.294  31.068  39.246  1.00  0.00     0.074 A 
ATOM     76  C   UNL A   1      44.078  32.279  40.011  1.00  0.00     0.031 C 
ATOM     77  C   UNL A   1      45.252  30.150  39.527  1.00  0.00     0.031 A 
BRANCH  64  78
ATOM     78  C   UNL A   1      45.372  25.364  35.611  1.00  0.00    -0.014 A 
ATOM     79  C   UNL A   1      46.500  25.291  34.776  1.00  0.00     0.009 A 
ATOM     80  C   UNL A   1      44.817  24.173  36.103  1.00  0.00     0.009 A 
ATOM     81  C   UNL A   1      47.032  24.053  34.408  1.00  0.00     0.001 A 
ATOM     82  C   UNL A   1      45.369  22.937  35.760  1.00  0.00     0.001 A 
ATOM     83  C   UNL A   1      46.469  22.878  34.904  1.00  0.00     0.000 A 
ENDBRANCH  64  78
BRANCH  65  84
ATOM     84  C   UNL A   1      40.885  34.004  37.874  1.00  0.00    -0.014 A 
ATOM     85  C   UNL A   1      41.422  35.215  37.409  1.00  0.00     0.009 A 
ATOM     86  C   UNL A   1      39.735  34.039  38.679  1.00  0.00     0.009 A 
ATOM     87  C   UNL A   1      40.840  36.433  37.770  1.00  0.00     0.001 A 
ATOM     88  C   UNL A   1      39.138  35.255  39.012  1.00  0.00     0.001 A 
ATOM     89  C   UNL A   1      39.698  36.452  38.567  1.00  0.00     0.000 A 
ENDBRANCH  65  84
BRANCH  77  90
ATOM     90  C   UNL A   1      46.161  30.445  40.689  1.00  0.00    -0.014 A 
ATOM     91  C   UNL A   1      45.860  30.007  41.987  1.00  0.00     0.009 A 
ATOM     92  C   UNL A   1      47.348  31.161  40.472  1.00  0.00     0.009 A 
ATOM     93  C   UNL A   1      46.706  30.322  43.053  1.00  0.00     0.001 A 
ATOM     94  C   UNL A   1      48.210  31.446  41.532  1.00  0.00     0.001 A 
ATOM     95  C   UNL A   1      47.880  31.037  42.824  1.00  0.00     0.000 A 
ENDBRANCH  77  90
ENDBRANCH  51  52
ENDBRANCH  43  46
ENDBRANCH  41  42
ENDBRANCH  40  41
ENDBRANCH   1  40
TORSDOF 17
ENDMDL
