MODEL 1
REMARK VINA RESULT:     -11.6      0.000      0.000
REMARK SMILES C[C@]1(C(=O)NCCCCNC(=O)c2ccc(-c3c4nc(c(-c5ccccc5)c5ccc([nH]5)c(-c5ccccc5)c5nc(c(-c6ccccc6)c6ccc3[nH]6)C=C5)C=C4)cc2)CCN(c2ccc([N+](=O)[O-])c(N)n2)C1
REMARK SMILES IDX 7 1 6 2 5 3 3 4 4 5 2 7 1 8 61 9 74 10 62 11 63 12 64 13
REMARK SMILES IDX 65 14 73 15 66 16 71 17 67 18 72 19 68 22 69 23 70 24 8 25
REMARK SMILES IDX 9 26 10 27 11 28 12 30 13 31 14 32 60 33 15 34 59 35 16 36
REMARK SMILES IDX 17 37 18 38 53 39 19 40 58 41 52 42 54 43 20 44 57 45 51 46
REMARK SMILES IDX 50 47 21 49 43 50 28 51 42 52 29 53 32 54 41 55 55 56 30 57
REMARK SMILES IDX 31 58 40 60 56 61 33 62 22 63 23 64 27 65 24 66 26 67 25 68
REMARK SMILES IDX 44 69 45 70 49 71 46 72 48 73 47 74 34 75 35 76 39 77 36 78
REMARK SMILES IDX 38 79 37 80
REMARK H PARENT 5 6 72 20 72 21 10 29 54 48 32 59
REMARK Flexibility Score: inf
ROOT
ATOM      1  C   UNL A   1      36.336  21.562  24.596  1.00  0.00     0.023 C 
ENDROOT
BRANCH   1   2
ATOM      2  C   UNL A   1      35.634  22.207  25.790  1.00  0.00     0.116 C 
BRANCH   2   3
ATOM      3  N   UNL A   1      34.186  22.156  25.656  1.00  0.00    -0.356 N 
ATOM      4  C   UNL A   1      33.279  23.081  25.234  1.00  0.00     0.227 C 
ATOM      5  O   UNL A   1      32.098  22.723  25.248  1.00  0.00    -0.274 OA
ATOM      6  H   UNL A   1      33.789  21.294  25.918  1.00  0.00     0.163 HD
BRANCH   4   7
ATOM      7  C   UNL A   1      33.686  24.478  24.744  1.00  0.00     0.066 C 
ATOM      8  C   UNL A   1      34.899  24.979  25.552  1.00  0.00     0.024 C 
ATOM      9  C   UNL A   1      34.038  24.506  23.247  1.00  0.00     0.040 C 
ATOM     10  C   UNL A   1      32.524  25.467  24.928  1.00  0.00     0.134 C 
ATOM     11  C   UNL A   1      33.408  25.773  22.678  1.00  0.00     0.119 C 
ATOM     12  N   UNL A   1      32.502  26.251  23.702  1.00  0.00    -0.355 N 
BRANCH  12  13
ATOM     13  C   UNL A   1      31.404  27.015  23.393  1.00  0.00     0.131 A 
ATOM     14  C   UNL A   1      30.136  26.586  23.772  1.00  0.00     0.054 A 
ATOM     15  N   UNL A   1      31.575  28.168  22.707  1.00  0.00    -0.207 NA
ATOM     16  C   UNL A   1      29.024  27.358  23.456  1.00  0.00     0.093 A 
ATOM     17  C   UNL A   1      30.496  28.909  22.353  1.00  0.00     0.204 A 
ATOM     18  C   UNL A   1      29.209  28.537  22.730  1.00  0.00     0.311 A 
BRANCH  17  19
ATOM     19  N   UNL A   1      30.811  30.071  21.679  1.00  0.00    -0.378 N 
ATOM     20  H   UNL A   1      31.687  30.163  21.238  1.00  0.00     0.158 HD
ATOM     21  H   UNL A   1      30.159  30.808  21.638  1.00  0.00     0.158 HD
ENDBRANCH  17  19
BRANCH  18  22
ATOM     22  N   UNL A   1      28.041  29.327  22.362  1.00  0.00     0.066 N 
ATOM     23  O   UNL A   1      28.074  29.916  21.269  1.00  0.00    -0.258 OA
ATOM     24  O   UNL A   1      27.100  29.406  23.166  1.00  0.00    -0.258 OA
ENDBRANCH  18  22
ENDBRANCH  12  13
ENDBRANCH   4   7
ENDBRANCH   2   3
ENDBRANCH   1   2
BRANCH   1  25
ATOM     25  C   UNL A   1      37.272  20.406  24.950  1.00  0.00     0.023 C 
BRANCH  25  26
ATOM     26  C   UNL A   1      38.608  20.817  25.560  1.00  0.00     0.116 C 
BRANCH  26  27
ATOM     27  N   UNL A   1      39.569  19.726  25.612  1.00  0.00    -0.352 N 
ATOM     28  C   UNL A   1      40.885  19.749  26.009  1.00  0.00     0.251 C 
ATOM     29  H   UNL A   1      39.230  18.848  25.324  1.00  0.00     0.163 HD
ATOM     30  O   UNL A   1      41.593  18.758  25.865  1.00  0.00    -0.269 OA
BRANCH  28  31
ATOM     31  C   UNL A   1      41.453  20.989  26.578  1.00  0.00     0.039 A 
ATOM     32  C   UNL A   1      41.974  21.952  25.712  1.00  0.00     0.014 A 
ATOM     33  C   UNL A   1      41.448  21.210  27.958  1.00  0.00     0.014 A 
ATOM     34  C   UNL A   1      42.424  23.170  26.224  1.00  0.00     0.010 A 
ATOM     35  C   UNL A   1      41.824  22.452  28.459  1.00  0.00     0.010 A 
ATOM     36  C   UNL A   1      42.315  23.445  27.597  1.00  0.00    -0.014 A 
BRANCH  36  37
ATOM     37  C   UNL A   1      42.703  24.766  28.151  1.00  0.00     0.031 A 
ATOM     38  C   UNL A   1      41.662  25.831  28.366  1.00  0.00     0.074 A 
ATOM     39  C   UNL A   1      44.000  25.032  28.398  1.00  0.00     0.049 A 
ATOM     40  N   UNL A   1      41.815  27.062  28.784  1.00  0.00    -0.248 NA
ATOM     41  C   UNL A   1      40.270  25.474  28.043  1.00  0.00     0.031 C 
ATOM     42  C   UNL A   1      45.112  24.101  28.195  1.00  0.00     0.029 A 
ATOM     43  N   UNL A   1      44.605  26.171  28.869  1.00  0.00    -0.354 N 
ATOM     44  C   UNL A   1      40.547  27.629  28.757  1.00  0.00     0.074 A 
ATOM     45  C   UNL A   1      39.646  26.626  28.235  1.00  0.00     0.031 C 
ATOM     46  C   UNL A   1      46.257  24.695  28.567  1.00  0.00     0.029 A 
ATOM     47  C   UNL A   1      45.968  26.060  28.995  1.00  0.00     0.049 A 
ATOM     48  H   UNL A   1      44.107  26.990  29.097  1.00  0.00     0.167 HD
ATOM     49  C   UNL A   1      40.163  28.867  29.149  1.00  0.00     0.031 A 
ATOM     50  C   UNL A   1      46.884  26.958  29.403  1.00  0.00     0.031 A 
ATOM     51  C   UNL A   1      41.058  29.861  29.680  1.00  0.00     0.049 A 
ATOM     52  C   UNL A   1      46.435  28.331  29.817  1.00  0.00     0.074 A 
ATOM     53  C   UNL A   1      40.754  31.123  30.162  1.00  0.00     0.029 A 
ATOM     54  N   UNL A   1      42.430  29.708  29.794  1.00  0.00    -0.354 N 
ATOM     55  N   UNL A   1      45.222  28.826  29.854  1.00  0.00    -0.248 NA
ATOM     56  C   UNL A   1      47.481  29.264  30.256  1.00  0.00     0.031 C 
ATOM     57  C   UNL A   1      41.952  31.753  30.517  1.00  0.00     0.029 A 
ATOM     58  C   UNL A   1      42.993  30.862  30.312  1.00  0.00     0.049 A 
ATOM     59  H   UNL A   1      42.932  28.897  29.542  1.00  0.00     0.167 HD
ATOM     60  C   UNL A   1      45.356  30.118  30.348  1.00  0.00     0.074 A 
ATOM     61  C   UNL A   1      46.766  30.322  30.611  1.00  0.00     0.031 C 
ATOM     62  C   UNL A   1      44.397  31.050  30.568  1.00  0.00     0.031 A 
BRANCH  49  63
ATOM     63  C   UNL A   1      38.707  29.217  29.010  1.00  0.00    -0.014 A 
ATOM     64  C   UNL A   1      37.819  29.082  30.089  1.00  0.00     0.009 A 
ATOM     65  C   UNL A   1      38.224  29.720  27.793  1.00  0.00     0.009 A 
ATOM     66  C   UNL A   1      36.468  29.405  29.940  1.00  0.00     0.001 A 
ATOM     67  C   UNL A   1      36.880  30.073  27.655  1.00  0.00     0.001 A 
ATOM     68  C   UNL A   1      36.002  29.906  28.724  1.00  0.00     0.000 A 
ENDBRANCH  49  63
BRANCH  50  69
ATOM     69  C   UNL A   1      48.323  26.584  29.457  1.00  0.00    -0.014 A 
ATOM     70  C   UNL A   1      48.856  25.975  30.604  1.00  0.00     0.009 A 
ATOM     71  C   UNL A   1      49.172  26.844  28.370  1.00  0.00     0.009 A 
ATOM     72  C   UNL A   1      50.215  25.661  30.671  1.00  0.00     0.001 A 
ATOM     73  C   UNL A   1      50.525  26.501  28.429  1.00  0.00     0.001 A 
ATOM     74  C   UNL A   1      51.047  25.920  29.583  1.00  0.00     0.000 A 
ENDBRANCH  50  69
BRANCH  62  75
ATOM     75  C   UNL A   1      44.835  32.363  31.154  1.00  0.00    -0.014 A 
ATOM     76  C   UNL A   1      45.180  33.451  30.337  1.00  0.00     0.009 A 
ATOM     77  C   UNL A   1      44.862  32.525  32.548  1.00  0.00     0.009 A 
ATOM     78  C   UNL A   1      45.578  34.662  30.905  1.00  0.00     0.001 A 
ATOM     79  C   UNL A   1      45.230  33.746  33.114  1.00  0.00     0.001 A 
ATOM     80  C   UNL A   1      45.596  34.811  32.292  1.00  0.00     0.000 A 
ENDBRANCH  62  75
ENDBRANCH  36  37
ENDBRANCH  28  31
ENDBRANCH  26  27
ENDBRANCH  25  26
ENDBRANCH   1  25
TORSDOF 14
ENDMDL
MODEL 2
REMARK VINA RESULT:     -11.6      0.345      5.998
REMARK SMILES C[C@]1(C(=O)NCCCCNC(=O)c2ccc(-c3c4nc(c(-c5ccccc5)c5ccc([nH]5)c(-c5ccccc5)c5nc(c(-c6ccccc6)c6ccc3[nH]6)C=C5)C=C4)cc2)CCN(c2ccc([N+](=O)[O-])c(N)n2)C1
REMARK SMILES IDX 7 1 6 2 5 3 3 4 4 5 2 7 1 8 61 9 74 10 62 11 63 12 64 13
REMARK SMILES IDX 65 14 73 15 66 16 71 17 67 18 72 19 68 22 69 23 70 24 8 25
REMARK SMILES IDX 9 26 10 27 11 28 12 30 13 31 14 32 60 33 15 34 59 35 16 36
REMARK SMILES IDX 17 37 18 38 53 39 19 40 58 41 52 42 54 43 20 44 57 45 51 46
REMARK SMILES IDX 50 47 21 49 43 50 28 51 42 52 29 53 32 54 41 55 55 56 30 57
REMARK SMILES IDX 31 58 40 60 56 61 33 62 22 63 23 64 27 65 24 66 26 67 25 68
REMARK SMILES IDX 44 69 45 70 49 71 46 72 48 73 47 74 34 75 35 76 39 77 36 78
REMARK SMILES IDX 38 79 37 80
REMARK H PARENT 5 6 72 20 72 21 10 29 54 48 32 59
REMARK Flexibility Score: inf
ROOT
ATOM      1  C   UNL A   1      36.244  21.469  24.548  1.00  0.00     0.023 C 
ENDROOT
BRANCH   1   2
ATOM      2  C   UNL A   1      35.498  22.070  25.739  1.00  0.00     0.116 C 
BRANCH   2   3
ATOM      3  N   UNL A   1      34.057  22.035  25.545  1.00  0.00    -0.356 N 
ATOM      4  C   UNL A   1      33.173  22.987  25.134  1.00  0.00     0.227 C 
ATOM      5  O   UNL A   1      31.990  22.637  25.083  1.00  0.00    -0.274 OA
ATOM      6  H   UNL A   1      33.645  21.164  25.749  1.00  0.00     0.163 HD
BRANCH   4   7
ATOM      7  C   UNL A   1      33.606  24.403  24.730  1.00  0.00     0.066 C 
ATOM      8  C   UNL A   1      34.783  24.858  25.615  1.00  0.00     0.024 C 
ATOM      9  C   UNL A   1      34.027  24.501  23.254  1.00  0.00     0.040 C 
ATOM     10  C   UNL A   1      32.441  25.389  24.909  1.00  0.00     0.134 C 
ATOM     11  C   UNL A   1      33.427  25.797  22.719  1.00  0.00     0.119 C 
ATOM     12  N   UNL A   1      32.477  26.231  23.723  1.00  0.00    -0.355 N 
BRANCH  12  13
ATOM     13  C   UNL A   1      31.397  27.015  23.400  1.00  0.00     0.131 A 
ATOM     14  C   UNL A   1      30.119  26.613  23.771  1.00  0.00     0.054 A 
ATOM     15  N   UNL A   1      31.597  28.162  22.712  1.00  0.00    -0.207 NA
ATOM     16  C   UNL A   1      29.024  27.405  23.442  1.00  0.00     0.093 A 
ATOM     17  C   UNL A   1      30.537  28.922  22.345  1.00  0.00     0.204 A 
ATOM     18  C   UNL A   1      29.239  28.577  22.713  1.00  0.00     0.311 A 
BRANCH  17  19
ATOM     19  N   UNL A   1      30.879  30.075  21.670  1.00  0.00    -0.378 N 
ATOM     20  H   UNL A   1      31.761  30.149  21.237  1.00  0.00     0.158 HD
ATOM     21  H   UNL A   1      30.243  30.825  21.620  1.00  0.00     0.158 HD
ENDBRANCH  17  19
BRANCH  18  22
ATOM     22  N   UNL A   1      28.090  29.389  22.332  1.00  0.00     0.066 N 
ATOM     23  O   UNL A   1      28.117  29.923  21.211  1.00  0.00    -0.258 OA
ATOM     24  O   UNL A   1      27.171  29.540  23.151  1.00  0.00    -0.258 OA
ENDBRANCH  18  22
ENDBRANCH  12  13
ENDBRANCH   4   7
ENDBRANCH   2   3
ENDBRANCH   1   2
BRANCH   1  25
ATOM     25  C   UNL A   1      37.220  20.347  24.902  1.00  0.00     0.023 C 
BRANCH  25  26
ATOM     26  C   UNL A   1      38.523  20.801  25.551  1.00  0.00     0.116 C 
BRANCH  26  27
ATOM     27  N   UNL A   1      39.526  19.749  25.611  1.00  0.00    -0.352 N 
ATOM     28  C   UNL A   1      40.838  19.825  26.011  1.00  0.00     0.251 C 
ATOM     29  H   UNL A   1      39.222  18.856  25.326  1.00  0.00     0.163 HD
ATOM     30  O   UNL A   1      41.585  18.861  25.874  1.00  0.00    -0.269 OA
BRANCH  28  31
ATOM     31  C   UNL A   1      41.357  21.088  26.576  1.00  0.00     0.039 A 
ATOM     32  C   UNL A   1      41.906  22.038  25.712  1.00  0.00     0.014 A 
ATOM     33  C   UNL A   1      41.277  21.344  27.947  1.00  0.00     0.014 A 
ATOM     34  C   UNL A   1      42.309  23.277  26.214  1.00  0.00     0.010 A 
ATOM     35  C   UNL A   1      41.607  22.605  28.434  1.00  0.00     0.010 A 
ATOM     36  C   UNL A   1      42.126  23.584  27.573  1.00  0.00    -0.014 A 
BRANCH  36  37
ATOM     37  C   UNL A   1      42.462  24.926  28.111  1.00  0.00     0.031 A 
ATOM     38  C   UNL A   1      43.873  25.243  28.525  1.00  0.00     0.074 A 
ATOM     39  C   UNL A   1      41.485  25.836  28.290  1.00  0.00     0.049 A 
ATOM     40  N   UNL A   1      44.347  26.335  29.068  1.00  0.00    -0.248 NA
ATOM     41  C   UNL A   1      44.877  24.185  28.326  1.00  0.00     0.031 C 
ATOM     42  C   UNL A   1      40.070  25.640  27.968  1.00  0.00     0.029 A 
ATOM     43  N   UNL A   1      41.536  27.112  28.797  1.00  0.00    -0.354 N 
ATOM     44  C   UNL A   1      45.696  26.089  29.292  1.00  0.00     0.074 A 
ATOM     45  C   UNL A   1      45.954  24.729  28.873  1.00  0.00     0.031 C 
ATOM     46  C   UNL A   1      39.394  26.764  28.255  1.00  0.00     0.029 A 
ATOM     47  C   UNL A   1      40.316  27.743  28.820  1.00  0.00     0.049 A 
ATOM     48  H   UNL A   1      42.368  27.534  29.111  1.00  0.00     0.167 HD
ATOM     49  C   UNL A   1      46.641  26.926  29.784  1.00  0.00     0.031 A 
ATOM     50  C   UNL A   1      39.976  28.971  29.254  1.00  0.00     0.031 A 
ATOM     51  C   UNL A   1      46.387  28.282  30.191  1.00  0.00     0.049 A 
ATOM     52  C   UNL A   1      41.040  29.875  29.812  1.00  0.00     0.074 A 
ATOM     53  C   UNL A   1      47.291  29.227  30.644  1.00  0.00     0.029 A 
ATOM     54  N   UNL A   1      45.140  28.884  30.196  1.00  0.00    -0.354 N 
ATOM     55  N   UNL A   1      42.325  29.652  29.948  1.00  0.00    -0.248 NA
ATOM     56  C   UNL A   1      40.608  31.204  30.265  1.00  0.00     0.031 C 
ATOM     57  C   UNL A   1      46.579  30.386  30.976  1.00  0.00     0.029 A 
ATOM     58  C   UNL A   1      45.243  30.181  30.672  1.00  0.00     0.049 A 
ATOM     59  H   UNL A   1      44.302  28.454  29.904  1.00  0.00     0.167 HD
ATOM     60  C   UNL A   1      42.858  30.821  30.475  1.00  0.00     0.074 A 
ATOM     61  C   UNL A   1      41.760  31.756  30.617  1.00  0.00     0.031 C 
ATOM     62  C   UNL A   1      44.142  31.098  30.808  1.00  0.00     0.031 A 
BRANCH  49  63
ATOM     63  C   UNL A   1      48.039  26.388  29.917  1.00  0.00    -0.014 A 
ATOM     64  C   UNL A   1      48.974  26.523  28.878  1.00  0.00     0.009 A 
ATOM     65  C   UNL A   1      48.437  25.768  31.112  1.00  0.00     0.009 A 
ATOM     66  C   UNL A   1      50.266  26.013  29.017  1.00  0.00     0.001 A 
ATOM     67  C   UNL A   1      49.740  25.287  31.261  1.00  0.00     0.001 A 
ATOM     68  C   UNL A   1      50.649  25.400  30.211  1.00  0.00     0.000 A 
ENDBRANCH  49  63
BRANCH  50  69
ATOM     69  C   UNL A   1      38.565  29.431  29.164  1.00  0.00    -0.014 A 
ATOM     70  C   UNL A   1      38.094  30.058  28.000  1.00  0.00     0.009 A 
ATOM     71  C   UNL A   1      37.685  29.256  30.243  1.00  0.00     0.009 A 
ATOM     72  C   UNL A   1      36.780  30.526  27.930  1.00  0.00     0.001 A 
ATOM     73  C   UNL A   1      36.362  29.698  30.159  1.00  0.00     0.001 A 
ATOM     74  C   UNL A   1      35.914  30.342  29.007  1.00  0.00     0.000 A 
ENDBRANCH  50  69
BRANCH  62  75
ATOM     75  C   UNL A   1      44.437  32.479  31.324  1.00  0.00    -0.014 A 
ATOM     76  C   UNL A   1      44.414  32.767  32.697  1.00  0.00     0.009 A 
ATOM     77  C   UNL A   1      44.784  33.497  30.421  1.00  0.00     0.009 A 
ATOM     78  C   UNL A   1      44.698  34.056  33.152  1.00  0.00     0.001 A 
ATOM     79  C   UNL A   1      45.098  34.775  30.880  1.00  0.00     0.001 A 
ATOM     80  C   UNL A   1      45.046  35.057  32.245  1.00  0.00     0.000 A 
ENDBRANCH  62  75
ENDBRANCH  36  37
ENDBRANCH  28  31
ENDBRANCH  26  27
ENDBRANCH  25  26
ENDBRANCH   1  25
TORSDOF 14
ENDMDL
MODEL 3
REMARK VINA RESULT:     -11.6      2.384      8.101
REMARK SMILES C[C@]1(C(=O)NCCCCNC(=O)c2ccc(-c3c4nc(c(-c5ccccc5)c5ccc([nH]5)c(-c5ccccc5)c5nc(c(-c6ccccc6)c6ccc3[nH]6)C=C5)C=C4)cc2)CCN(c2ccc([N+](=O)[O-])c(N)n2)C1
REMARK SMILES IDX 7 1 6 2 5 3 3 4 4 5 2 7 1 8 61 9 74 10 62 11 63 12 64 13
REMARK SMILES IDX 65 14 73 15 66 16 71 17 67 18 72 19 68 22 69 23 70 24 8 25
REMARK SMILES IDX 9 26 10 27 11 28 12 30 13 31 14 32 60 33 15 34 59 35 16 36
REMARK SMILES IDX 17 37 18 38 53 39 19 40 58 41 52 42 54 43 20 44 57 45 51 46
REMARK SMILES IDX 50 47 21 49 43 50 28 51 42 52 29 53 32 54 41 55 55 56 30 57
REMARK SMILES IDX 31 58 40 60 56 61 33 62 22 63 23 64 27 65 24 66 26 67 25 68
REMARK SMILES IDX 44 69 45 70 49 71 46 72 48 73 47 74 34 75 35 76 39 77 36 78
REMARK SMILES IDX 38 79 37 80
REMARK H PARENT 5 6 72 20 72 21 10 29 54 48 32 59
REMARK Flexibility Score: inf
ROOT
ATOM      1  C   UNL A   1      31.503  28.009  25.887  1.00  0.00     0.023 C 
ENDROOT
BRANCH   1   2
ATOM      2  C   UNL A   1      30.899  26.624  25.661  1.00  0.00     0.116 C 
BRANCH   2   3
ATOM      3  N   UNL A   1      31.220  26.104  24.341  1.00  0.00    -0.356 N 
ATOM      4  C   UNL A   1      32.111  25.160  23.929  1.00  0.00     0.227 C 
ATOM      5  O   UNL A   1      32.151  24.950  22.712  1.00  0.00    -0.274 OA
ATOM      6  H   UNL A   1      30.697  26.510  23.612  1.00  0.00     0.163 HD
BRANCH   4   7
ATOM      7  C   UNL A   1      33.000  24.376  24.904  1.00  0.00     0.066 C 
ATOM      8  C   UNL A   1      34.157  25.273  25.388  1.00  0.00     0.024 C 
ATOM      9  C   UNL A   1      32.229  23.855  26.129  1.00  0.00     0.040 C 
ATOM     10  C   UNL A   1      33.589  23.137  24.212  1.00  0.00     0.134 C 
ATOM     11  C   UNL A   1      32.719  22.432  26.376  1.00  0.00     0.119 C 
ATOM     12  N   UNL A   1      33.470  22.068  25.191  1.00  0.00    -0.355 N 
BRANCH  12  13
ATOM     13  C   UNL A   1      33.610  20.758  24.803  1.00  0.00     0.131 A 
ATOM     14  C   UNL A   1      32.549  20.104  24.187  1.00  0.00     0.054 A 
ATOM     15  N   UNL A   1      34.780  20.122  25.043  1.00  0.00    -0.207 NA
ATOM     16  C   UNL A   1      32.691  18.777  23.797  1.00  0.00     0.093 A 
ATOM     17  C   UNL A   1      34.917  18.815  24.708  1.00  0.00     0.204 A 
ATOM     18  C   UNL A   1      33.894  18.123  24.067  1.00  0.00     0.311 A 
BRANCH  17  19
ATOM     19  N   UNL A   1      36.164  18.294  24.984  1.00  0.00    -0.378 N 
ATOM     20  H   UNL A   1      36.365  17.355  24.766  1.00  0.00     0.158 HD
ATOM     21  H   UNL A   1      36.854  18.861  25.400  1.00  0.00     0.158 HD
ENDBRANCH  17  19
BRANCH  18  22
ATOM     22  N   UNL A   1      34.031  16.720  23.696  1.00  0.00     0.066 N 
ATOM     23  O   UNL A   1      34.102  15.891  24.618  1.00  0.00    -0.258 OA
ATOM     24  O   UNL A   1      34.111  16.429  22.493  1.00  0.00    -0.258 OA
ENDBRANCH  18  22
ENDBRANCH  12  13
ENDBRANCH   4   7
ENDBRANCH   2   3
ENDBRANCH   1   2
BRANCH   1  25
ATOM     25  C   UNL A   1      32.134  28.218  27.264  1.00  0.00     0.023 C 
BRANCH  25  26
ATOM     26  C   UNL A   1      33.532  28.824  27.251  1.00  0.00     0.116 C 
BRANCH  26  27
ATOM     27  N   UNL A   1      33.561  30.200  27.724  1.00  0.00    -0.352 N 
ATOM     28  C   UNL A   1      34.576  30.878  28.356  1.00  0.00     0.251 C 
ATOM     29  H   UNL A   1      32.738  30.718  27.570  1.00  0.00     0.163 HD
ATOM     30  O   UNL A   1      34.384  32.002  28.807  1.00  0.00    -0.269 OA
BRANCH  28  31
ATOM     31  C   UNL A   1      35.894  30.230  28.520  1.00  0.00     0.039 A 
ATOM     32  C   UNL A   1      36.804  30.273  27.461  1.00  0.00     0.014 A 
ATOM     33  C   UNL A   1      36.239  29.607  29.722  1.00  0.00     0.014 A 
ATOM     34  C   UNL A   1      38.088  29.754  27.633  1.00  0.00     0.010 A 
ATOM     35  C   UNL A   1      37.542  29.160  29.918  1.00  0.00     0.010 A 
ATOM     36  C   UNL A   1      38.479  29.229  28.876  1.00  0.00    -0.014 A 
BRANCH  36  37
ATOM     37  C   UNL A   1      39.867  28.756  29.109  1.00  0.00     0.031 A 
ATOM     38  C   UNL A   1      40.888  29.677  29.718  1.00  0.00     0.074 A 
ATOM     39  C   UNL A   1      40.225  27.519  28.711  1.00  0.00     0.049 A 
ATOM     40  N   UNL A   1      42.160  29.463  29.944  1.00  0.00    -0.248 NA
ATOM     41  C   UNL A   1      40.427  31.022  30.098  1.00  0.00     0.031 C 
ATOM     42  C   UNL A   1      39.341  26.543  28.071  1.00  0.00     0.029 A 
ATOM     43  N   UNL A   1      41.436  26.874  28.781  1.00  0.00    -0.354 N 
ATOM     44  C   UNL A   1      42.652  30.650  30.474  1.00  0.00     0.074 A 
ATOM     45  C   UNL A   1      41.556  31.594  30.488  1.00  0.00     0.031 C 
ATOM     46  C   UNL A   1      40.030  25.414  27.835  1.00  0.00     0.029 A 
ATOM     47  C   UNL A   1      41.412  25.601  28.267  1.00  0.00     0.049 A 
ATOM     48  H   UNL A   1      42.244  27.286  29.164  1.00  0.00     0.167 HD
ATOM     49  C   UNL A   1      43.899  30.925  30.926  1.00  0.00     0.031 A 
ATOM     50  C   UNL A   1      42.393  24.687  28.151  1.00  0.00     0.031 A 
ATOM     51  C   UNL A   1      44.986  29.983  30.922  1.00  0.00     0.049 A 
ATOM     52  C   UNL A   1      43.772  25.022  28.645  1.00  0.00     0.074 A 
ATOM     53  C   UNL A   1      46.269  30.148  31.415  1.00  0.00     0.029 A 
ATOM     54  N   UNL A   1      44.919  28.703  30.397  1.00  0.00    -0.354 N 
ATOM     55  N   UNL A   1      44.202  26.124  29.210  1.00  0.00    -0.248 NA
ATOM     56  C   UNL A   1      44.799  23.982  28.494  1.00  0.00     0.031 C 
ATOM     57  C   UNL A   1      46.995  28.984  31.137  1.00  0.00     0.029 A 
ATOM     58  C   UNL A   1      46.147  28.074  30.527  1.00  0.00     0.049 A 
ATOM     59  H   UNL A   1      44.117  28.299  29.990  1.00  0.00     0.167 HD
ATOM     60  C   UNL A   1      45.540  25.899  29.509  1.00  0.00     0.074 A 
ATOM     61  C   UNL A   1      45.845  24.550  29.077  1.00  0.00     0.031 C 
ATOM     62  C   UNL A   1      46.435  26.733  30.092  1.00  0.00     0.031 A 
BRANCH  49  63
ATOM     63  C   UNL A   1      44.153  32.309  31.456  1.00  0.00    -0.014 A 
ATOM     64  C   UNL A   1      44.118  32.579  32.834  1.00  0.00     0.009 A 
ATOM     65  C   UNL A   1      44.466  33.349  30.568  1.00  0.00     0.009 A 
ATOM     66  C   UNL A   1      44.351  33.872  33.308  1.00  0.00     0.001 A 
ATOM     67  C   UNL A   1      44.730  34.634  31.047  1.00  0.00     0.001 A 
ATOM     68  C   UNL A   1      44.662  34.897  32.414  1.00  0.00     0.000 A 
ENDBRANCH  49  63
BRANCH  50  69
ATOM     69  C   UNL A   1      42.105  23.355  27.555  1.00  0.00    -0.014 A 
ATOM     70  C   UNL A   1      41.505  22.346  28.325  1.00  0.00     0.009 A 
ATOM     71  C   UNL A   1      42.440  23.080  26.220  1.00  0.00     0.009 A 
ATOM     72  C   UNL A   1      41.271  21.083  27.778  1.00  0.00     0.001 A 
ATOM     73  C   UNL A   1      42.178  21.825  25.667  1.00  0.00     0.001 A 
ATOM     74  C   UNL A   1      41.603  20.824  26.449  1.00  0.00     0.000 A 
ENDBRANCH  50  69
BRANCH  62  75
ATOM     75  C   UNL A   1      47.820  26.199  30.330  1.00  0.00    -0.014 A 
ATOM     76  C   UNL A   1      48.784  26.186  29.311  1.00  0.00     0.009 A 
ATOM     77  C   UNL A   1      48.174  25.739  31.609  1.00  0.00     0.009 A 
ATOM     78  C   UNL A   1      50.066  25.690  29.559  1.00  0.00     0.001 A 
ATOM     79  C   UNL A   1      49.464  25.274  31.862  1.00  0.00     0.001 A 
ATOM     80  C   UNL A   1      50.407  25.241  30.836  1.00  0.00     0.000 A 
ENDBRANCH  62  75
ENDBRANCH  36  37
ENDBRANCH  28  31
ENDBRANCH  26  27
ENDBRANCH  25  26
ENDBRANCH   1  25
TORSDOF 14
ENDMDL
