MODEL 1
REMARK VINA RESULT:     -10.8      0.000      0.000
REMARK SMILES CCn1c(=O)n(CC)c2cc(C(=O)NCCCCNC(=O)c3ccc(-c4c5nc(c(-c6ccccc6)c6ccc([nH]6)c(-c6ccccc6)c6nc(c(-c7ccccc7)c7ccc4[nH]7)C=C6)C=C5)cc3)ccc21
REMARK SMILES IDX 17 1 16 2 15 3 14 4 12 5 13 6 11 8 3 9 4 10 72 11 5 12 6 13
REMARK SMILES IDX 9 14 71 15 10 16 70 17 2 18 1 19 7 20 8 21 18 22 19 23 20 24
REMARK SMILES IDX 21 26 22 27 23 28 69 29 24 30 68 31 25 32 26 33 27 34 62 35
REMARK SMILES IDX 28 36 67 37 61 38 63 39 29 40 66 41 60 42 59 43 30 45 52 46
REMARK SMILES IDX 37 47 51 48 38 49 41 50 50 51 64 52 39 53 40 54 49 56 65 57
REMARK SMILES IDX 42 58 31 59 32 60 36 61 33 62 35 63 34 64 53 65 54 66 58 67
REMARK SMILES IDX 55 68 57 69 56 70 43 71 44 72 48 73 45 74 47 75 46 76
REMARK H PARENT 14 7 19 25 63 44 41 55
REMARK Flexibility Score: inf
ROOT
ATOM      1  C   UNL A   1      39.516  32.994  33.713  1.00  0.00     0.023 C 
ENDROOT
BRANCH   1   2
ATOM      2  C   UNL A   1      39.611  32.069  34.935  1.00  0.00     0.023 C 
BRANCH   2   3
ATOM      3  C   UNL A   1      38.278  31.438  35.342  1.00  0.00     0.116 C 
BRANCH   3   4
ATOM      4  N   UNL A   1      38.090  30.164  34.676  1.00  0.00    -0.352 N 
ATOM      5  C   UNL A   1      37.449  29.807  33.517  1.00  0.00     0.251 C 
ATOM      6  O   UNL A   1      37.516  28.626  33.176  1.00  0.00    -0.269 OA
ATOM      7  H   UNL A   1      38.503  29.406  35.149  1.00  0.00     0.163 HD
BRANCH   5   8
ATOM      8  C   UNL A   1      36.741  30.776  32.630  1.00  0.00     0.042 A 
ATOM      9  N   UNL A   1      35.163  33.286  29.711  1.00  0.00    -0.292 N 
ATOM     10  C   UNL A   1      35.191  32.416  28.588  1.00  0.00     0.329 A 
ATOM     11  C   UNL A   1      35.619  32.581  30.833  1.00  0.00     0.069 A 
ATOM     12  O   UNL A   1      34.803  32.665  27.461  1.00  0.00    -0.248 OA
ATOM     13  N   UNL A   1      35.731  31.194  29.049  1.00  0.00    -0.292 N 
ATOM     14  C   UNL A   1      36.025  31.313  30.413  1.00  0.00     0.070 A 
ATOM     15  C   UNL A   1      35.666  32.932  32.162  1.00  0.00     0.029 A 
ATOM     16  C   UNL A   1      36.594  30.403  31.283  1.00  0.00     0.042 A 
ATOM     17  C   UNL A   1      36.203  32.004  33.064  1.00  0.00     0.016 A 
BRANCH   9  18
ATOM     18  C   UNL A   1      34.632  34.627  29.660  1.00  0.00     0.124 C 
ATOM     19  C   UNL A   1      33.308  34.842  30.381  1.00  0.00     0.028 C 
ENDBRANCH   9  18
BRANCH  13  20
ATOM     20  C   UNL A   1      35.806  29.983  28.269  1.00  0.00     0.124 C 
ATOM     21  C   UNL A   1      37.167  29.752  27.637  1.00  0.00     0.028 C 
ENDBRANCH  13  20
ENDBRANCH   5   8
ENDBRANCH   3   4
ENDBRANCH   2   3
ENDBRANCH   1   2
BRANCH   1  22
ATOM     22  C   UNL A   1      40.709  33.940  33.545  1.00  0.00     0.116 C 
BRANCH  22  23
ATOM     23  N   UNL A   1      40.820  34.491  32.209  1.00  0.00    -0.352 N 
ATOM     24  C   UNL A   1      40.857  33.960  30.950  1.00  0.00     0.251 C 
ATOM     25  H   UNL A   1      40.882  35.474  32.208  1.00  0.00     0.163 HD
ATOM     26  O   UNL A   1      40.795  34.766  30.017  1.00  0.00    -0.269 OA
BRANCH  24  27
ATOM     27  C   UNL A   1      41.027  32.516  30.632  1.00  0.00     0.039 A 
ATOM     28  C   UNL A   1      39.996  31.583  30.561  1.00  0.00     0.014 A 
ATOM     29  C   UNL A   1      42.353  32.061  30.480  1.00  0.00     0.014 A 
ATOM     30  C   UNL A   1      40.283  30.231  30.435  1.00  0.00     0.010 A 
ATOM     31  C   UNL A   1      42.647  30.707  30.338  1.00  0.00     0.010 A 
ATOM     32  C   UNL A   1      41.609  29.787  30.359  1.00  0.00    -0.014 A 
BRANCH  32  33
ATOM     33  C   UNL A   1      41.810  28.352  30.181  1.00  0.00     0.031 A 
ATOM     34  C   UNL A   1      42.568  27.714  31.287  1.00  0.00     0.074 A 
ATOM     35  C   UNL A   1      41.378  27.626  29.131  1.00  0.00     0.049 A 
ATOM     36  N   UNL A   1      43.755  27.209  31.220  1.00  0.00    -0.248 NA
ATOM     37  C   UNL A   1      42.011  27.774  32.646  1.00  0.00     0.031 C 
ATOM     38  C   UNL A   1      40.441  28.026  28.080  1.00  0.00     0.029 A 
ATOM     39  N   UNL A   1      41.648  26.320  28.825  1.00  0.00    -0.354 N 
ATOM     40  C   UNL A   1      44.043  26.738  32.496  1.00  0.00     0.074 A 
ATOM     41  C   UNL A   1      42.993  27.219  33.358  1.00  0.00     0.031 C 
ATOM     42  C   UNL A   1      40.043  26.929  27.392  1.00  0.00     0.029 A 
ATOM     43  C   UNL A   1      40.829  25.790  27.838  1.00  0.00     0.049 A 
ATOM     44  H   UNL A   1      42.361  25.803  29.264  1.00  0.00     0.167 HD
ATOM     45  C   UNL A   1      45.016  25.811  32.699  1.00  0.00     0.031 A 
ATOM     46  C   UNL A   1      40.796  24.503  27.419  1.00  0.00     0.031 A 
ATOM     47  C   UNL A   1      45.882  25.684  31.559  1.00  0.00     0.049 A 
ATOM     48  C   UNL A   1      42.108  23.891  27.700  1.00  0.00     0.074 A 
ATOM     49  C   UNL A   1      46.967  26.361  31.050  1.00  0.00     0.029 A 
ATOM     50  N   UNL A   1      45.383  24.892  30.558  1.00  0.00    -0.354 N 
ATOM     51  N   UNL A   1      43.201  24.243  27.088  1.00  0.00    -0.248 NA
ATOM     52  C   UNL A   1      42.288  23.057  28.882  1.00  0.00     0.031 C 
ATOM     53  C   UNL A   1      46.980  26.094  29.649  1.00  0.00     0.029 A 
ATOM     54  C   UNL A   1      45.930  25.229  29.346  1.00  0.00     0.049 A 
ATOM     55  H   UNL A   1      44.721  24.177  30.691  1.00  0.00     0.167 HD
ATOM     56  C   UNL A   1      44.187  24.061  28.035  1.00  0.00     0.074 A 
ATOM     57  C   UNL A   1      43.612  23.162  29.026  1.00  0.00     0.031 C 
ATOM     58  C   UNL A   1      45.252  24.907  28.108  1.00  0.00     0.031 A 
BRANCH  45  59
ATOM     59  C   UNL A   1      44.920  24.722  33.737  1.00  0.00    -0.014 A 
ATOM     60  C   UNL A   1      43.970  23.684  33.671  1.00  0.00     0.009 A 
ATOM     61  C   UNL A   1      45.975  24.554  34.654  1.00  0.00     0.009 A 
ATOM     62  C   UNL A   1      44.059  22.542  34.474  1.00  0.00     0.001 A 
ATOM     63  C   UNL A   1      46.084  23.396  35.437  1.00  0.00     0.001 A 
ATOM     64  C   UNL A   1      45.127  22.391  35.344  1.00  0.00     0.000 A 
ENDBRANCH  45  59
BRANCH  46  65
ATOM     65  C   UNL A   1      39.647  23.673  27.010  1.00  0.00    -0.014 A 
ATOM     66  C   UNL A   1      39.867  22.345  26.605  1.00  0.00     0.009 A 
ATOM     67  C   UNL A   1      38.418  24.269  26.683  1.00  0.00     0.009 A 
ATOM     68  C   UNL A   1      38.920  21.663  25.834  1.00  0.00     0.001 A 
ATOM     69  C   UNL A   1      37.470  23.584  25.913  1.00  0.00     0.001 A 
ATOM     70  C   UNL A   1      37.733  22.291  25.469  1.00  0.00     0.000 A 
ENDBRANCH  46  65
BRANCH  58  71
ATOM     71  C   UNL A   1      45.605  25.701  26.880  1.00  0.00    -0.014 A 
ATOM     72  C   UNL A   1      46.572  25.169  26.015  1.00  0.00     0.009 A 
ATOM     73  C   UNL A   1      45.086  26.976  26.599  1.00  0.00     0.009 A 
ATOM     74  C   UNL A   1      47.022  25.892  24.909  1.00  0.00     0.001 A 
ATOM     75  C   UNL A   1      45.518  27.690  25.476  1.00  0.00     0.001 A 
ATOM     76  C   UNL A   1      46.493  27.151  24.639  1.00  0.00     0.000 A 
ENDBRANCH  58  71
ENDBRANCH  32  33
ENDBRANCH  24  27
ENDBRANCH  22  23
ENDBRANCH   1  22
TORSDOF 13
ENDMDL
MODEL 2
REMARK VINA RESULT:     -10.8      4.058      9.731
REMARK SMILES CCn1c(=O)n(CC)c2cc(C(=O)NCCCCNC(=O)c3ccc(-c4c5nc(c(-c6ccccc6)c6ccc([nH]6)c(-c6ccccc6)c6nc(c(-c7ccccc7)c7ccc4[nH]7)C=C6)C=C5)cc3)ccc21
REMARK SMILES IDX 17 1 16 2 15 3 14 4 12 5 13 6 11 8 3 9 4 10 72 11 5 12 6 13
REMARK SMILES IDX 9 14 71 15 10 16 70 17 2 18 1 19 7 20 8 21 18 22 19 23 20 24
REMARK SMILES IDX 21 26 22 27 23 28 69 29 24 30 68 31 25 32 26 33 27 34 62 35
REMARK SMILES IDX 28 36 67 37 61 38 63 39 29 40 66 41 60 42 59 43 30 45 52 46
REMARK SMILES IDX 37 47 51 48 38 49 41 50 50 51 64 52 39 53 40 54 49 56 65 57
REMARK SMILES IDX 42 58 31 59 32 60 36 61 33 62 35 63 34 64 53 65 54 66 58 67
REMARK SMILES IDX 55 68 57 69 56 70 43 71 44 72 48 73 45 74 47 75 46 76
REMARK H PARENT 14 7 19 25 63 44 41 55
REMARK Flexibility Score: inf
ROOT
ATOM      1  C   UNL A   1      42.190  20.158  27.219  1.00  0.00     0.023 C 
ENDROOT
BRANCH   1   2
ATOM      2  C   UNL A   1      41.135  21.247  27.464  1.00  0.00     0.023 C 
BRANCH   2   3
ATOM      3  C   UNL A   1      40.179  21.460  26.289  1.00  0.00     0.116 C 
BRANCH   3   4
ATOM      4  N   UNL A   1      39.618  22.797  26.320  1.00  0.00    -0.352 N 
ATOM      5  C   UNL A   1      38.354  23.280  26.091  1.00  0.00     0.251 C 
ATOM      6  O   UNL A   1      38.173  24.485  26.258  1.00  0.00    -0.269 OA
ATOM      7  H   UNL A   1      40.272  23.494  26.553  1.00  0.00     0.163 HD
BRANCH   5   8
ATOM      8  C   UNL A   1      37.195  22.419  25.715  1.00  0.00     0.042 A 
ATOM      9  N   UNL A   1      33.682  20.254  25.179  1.00  0.00    -0.292 N 
ATOM     10  C   UNL A   1      32.722  21.239  25.534  1.00  0.00     0.329 A 
ATOM     11  C   UNL A   1      34.958  20.830  25.248  1.00  0.00     0.069 A 
ATOM     12  O   UNL A   1      31.511  21.117  25.520  1.00  0.00    -0.248 OA
ATOM     13  N   UNL A   1      33.454  22.399  25.876  1.00  0.00    -0.292 N 
ATOM     14  C   UNL A   1      34.822  22.131  25.735  1.00  0.00     0.070 A 
ATOM     15  C   UNL A   1      36.192  20.337  24.888  1.00  0.00     0.029 A 
ATOM     16  C   UNL A   1      35.916  22.936  25.984  1.00  0.00     0.042 A 
ATOM     17  C   UNL A   1      37.308  21.157  25.098  1.00  0.00     0.016 A 
BRANCH   9  18
ATOM     18  C   UNL A   1      33.327  18.932  24.722  1.00  0.00     0.124 C 
ATOM     19  C   UNL A   1      32.585  18.869  23.394  1.00  0.00     0.028 C 
ENDBRANCH   9  18
BRANCH  13  20
ATOM     20  C   UNL A   1      32.868  23.686  26.161  1.00  0.00     0.124 C 
ATOM     21  C   UNL A   1      32.605  24.520  24.920  1.00  0.00     0.028 C 
ENDBRANCH  13  20
ENDBRANCH   5   8
ENDBRANCH   3   4
ENDBRANCH   2   3
ENDBRANCH   1   2
BRANCH   1  22
ATOM     22  C   UNL A   1      42.160  19.559  25.808  1.00  0.00     0.116 C 
BRANCH  22  23
ATOM     23  N   UNL A   1      43.419  19.691  25.103  1.00  0.00    -0.352 N 
ATOM     24  C   UNL A   1      44.392  20.650  25.044  1.00  0.00     0.251 C 
ATOM     25  H   UNL A   1      43.621  18.911  24.537  1.00  0.00     0.163 HD
ATOM     26  O   UNL A   1      45.425  20.340  24.444  1.00  0.00    -0.269 OA
BRANCH  24  27
ATOM     27  C   UNL A   1      44.270  22.031  25.583  1.00  0.00     0.039 A 
ATOM     28  C   UNL A   1      44.879  22.496  26.745  1.00  0.00     0.014 A 
ATOM     29  C   UNL A   1      43.394  22.896  24.895  1.00  0.00     0.014 A 
ATOM     30  C   UNL A   1      44.555  23.746  27.254  1.00  0.00     0.010 A 
ATOM     31  C   UNL A   1      43.076  24.158  25.393  1.00  0.00     0.010 A 
ATOM     32  C   UNL A   1      43.627  24.564  26.599  1.00  0.00    -0.014 A 
BRANCH  32  33
ATOM     33  C   UNL A   1      43.386  25.880  27.184  1.00  0.00     0.031 A 
ATOM     34  C   UNL A   1      44.478  26.855  26.929  1.00  0.00     0.074 A 
ATOM     35  C   UNL A   1      42.301  26.231  27.902  1.00  0.00     0.049 A 
ATOM     36  N   UNL A   1      45.287  27.355  27.803  1.00  0.00    -0.248 NA
ATOM     37  C   UNL A   1      44.801  27.198  25.537  1.00  0.00     0.031 C 
ATOM     38  C   UNL A   1      41.047  25.493  28.062  1.00  0.00     0.029 A 
ATOM     39  N   UNL A   1      42.072  27.386  28.597  1.00  0.00    -0.354 N 
ATOM     40  C   UNL A   1      46.130  28.208  27.099  1.00  0.00     0.074 A 
ATOM     41  C   UNL A   1      45.870  27.981  25.700  1.00  0.00     0.031 C 
ATOM     42  C   UNL A   1      40.113  26.309  28.606  1.00  0.00     0.029 A 
ATOM     43  C   UNL A   1      40.752  27.556  28.991  1.00  0.00     0.049 A 
ATOM     44  H   UNL A   1      42.780  28.038  28.801  1.00  0.00     0.167 HD
ATOM     45  C   UNL A   1      46.829  29.186  27.734  1.00  0.00     0.031 A 
ATOM     46  C   UNL A   1      40.221  28.648  29.589  1.00  0.00     0.031 A 
ATOM     47  C   UNL A   1      46.862  28.984  29.157  1.00  0.00     0.049 A 
ATOM     48  C   UNL A   1      41.302  29.362  30.293  1.00  0.00     0.074 A 
ATOM     49  C   UNL A   1      47.591  28.220  30.040  1.00  0.00     0.029 A 
ATOM     50  N   UNL A   1      45.735  29.409  29.813  1.00  0.00    -0.354 N 
ATOM     51  N   UNL A   1      41.912  28.877  31.335  1.00  0.00    -0.248 NA
ATOM     52  C   UNL A   1      41.929  30.527  29.680  1.00  0.00     0.031 C 
ATOM     53  C   UNL A   1      46.764  28.042  31.188  1.00  0.00     0.029 A 
ATOM     54  C   UNL A   1      45.570  28.734  30.994  1.00  0.00     0.049 A 
ATOM     55  H   UNL A   1      45.127  30.107  29.479  1.00  0.00     0.167 HD
ATOM     56  C   UNL A   1      43.193  29.377  31.233  1.00  0.00     0.074 A 
ATOM     57  C   UNL A   1      43.094  30.518  30.334  1.00  0.00     0.031 C 
ATOM     58  C   UNL A   1      44.267  28.633  31.619  1.00  0.00     0.031 A 
BRANCH  45  59
ATOM     59  C   UNL A   1      47.101  30.538  27.127  1.00  0.00    -0.014 A 
ATOM     60  C   UNL A   1      46.076  31.427  26.747  1.00  0.00     0.009 A 
ATOM     61  C   UNL A   1      48.403  31.068  27.190  1.00  0.00     0.009 A 
ATOM     62  C   UNL A   1      46.329  32.768  26.443  1.00  0.00     0.001 A 
ATOM     63  C   UNL A   1      48.655  32.420  26.917  1.00  0.00     0.001 A 
ATOM     64  C   UNL A   1      47.617  33.269  26.545  1.00  0.00     0.000 A 
ENDBRANCH  45  59
BRANCH  46  65
ATOM     65  C   UNL A   1      38.895  29.271  29.410  1.00  0.00    -0.014 A 
ATOM     66  C   UNL A   1      37.950  29.189  30.447  1.00  0.00     0.009 A 
ATOM     67  C   UNL A   1      38.440  29.623  28.128  1.00  0.00     0.009 A 
ATOM     68  C   UNL A   1      36.588  29.378  30.195  1.00  0.00     0.001 A 
ATOM     69  C   UNL A   1      37.077  29.814  27.877  1.00  0.00     0.001 A 
ATOM     70  C   UNL A   1      36.149  29.668  28.906  1.00  0.00     0.000 A 
ENDBRANCH  46  65
BRANCH  58  71
ATOM     71  C   UNL A   1      44.033  27.511  32.592  1.00  0.00    -0.014 A 
ATOM     72  C   UNL A   1      43.793  27.849  33.932  1.00  0.00     0.009 A 
ATOM     73  C   UNL A   1      44.126  26.150  32.252  1.00  0.00     0.009 A 
ATOM     74  C   UNL A   1      43.665  26.862  34.910  1.00  0.00     0.001 A 
ATOM     75  C   UNL A   1      43.971  25.160  33.229  1.00  0.00     0.001 A 
ATOM     76  C   UNL A   1      43.751  25.518  34.558  1.00  0.00     0.000 A 
ENDBRANCH  58  71
ENDBRANCH  32  33
ENDBRANCH  24  27
ENDBRANCH  22  23
ENDBRANCH   1  22
TORSDOF 13
ENDMDL
MODEL 3
REMARK VINA RESULT:     -10.7      3.528     11.285
REMARK SMILES CCn1c(=O)n(CC)c2cc(C(=O)NCCCCNC(=O)c3ccc(-c4c5nc(c(-c6ccccc6)c6ccc([nH]6)c(-c6ccccc6)c6nc(c(-c7ccccc7)c7ccc4[nH]7)C=C6)C=C5)cc3)ccc21
REMARK SMILES IDX 17 1 16 2 15 3 14 4 12 5 13 6 11 8 3 9 4 10 72 11 5 12 6 13
REMARK SMILES IDX 9 14 71 15 10 16 70 17 2 18 1 19 7 20 8 21 18 22 19 23 20 24
REMARK SMILES IDX 21 26 22 27 23 28 69 29 24 30 68 31 25 32 26 33 27 34 62 35
REMARK SMILES IDX 28 36 67 37 61 38 63 39 29 40 66 41 60 42 59 43 30 45 52 46
REMARK SMILES IDX 37 47 51 48 38 49 41 50 50 51 64 52 39 53 40 54 49 56 65 57
REMARK SMILES IDX 42 58 31 59 32 60 36 61 33 62 35 63 34 64 53 65 54 66 58 67
REMARK SMILES IDX 55 68 57 69 56 70 43 71 44 72 48 73 45 74 47 75 46 76
REMARK H PARENT 14 7 19 25 63 44 41 55
REMARK Flexibility Score: inf
ROOT
ATOM      1  C   UNL A   1      46.007  24.485  27.545  1.00  0.00     0.023 C 
ENDROOT
BRANCH   1   2
ATOM      2  C   UNL A   1      45.742  25.961  27.211  1.00  0.00     0.023 C 
BRANCH   2   3
ATOM      3  C   UNL A   1      45.432  26.217  25.735  1.00  0.00     0.116 C 
BRANCH   3   4
ATOM      4  N   UNL A   1      44.001  26.229  25.506  1.00  0.00    -0.352 N 
ATOM      5  C   UNL A   1      43.098  25.237  25.215  1.00  0.00     0.251 C 
ATOM      6  O   UNL A   1      41.913  25.559  25.135  1.00  0.00    -0.269 OA
ATOM      7  H   UNL A   1      43.597  27.124  25.572  1.00  0.00     0.163 HD
BRANCH   5   8
ATOM      8  C   UNL A   1      43.469  23.801  25.055  1.00  0.00     0.042 A 
ATOM      9  N   UNL A   1      44.332  19.733  25.210  1.00  0.00    -0.292 N 
ATOM     10  C   UNL A   1      43.232  19.272  25.981  1.00  0.00     0.329 A 
ATOM     11  C   UNL A   1      44.183  21.111  25.001  1.00  0.00     0.069 A 
ATOM     12  O   UNL A   1      42.994  18.120  26.297  1.00  0.00    -0.248 OA
ATOM     13  N   UNL A   1      42.453  20.412  26.280  1.00  0.00    -0.292 N 
ATOM     14  C   UNL A   1      43.059  21.539  25.710  1.00  0.00     0.070 A 
ATOM     15  C   UNL A   1      44.905  21.990  24.226  1.00  0.00     0.029 A 
ATOM     16  C   UNL A   1      42.690  22.869  25.760  1.00  0.00     0.042 A 
ATOM     17  C   UNL A   1      44.518  23.337  24.235  1.00  0.00     0.016 A 
BRANCH   9  18
ATOM     18  C   UNL A   1      45.342  18.857  24.667  1.00  0.00     0.124 C 
ATOM     19  C   UNL A   1      46.477  18.490  25.613  1.00  0.00     0.028 C 
ENDBRANCH   9  18
BRANCH  13  20
ATOM     20  C   UNL A   1      41.163  20.380  26.926  1.00  0.00     0.124 C 
ATOM     21  C   UNL A   1      40.019  20.067  25.979  1.00  0.00     0.028 C 
ENDBRANCH  13  20
ENDBRANCH   5   8
ENDBRANCH   3   4
ENDBRANCH   2   3
ENDBRANCH   1   2
BRANCH   1  22
ATOM     22  C   UNL A   1      44.989  23.865  28.508  1.00  0.00     0.116 C 
BRANCH  22  23
ATOM     23  N   UNL A   1      45.280  24.138  29.902  1.00  0.00    -0.352 N 
ATOM     24  C   UNL A   1      44.761  24.981  30.845  1.00  0.00     0.251 C 
ATOM     25  H   UNL A   1      46.021  23.590  30.249  1.00  0.00     0.163 HD
ATOM     26  O   UNL A   1      45.167  24.821  31.999  1.00  0.00    -0.269 OA
BRANCH  24  27
ATOM     27  C   UNL A   1      43.810  26.093  30.573  1.00  0.00     0.039 A 
ATOM     28  C   UNL A   1      43.053  26.236  29.415  1.00  0.00     0.014 A 
ATOM     29  C   UNL A   1      43.753  27.117  31.542  1.00  0.00     0.014 A 
ATOM     30  C   UNL A   1      42.336  27.402  29.187  1.00  0.00     0.010 A 
ATOM     31  C   UNL A   1      43.023  28.283  31.326  1.00  0.00     0.010 A 
ATOM     32  C   UNL A   1      42.347  28.442  30.125  1.00  0.00    -0.014 A 
BRANCH  32  33
ATOM     33  C   UNL A   1      41.525  29.608  29.820  1.00  0.00     0.031 A 
ATOM     34  C   UNL A   1      42.313  30.827  29.502  1.00  0.00     0.074 A 
ATOM     35  C   UNL A   1      40.178  29.638  29.817  1.00  0.00     0.049 A 
ATOM     36  N   UNL A   1      42.391  31.904  30.212  1.00  0.00    -0.248 NA
ATOM     37  C   UNL A   1      43.227  30.792  28.352  1.00  0.00     0.031 C 
ATOM     38  C   UNL A   1      39.249  28.508  29.881  1.00  0.00     0.029 A 
ATOM     39  N   UNL A   1      39.345  30.716  29.685  1.00  0.00    -0.354 N 
ATOM     40  C   UNL A   1      43.243  32.757  29.520  1.00  0.00     0.074 A 
ATOM     41  C   UNL A   1      43.823  31.982  28.452  1.00  0.00     0.031 C 
ATOM     42  C   UNL A   1      38.004  28.932  29.556  1.00  0.00     0.029 A 
ATOM     43  C   UNL A   1      38.021  30.380  29.439  1.00  0.00     0.049 A 
ATOM     44  H   UNL A   1      39.657  31.646  29.757  1.00  0.00     0.167 HD
ATOM     45  C   UNL A   1      43.242  34.095  29.758  1.00  0.00     0.031 A 
ATOM     46  C   UNL A   1      37.009  31.234  29.157  1.00  0.00     0.031 A 
ATOM     47  C   UNL A   1      42.568  34.421  30.985  1.00  0.00     0.049 A 
ATOM     48  C   UNL A   1      37.347  32.554  29.720  1.00  0.00     0.074 A 
ATOM     49  C   UNL A   1      42.882  34.424  32.326  1.00  0.00     0.029 A 
ATOM     50  N   UNL A   1      41.202  34.472  30.882  1.00  0.00    -0.354 N 
ATOM     51  N   UNL A   1      37.413  32.785  30.998  1.00  0.00    -0.248 NA
ATOM     52  C   UNL A   1      37.900  33.595  28.862  1.00  0.00     0.031 C 
ATOM     53  C   UNL A   1      41.647  34.281  33.023  1.00  0.00     0.029 A 
ATOM     54  C   UNL A   1      40.608  34.236  32.094  1.00  0.00     0.049 A 
ATOM     55  H   UNL A   1      40.714  34.654  30.047  1.00  0.00     0.167 HD
ATOM     56  C   UNL A   1      38.390  33.751  31.113  1.00  0.00     0.074 A 
ATOM     57  C   UNL A   1      38.507  34.343  29.787  1.00  0.00     0.031 C 
ATOM     58  C   UNL A   1      39.242  33.763  32.175  1.00  0.00     0.031 A 
BRANCH  45  59
ATOM     59  C   UNL A   1      43.458  35.129  28.683  1.00  0.00    -0.014 A 
ATOM     60  C   UNL A   1      42.627  35.239  27.550  1.00  0.00     0.009 A 
ATOM     61  C   UNL A   1      44.331  36.204  28.930  1.00  0.00     0.009 A 
ATOM     62  C   UNL A   1      42.663  36.353  26.707  1.00  0.00     0.001 A 
ATOM     63  C   UNL A   1      44.347  37.337  28.105  1.00  0.00     0.001 A 
ATOM     64  C   UNL A   1      43.512  37.411  26.995  1.00  0.00     0.000 A 
ENDBRANCH  45  59
BRANCH  46  65
ATOM     65  C   UNL A   1      35.873  31.076  28.229  1.00  0.00    -0.014 A 
ATOM     66  C   UNL A   1      34.821  32.008  28.263  1.00  0.00     0.009 A 
ATOM     67  C   UNL A   1      35.650  29.851  27.578  1.00  0.00     0.009 A 
ATOM     68  C   UNL A   1      33.567  31.696  27.731  1.00  0.00     0.001 A 
ATOM     69  C   UNL A   1      34.394  29.541  27.043  1.00  0.00     0.001 A 
ATOM     70  C   UNL A   1      33.347  30.454  27.142  1.00  0.00     0.000 A 
ENDBRANCH  46  65
BRANCH  58  71
ATOM     71  C   UNL A   1      38.809  33.059  33.432  1.00  0.00    -0.014 A 
ATOM     72  C   UNL A   1      39.086  31.688  33.540  1.00  0.00     0.009 A 
ATOM     73  C   UNL A   1      38.073  33.675  34.459  1.00  0.00     0.009 A 
ATOM     74  C   UNL A   1      38.630  30.947  34.630  1.00  0.00     0.001 A 
ATOM     75  C   UNL A   1      37.638  32.936  35.565  1.00  0.00     0.001 A 
ATOM     76  C   UNL A   1      37.909  31.572  35.644  1.00  0.00     0.000 A 
ENDBRANCH  58  71
ENDBRANCH  32  33
ENDBRANCH  24  27
ENDBRANCH  22  23
ENDBRANCH   1  22
TORSDOF 13
ENDMDL
