MODEL 1
REMARK VINA RESULT:     -11.8      0.000      0.000
REMARK SMILES C[C@@H](C(=O)NCCCCNC(=O)c1ccc(-c2c3nc(c(-c4ccccc4)c4ccc([nH]4)c(-c4ccccc4)c4nc(c(-c5ccccc5)c5ccc2[nH]5)C=C4)C=C3)cc1)c1ccccc1-c1ccn(C(F)F)c(=O)c1
REMARK SMILES IDX 7 1 6 2 5 3 3 4 4 5 2 7 1 8 61 9 62 10 66 11 63 12 65 13
REMARK SMILES IDX 64 14 67 15 68 16 76 17 69 18 74 19 70 20 75 21 71 22 72 23
REMARK SMILES IDX 73 24 8 25 9 26 10 27 11 28 12 30 13 31 14 32 60 33 15 34
REMARK SMILES IDX 59 35 16 36 17 37 18 38 53 39 19 40 58 41 52 42 54 43 20 44
REMARK SMILES IDX 57 45 51 46 50 47 21 49 43 50 28 51 42 52 29 53 32 54 41 55
REMARK SMILES IDX 55 56 30 57 31 58 40 60 56 61 33 62 22 63 23 64 27 65 24 66
REMARK SMILES IDX 26 67 25 68 44 69 45 70 49 71 46 72 48 73 47 74 34 75 35 76
REMARK SMILES IDX 39 77 36 78 38 79 37 80
REMARK H PARENT 5 6 10 29 54 48 32 59
REMARK Flexibility Score: inf
ROOT
ATOM      1  C   UNL A   1      36.737  20.304  24.924  1.00  0.00     0.023 C 
ENDROOT
BRANCH   1   2
ATOM      2  C   UNL A   1      36.830  21.740  25.441  1.00  0.00     0.116 C 
BRANCH   2   3
ATOM      3  N   UNL A   1      35.893  21.959  26.521  1.00  0.00    -0.356 N 
ATOM      4  C   UNL A   1      34.864  22.848  26.623  1.00  0.00     0.227 C 
ATOM      5  O   UNL A   1      34.301  22.905  27.718  1.00  0.00    -0.274 OA
ATOM      6  H   UNL A   1      36.018  21.376  27.305  1.00  0.00     0.163 HD
BRANCH   4   7
ATOM      7  C   UNL A   1      34.425  23.677  25.402  1.00  0.00     0.106 C 
ATOM      8  C   UNL A   1      35.357  24.868  25.154  1.00  0.00     0.023 C 
BRANCH   7   9
ATOM      9  C   UNL A   1      32.957  24.103  25.537  1.00  0.00    -0.028 A 
ATOM     10  C   UNL A   1      32.642  25.327  26.163  1.00  0.00     0.005 A 
ATOM     11  C   UNL A   1      31.892  23.276  25.105  1.00  0.00    -0.014 A 
ATOM     12  C   UNL A   1      31.321  25.739  26.331  1.00  0.00     0.000 A 
ATOM     13  C   UNL A   1      30.564  23.700  25.295  1.00  0.00     0.009 A 
ATOM     14  C   UNL A   1      30.282  24.927  25.897  1.00  0.00     0.001 A 
BRANCH  11  15
ATOM     15  C   UNL A   1      32.118  21.970  24.446  1.00  0.00    -0.011 A 
ATOM     16  C   UNL A   1      32.168  21.805  23.006  1.00  0.00     0.027 A 
ATOM     17  C   UNL A   1      32.237  20.886  25.232  1.00  0.00     0.080 A 
ATOM     18  C   UNL A   1      32.242  20.582  22.465  1.00  0.00     0.095 A 
ATOM     19  C   UNL A   1      32.367  19.524  24.646  1.00  0.00     0.255 A 
ATOM     20  N   UNL A   1      32.318  19.455  23.262  1.00  0.00    -0.258 N 
ATOM     21  O   UNL A   1      32.479  18.567  25.405  1.00  0.00    -0.269 OA
BRANCH  20  22
ATOM     22  C   UNL A   1      32.350  18.140  22.676  1.00  0.00     0.451 C 
ATOM     23  F   UNL A   1      32.078  18.184  21.350  1.00  0.00    -0.185 F 
ATOM     24  F   UNL A   1      33.569  17.569  22.838  1.00  0.00    -0.185 F 
ENDBRANCH  20  22
ENDBRANCH  11  15
ENDBRANCH   7   9
ENDBRANCH   4   7
ENDBRANCH   2   3
ENDBRANCH   1   2
BRANCH   1  25
ATOM     25  C   UNL A   1      38.086  19.598  24.756  1.00  0.00     0.023 C 
BRANCH  25  26
ATOM     26  C   UNL A   1      39.139  19.952  25.800  1.00  0.00     0.116 C 
BRANCH  26  27
ATOM     27  N   UNL A   1      40.203  18.966  25.884  1.00  0.00    -0.352 N 
ATOM     28  C   UNL A   1      41.539  19.154  26.136  1.00  0.00     0.251 C 
ATOM     29  H   UNL A   1      39.927  18.031  25.741  1.00  0.00     0.163 HD
ATOM     30  O   UNL A   1      42.324  18.215  26.026  1.00  0.00    -0.269 OA
BRANCH  28  31
ATOM     31  C   UNL A   1      42.037  20.494  26.510  1.00  0.00     0.039 A 
ATOM     32  C   UNL A   1      42.454  21.362  25.499  1.00  0.00     0.014 A 
ATOM     33  C   UNL A   1      42.086  20.896  27.848  1.00  0.00     0.014 A 
ATOM     34  C   UNL A   1      42.859  22.658  25.825  1.00  0.00     0.010 A 
ATOM     35  C   UNL A   1      42.415  22.210  28.163  1.00  0.00     0.010 A 
ATOM     36  C   UNL A   1      42.809  23.104  27.156  1.00  0.00    -0.014 A 
BRANCH  36  37
ATOM     37  C   UNL A   1      43.159  24.503  27.510  1.00  0.00     0.031 A 
ATOM     38  C   UNL A   1      44.595  24.948  27.519  1.00  0.00     0.074 A 
ATOM     39  C   UNL A   1      42.186  25.361  27.877  1.00  0.00     0.049 A 
ATOM     40  N   UNL A   1      45.097  26.113  27.841  1.00  0.00    -0.248 NA
ATOM     41  C   UNL A   1      45.605  23.945  27.141  1.00  0.00     0.031 C 
ATOM     42  C   UNL A   1      40.758  25.043  27.950  1.00  0.00     0.029 A 
ATOM     43  N   UNL A   1      42.254  26.676  28.265  1.00  0.00    -0.354 N 
ATOM     44  C   UNL A   1      46.474  25.979  27.721  1.00  0.00     0.074 A 
ATOM     45  C   UNL A   1      46.734  24.607  27.347  1.00  0.00     0.031 C 
ATOM     46  C   UNL A   1      40.083  26.141  28.327  1.00  0.00     0.029 A 
ATOM     47  C   UNL A   1      41.031  27.225  28.565  1.00  0.00     0.049 A 
ATOM     48  H   UNL A   1      43.098  27.178  28.322  1.00  0.00     0.167 HD
ATOM     49  C   UNL A   1      47.436  26.919  27.885  1.00  0.00     0.031 A 
ATOM     50  C   UNL A   1      40.707  28.459  28.992  1.00  0.00     0.031 A 
ATOM     51  C   UNL A   1      47.177  28.286  28.251  1.00  0.00     0.049 A 
ATOM     52  C   UNL A   1      41.795  29.479  29.184  1.00  0.00     0.074 A 
ATOM     53  C   UNL A   1      48.080  29.326  28.386  1.00  0.00     0.029 A 
ATOM     54  N   UNL A   1      45.924  28.802  28.543  1.00  0.00    -0.354 N 
ATOM     55  N   UNL A   1      43.086  29.356  28.994  1.00  0.00    -0.248 NA
ATOM     56  C   UNL A   1      41.377  30.813  29.638  1.00  0.00     0.031 C 
ATOM     57  C   UNL A   1      47.381  30.457  28.819  1.00  0.00     0.029 A 
ATOM     58  C   UNL A   1      46.034  30.139  28.887  1.00  0.00     0.049 A 
ATOM     59  H   UNL A   1      45.082  28.294  28.510  1.00  0.00     0.167 HD
ATOM     60  C   UNL A   1      43.632  30.602  29.276  1.00  0.00     0.074 A 
ATOM     61  C   UNL A   1      42.528  31.470  29.631  1.00  0.00     0.031 C 
ATOM     62  C   UNL A   1      44.929  30.992  29.241  1.00  0.00     0.031 A 
BRANCH  49  63
ATOM     63  C   UNL A   1      48.864  26.493  27.679  1.00  0.00    -0.014 A 
ATOM     64  C   UNL A   1      49.656  26.049  28.751  1.00  0.00     0.009 A 
ATOM     65  C   UNL A   1      49.414  26.497  26.387  1.00  0.00     0.009 A 
ATOM     66  C   UNL A   1      50.979  25.655  28.538  1.00  0.00     0.001 A 
ATOM     67  C   UNL A   1      50.726  26.072  26.173  1.00  0.00     0.001 A 
ATOM     68  C   UNL A   1      51.511  25.661  27.249  1.00  0.00     0.000 A 
ENDBRANCH  49  63
BRANCH  50  69
ATOM     69  C   UNL A   1      39.285  28.808  29.257  1.00  0.00    -0.014 A 
ATOM     70  C   UNL A   1      38.743  28.666  30.544  1.00  0.00     0.009 A 
ATOM     71  C   UNL A   1      38.460  29.276  28.223  1.00  0.00     0.009 A 
ATOM     72  C   UNL A   1      37.397  28.956  30.782  1.00  0.00     0.001 A 
ATOM     73  C   UNL A   1      37.124  29.596  28.470  1.00  0.00     0.001 A 
ATOM     74  C   UNL A   1      36.590  29.425  29.746  1.00  0.00     0.000 A 
ENDBRANCH  50  69
BRANCH  62  75
ATOM     75  C   UNL A   1      45.224  32.432  29.560  1.00  0.00    -0.014 A 
ATOM     76  C   UNL A   1      45.175  33.427  28.571  1.00  0.00     0.009 A 
ATOM     77  C   UNL A   1      45.520  32.802  30.882  1.00  0.00     0.009 A 
ATOM     78  C   UNL A   1      45.454  34.756  28.894  1.00  0.00     0.001 A 
ATOM     79  C   UNL A   1      45.764  34.137  31.208  1.00  0.00     0.001 A 
ATOM     80  C   UNL A   1      45.741  35.111  30.211  1.00  0.00     0.000 A 
ENDBRANCH  62  75
ENDBRANCH  36  37
ENDBRANCH  28  31
ENDBRANCH  26  27
ENDBRANCH  25  26
ENDBRANCH   1  25
TORSDOF 14
ENDMDL
MODEL 2
REMARK VINA RESULT:     -11.8      0.749      5.966
REMARK SMILES C[C@@H](C(=O)NCCCCNC(=O)c1ccc(-c2c3nc(c(-c4ccccc4)c4ccc([nH]4)c(-c4ccccc4)c4nc(c(-c5ccccc5)c5ccc2[nH]5)C=C4)C=C3)cc1)c1ccccc1-c1ccn(C(F)F)c(=O)c1
REMARK SMILES IDX 7 1 6 2 5 3 3 4 4 5 2 7 1 8 61 9 62 10 66 11 63 12 65 13
REMARK SMILES IDX 64 14 67 15 68 16 76 17 69 18 74 19 70 20 75 21 71 22 72 23
REMARK SMILES IDX 73 24 8 25 9 26 10 27 11 28 12 30 13 31 14 32 60 33 15 34
REMARK SMILES IDX 59 35 16 36 17 37 18 38 53 39 19 40 58 41 52 42 54 43 20 44
REMARK SMILES IDX 57 45 51 46 50 47 21 49 43 50 28 51 42 52 29 53 32 54 41 55
REMARK SMILES IDX 55 56 30 57 31 58 40 60 56 61 33 62 22 63 23 64 27 65 24 66
REMARK SMILES IDX 26 67 25 68 44 69 45 70 49 71 46 72 48 73 47 74 34 75 35 76
REMARK SMILES IDX 39 77 36 78 38 79 37 80
REMARK H PARENT 5 6 10 29 54 48 32 59
REMARK Flexibility Score: inf
ROOT
ATOM      1  C   UNL A   1      36.412  19.985  24.981  1.00  0.00     0.023 C 
ENDROOT
BRANCH   1   2
ATOM      2  C   UNL A   1      36.516  21.461  25.364  1.00  0.00     0.116 C 
BRANCH   2   3
ATOM      3  N   UNL A   1      35.645  21.766  26.478  1.00  0.00    -0.356 N 
ATOM      4  C   UNL A   1      34.754  22.785  26.642  1.00  0.00     0.227 C 
ATOM      5  O   UNL A   1      34.230  22.877  27.754  1.00  0.00    -0.274 OA
ATOM      6  H   UNL A   1      35.703  21.140  27.236  1.00  0.00     0.163 HD
BRANCH   4   7
ATOM      7  C   UNL A   1      34.409  23.718  25.466  1.00  0.00     0.106 C 
ATOM      8  C   UNL A   1      35.378  24.902  25.370  1.00  0.00     0.023 C 
BRANCH   7   9
ATOM      9  C   UNL A   1      32.944  24.168  25.543  1.00  0.00    -0.028 A 
ATOM     10  C   UNL A   1      32.626  25.401  26.147  1.00  0.00     0.005 A 
ATOM     11  C   UNL A   1      31.883  23.354  25.078  1.00  0.00    -0.014 A 
ATOM     12  C   UNL A   1      31.307  25.835  26.264  1.00  0.00     0.000 A 
ATOM     13  C   UNL A   1      30.556  23.800  25.216  1.00  0.00     0.009 A 
ATOM     14  C   UNL A   1      30.271  25.035  25.798  1.00  0.00     0.001 A 
BRANCH  11  15
ATOM     15  C   UNL A   1      32.113  22.040  24.438  1.00  0.00    -0.011 A 
ATOM     16  C   UNL A   1      32.177  21.856  23.000  1.00  0.00     0.027 A 
ATOM     17  C   UNL A   1      32.220  20.965  25.238  1.00  0.00     0.080 A 
ATOM     18  C   UNL A   1      32.253  20.627  22.476  1.00  0.00     0.095 A 
ATOM     19  C   UNL A   1      32.353  19.595  24.670  1.00  0.00     0.255 A 
ATOM     20  N   UNL A   1      32.318  19.509  23.287  1.00  0.00    -0.258 N 
ATOM     21  O   UNL A   1      32.455  18.647  25.442  1.00  0.00    -0.269 OA
BRANCH  20  22
ATOM     22  C   UNL A   1      32.353  18.187  22.717  1.00  0.00     0.451 C 
ATOM     23  F   UNL A   1      32.073  18.213  21.392  1.00  0.00    -0.185 F 
ATOM     24  F   UNL A   1      33.575  17.624  22.879  1.00  0.00    -0.185 F 
ENDBRANCH  20  22
ENDBRANCH  11  15
ENDBRANCH   7   9
ENDBRANCH   4   7
ENDBRANCH   2   3
ENDBRANCH   1   2
BRANCH   1  25
ATOM     25  C   UNL A   1      37.745  19.230  24.984  1.00  0.00     0.023 C 
BRANCH  25  26
ATOM     26  C   UNL A   1      38.900  19.956  25.663  1.00  0.00     0.116 C 
BRANCH  26  27
ATOM     27  N   UNL A   1      40.089  19.129  25.787  1.00  0.00    -0.352 N 
ATOM     28  C   UNL A   1      41.362  19.493  26.151  1.00  0.00     0.251 C 
ATOM     29  H   UNL A   1      39.965  18.174  25.582  1.00  0.00     0.163 HD
ATOM     30  O   UNL A   1      42.282  18.683  26.062  1.00  0.00    -0.269 OA
BRANCH  28  31
ATOM     31  C   UNL A   1      41.630  20.868  26.620  1.00  0.00     0.039 A 
ATOM     32  C   UNL A   1      41.651  21.118  27.993  1.00  0.00     0.014 A 
ATOM     33  C   UNL A   1      41.867  21.904  25.712  1.00  0.00     0.014 A 
ATOM     34  C   UNL A   1      41.974  22.393  28.459  1.00  0.00     0.010 A 
ATOM     35  C   UNL A   1      42.264  23.154  26.178  1.00  0.00     0.010 A 
ATOM     36  C   UNL A   1      42.318  23.412  27.556  1.00  0.00    -0.014 A 
BRANCH  36  37
ATOM     37  C   UNL A   1      42.743  24.752  28.036  1.00  0.00     0.031 A 
ATOM     38  C   UNL A   1      41.721  25.827  28.291  1.00  0.00     0.074 A 
ATOM     39  C   UNL A   1      44.054  25.021  28.190  1.00  0.00     0.049 A 
ATOM     40  N   UNL A   1      41.904  27.066  28.670  1.00  0.00    -0.248 NA
ATOM     41  C   UNL A   1      40.310  25.471  28.065  1.00  0.00     0.031 C 
ATOM     42  C   UNL A   1      45.147  24.079  27.937  1.00  0.00     0.029 A 
ATOM     43  N   UNL A   1      44.690  26.168  28.593  1.00  0.00    -0.354 N 
ATOM     44  C   UNL A   1      40.639  27.639  28.713  1.00  0.00     0.074 A 
ATOM     45  C   UNL A   1      39.703  26.630  28.271  1.00  0.00     0.031 C 
ATOM     46  C   UNL A   1      46.316  24.677  28.220  1.00  0.00     0.029 A 
ATOM     47  C   UNL A   1      46.059  26.055  28.630  1.00  0.00     0.049 A 
ATOM     48  H   UNL A   1      44.212  26.994  28.832  1.00  0.00     0.167 HD
ATOM     49  C   UNL A   1      40.285  28.886  29.105  1.00  0.00     0.031 A 
ATOM     50  C   UNL A   1      47.004  26.958  28.951  1.00  0.00     0.031 A 
ATOM     51  C   UNL A   1      41.217  29.889  29.551  1.00  0.00     0.049 A 
ATOM     52  C   UNL A   1      46.586  28.342  29.366  1.00  0.00     0.074 A 
ATOM     53  C   UNL A   1      40.949  31.162  30.022  1.00  0.00     0.029 A 
ATOM     54  N   UNL A   1      42.593  29.732  29.577  1.00  0.00    -0.354 N 
ATOM     55  N   UNL A   1      45.380  28.844  29.472  1.00  0.00    -0.248 NA
ATOM     56  C   UNL A   1      47.662  29.279  29.718  1.00  0.00     0.031 C 
ATOM     57  C   UNL A   1      42.168  31.798  30.276  1.00  0.00     0.029 A 
ATOM     58  C   UNL A   1      43.191  30.898  30.028  1.00  0.00     0.049 A 
ATOM     59  H   UNL A   1      43.074  28.915  29.313  1.00  0.00     0.167 HD
ATOM     60  C   UNL A   1      45.550  30.144  29.930  1.00  0.00     0.074 A 
ATOM     61  C   UNL A   1      46.973  30.345  30.100  1.00  0.00     0.031 C 
ATOM     62  C   UNL A   1      44.610  31.086  30.189  1.00  0.00     0.031 A 
BRANCH  49  63
ATOM     63  C   UNL A   1      38.824  29.239  29.059  1.00  0.00    -0.014 A 
ATOM     64  C   UNL A   1      38.226  29.724  27.885  1.00  0.00     0.009 A 
ATOM     65  C   UNL A   1      38.023  29.046  30.197  1.00  0.00     0.009 A 
ATOM     66  C   UNL A   1      36.866  30.043  27.861  1.00  0.00     0.001 A 
ATOM     67  C   UNL A   1      36.658  29.336  30.161  1.00  0.00     0.001 A 
ATOM     68  C   UNL A   1      36.083  29.843  28.998  1.00  0.00     0.000 A 
ENDBRANCH  49  63
BRANCH  50  69
ATOM     69  C   UNL A   1      48.442  26.582  28.905  1.00  0.00    -0.014 A 
ATOM     70  C   UNL A   1      49.179  26.719  27.718  1.00  0.00     0.009 A 
ATOM     71  C   UNL A   1      49.084  26.075  30.045  1.00  0.00     0.009 A 
ATOM     72  C   UNL A   1      50.519  26.327  27.666  1.00  0.00     0.001 A 
ATOM     73  C   UNL A   1      50.432  25.715  30.000  1.00  0.00     0.001 A 
ATOM     74  C   UNL A   1      51.146  25.831  28.809  1.00  0.00     0.000 A 
ENDBRANCH  50  69
BRANCH  62  75
ATOM     75  C   UNL A   1      45.089  32.409  30.721  1.00  0.00    -0.014 A 
ATOM     76  C   UNL A   1      45.185  32.653  32.100  1.00  0.00     0.009 A 
ATOM     77  C   UNL A   1      45.486  33.413  29.823  1.00  0.00     0.009 A 
ATOM     78  C   UNL A   1      45.633  33.891  32.566  1.00  0.00     0.001 A 
ATOM     79  C   UNL A   1      45.965  34.636  30.293  1.00  0.00     0.001 A 
ATOM     80  C   UNL A   1      46.028  34.878  31.664  1.00  0.00     0.000 A 
ENDBRANCH  62  75
ENDBRANCH  36  37
ENDBRANCH  28  31
ENDBRANCH  26  27
ENDBRANCH  25  26
ENDBRANCH   1  25
TORSDOF 14
ENDMDL
MODEL 3
REMARK VINA RESULT:     -11.8      5.426      9.894
REMARK SMILES C[C@@H](C(=O)NCCCCNC(=O)c1ccc(-c2c3nc(c(-c4ccccc4)c4ccc([nH]4)c(-c4ccccc4)c4nc(c(-c5ccccc5)c5ccc2[nH]5)C=C4)C=C3)cc1)c1ccccc1-c1ccn(C(F)F)c(=O)c1
REMARK SMILES IDX 7 1 6 2 5 3 3 4 4 5 2 7 1 8 61 9 62 10 66 11 63 12 65 13
REMARK SMILES IDX 64 14 67 15 68 16 76 17 69 18 74 19 70 20 75 21 71 22 72 23
REMARK SMILES IDX 73 24 8 25 9 26 10 27 11 28 12 30 13 31 14 32 60 33 15 34
REMARK SMILES IDX 59 35 16 36 17 37 18 38 53 39 19 40 58 41 52 42 54 43 20 44
REMARK SMILES IDX 57 45 51 46 50 47 21 49 43 50 28 51 42 52 29 53 32 54 41 55
REMARK SMILES IDX 55 56 30 57 31 58 40 60 56 61 33 62 22 63 23 64 27 65 24 66
REMARK SMILES IDX 26 67 25 68 44 69 45 70 49 71 46 72 48 73 47 74 34 75 35 76
REMARK SMILES IDX 39 77 36 78 38 79 37 80
REMARK H PARENT 5 6 10 29 54 48 32 59
REMARK Flexibility Score: inf
ROOT
ATOM      1  C   UNL A   1      31.852  30.446  26.733  1.00  0.00     0.023 C 
ENDROOT
BRANCH   1   2
ATOM      2  C   UNL A   1      31.486  29.893  25.355  1.00  0.00     0.116 C 
BRANCH   2   3
ATOM      3  N   UNL A   1      32.673  29.675  24.557  1.00  0.00    -0.356 N 
ATOM      4  C   UNL A   1      33.474  28.577  24.457  1.00  0.00     0.227 C 
ATOM      5  O   UNL A   1      34.502  28.710  23.789  1.00  0.00    -0.274 OA
ATOM      6  H   UNL A   1      32.945  30.440  23.999  1.00  0.00     0.163 HD
BRANCH   4   7
ATOM      7  C   UNL A   1      33.058  27.246  25.111  1.00  0.00     0.106 C 
ATOM      8  C   UNL A   1      33.936  26.904  26.321  1.00  0.00     0.023 C 
BRANCH   7   9
ATOM      9  C   UNL A   1      33.033  26.116  24.072  1.00  0.00    -0.028 A 
ATOM     10  C   UNL A   1      34.135  25.243  23.966  1.00  0.00     0.005 A 
ATOM     11  C   UNL A   1      31.957  25.954  23.166  1.00  0.00    -0.014 A 
ATOM     12  C   UNL A   1      34.165  24.222  23.018  1.00  0.00     0.000 A 
ATOM     13  C   UNL A   1      32.010  24.927  22.206  1.00  0.00     0.009 A 
ATOM     14  C   UNL A   1      33.103  24.063  22.138  1.00  0.00     0.001 A 
BRANCH  11  15
ATOM     15  C   UNL A   1      30.761  26.824  23.190  1.00  0.00    -0.011 A 
ATOM     16  C   UNL A   1      29.597  26.553  24.013  1.00  0.00     0.027 A 
ATOM     17  C   UNL A   1      30.746  27.890  22.371  1.00  0.00     0.080 A 
ATOM     18  C   UNL A   1      28.493  27.300  23.894  1.00  0.00     0.095 A 
ATOM     19  C   UNL A   1      29.542  28.758  22.262  1.00  0.00     0.255 A 
ATOM     20  N   UNL A   1      28.449  28.372  23.022  1.00  0.00    -0.258 N 
ATOM     21  O   UNL A   1      29.581  29.723  21.505  1.00  0.00    -0.269 OA
BRANCH  20  22
ATOM     22  C   UNL A   1      27.243  29.143  22.863  1.00  0.00     0.451 C 
ATOM     23  F   UNL A   1      26.150  28.432  23.231  1.00  0.00    -0.185 F 
ATOM     24  F   UNL A   1      27.288  30.268  23.619  1.00  0.00    -0.185 F 
ENDBRANCH  20  22
ENDBRANCH  11  15
ENDBRANCH   7   9
ENDBRANCH   4   7
ENDBRANCH   2   3
ENDBRANCH   1   2
BRANCH   1  25
ATOM     25  C   UNL A   1      31.591  31.946  26.907  1.00  0.00     0.023 C 
BRANCH  25  26
ATOM     26  C   UNL A   1      32.833  32.798  27.137  1.00  0.00     0.116 C 
BRANCH  26  27
ATOM     27  N   UNL A   1      32.530  34.084  27.743  1.00  0.00    -0.352 N 
ATOM     28  C   UNL A   1      33.171  34.728  28.772  1.00  0.00     0.251 C 
ATOM     29  H   UNL A   1      31.757  34.560  27.361  1.00  0.00     0.163 HD
ATOM     30  O   UNL A   1      32.687  35.749  29.254  1.00  0.00    -0.269 OA
BRANCH  28  31
ATOM     31  C   UNL A   1      34.427  34.176  29.319  1.00  0.00     0.039 A 
ATOM     32  C   UNL A   1      34.373  33.410  30.485  1.00  0.00     0.014 A 
ATOM     33  C   UNL A   1      35.650  34.404  28.683  1.00  0.00     0.014 A 
ATOM     34  C   UNL A   1      35.537  32.818  30.977  1.00  0.00     0.010 A 
ATOM     35  C   UNL A   1      36.795  33.751  29.131  1.00  0.00     0.010 A 
ATOM     36  C   UNL A   1      36.751  32.954  30.284  1.00  0.00    -0.014 A 
BRANCH  36  37
ATOM     37  C   UNL A   1      37.982  32.266  30.750  1.00  0.00     0.031 A 
ATOM     38  C   UNL A   1      38.809  32.855  31.859  1.00  0.00     0.074 A 
ATOM     39  C   UNL A   1      38.387  31.137  30.135  1.00  0.00     0.049 A 
ATOM     40  N   UNL A   1      39.934  32.422  32.369  1.00  0.00    -0.248 NA
ATOM     41  C   UNL A   1      38.323  34.110  32.457  1.00  0.00     0.031 C 
ATOM     42  C   UNL A   1      37.697  30.485  29.020  1.00  0.00     0.029 A 
ATOM     43  N   UNL A   1      39.481  30.340  30.360  1.00  0.00    -0.354 N 
ATOM     44  C   UNL A   1      40.296  33.354  33.333  1.00  0.00     0.074 A 
ATOM     45  C   UNL A   1      39.301  34.404  33.301  1.00  0.00     0.031 C 
ATOM     46  C   UNL A   1      38.368  29.372  28.678  1.00  0.00     0.029 A 
ATOM     47  C   UNL A   1      39.556  29.256  29.519  1.00  0.00     0.049 A 
ATOM     48  H   UNL A   1      40.150  30.527  31.057  1.00  0.00     0.167 HD
ATOM     49  C   UNL A   1      41.350  33.331  34.184  1.00  0.00     0.031 A 
ATOM     50  C   UNL A   1      40.479  28.281  29.427  1.00  0.00     0.031 A 
ATOM     51  C   UNL A   1      42.336  32.284  34.220  1.00  0.00     0.049 A 
ATOM     52  C   UNL A   1      41.649  28.287  30.372  1.00  0.00     0.074 A 
ATOM     53  C   UNL A   1      43.409  32.142  35.084  1.00  0.00     0.029 A 
ATOM     54  N   UNL A   1      42.373  31.203  33.354  1.00  0.00    -0.354 N 
ATOM     55  N   UNL A   1      41.937  29.138  31.326  1.00  0.00    -0.248 NA
ATOM     56  C   UNL A   1      42.616  27.189  30.232  1.00  0.00     0.031 C 
ATOM     57  C   UNL A   1      44.130  31.007  34.701  1.00  0.00     0.029 A 
ATOM     58  C   UNL A   1      43.468  30.405  33.643  1.00  0.00     0.049 A 
ATOM     59  H   UNL A   1      41.719  31.028  32.639  1.00  0.00     0.167 HD
ATOM     60  C   UNL A   1      43.099  28.663  31.920  1.00  0.00     0.074 A 
ATOM     61  C   UNL A   1      43.451  27.440  31.230  1.00  0.00     0.031 C 
ATOM     62  C   UNL A   1      43.809  29.191  32.947  1.00  0.00     0.031 A 
BRANCH  49  63
ATOM     63  C   UNL A   1      41.495  34.482  35.141  1.00  0.00    -0.014 A 
ATOM     64  C   UNL A   1      40.857  34.477  36.392  1.00  0.00     0.009 A 
ATOM     65  C   UNL A   1      42.315  35.571  34.803  1.00  0.00     0.009 A 
ATOM     66  C   UNL A   1      41.007  35.554  37.268  1.00  0.00     0.001 A 
ATOM     67  C   UNL A   1      42.488  36.631  35.694  1.00  0.00     0.001 A 
ATOM     68  C   UNL A   1      41.827  36.628  36.921  1.00  0.00     0.000 A 
ENDBRANCH  49  63
BRANCH  50  69
ATOM     69  C   UNL A   1      40.331  27.206  28.410  1.00  0.00    -0.014 A 
ATOM     70  C   UNL A   1      40.901  27.346  27.135  1.00  0.00     0.009 A 
ATOM     71  C   UNL A   1      39.610  26.039  28.704  1.00  0.00     0.009 A 
ATOM     72  C   UNL A   1      40.727  26.354  26.168  1.00  0.00     0.001 A 
ATOM     73  C   UNL A   1      39.465  25.034  27.746  1.00  0.00     0.001 A 
ATOM     74  C   UNL A   1      40.013  25.196  26.476  1.00  0.00     0.000 A 
ENDBRANCH  50  69
BRANCH  62  75
ATOM     75  C   UNL A   1      45.019  28.428  33.412  1.00  0.00    -0.014 A 
ATOM     76  C   UNL A   1      46.294  28.682  32.883  1.00  0.00     0.009 A 
ATOM     77  C   UNL A   1      44.883  27.465  34.425  1.00  0.00     0.009 A 
ATOM     78  C   UNL A   1      47.401  27.958  33.333  1.00  0.00     0.001 A 
ATOM     79  C   UNL A   1      45.996  26.769  34.897  1.00  0.00     0.001 A 
ATOM     80  C   UNL A   1      47.252  27.008  34.342  1.00  0.00     0.000 A 
ENDBRANCH  62  75
ENDBRANCH  36  37
ENDBRANCH  28  31
ENDBRANCH  26  27
ENDBRANCH  25  26
ENDBRANCH   1  25
TORSDOF 14
ENDMDL
