MODEL 1
REMARK VINA RESULT:     -12.1      0.000      0.000
REMARK SMILES Cc1cccc2c1N=CN1C2=[NH+]NC(=O)[C@@H]1CC(=O)NCCCCNC(=O)c1ccc(-c2c3nc(c(-c4ccccc4)c4ccc([nH]4)c(-c4ccccc4)c4nc(c(-c5ccccc5)c5ccc2[nH]5)C=C4)C=C3)cc1
REMARK SMILES IDX 23 1 22 2 21 3 20 4 18 5 19 6 17 8 16 9 1 10 2 11 3 12 7 13
REMARK SMILES IDX 4 14 6 15 8 16 5 17 11 18 9 19 10 20 12 21 13 22 14 24 15 26
REMARK SMILES IDX 24 27 25 28 26 29 27 31 28 32 29 33 75 34 30 35 74 36 31 37
REMARK SMILES IDX 32 38 33 39 68 40 34 41 73 42 67 43 69 44 35 45 72 46 66 47
REMARK SMILES IDX 65 48 36 50 58 51 43 52 57 53 44 54 47 55 56 56 70 57 45 58
REMARK SMILES IDX 46 59 55 61 71 62 48 63 37 64 38 65 42 66 39 67 41 68 40 69
REMARK SMILES IDX 59 70 60 71 64 72 61 73 63 74 62 75 49 76 50 77 54 78 51 79
REMARK SMILES IDX 53 80 52 81
REMARK H PARENT 20 7 12 23 13 25 25 30 69 49 47 60
REMARK Flexibility Score: inf
ROOT
ATOM      1  C   UNL A   1      37.647  20.689  24.919  1.00  0.00     0.023 C 
ENDROOT
BRANCH   1   2
ATOM      2  C   UNL A   1      36.953  21.975  24.530  1.00  0.00     0.023 C 
BRANCH   2   3
ATOM      3  C   UNL A   1      36.274  22.747  25.644  1.00  0.00     0.116 C 
BRANCH   3   4
ATOM      4  N   UNL A   1      35.426  21.865  26.411  1.00  0.00    -0.356 N 
ATOM      5  C   UNL A   1      34.227  22.121  27.003  1.00  0.00     0.224 C 
ATOM      6  O   UNL A   1      33.701  21.205  27.633  1.00  0.00    -0.275 OA
ATOM      7  H   UNL A   1      35.764  20.946  26.523  1.00  0.00     0.163 HD
BRANCH   5   8
ATOM      8  C   UNL A   1      33.523  23.454  26.796  1.00  0.00     0.160 C 
BRANCH   8   9
ATOM      9  C   UNL A   1      32.240  23.506  25.940  1.00  0.00     0.284 C 
ATOM     10  C   UNL A   1      34.068  28.401  22.168  1.00  0.00     0.047 C 
ATOM     11  C   UNL A   1      32.722  28.044  22.738  1.00  0.00    -0.024 A 
ATOM     12  C   UNL A   1      31.719  29.031  22.745  1.00  0.00     0.006 A 
ATOM     13  C   UNL A   1      32.454  26.773  23.281  1.00  0.00     0.085 A 
ATOM     14  C   UNL A   1      30.463  28.776  23.294  1.00  0.00     0.001 A 
ATOM     15  C   UNL A   1      31.201  26.559  23.895  1.00  0.00     0.092 A 
ATOM     16  N   UNL A   1      33.471  25.785  23.289  1.00  0.00    -0.215 NA
ATOM     17  C   UNL A   1      30.202  27.540  23.877  1.00  0.00     0.019 A 
ATOM     18  C   UNL A   1      31.075  25.362  24.792  1.00  0.00     0.309 C 
ATOM     19  C   UNL A   1      33.293  24.778  24.083  1.00  0.00     0.317 C 
ATOM     20  N   UNL A   1      32.219  24.582  24.922  1.00  0.00    -0.203 N 
ATOM     21  N   UNL A   1      29.963  25.209  25.446  1.00  0.00    -0.169 N 
ATOM     22  N   UNL A   1      29.920  24.244  26.393  1.00  0.00    -0.193 N 
ATOM     23  H   UNL A   1      29.179  25.774  25.259  1.00  0.00     0.340 HD
ATOM     24  C   UNL A   1      30.969  23.456  26.786  1.00  0.00     0.300 C 
ATOM     25  H   UNL A   1      29.056  24.094  26.840  1.00  0.00     0.216 HD
ATOM     26  O   UNL A   1      30.830  22.679  27.729  1.00  0.00    -0.267 OA
ENDBRANCH   8   9
ENDBRANCH   5   8
ENDBRANCH   3   4
ENDBRANCH   2   3
ENDBRANCH   1   2
BRANCH   1  27
ATOM     27  C   UNL A   1      38.881  20.912  25.769  1.00  0.00     0.116 C 
BRANCH  27  28
ATOM     28  N   UNL A   1      39.832  19.804  25.707  1.00  0.00    -0.352 N 
ATOM     29  C   UNL A   1      41.170  19.813  26.016  1.00  0.00     0.251 C 
ATOM     30  H   UNL A   1      39.466  18.942  25.406  1.00  0.00     0.163 HD
ATOM     31  O   UNL A   1      41.887  18.838  25.822  1.00  0.00    -0.269 OA
BRANCH  29  32
ATOM     32  C   UNL A   1      41.734  21.053  26.565  1.00  0.00     0.039 A 
ATOM     33  C   UNL A   1      42.178  22.045  25.689  1.00  0.00     0.014 A 
ATOM     34  C   UNL A   1      41.699  21.262  27.945  1.00  0.00     0.014 A 
ATOM     35  C   UNL A   1      42.534  23.289  26.203  1.00  0.00     0.010 A 
ATOM     36  C   UNL A   1      41.953  22.527  28.441  1.00  0.00     0.010 A 
ATOM     37  C   UNL A   1      42.395  23.541  27.576  1.00  0.00    -0.014 A 
BRANCH  37  38
ATOM     38  C   UNL A   1      42.816  24.820  28.178  1.00  0.00     0.031 A 
ATOM     39  C   UNL A   1      41.765  25.863  28.419  1.00  0.00     0.074 A 
ATOM     40  C   UNL A   1      44.114  25.065  28.427  1.00  0.00     0.049 A 
ATOM     41  N   UNL A   1      41.908  27.108  28.784  1.00  0.00    -0.248 NA
ATOM     42  C   UNL A   1      40.367  25.460  28.177  1.00  0.00     0.031 C 
ATOM     43  C   UNL A   1      45.218  24.126  28.214  1.00  0.00     0.029 A 
ATOM     44  N   UNL A   1      44.723  26.193  28.913  1.00  0.00    -0.354 N 
ATOM     45  C   UNL A   1      40.626  27.642  28.775  1.00  0.00     0.074 A 
ATOM     46  C   UNL A   1      39.726  26.608  28.325  1.00  0.00     0.031 C 
ATOM     47  C   UNL A   1      46.366  24.707  28.602  1.00  0.00     0.029 A 
ATOM     48  C   UNL A   1      46.083  26.067  29.052  1.00  0.00     0.049 A 
ATOM     49  H   UNL A   1      44.232  27.015  29.142  1.00  0.00     0.167 HD
ATOM     50  C   UNL A   1      40.232  28.882  29.138  1.00  0.00     0.031 A 
ATOM     51  C   UNL A   1      46.992  26.956  29.493  1.00  0.00     0.031 A 
ATOM     52  C   UNL A   1      41.127  29.883  29.639  1.00  0.00     0.049 A 
ATOM     53  C   UNL A   1      46.532  28.327  29.899  1.00  0.00     0.074 A 
ATOM     54  C   UNL A   1      40.827  31.152  30.098  1.00  0.00     0.029 A 
ATOM     55  N   UNL A   1      42.497  29.716  29.763  1.00  0.00    -0.354 N 
ATOM     56  N   UNL A   1      45.316  28.818  29.901  1.00  0.00    -0.248 NA
ATOM     57  C   UNL A   1      47.564  29.266  30.360  1.00  0.00     0.031 C 
ATOM     58  C   UNL A   1      42.024  31.765  30.476  1.00  0.00     0.029 A 
ATOM     59  C   UNL A   1      43.062  30.863  30.284  1.00  0.00     0.049 A 
ATOM     60  H   UNL A   1      42.993  28.901  29.519  1.00  0.00     0.167 HD
ATOM     61  C   UNL A   1      45.432  30.118  30.371  1.00  0.00     0.074 A 
ATOM     62  C   UNL A   1      46.836  30.337  30.655  1.00  0.00     0.031 C 
ATOM     63  C   UNL A   1      44.464  31.049  30.552  1.00  0.00     0.031 A 
BRANCH  50  64
ATOM     64  C   UNL A   1      38.775  29.206  29.019  1.00  0.00    -0.014 A 
ATOM     65  C   UNL A   1      37.909  29.052  30.113  1.00  0.00     0.009 A 
ATOM     66  C   UNL A   1      38.264  29.695  27.808  1.00  0.00     0.009 A 
ATOM     67  C   UNL A   1      36.554  29.359  29.989  1.00  0.00     0.001 A 
ATOM     68  C   UNL A   1      36.912  30.024  27.694  1.00  0.00     0.001 A 
ATOM     69  C   UNL A   1      36.058  29.850  28.782  1.00  0.00     0.000 A 
ENDBRANCH  50  64
BRANCH  51  70
ATOM     70  C   UNL A   1      48.415  26.552  29.608  1.00  0.00    -0.014 A 
ATOM     71  C   UNL A   1      49.308  26.831  28.562  1.00  0.00     0.009 A 
ATOM     72  C   UNL A   1      48.903  25.940  30.773  1.00  0.00     0.009 A 
ATOM     73  C   UNL A   1      50.661  26.505  28.680  1.00  0.00     0.001 A 
ATOM     74  C   UNL A   1      50.260  25.630  30.894  1.00  0.00     0.001 A 
ATOM     75  C   UNL A   1      51.138  25.912  29.848  1.00  0.00     0.000 A 
ENDBRANCH  51  70
BRANCH  63  76
ATOM     76  C   UNL A   1      44.875  32.387  31.085  1.00  0.00    -0.014 A 
ATOM     77  C   UNL A   1      45.122  33.456  30.211  1.00  0.00     0.009 A 
ATOM     78  C   UNL A   1      44.887  32.611  32.470  1.00  0.00     0.009 A 
ATOM     79  C   UNL A   1      45.377  34.730  30.720  1.00  0.00     0.001 A 
ATOM     80  C   UNL A   1      45.124  33.889  32.974  1.00  0.00     0.001 A 
ATOM     81  C   UNL A   1      45.368  34.947  32.098  1.00  0.00     0.000 A 
ENDBRANCH  63  76
ENDBRANCH  37  38
ENDBRANCH  29  32
ENDBRANCH  27  28
ENDBRANCH   1  27
TORSDOF 12
ENDMDL
MODEL 2
REMARK VINA RESULT:     -12.0      1.449      1.924
REMARK SMILES Cc1cccc2c1N=CN1C2=[NH+]NC(=O)[C@@H]1CC(=O)NCCCCNC(=O)c1ccc(-c2c3nc(c(-c4ccccc4)c4ccc([nH]4)c(-c4ccccc4)c4nc(c(-c5ccccc5)c5ccc2[nH]5)C=C4)C=C3)cc1
REMARK SMILES IDX 23 1 22 2 21 3 20 4 18 5 19 6 17 8 16 9 1 10 2 11 3 12 7 13
REMARK SMILES IDX 4 14 6 15 8 16 5 17 11 18 9 19 10 20 12 21 13 22 14 24 15 26
REMARK SMILES IDX 24 27 25 28 26 29 27 31 28 32 29 33 75 34 30 35 74 36 31 37
REMARK SMILES IDX 32 38 33 39 68 40 34 41 73 42 67 43 69 44 35 45 72 46 66 47
REMARK SMILES IDX 65 48 36 50 58 51 43 52 57 53 44 54 47 55 56 56 70 57 45 58
REMARK SMILES IDX 46 59 55 61 71 62 48 63 37 64 38 65 42 66 39 67 41 68 40 69
REMARK SMILES IDX 59 70 60 71 64 72 61 73 63 74 62 75 49 76 50 77 54 78 51 79
REMARK SMILES IDX 53 80 52 81
REMARK H PARENT 20 7 12 23 13 25 25 30 69 49 47 60
REMARK Flexibility Score: inf
ROOT
ATOM      1  C   UNL A   1      37.430  19.800  24.990  1.00  0.00     0.023 C 
ENDROOT
BRANCH   1   2
ATOM      2  C   UNL A   1      36.370  20.851  24.747  1.00  0.00     0.023 C 
BRANCH   2   3
ATOM      3  C   UNL A   1      35.348  21.056  25.847  1.00  0.00     0.116 C 
BRANCH   3   4
ATOM      4  N   UNL A   1      34.221  20.174  25.646  1.00  0.00    -0.356 N 
ATOM      5  C   UNL A   1      32.943  20.478  25.288  1.00  0.00     0.224 C 
ATOM      6  O   UNL A   1      32.144  19.546  25.204  1.00  0.00    -0.275 OA
ATOM      7  H   UNL A   1      34.404  19.217  25.789  1.00  0.00     0.163 HD
BRANCH   5   8
ATOM      8  C   UNL A   1      32.556  21.897  24.903  1.00  0.00     0.160 C 
BRANCH   8   9
ATOM      9  C   UNL A   1      33.293  22.592  23.738  1.00  0.00     0.284 C 
ATOM     10  C   UNL A   1      33.907  28.344  26.579  1.00  0.00     0.047 C 
ATOM     11  C   UNL A   1      33.643  27.976  25.144  1.00  0.00    -0.024 A 
ATOM     12  C   UNL A   1      33.148  28.971  24.281  1.00  0.00     0.006 A 
ATOM     13  C   UNL A   1      33.850  26.671  24.658  1.00  0.00     0.085 A 
ATOM     14  C   UNL A   1      32.847  28.684  22.951  1.00  0.00     0.001 A 
ATOM     15  C   UNL A   1      33.472  26.385  23.328  1.00  0.00     0.092 A 
ATOM     16  N   UNL A   1      34.331  25.664  25.533  1.00  0.00    -0.215 NA
ATOM     17  C   UNL A   1      33.002  27.387  22.471  1.00  0.00     0.019 A 
ATOM     18  C   UNL A   1      33.335  24.938  22.953  1.00  0.00     0.309 C 
ATOM     19  C   UNL A   1      34.185  24.439  25.142  1.00  0.00     0.317 C 
ATOM     20  N   UNL A   1      33.600  24.023  23.967  1.00  0.00    -0.203 N 
ATOM     21  N   UNL A   1      32.886  24.659  21.766  1.00  0.00    -0.169 N 
ATOM     22  N   UNL A   1      32.584  23.369  21.497  1.00  0.00    -0.193 N 
ATOM     23  H   UNL A   1      32.772  25.362  21.086  1.00  0.00     0.340 HD
ATOM     24  C   UNL A   1      32.632  22.330  22.387  1.00  0.00     0.300 C 
ATOM     25  H   UNL A   1      32.304  23.157  20.577  1.00  0.00     0.216 HD
ATOM     26  O   UNL A   1      32.237  21.215  22.047  1.00  0.00    -0.267 OA
ENDBRANCH   8   9
ENDBRANCH   5   8
ENDBRANCH   3   4
ENDBRANCH   2   3
ENDBRANCH   1   2
BRANCH   1  27
ATOM     27  C   UNL A   1      38.654  20.343  25.697  1.00  0.00     0.116 C 
BRANCH  27  28
ATOM     28  N   UNL A   1      39.776  19.406  25.711  1.00  0.00    -0.352 N 
ATOM     29  C   UNL A   1      41.079  19.645  26.070  1.00  0.00     0.251 C 
ATOM     30  H   UNL A   1      39.569  18.487  25.425  1.00  0.00     0.163 HD
ATOM     31  O   UNL A   1      41.955  18.797  25.938  1.00  0.00    -0.269 OA
BRANCH  29  32
ATOM     32  C   UNL A   1      41.408  20.976  26.597  1.00  0.00     0.039 A 
ATOM     33  C   UNL A   1      41.439  21.172  27.979  1.00  0.00     0.014 A 
ATOM     34  C   UNL A   1      41.802  21.979  25.709  1.00  0.00     0.014 A 
ATOM     35  C   UNL A   1      41.934  22.374  28.479  1.00  0.00     0.010 A 
ATOM     36  C   UNL A   1      42.387  23.128  26.209  1.00  0.00     0.010 A 
ATOM     37  C   UNL A   1      42.434  23.342  27.595  1.00  0.00    -0.014 A 
BRANCH  37  38
ATOM     38  C   UNL A   1      42.910  24.655  28.070  1.00  0.00     0.031 A 
ATOM     39  C   UNL A   1      41.886  25.709  28.366  1.00  0.00     0.074 A 
ATOM     40  C   UNL A   1      44.226  24.915  28.158  1.00  0.00     0.049 A 
ATOM     41  N   UNL A   1      42.059  26.974  28.639  1.00  0.00    -0.248 NA
ATOM     42  C   UNL A   1      40.472  25.292  28.306  1.00  0.00     0.031 C 
ATOM     43  C   UNL A   1      45.306  23.966  27.878  1.00  0.00     0.029 A 
ATOM     44  N   UNL A   1      44.877  26.069  28.506  1.00  0.00    -0.354 N 
ATOM     45  C   UNL A   1      40.780  27.506  28.743  1.00  0.00     0.074 A 
ATOM     46  C   UNL A   1      39.843  26.446  28.457  1.00  0.00     0.031 C 
ATOM     47  C   UNL A   1      46.486  24.569  28.101  1.00  0.00     0.029 A 
ATOM     48  C   UNL A   1      46.245  25.953  28.499  1.00  0.00     0.049 A 
ATOM     49  H   UNL A   1      44.409  26.903  28.739  1.00  0.00     0.167 HD
ATOM     50  C   UNL A   1      40.421  28.765  29.074  1.00  0.00     0.031 A 
ATOM     51  C   UNL A   1      47.192  26.866  28.783  1.00  0.00     0.031 A 
ATOM     52  C   UNL A   1      41.359  29.794  29.412  1.00  0.00     0.049 A 
ATOM     53  C   UNL A   1      46.770  28.259  29.157  1.00  0.00     0.074 A 
ATOM     54  C   UNL A   1      41.103  31.088  29.826  1.00  0.00     0.029 A 
ATOM     55  N   UNL A   1      42.736  29.635  29.392  1.00  0.00    -0.354 N 
ATOM     56  N   UNL A   1      45.558  28.749  29.266  1.00  0.00    -0.248 NA
ATOM     57  C   UNL A   1      47.840  29.224  29.443  1.00  0.00     0.031 C 
ATOM     58  C   UNL A   1      42.330  31.722  30.032  1.00  0.00     0.029 A 
ATOM     59  C   UNL A   1      43.347  30.812  29.778  1.00  0.00     0.049 A 
ATOM     60  H   UNL A   1      43.207  28.808  29.142  1.00  0.00     0.167 HD
ATOM     61  C   UNL A   1      45.717  30.074  29.643  1.00  0.00     0.074 A 
ATOM     62  C   UNL A   1      47.143  30.310  29.755  1.00  0.00     0.031 C 
ATOM     63  C   UNL A   1      44.769  31.013  29.876  1.00  0.00     0.031 A 
BRANCH  50  64
ATOM     64  C   UNL A   1      38.957  29.080  29.100  1.00  0.00    -0.014 A 
ATOM     65  C   UNL A   1      38.215  28.969  30.287  1.00  0.00     0.009 A 
ATOM     66  C   UNL A   1      38.316  29.519  27.932  1.00  0.00     0.009 A 
ATOM     67  C   UNL A   1      36.853  29.268  30.298  1.00  0.00     0.001 A 
ATOM     68  C   UNL A   1      36.957  29.839  27.952  1.00  0.00     0.001 A 
ATOM     69  C   UNL A   1      36.227  29.708  29.132  1.00  0.00     0.000 A 
ENDBRANCH  50  64
BRANCH  51  70
ATOM     70  C   UNL A   1      48.622  26.470  28.761  1.00  0.00    -0.014 A 
ATOM     71  C   UNL A   1      49.367  26.606  27.580  1.00  0.00     0.009 A 
ATOM     72  C   UNL A   1      49.264  26.011  29.921  1.00  0.00     0.009 A 
ATOM     73  C   UNL A   1      50.727  26.289  27.560  1.00  0.00     0.001 A 
ATOM     74  C   UNL A   1      50.628  25.710  29.903  1.00  0.00     0.001 A 
ATOM     75  C   UNL A   1      51.358  25.848  28.723  1.00  0.00     0.000 A 
ENDBRANCH  51  70
BRANCH  63  76
ATOM     76  C   UNL A   1      45.227  32.381  30.281  1.00  0.00    -0.014 A 
ATOM     77  C   UNL A   1      45.410  33.384  29.318  1.00  0.00     0.009 A 
ATOM     78  C   UNL A   1      45.349  32.700  31.641  1.00  0.00     0.009 A 
ATOM     79  C   UNL A   1      45.711  34.687  29.715  1.00  0.00     0.001 A 
ATOM     80  C   UNL A   1      45.632  34.007  32.035  1.00  0.00     0.001 A 
ATOM     81  C   UNL A   1      45.811  35.000  31.071  1.00  0.00     0.000 A 
ENDBRANCH  63  76
ENDBRANCH  37  38
ENDBRANCH  29  32
ENDBRANCH  27  28
ENDBRANCH   1  27
TORSDOF 12
ENDMDL
MODEL 3
REMARK VINA RESULT:     -12.0      2.146      6.898
REMARK SMILES Cc1cccc2c1N=CN1C2=[NH+]NC(=O)[C@@H]1CC(=O)NCCCCNC(=O)c1ccc(-c2c3nc(c(-c4ccccc4)c4ccc([nH]4)c(-c4ccccc4)c4nc(c(-c5ccccc5)c5ccc2[nH]5)C=C4)C=C3)cc1
REMARK SMILES IDX 23 1 22 2 21 3 20 4 18 5 19 6 17 8 16 9 1 10 2 11 3 12 7 13
REMARK SMILES IDX 4 14 6 15 8 16 5 17 11 18 9 19 10 20 12 21 13 22 14 24 15 26
REMARK SMILES IDX 24 27 25 28 26 29 27 31 28 32 29 33 75 34 30 35 74 36 31 37
REMARK SMILES IDX 32 38 33 39 68 40 34 41 73 42 67 43 69 44 35 45 72 46 66 47
REMARK SMILES IDX 65 48 36 50 58 51 43 52 57 53 44 54 47 55 56 56 70 57 45 58
REMARK SMILES IDX 46 59 55 61 71 62 48 63 37 64 38 65 42 66 39 67 41 68 40 69
REMARK SMILES IDX 59 70 60 71 64 72 61 73 63 74 62 75 49 76 50 77 54 78 51 79
REMARK SMILES IDX 53 80 52 81
REMARK H PARENT 20 7 12 23 13 25 25 30 69 49 47 60
REMARK Flexibility Score: inf
ROOT
ATOM      1  C   UNL A   1      39.231  20.963  25.690  1.00  0.00     0.023 C 
ENDROOT
BRANCH   1   2
ATOM      2  C   UNL A   1      39.158  22.353  26.284  1.00  0.00     0.023 C 
BRANCH   2   3
ATOM      3  C   UNL A   1      37.914  23.162  25.974  1.00  0.00     0.116 C 
BRANCH   3   4
ATOM      4  N   UNL A   1      37.555  23.006  24.584  1.00  0.00    -0.356 N 
ATOM      5  C   UNL A   1      36.400  23.347  23.948  1.00  0.00     0.224 C 
ATOM      6  O   UNL A   1      36.318  23.088  22.749  1.00  0.00    -0.275 OA
ATOM      7  H   UNL A   1      38.245  22.594  24.014  1.00  0.00     0.163 HD
BRANCH   5   8
ATOM      8  C   UNL A   1      35.306  24.114  24.675  1.00  0.00     0.160 C 
BRANCH   8   9
ATOM      9  C   UNL A   1      33.828  23.809  24.355  1.00  0.00     0.284 C 
ATOM     10  C   UNL A   1      34.214  17.420  25.110  1.00  0.00     0.047 C 
ATOM     11  C   UNL A   1      33.429  18.252  24.133  1.00  0.00    -0.024 A 
ATOM     12  C   UNL A   1      32.906  17.620  22.989  1.00  0.00     0.006 A 
ATOM     13  C   UNL A   1      33.229  19.633  24.319  1.00  0.00     0.085 A 
ATOM     14  C   UNL A   1      32.202  18.343  22.027  1.00  0.00     0.001 A 
ATOM     15  C   UNL A   1      32.576  20.359  23.299  1.00  0.00     0.092 A 
ATOM     16  N   UNL A   1      33.772  20.272  25.463  1.00  0.00    -0.215 NA
ATOM     17  C   UNL A   1      32.041  19.717  22.176  1.00  0.00     0.019 A 
ATOM     18  C   UNL A   1      32.714  21.852  23.328  1.00  0.00     0.309 C 
ATOM     19  C   UNL A   1      33.855  21.563  25.420  1.00  0.00     0.317 C 
ATOM     20  N   UNL A   1      33.477  22.369  24.369  1.00  0.00    -0.203 N 
ATOM     21  N   UNL A   1      32.208  22.527  22.339  1.00  0.00    -0.169 N 
ATOM     22  N   UNL A   1      32.495  23.847  22.268  1.00  0.00    -0.193 N 
ATOM     23  H   UNL A   1      31.635  22.093  21.666  1.00  0.00     0.340 HD
ATOM     24  C   UNL A   1      33.339  24.532  23.101  1.00  0.00     0.300 C 
ATOM     25  H   UNL A   1      32.059  24.362  21.552  1.00  0.00     0.216 HD
ATOM     26  O   UNL A   1      33.596  25.713  22.874  1.00  0.00    -0.267 OA
ENDBRANCH   8   9
ENDBRANCH   5   8
ENDBRANCH   3   4
ENDBRANCH   2   3
ENDBRANCH   1   2
BRANCH   1  27
ATOM     27  C   UNL A   1      39.894  19.959  26.609  1.00  0.00     0.116 C 
BRANCH  27  28
ATOM     28  N   UNL A   1      41.028  19.273  25.992  1.00  0.00    -0.352 N 
ATOM     29  C   UNL A   1      42.302  19.745  25.796  1.00  0.00     0.251 C 
ATOM     30  H   UNL A   1      40.855  18.357  25.678  1.00  0.00     0.163 HD
ATOM     31  O   UNL A   1      43.141  19.108  25.169  1.00  0.00    -0.269 OA
BRANCH  29  32
ATOM     32  C   UNL A   1      42.630  21.070  26.340  1.00  0.00     0.039 A 
ATOM     33  C   UNL A   1      42.881  22.124  25.459  1.00  0.00     0.014 A 
ATOM     34  C   UNL A   1      42.561  21.273  27.720  1.00  0.00     0.014 A 
ATOM     35  C   UNL A   1      43.002  23.414  25.969  1.00  0.00     0.010 A 
ATOM     36  C   UNL A   1      42.579  22.565  28.211  1.00  0.00     0.010 A 
ATOM     37  C   UNL A   1      42.824  23.640  27.342  1.00  0.00    -0.014 A 
BRANCH  37  38
ATOM     38  C   UNL A   1      43.003  24.977  27.939  1.00  0.00     0.031 A 
ATOM     39  C   UNL A   1      44.379  25.364  28.395  1.00  0.00     0.074 A 
ATOM     40  C   UNL A   1      41.948  25.787  28.136  1.00  0.00     0.049 A 
ATOM     41  N   UNL A   1      44.757  26.406  29.085  1.00  0.00    -0.248 NA
ATOM     42  C   UNL A   1      45.472  24.431  28.063  1.00  0.00     0.031 C 
ATOM     43  C   UNL A   1      40.566  25.500  27.745  1.00  0.00     0.029 A 
ATOM     44  N   UNL A   1      41.881  27.022  28.725  1.00  0.00    -0.354 N 
ATOM     45  C   UNL A   1      46.116  26.229  29.302  1.00  0.00     0.074 A 
ATOM     46  C   UNL A   1      46.491  24.965  28.716  1.00  0.00     0.031 C 
ATOM     47  C   UNL A   1      39.794  26.549  28.074  1.00  0.00     0.029 A 
ATOM     48  C   UNL A   1      40.617  27.559  28.732  1.00  0.00     0.049 A 
ATOM     49  H   UNL A   1      42.663  27.481  29.106  1.00  0.00     0.167 HD
ATOM     50  C   UNL A   1      46.983  27.065  29.914  1.00  0.00     0.031 A 
ATOM     51  C   UNL A   1      40.181  28.736  29.218  1.00  0.00     0.031 A 
ATOM     52  C   UNL A   1      46.611  28.345  30.441  1.00  0.00     0.049 A 
ATOM     53  C   UNL A   1      41.163  29.655  29.889  1.00  0.00     0.074 A 
ATOM     54  C   UNL A   1      47.420  29.302  31.024  1.00  0.00     0.029 A 
ATOM     55  N   UNL A   1      45.321  28.852  30.429  1.00  0.00    -0.354 N 
ATOM     56  N   UNL A   1      42.450  29.485  30.077  1.00  0.00    -0.248 NA
ATOM     57  C   UNL A   1      40.637  30.921  30.416  1.00  0.00     0.031 C 
ATOM     58  C   UNL A   1      46.612  30.381  31.390  1.00  0.00     0.029 A 
ATOM     59  C   UNL A   1      45.307  30.107  31.004  1.00  0.00     0.049 A 
ATOM     60  H   UNL A   1      44.533  28.387  30.064  1.00  0.00     0.167 HD
ATOM     61  C   UNL A   1      42.891  30.625  30.733  1.00  0.00     0.074 A 
ATOM     62  C   UNL A   1      41.736  31.484  30.903  1.00  0.00     0.031 C 
ATOM     63  C   UNL A   1      44.139  30.934  31.159  1.00  0.00     0.031 A 
BRANCH  50  64
ATOM     64  C   UNL A   1      48.409  26.621  30.026  1.00  0.00    -0.014 A 
ATOM     65  C   UNL A   1      48.842  25.851  31.117  1.00  0.00     0.009 A 
ATOM     66  C   UNL A   1      49.325  26.952  29.017  1.00  0.00     0.009 A 
ATOM     67  C   UNL A   1      50.172  25.442  31.208  1.00  0.00     0.001 A 
ATOM     68  C   UNL A   1      50.650  26.522  29.099  1.00  0.00     0.001 A 
ATOM     69  C   UNL A   1      51.074  25.773  30.196  1.00  0.00     0.000 A 
ENDBRANCH  50  64
BRANCH  51  70
ATOM     70  C   UNL A   1      38.758  29.117  29.046  1.00  0.00    -0.014 A 
ATOM     71  C   UNL A   1      37.852  28.935  30.103  1.00  0.00     0.009 A 
ATOM     72  C   UNL A   1      38.306  29.712  27.858  1.00  0.00     0.009 A 
ATOM     73  C   UNL A   1      36.523  29.340  29.973  1.00  0.00     0.001 A 
ATOM     74  C   UNL A   1      36.978  30.131  27.738  1.00  0.00     0.001 A 
ATOM     75  C   UNL A   1      36.088  29.944  28.794  1.00  0.00     0.000 A 
ENDBRANCH  51  70
BRANCH  63  76
ATOM     76  C   UNL A   1      44.336  32.252  31.843  1.00  0.00    -0.014 A 
ATOM     77  C   UNL A   1      44.290  32.341  33.242  1.00  0.00     0.009 A 
ATOM     78  C   UNL A   1      44.697  33.380  31.091  1.00  0.00     0.009 A 
ATOM     79  C   UNL A   1      44.602  33.544  33.876  1.00  0.00     0.001 A 
ATOM     80  C   UNL A   1      45.026  34.575  31.730  1.00  0.00     0.001 A 
ATOM     81  C   UNL A   1      44.978  34.656  33.121  1.00  0.00     0.000 A 
ENDBRANCH  63  76
ENDBRANCH  37  38
ENDBRANCH  29  32
ENDBRANCH  27  28
ENDBRANCH   1  27
TORSDOF 12
ENDMDL
