MODEL 1
REMARK VINA RESULT:     -11.8      0.000      0.000
REMARK SMILES Cc1ccccc1OCCN1C(=O)CC[C@H](C(=O)NCCCCNC(=O)c2ccc(-c3c4nc(c(-c5ccccc5)c5ccc([nH]5)c(-c5ccccc5)c5nc(c(-c6ccccc6)c6ccc3[nH]6)C=C5)C=C4)cc2)[C@@H]1c1ccco1
REMARK SMILES IDX 20 1 19 2 17 3 18 4 16 6 11 7 12 8 75 9 13 10 14 11 15 12
REMARK SMILES IDX 10 13 9 14 8 15 7 16 1 17 2 18 3 19 4 20 6 21 5 22 76 23
REMARK SMILES IDX 77 24 80 25 78 26 79 27 21 28 22 29 23 30 24 31 25 32 26 34
REMARK SMILES IDX 27 35 28 36 74 37 29 38 73 39 30 40 31 41 32 42 67 43 33 44
REMARK SMILES IDX 72 45 66 46 68 47 34 48 71 49 65 50 64 51 35 53 57 54 42 55
REMARK SMILES IDX 56 56 43 57 46 58 55 59 69 60 44 61 45 62 54 64 70 65 47 66
REMARK SMILES IDX 36 67 37 68 41 69 38 70 40 71 39 72 58 73 59 74 63 75 60 76
REMARK SMILES IDX 62 77 61 78 48 79 49 80 53 81 50 82 52 83 51 84
REMARK H PARENT 19 5 24 33 68 52 46 63
REMARK Flexibility Score: inf
ROOT
ATOM      1  C   UNL A   1      37.131  23.581  25.903  1.00  0.00     0.116 C 
ENDROOT
BRANCH   1   2
ATOM      2  N   UNL A   1      36.094  22.971  26.719  1.00  0.00    -0.356 N 
ATOM      3  C   UNL A   1      35.097  22.109  26.370  1.00  0.00     0.225 C 
ATOM      4  O   UNL A   1      34.520  21.515  27.287  1.00  0.00    -0.275 OA
ATOM      5  H   UNL A   1      36.114  23.221  27.672  1.00  0.00     0.163 HD
BRANCH   3   6
ATOM      6  C   UNL A   1      34.688  21.843  24.917  1.00  0.00     0.109 C 
ATOM      7  N   UNL A   1      33.137  22.582  23.058  1.00  0.00    -0.328 N 
ATOM      8  C   UNL A   1      32.472  21.373  22.991  1.00  0.00     0.223 C 
ATOM      9  C   UNL A   1      33.917  22.988  24.236  1.00  0.00     0.164 C 
ATOM     10  O   UNL A   1      31.599  21.129  22.155  1.00  0.00    -0.275 OA
ATOM     11  C   UNL A   1      32.795  20.336  24.036  1.00  0.00     0.101 C 
ATOM     12  C   UNL A   1      34.163  20.431  24.678  1.00  0.00     0.026 C 
BRANCH   7  13
ATOM     13  C   UNL A   1      32.815  23.597  22.042  1.00  0.00     0.162 C 
BRANCH  13  14
ATOM     14  C   UNL A   1      33.392  24.997  22.300  1.00  0.00     0.251 C 
BRANCH  14  15
ATOM     15  O   UNL A   1      32.482  26.091  22.162  1.00  0.00    -0.491 OA
BRANCH  15  16
ATOM     16  C   UNL A   1      32.405  27.023  23.158  1.00  0.00     0.122 A 
ATOM     17  C   UNL A   1      29.861  27.008  23.467  1.00  0.00     0.048 C 
ATOM     18  C   UNL A   1      31.245  27.467  23.810  1.00  0.00    -0.009 A 
ATOM     19  C   UNL A   1      31.376  28.421  24.839  1.00  0.00     0.007 A 
ATOM     20  C   UNL A   1      32.616  28.968  25.173  1.00  0.00     0.001 A 
ATOM     21  C   UNL A   1      33.638  27.618  23.467  1.00  0.00     0.047 A 
ATOM     22  C   UNL A   1      33.748  28.579  24.472  1.00  0.00     0.004 A 
ENDBRANCH  15  16
ENDBRANCH  14  15
ENDBRANCH  13  14
ENDBRANCH   7  13
BRANCH   9  23
ATOM     23  C   UNL A   1      33.055  23.783  25.165  1.00  0.00     0.127 A 
ATOM     24  C   UNL A   1      31.736  23.635  25.542  1.00  0.00     0.048 A 
ATOM     25  O   UNL A   1      33.595  24.881  25.773  1.00  0.00    -0.467 OA
ATOM     26  C   UNL A   1      31.445  24.730  26.374  1.00  0.00     0.042 A 
ATOM     27  C   UNL A   1      32.611  25.440  26.521  1.00  0.00     0.195 A 
ENDBRANCH   9  23
ENDBRANCH   3   6
ENDBRANCH   1   2
BRANCH   1  28
ATOM     28  C   UNL A   1      38.548  23.123  26.245  1.00  0.00     0.023 C 
BRANCH  28  29
ATOM     29  C   UNL A   1      38.937  21.741  25.717  1.00  0.00     0.023 C 
BRANCH  29  30
ATOM     30  C   UNL A   1      39.757  20.894  26.681  1.00  0.00     0.116 C 
BRANCH  30  31
ATOM     31  N   UNL A   1      40.856  20.160  26.078  1.00  0.00    -0.352 N 
ATOM     32  C   UNL A   1      42.198  20.480  25.964  1.00  0.00     0.251 C 
ATOM     33  H   UNL A   1      40.605  19.293  25.685  1.00  0.00     0.163 HD
ATOM     34  O   UNL A   1      42.919  19.754  25.293  1.00  0.00    -0.269 OA
BRANCH  32  35
ATOM     35  C   UNL A   1      42.814  21.596  26.746  1.00  0.00     0.039 A 
ATOM     36  C   UNL A   1      42.555  21.642  28.127  1.00  0.00     0.014 A 
ATOM     37  C   UNL A   1      43.475  22.665  26.153  1.00  0.00     0.014 A 
ATOM     38  C   UNL A   1      42.728  22.831  28.836  1.00  0.00     0.010 A 
ATOM     39  C   UNL A   1      43.545  23.874  26.814  1.00  0.00     0.010 A 
ATOM     40  C   UNL A   1      43.108  23.972  28.134  1.00  0.00    -0.014 A 
BRANCH  40  41
ATOM     41  C   UNL A   1      42.898  25.327  28.621  1.00  0.00     0.031 A 
ATOM     42  C   UNL A   1      41.694  26.099  28.273  1.00  0.00     0.074 A 
ATOM     43  C   UNL A   1      43.752  25.802  29.555  1.00  0.00     0.049 A 
ATOM     44  N   UNL A   1      41.638  27.387  28.322  1.00  0.00    -0.248 NA
ATOM     45  C   UNL A   1      40.459  25.477  27.810  1.00  0.00     0.031 C 
ATOM     46  C   UNL A   1      43.549  26.930  30.461  1.00  0.00     0.029 A 
ATOM     47  N   UNL A   1      45.074  25.423  29.780  1.00  0.00    -0.354 N 
ATOM     48  C   UNL A   1      40.317  27.737  28.196  1.00  0.00     0.074 A 
ATOM     49  C   UNL A   1      39.632  26.529  27.794  1.00  0.00     0.031 C 
ATOM     50  C   UNL A   1      44.746  27.322  30.933  1.00  0.00     0.029 A 
ATOM     51  C   UNL A   1      45.760  26.561  30.222  1.00  0.00     0.049 A 
ATOM     52  H   UNL A   1      45.454  24.524  29.651  1.00  0.00     0.167 HD
ATOM     53  C   UNL A   1      39.897  28.969  28.593  1.00  0.00     0.031 A 
ATOM     54  C   UNL A   1      46.834  27.083  29.562  1.00  0.00     0.031 A 
ATOM     55  C   UNL A   1      40.985  29.775  29.132  1.00  0.00     0.049 A 
ATOM     56  C   UNL A   1      46.561  28.496  29.095  1.00  0.00     0.074 A 
ATOM     57  C   UNL A   1      41.404  30.035  30.427  1.00  0.00     0.029 A 
ATOM     58  N   UNL A   1      42.019  30.179  28.296  1.00  0.00    -0.354 N 
ATOM     59  N   UNL A   1      45.364  29.011  29.029  1.00  0.00    -0.248 NA
ATOM     60  C   UNL A   1      47.588  29.419  28.623  1.00  0.00     0.031 C 
ATOM     61  C   UNL A   1      42.736  30.520  30.368  1.00  0.00     0.029 A 
ATOM     62  C   UNL A   1      43.110  30.590  29.038  1.00  0.00     0.049 A 
ATOM     63  H   UNL A   1      41.980  30.173  27.312  1.00  0.00     0.167 HD
ATOM     64  C   UNL A   1      45.435  30.283  28.543  1.00  0.00     0.074 A 
ATOM     65  C   UNL A   1      46.850  30.496  28.294  1.00  0.00     0.031 C 
ATOM     66  C   UNL A   1      44.321  31.051  28.375  1.00  0.00     0.031 A 
BRANCH  53  67
ATOM     67  C   UNL A   1      38.438  29.287  28.766  1.00  0.00    -0.014 A 
ATOM     68  C   UNL A   1      37.674  29.703  27.662  1.00  0.00     0.009 A 
ATOM     69  C   UNL A   1      37.776  29.232  30.004  1.00  0.00     0.009 A 
ATOM     70  C   UNL A   1      36.348  30.130  27.802  1.00  0.00     0.001 A 
ATOM     71  C   UNL A   1      36.463  29.696  30.158  1.00  0.00     0.001 A 
ATOM     72  C   UNL A   1      35.752  30.155  29.056  1.00  0.00     0.000 A 
ENDBRANCH  53  67
BRANCH  54  73
ATOM     73  C   UNL A   1      47.628  26.069  28.816  1.00  0.00    -0.014 A 
ATOM     74  C   UNL A   1      47.404  25.952  27.429  1.00  0.00     0.009 A 
ATOM     75  C   UNL A   1      48.830  25.574  29.345  1.00  0.00     0.009 A 
ATOM     76  C   UNL A   1      48.405  25.472  26.580  1.00  0.00     0.001 A 
ATOM     77  C   UNL A   1      49.826  25.086  28.489  1.00  0.00     0.001 A 
ATOM     78  C   UNL A   1      49.628  25.070  27.108  1.00  0.00     0.000 A 
ENDBRANCH  54  73
BRANCH  66  79
ATOM     79  C   UNL A   1      44.268  32.351  27.624  1.00  0.00    -0.014 A 
ATOM     80  C   UNL A   1      44.357  32.445  26.230  1.00  0.00     0.009 A 
ATOM     81  C   UNL A   1      43.949  33.532  28.330  1.00  0.00     0.009 A 
ATOM     82  C   UNL A   1      44.170  33.668  25.575  1.00  0.00     0.001 A 
ATOM     83  C   UNL A   1      43.717  34.742  27.677  1.00  0.00     0.001 A 
ATOM     84  C   UNL A   1      43.838  34.812  26.297  1.00  0.00     0.000 A 
ENDBRANCH  66  79
ENDBRANCH  40  41
ENDBRANCH  32  35
ENDBRANCH  30  31
ENDBRANCH  29  30
ENDBRANCH  28  29
ENDBRANCH   1  28
TORSDOF 16
ENDMDL
MODEL 2
REMARK VINA RESULT:     -11.6      3.860      8.789
REMARK SMILES Cc1ccccc1OCCN1C(=O)CC[C@H](C(=O)NCCCCNC(=O)c2ccc(-c3c4nc(c(-c5ccccc5)c5ccc([nH]5)c(-c5ccccc5)c5nc(c(-c6ccccc6)c6ccc3[nH]6)C=C5)C=C4)cc2)[C@@H]1c1ccco1
REMARK SMILES IDX 20 1 19 2 17 3 18 4 16 6 11 7 12 8 75 9 13 10 14 11 15 12
REMARK SMILES IDX 10 13 9 14 8 15 7 16 1 17 2 18 3 19 4 20 6 21 5 22 76 23
REMARK SMILES IDX 77 24 80 25 78 26 79 27 21 28 22 29 23 30 24 31 25 32 26 34
REMARK SMILES IDX 27 35 28 36 74 37 29 38 73 39 30 40 31 41 32 42 67 43 33 44
REMARK SMILES IDX 72 45 66 46 68 47 34 48 71 49 65 50 64 51 35 53 57 54 42 55
REMARK SMILES IDX 56 56 43 57 46 58 55 59 69 60 44 61 45 62 54 64 70 65 47 66
REMARK SMILES IDX 36 67 37 68 41 69 38 70 40 71 39 72 58 73 59 74 63 75 60 76
REMARK SMILES IDX 62 77 61 78 48 79 49 80 53 81 50 82 52 83 51 84
REMARK H PARENT 19 5 24 33 68 52 46 63
REMARK Flexibility Score: inf
ROOT
ATOM      1  C   UNL A   1      34.292  28.602  26.636  1.00  0.00     0.116 C 
ENDROOT
BRANCH   1   2
ATOM      2  N   UNL A   1      32.895  28.566  27.036  1.00  0.00    -0.356 N 
ATOM      3  C   UNL A   1      31.977  27.565  26.927  1.00  0.00     0.225 C 
ATOM      4  O   UNL A   1      30.941  27.675  27.592  1.00  0.00    -0.275 OA
ATOM      5  H   UNL A   1      32.560  29.396  27.449  1.00  0.00     0.163 HD
BRANCH   3   6
ATOM      6  C   UNL A   1      32.184  26.328  26.045  1.00  0.00     0.109 C 
ATOM      7  N   UNL A   1      31.873  25.402  23.710  1.00  0.00    -0.328 N 
ATOM      8  C   UNL A   1      30.995  24.412  24.107  1.00  0.00     0.223 C 
ATOM      9  C   UNL A   1      32.140  26.593  24.529  1.00  0.00     0.164 C 
ATOM     10  O   UNL A   1      30.543  23.562  23.337  1.00  0.00    -0.275 OA
ATOM     11  C   UNL A   1      30.527  24.423  25.540  1.00  0.00     0.101 C 
ATOM     12  C   UNL A   1      31.445  25.090  26.543  1.00  0.00     0.026 C 
BRANCH   7  13
ATOM     13  C   UNL A   1      32.322  25.395  22.309  1.00  0.00     0.162 C 
BRANCH  13  14
ATOM     14  C   UNL A   1      33.758  24.901  22.077  1.00  0.00     0.251 C 
BRANCH  14  15
ATOM     15  O   UNL A   1      34.022  23.541  22.425  1.00  0.00    -0.491 OA
BRANCH  15  16
ATOM     16  C   UNL A   1      34.341  23.233  23.717  1.00  0.00     0.122 A 
ATOM     17  C   UNL A   1      32.950  21.091  23.931  1.00  0.00     0.048 C 
ATOM     18  C   UNL A   1      33.905  22.121  24.452  1.00  0.00    -0.009 A 
ATOM     19  C   UNL A   1      34.372  21.962  25.772  1.00  0.00     0.007 A 
ATOM     20  C   UNL A   1      35.199  22.913  26.372  1.00  0.00     0.001 A 
ATOM     21  C   UNL A   1      35.131  24.207  24.348  1.00  0.00     0.047 A 
ATOM     22  C   UNL A   1      35.565  24.049  25.663  1.00  0.00     0.004 A 
ENDBRANCH  15  16
ENDBRANCH  14  15
ENDBRANCH  13  14
ENDBRANCH   7  13
BRANCH   9  23
ATOM     23  C   UNL A   1      31.220  27.702  24.128  1.00  0.00     0.127 A 
ATOM     24  C   UNL A   1      31.452  29.039  23.884  1.00  0.00     0.048 A 
ATOM     25  O   UNL A   1      29.893  27.421  23.973  1.00  0.00    -0.467 OA
ATOM     26  C   UNL A   1      30.193  29.611  23.627  1.00  0.00     0.042 A 
ATOM     27  C   UNL A   1      29.279  28.587  23.651  1.00  0.00     0.195 A 
ENDBRANCH   9  23
ENDBRANCH   3   6
ENDBRANCH   1   2
BRANCH   1  28
ATOM     28  C   UNL A   1      35.177  29.476  27.524  1.00  0.00     0.023 C 
BRANCH  28  29
ATOM     29  C   UNL A   1      34.458  30.614  28.251  1.00  0.00     0.023 C 
BRANCH  29  30
ATOM     30  C   UNL A   1      34.473  31.951  27.523  1.00  0.00     0.116 C 
BRANCH  30  31
ATOM     31  N   UNL A   1      33.795  33.037  28.209  1.00  0.00    -0.352 N 
ATOM     32  C   UNL A   1      34.108  33.692  29.388  1.00  0.00     0.251 C 
ATOM     33  H   UNL A   1      32.979  33.359  27.764  1.00  0.00     0.163 HD
ATOM     34  O   UNL A   1      33.307  34.499  29.840  1.00  0.00    -0.269 OA
BRANCH  32  35
ATOM     35  C   UNL A   1      35.445  33.548  30.042  1.00  0.00     0.039 A 
ATOM     36  C   UNL A   1      36.554  34.105  29.382  1.00  0.00     0.014 A 
ATOM     37  C   UNL A   1      35.660  32.756  31.164  1.00  0.00     0.014 A 
ATOM     38  C   UNL A   1      37.844  33.673  29.689  1.00  0.00     0.010 A 
ATOM     39  C   UNL A   1      36.917  32.238  31.399  1.00  0.00     0.010 A 
ATOM     40  C   UNL A   1      37.997  32.647  30.617  1.00  0.00    -0.014 A 
BRANCH  40  41
ATOM     41  C   UNL A   1      39.183  31.807  30.706  1.00  0.00     0.031 A 
ATOM     42  C   UNL A   1      39.311  30.562  29.933  1.00  0.00     0.074 A 
ATOM     43  C   UNL A   1      40.249  32.291  31.381  1.00  0.00     0.049 A 
ATOM     44  N   UNL A   1      40.111  29.603  30.259  1.00  0.00    -0.248 NA
ATOM     45  C   UNL A   1      38.523  30.284  28.738  1.00  0.00     0.031 C 
ATOM     46  C   UNL A   1      41.638  31.846  31.296  1.00  0.00     0.029 A 
ATOM     47  N   UNL A   1      40.257  33.225  32.415  1.00  0.00    -0.354 N 
ATOM     48  C   UNL A   1      40.164  28.743  29.191  1.00  0.00     0.074 A 
ATOM     49  C   UNL A   1      39.100  29.157  28.305  1.00  0.00     0.031 C 
ATOM     50  C   UNL A   1      42.297  32.284  32.383  1.00  0.00     0.029 A 
ATOM     51  C   UNL A   1      41.313  32.885  33.269  1.00  0.00     0.049 A 
ATOM     52  H   UNL A   1      39.637  33.982  32.524  1.00  0.00     0.167 HD
ATOM     53  C   UNL A   1      41.197  27.864  29.074  1.00  0.00     0.031 A 
ATOM     54  C   UNL A   1      41.134  32.578  34.586  1.00  0.00     0.031 A 
ATOM     55  C   UNL A   1      42.150  27.985  30.170  1.00  0.00     0.049 A 
ATOM     56  C   UNL A   1      41.582  31.166  34.891  1.00  0.00     0.074 A 
ATOM     57  C   UNL A   1      43.363  28.645  30.285  1.00  0.00     0.029 A 
ATOM     58  N   UNL A   1      41.756  27.657  31.462  1.00  0.00    -0.354 N 
ATOM     59  N   UNL A   1      41.787  30.265  33.970  1.00  0.00    -0.248 NA
ATOM     60  C   UNL A   1      41.788  30.640  36.237  1.00  0.00     0.031 C 
ATOM     61  C   UNL A   1      43.655  28.788  31.666  1.00  0.00     0.029 A 
ATOM     62  C   UNL A   1      42.640  28.182  32.385  1.00  0.00     0.049 A 
ATOM     63  H   UNL A   1      40.959  27.125  31.687  1.00  0.00     0.167 HD
ATOM     64  C   UNL A   1      42.151  29.086  34.551  1.00  0.00     0.074 A 
ATOM     65  C   UNL A   1      42.132  29.365  35.976  1.00  0.00     0.031 C 
ATOM     66  C   UNL A   1      42.426  27.975  33.811  1.00  0.00     0.031 A 
BRANCH  53  67
ATOM     67  C   UNL A   1      41.466  27.131  27.790  1.00  0.00    -0.014 A 
ATOM     68  C   UNL A   1      41.188  25.756  27.694  1.00  0.00     0.009 A 
ATOM     69  C   UNL A   1      42.033  27.739  26.657  1.00  0.00     0.009 A 
ATOM     70  C   UNL A   1      41.542  25.010  26.563  1.00  0.00     0.001 A 
ATOM     71  C   UNL A   1      42.426  26.991  25.539  1.00  0.00     0.001 A 
ATOM     72  C   UNL A   1      42.188  25.622  25.497  1.00  0.00     0.000 A 
ENDBRANCH  53  67
BRANCH  54  73
ATOM     73  C   UNL A   1      39.964  33.261  35.205  1.00  0.00    -0.014 A 
ATOM     74  C   UNL A   1      38.748  32.550  35.265  1.00  0.00     0.009 A 
ATOM     75  C   UNL A   1      40.149  34.349  36.072  1.00  0.00     0.009 A 
ATOM     76  C   UNL A   1      37.798  32.839  36.250  1.00  0.00     0.001 A 
ATOM     77  C   UNL A   1      39.190  34.637  37.051  1.00  0.00     0.001 A 
ATOM     78  C   UNL A   1      38.036  33.862  37.164  1.00  0.00     0.000 A 
ENDBRANCH  54  73
BRANCH  66  79
ATOM     79  C   UNL A   1      42.589  26.585  34.357  1.00  0.00    -0.014 A 
ATOM     80  C   UNL A   1      41.632  25.952  35.161  1.00  0.00     0.009 A 
ATOM     81  C   UNL A   1      43.678  25.803  33.915  1.00  0.00     0.009 A 
ATOM     82  C   UNL A   1      41.777  24.610  35.533  1.00  0.00     0.001 A 
ATOM     83  C   UNL A   1      43.801  24.454  34.246  1.00  0.00     0.001 A 
ATOM     84  C   UNL A   1      42.852  23.859  35.066  1.00  0.00     0.000 A 
ENDBRANCH  66  79
ENDBRANCH  40  41
ENDBRANCH  32  35
ENDBRANCH  30  31
ENDBRANCH  29  30
ENDBRANCH  28  29
ENDBRANCH   1  28
TORSDOF 16
ENDMDL
MODEL 3
REMARK VINA RESULT:     -11.4      3.238      8.355
REMARK SMILES Cc1ccccc1OCCN1C(=O)CC[C@H](C(=O)NCCCCNC(=O)c2ccc(-c3c4nc(c(-c5ccccc5)c5ccc([nH]5)c(-c5ccccc5)c5nc(c(-c6ccccc6)c6ccc3[nH]6)C=C5)C=C4)cc2)[C@@H]1c1ccco1
REMARK SMILES IDX 20 1 19 2 17 3 18 4 16 6 11 7 12 8 75 9 13 10 14 11 15 12
REMARK SMILES IDX 10 13 9 14 8 15 7 16 1 17 2 18 3 19 4 20 6 21 5 22 76 23
REMARK SMILES IDX 77 24 80 25 78 26 79 27 21 28 22 29 23 30 24 31 25 32 26 34
REMARK SMILES IDX 27 35 28 36 74 37 29 38 73 39 30 40 31 41 32 42 67 43 33 44
REMARK SMILES IDX 72 45 66 46 68 47 34 48 71 49 65 50 64 51 35 53 57 54 42 55
REMARK SMILES IDX 56 56 43 57 46 58 55 59 69 60 44 61 45 62 54 64 70 65 47 66
REMARK SMILES IDX 36 67 37 68 41 69 38 70 40 71 39 72 58 73 59 74 63 75 60 76
REMARK SMILES IDX 62 77 61 78 48 79 49 80 53 81 50 82 52 83 51 84
REMARK H PARENT 19 5 24 33 68 52 46 63
REMARK Flexibility Score: inf
ROOT
ATOM      1  C   UNL A   1      34.288  29.112  26.768  1.00  0.00     0.116 C 
ENDROOT
BRANCH   1   2
ATOM      2  N   UNL A   1      34.330  29.050  25.316  1.00  0.00    -0.356 N 
ATOM      3  C   UNL A   1      33.317  28.908  24.415  1.00  0.00     0.225 C 
ATOM      4  O   UNL A   1      33.573  29.167  23.234  1.00  0.00    -0.275 OA
ATOM      5  H   UNL A   1      35.230  29.120  24.924  1.00  0.00     0.163 HD
BRANCH   3   6
ATOM      6  C   UNL A   1      31.901  28.468  24.806  1.00  0.00     0.109 C 
ATOM      7  N   UNL A   1      30.350  26.475  24.979  1.00  0.00    -0.328 N 
ATOM      8  C   UNL A   1      29.454  26.959  24.046  1.00  0.00     0.223 C 
ATOM      9  C   UNL A   1      31.735  26.961  25.067  1.00  0.00     0.164 C 
ATOM     10  O   UNL A   1      28.397  26.388  23.766  1.00  0.00    -0.275 OA
ATOM     11  C   UNL A   1      29.829  28.214  23.298  1.00  0.00     0.101 C 
ATOM     12  C   UNL A   1      30.804  29.144  23.989  1.00  0.00     0.026 C 
BRANCH   7  13
ATOM     13  C   UNL A   1      29.987  25.247  25.703  1.00  0.00     0.162 C 
BRANCH  13  14
ATOM     14  C   UNL A   1      31.080  24.668  26.614  1.00  0.00     0.251 C 
BRANCH  14  15
ATOM     15  O   UNL A   1      31.120  23.244  26.726  1.00  0.00    -0.491 OA
BRANCH  15  16
ATOM     16  C   UNL A   1      32.061  22.546  26.022  1.00  0.00     0.122 A 
ATOM     17  C   UNL A   1      33.844  22.394  27.856  1.00  0.00     0.048 C 
ATOM     18  C   UNL A   1      33.310  22.108  26.485  1.00  0.00    -0.009 A 
ATOM     19  C   UNL A   1      34.132  21.372  25.610  1.00  0.00     0.007 A 
ATOM     20  C   UNL A   1      33.755  21.128  24.288  1.00  0.00     0.001 A 
ATOM     21  C   UNL A   1      31.716  22.339  24.677  1.00  0.00     0.047 A 
ATOM     22  C   UNL A   1      32.550  21.629  23.815  1.00  0.00     0.004 A 
ENDBRANCH  15  16
ENDBRANCH  14  15
ENDBRANCH  13  14
ENDBRANCH   7  13
BRANCH   9  23
ATOM     23  C   UNL A   1      32.630  26.093  24.240  1.00  0.00     0.127 A 
ATOM     24  C   UNL A   1      33.836  25.487  24.525  1.00  0.00     0.048 A 
ATOM     25  O   UNL A   1      32.263  25.822  22.952  1.00  0.00    -0.467 OA
ATOM     26  C   UNL A   1      34.251  24.868  23.333  1.00  0.00     0.042 A 
ATOM     27  C   UNL A   1      33.248  25.061  22.415  1.00  0.00     0.195 A 
ENDBRANCH   9  23
ENDBRANCH   3   6
ENDBRANCH   1   2
BRANCH   1  28
ATOM     28  C   UNL A   1      33.040  29.789  27.332  1.00  0.00     0.023 C 
BRANCH  28  29
ATOM     29  C   UNL A   1      33.133  31.307  27.495  1.00  0.00     0.023 C 
BRANCH  29  30
ATOM     30  C   UNL A   1      34.549  31.852  27.639  1.00  0.00     0.116 C 
BRANCH  30  31
ATOM     31  N   UNL A   1      34.941  32.204  28.992  1.00  0.00    -0.352 N 
ATOM     32  C   UNL A   1      35.787  31.560  29.880  1.00  0.00     0.251 C 
ATOM     33  H   UNL A   1      34.541  33.035  29.333  1.00  0.00     0.163 HD
ATOM     34  O   UNL A   1      35.865  31.984  31.025  1.00  0.00    -0.269 OA
BRANCH  32  35
ATOM     35  C   UNL A   1      36.704  30.462  29.445  1.00  0.00     0.039 A 
ATOM     36  C   UNL A   1      36.776  29.317  30.256  1.00  0.00     0.014 A 
ATOM     37  C   UNL A   1      37.598  30.594  28.389  1.00  0.00     0.014 A 
ATOM     38  C   UNL A   1      37.872  28.458  30.164  1.00  0.00     0.010 A 
ATOM     39  C   UNL A   1      38.739  29.818  28.363  1.00  0.00     0.010 A 
ATOM     40  C   UNL A   1      38.906  28.793  29.294  1.00  0.00    -0.014 A 
BRANCH  40  41
ATOM     41  C   UNL A   1      40.260  28.272  29.409  1.00  0.00     0.031 A 
ATOM     42  C   UNL A   1      40.667  27.018  28.755  1.00  0.00     0.074 A 
ATOM     43  C   UNL A   1      41.194  29.062  29.984  1.00  0.00     0.049 A 
ATOM     44  N   UNL A   1      41.679  26.315  29.136  1.00  0.00    -0.248 NA
ATOM     45  C   UNL A   1      39.942  26.438  27.631  1.00  0.00     0.031 C 
ATOM     46  C   UNL A   1      42.646  28.951  29.879  1.00  0.00     0.029 A 
ATOM     47  N   UNL A   1      41.000  30.075  30.921  1.00  0.00    -0.354 N 
ATOM     48  C   UNL A   1      41.914  25.384  28.155  1.00  0.00     0.074 A 
ATOM     49  C   UNL A   1      40.763  25.440  27.283  1.00  0.00     0.031 C 
ATOM     50  C   UNL A   1      43.204  29.644  30.887  1.00  0.00     0.029 A 
ATOM     51  C   UNL A   1      42.125  30.086  31.755  1.00  0.00     0.049 A 
ATOM     52  H   UNL A   1      40.219  30.671  30.985  1.00  0.00     0.167 HD
ATOM     53  C   UNL A   1      43.125  24.767  28.077  1.00  0.00     0.031 A 
ATOM     54  C   UNL A   1      42.053  29.885  33.103  1.00  0.00     0.031 A 
ATOM     55  C   UNL A   1      44.045  25.224  29.110  1.00  0.00     0.049 A 
ATOM     56  C   UNL A   1      42.833  28.659  33.521  1.00  0.00     0.074 A 
ATOM     57  C   UNL A   1      45.067  26.160  29.104  1.00  0.00     0.029 A 
ATOM     58  N   UNL A   1      43.769  24.950  30.444  1.00  0.00    -0.354 N 
ATOM     59  N   UNL A   1      43.228  27.740  32.684  1.00  0.00    -0.248 NA
ATOM     60  C   UNL A   1      43.188  28.341  34.901  1.00  0.00     0.031 C 
ATOM     61  C   UNL A   1      45.345  26.512  30.451  1.00  0.00     0.029 A 
ATOM     62  C   UNL A   1      44.521  25.763  31.271  1.00  0.00     0.049 A 
ATOM     63  H   UNL A   1      43.128  24.272  30.757  1.00  0.00     0.167 HD
ATOM     64  C   UNL A   1      43.877  26.748  33.360  1.00  0.00     0.074 A 
ATOM     65  C   UNL A   1      43.822  27.163  34.750  1.00  0.00     0.031 C 
ATOM     66  C   UNL A   1      44.394  25.662  32.718  1.00  0.00     0.031 A 
BRANCH  53  67
ATOM     67  C   UNL A   1      43.534  23.987  26.858  1.00  0.00    -0.014 A 
ATOM     68  C   UNL A   1      44.249  24.620  25.826  1.00  0.00     0.009 A 
ATOM     69  C   UNL A   1      43.205  22.636  26.658  1.00  0.00     0.009 A 
ATOM     70  C   UNL A   1      44.537  23.968  24.621  1.00  0.00     0.001 A 
ATOM     71  C   UNL A   1      43.455  21.990  25.440  1.00  0.00     0.001 A 
ATOM     72  C   UNL A   1      44.114  22.661  24.417  1.00  0.00     0.000 A 
ENDBRANCH  53  67
BRANCH  54  73
ATOM     73  C   UNL A   1      40.767  30.333  33.705  1.00  0.00    -0.014 A 
ATOM     74  C   UNL A   1      40.644  31.696  34.046  1.00  0.00     0.009 A 
ATOM     75  C   UNL A   1      39.598  29.576  33.539  1.00  0.00     0.009 A 
ATOM     76  C   UNL A   1      39.390  32.312  34.093  1.00  0.00     0.001 A 
ATOM     77  C   UNL A   1      38.344  30.197  33.595  1.00  0.00     0.001 A 
ATOM     78  C   UNL A   1      38.242  31.568  33.834  1.00  0.00     0.000 A 
ENDBRANCH  54  73
BRANCH  66  79
ATOM     79  C   UNL A   1      44.896  24.416  33.389  1.00  0.00    -0.014 A 
ATOM     80  C   UNL A   1      46.209  24.260  33.853  1.00  0.00     0.009 A 
ATOM     81  C   UNL A   1      43.971  23.403  33.724  1.00  0.00     0.009 A 
ATOM     82  C   UNL A   1      46.585  23.129  34.586  1.00  0.00     0.001 A 
ATOM     83  C   UNL A   1      44.332  22.297  34.493  1.00  0.00     0.001 A 
ATOM     84  C   UNL A   1      45.646  22.156  34.917  1.00  0.00     0.000 A 
ENDBRANCH  66  79
ENDBRANCH  40  41
ENDBRANCH  32  35
ENDBRANCH  30  31
ENDBRANCH  29  30
ENDBRANCH  28  29
ENDBRANCH   1  28
TORSDOF 16
ENDMDL
