MODEL 1
REMARK VINA RESULT:     -10.5      0.000      0.000
REMARK SMILES O=C(NCCCCNC(=O)c1c[nH]c(=O)c(-c2cccc([N+](=O)[O-])c2)c1)c1ccc(-c2c3nc(c(-c4ccccc4)c4ccc([nH]4)c(-c4ccccc4)c4nc(c(-c5ccccc5)c5ccc2[nH]5)C=C4)C=C3)cc1
REMARK SMILES IDX 5 1 4 2 3 3 1 4 2 5 27 7 28 8 74 9 29 10 73 11 30 12 31 13
REMARK SMILES IDX 32 14 67 15 33 16 72 17 66 18 68 19 34 20 71 21 65 22 64 23
REMARK SMILES IDX 35 25 57 26 42 27 56 28 43 29 46 30 55 31 69 32 44 33 45 34
REMARK SMILES IDX 54 36 70 37 47 38 36 39 37 40 41 41 38 42 40 43 39 44 58 45
REMARK SMILES IDX 59 46 63 47 60 48 62 49 61 50 48 51 49 52 53 53 50 54 52 55
REMARK SMILES IDX 51 56 6 57 7 58 8 59 9 60 10 62 11 63 12 64 26 65 13 66
REMARK SMILES IDX 16 67 14 68 15 70 17 71 18 72 25 73 19 74 21 75 20 76 22 77
REMARK SMILES IDX 23 78 24 79
REMARK H PARENT 3 6 68 24 46 35 8 61 13 69
REMARK Flexibility Score: inf
ROOT
ATOM      1  C   UNL A   1      41.812  21.215  27.452  1.00  0.00     0.023 C 
ENDROOT
BRANCH   1   2
ATOM      2  C   UNL A   1      41.471  21.925  26.149  1.00  0.00     0.116 C 
BRANCH   2   3
ATOM      3  N   UNL A   1      40.048  21.908  25.849  1.00  0.00    -0.352 N 
ATOM      4  O   UNL A   1      37.905  22.609  25.942  1.00  0.00    -0.269 OA
ATOM      5  C   UNL A   1      39.091  22.847  26.149  1.00  0.00     0.251 C 
ATOM      6  H   UNL A   1      39.728  21.114  25.365  1.00  0.00     0.163 HD
BRANCH   5   7
ATOM      7  C   UNL A   1      39.492  24.142  26.739  1.00  0.00     0.039 A 
ATOM      8  C   UNL A   1      39.271  24.403  28.094  1.00  0.00     0.014 A 
ATOM      9  C   UNL A   1      40.110  25.100  25.930  1.00  0.00     0.014 A 
ATOM     10  C   UNL A   1      39.556  25.663  28.609  1.00  0.00     0.010 A 
ATOM     11  C   UNL A   1      40.471  26.338  26.470  1.00  0.00     0.010 A 
ATOM     12  C   UNL A   1      40.182  26.634  27.811  1.00  0.00    -0.014 A 
BRANCH  12  13
ATOM     13  C   UNL A   1      40.634  27.900  28.437  1.00  0.00     0.031 A 
ATOM     14  C   UNL A   1      42.067  28.118  28.831  1.00  0.00     0.074 A 
ATOM     15  C   UNL A   1      39.719  28.868  28.636  1.00  0.00     0.049 A 
ATOM     16  N   UNL A   1      42.612  29.178  29.374  1.00  0.00    -0.248 NA
ATOM     17  C   UNL A   1      43.008  27.012  28.596  1.00  0.00     0.031 C 
ATOM     18  C   UNL A   1      38.293  28.761  28.306  1.00  0.00     0.029 A 
ATOM     19  N   UNL A   1      39.845  30.133  29.148  1.00  0.00    -0.354 N 
ATOM     20  C   UNL A   1      43.952  28.863  29.562  1.00  0.00     0.074 A 
ATOM     21  C   UNL A   1      44.137  27.508  29.089  1.00  0.00     0.031 C 
ATOM     22  C   UNL A   1      37.688  29.923  28.588  1.00  0.00     0.029 A 
ATOM     23  C   UNL A   1      38.662  30.832  29.177  1.00  0.00     0.049 A 
ATOM     24  H   UNL A   1      40.700  30.505  29.464  1.00  0.00     0.167 HD
ATOM     25  C   UNL A   1      44.934  29.638  30.084  1.00  0.00     0.031 A 
ATOM     26  C   UNL A   1      38.383  32.060  29.649  1.00  0.00     0.031 A 
ATOM     27  C   UNL A   1      44.745  30.988  30.546  1.00  0.00     0.049 A 
ATOM     28  C   UNL A   1      39.488  32.875  30.251  1.00  0.00     0.074 A 
ATOM     29  C   UNL A   1      45.694  31.871  31.035  1.00  0.00     0.029 A 
ATOM     30  N   UNL A   1      43.526  31.647  30.592  1.00  0.00    -0.354 N 
ATOM     31  N   UNL A   1      40.760  32.584  30.361  1.00  0.00    -0.248 NA
ATOM     32  C   UNL A   1      39.116  34.187  30.798  1.00  0.00     0.031 C 
ATOM     33  C   UNL A   1      45.040  33.043  31.430  1.00  0.00     0.029 A 
ATOM     34  C   UNL A   1      43.693  32.909  31.138  1.00  0.00     0.049 A 
ATOM     35  H   UNL A   1      42.670  31.274  30.282  1.00  0.00     0.167 HD
ATOM     36  C   UNL A   1      41.343  33.678  30.984  1.00  0.00     0.074 A 
ATOM     37  C   UNL A   1      40.291  34.650  31.197  1.00  0.00     0.031 C 
ATOM     38  C   UNL A   1      42.633  33.858  31.354  1.00  0.00     0.031 A 
BRANCH  25  39
ATOM     39  C   UNL A   1      46.310  29.047  30.210  1.00  0.00    -0.014 A 
ATOM     40  C   UNL A   1      46.695  28.334  31.355  1.00  0.00     0.009 A 
ATOM     41  C   UNL A   1      47.196  29.117  29.122  1.00  0.00     0.009 A 
ATOM     42  C   UNL A   1      47.947  27.717  31.413  1.00  0.00     0.001 A 
ATOM     43  C   UNL A   1      48.437  28.481  29.175  1.00  0.00     0.001 A 
ATOM     44  C   UNL A   1      48.814  27.785  30.321  1.00  0.00     0.000 A 
ENDBRANCH  25  39
BRANCH  26  45
ATOM     45  C   UNL A   1      36.988  32.569  29.613  1.00  0.00    -0.014 A 
ATOM     46  C   UNL A   1      36.106  32.320  30.674  1.00  0.00     0.009 A 
ATOM     47  C   UNL A   1      36.531  33.302  28.506  1.00  0.00     0.009 A 
ATOM     48  C   UNL A   1      34.784  32.772  30.613  1.00  0.00     0.001 A 
ATOM     49  C   UNL A   1      35.222  33.780  28.463  1.00  0.00     0.001 A 
ATOM     50  C   UNL A   1      34.346  33.505  29.510  1.00  0.00     0.000 A 
ENDBRANCH  26  45
BRANCH  38  51
ATOM     51  C   UNL A   1      42.970  35.160  32.022  1.00  0.00    -0.014 A 
ATOM     52  C   UNL A   1      43.537  36.218  31.295  1.00  0.00     0.009 A 
ATOM     53  C   UNL A   1      42.701  35.335  33.387  1.00  0.00     0.009 A 
ATOM     54  C   UNL A   1      43.861  37.416  31.933  1.00  0.00     0.001 A 
ATOM     55  C   UNL A   1      43.000  36.544  34.015  1.00  0.00     0.001 A 
ATOM     56  C   UNL A   1      43.588  37.579  33.291  1.00  0.00     0.000 A 
ENDBRANCH  38  51
ENDBRANCH  12  13
ENDBRANCH   5   7
ENDBRANCH   2   3
ENDBRANCH   1   2
BRANCH   1  57
ATOM     57  C   UNL A   1      42.180  19.740  27.312  1.00  0.00     0.023 C 
BRANCH  57  58
ATOM     58  C   UNL A   1      42.316  19.235  25.880  1.00  0.00     0.116 C 
BRANCH  58  59
ATOM     59  N   UNL A   1      43.544  18.483  25.658  1.00  0.00    -0.352 N 
ATOM     60  C   UNL A   1      44.766  18.911  25.223  1.00  0.00     0.252 C 
ATOM     61  H   UNL A   1      43.483  17.520  25.851  1.00  0.00     0.163 HD
ATOM     62  O   UNL A   1      45.657  18.095  25.002  1.00  0.00    -0.269 OA
BRANCH  60  63
ATOM     63  C   UNL A   1      44.975  20.363  24.997  1.00  0.00     0.056 A 
ATOM     64  C   UNL A   1      44.711  20.855  23.778  1.00  0.00     0.099 A 
ATOM     65  C   UNL A   1      45.426  21.256  26.045  1.00  0.00     0.029 A 
ATOM     66  N   UNL A   1      44.802  22.206  23.545  1.00  0.00    -0.328 N 
ATOM     67  C   UNL A   1      45.471  22.590  25.869  1.00  0.00     0.048 A 
ATOM     68  C   UNL A   1      45.136  23.136  24.505  1.00  0.00     0.255 A 
ATOM     69  H   UNL A   1      44.617  22.529  22.634  1.00  0.00     0.169 HD
ATOM     70  O   UNL A   1      45.155  24.336  24.255  1.00  0.00    -0.269 OA
BRANCH  67  71
ATOM     71  C   UNL A   1      45.740  23.465  27.025  1.00  0.00    -0.006 A 
ATOM     72  C   UNL A   1      46.852  24.323  27.045  1.00  0.00     0.009 A 
ATOM     73  C   UNL A   1      44.918  23.391  28.158  1.00  0.00     0.094 A 
ATOM     74  C   UNL A   1      47.146  25.086  28.179  1.00  0.00     0.008 A 
ATOM     75  C   UNL A   1      45.219  24.156  29.293  1.00  0.00     0.270 A 
ATOM     76  C   UNL A   1      46.335  25.002  29.308  1.00  0.00     0.085 A 
BRANCH  75  77
ATOM     77  N   UNL A   1      44.373  24.047  30.488  1.00  0.00     0.062 N 
ATOM     78  O   UNL A   1      43.603  23.080  30.561  1.00  0.00    -0.258 OA
ATOM     79  O   UNL A   1      44.465  24.939  31.343  1.00  0.00    -0.258 OA
ENDBRANCH  75  77
ENDBRANCH  67  71
ENDBRANCH  60  63
ENDBRANCH  58  59
ENDBRANCH  57  58
ENDBRANCH   1  57
TORSDOF 13
ENDMDL
MODEL 2
REMARK VINA RESULT:     -10.2      4.561     10.446
REMARK SMILES O=C(NCCCCNC(=O)c1c[nH]c(=O)c(-c2cccc([N+](=O)[O-])c2)c1)c1ccc(-c2c3nc(c(-c4ccccc4)c4ccc([nH]4)c(-c4ccccc4)c4nc(c(-c5ccccc5)c5ccc2[nH]5)C=C4)C=C3)cc1
REMARK SMILES IDX 5 1 4 2 3 3 1 4 2 5 27 7 28 8 74 9 29 10 73 11 30 12 31 13
REMARK SMILES IDX 32 14 67 15 33 16 72 17 66 18 68 19 34 20 71 21 65 22 64 23
REMARK SMILES IDX 35 25 57 26 42 27 56 28 43 29 46 30 55 31 69 32 44 33 45 34
REMARK SMILES IDX 54 36 70 37 47 38 36 39 37 40 41 41 38 42 40 43 39 44 58 45
REMARK SMILES IDX 59 46 63 47 60 48 62 49 61 50 48 51 49 52 53 53 50 54 52 55
REMARK SMILES IDX 51 56 6 57 7 58 8 59 9 60 10 62 11 63 12 64 26 65 13 66
REMARK SMILES IDX 16 67 14 68 15 70 17 71 18 72 25 73 19 74 21 75 20 76 22 77
REMARK SMILES IDX 23 78 24 79
REMARK H PARENT 3 6 68 24 46 35 8 61 13 69
REMARK Flexibility Score: inf
ROOT
ATOM      1  C   UNL A   1      33.811  28.277  25.753  1.00  0.00     0.023 C 
ENDROOT
BRANCH   1   2
ATOM      2  C   UNL A   1      33.714  28.507  27.255  1.00  0.00     0.116 C 
BRANCH   2   3
ATOM      3  N   UNL A   1      33.590  29.912  27.607  1.00  0.00    -0.352 N 
ATOM      4  O   UNL A   1      34.190  31.868  28.561  1.00  0.00    -0.269 OA
ATOM      5  C   UNL A   1      34.511  30.737  28.208  1.00  0.00     0.251 C 
ATOM      6  H   UNL A   1      32.727  30.330  27.384  1.00  0.00     0.163 HD
BRANCH   5   7
ATOM      7  C   UNL A   1      35.887  30.252  28.446  1.00  0.00     0.039 A 
ATOM      8  C   UNL A   1      36.853  30.333  27.440  1.00  0.00     0.014 A 
ATOM      9  C   UNL A   1      36.218  29.723  29.697  1.00  0.00     0.014 A 
ATOM     10  C   UNL A   1      38.111  29.776  27.643  1.00  0.00     0.010 A 
ATOM     11  C   UNL A   1      37.508  29.238  29.928  1.00  0.00     0.010 A 
ATOM     12  C   UNL A   1      38.461  29.247  28.896  1.00  0.00    -0.014 A 
BRANCH  12  13
ATOM     13  C   UNL A   1      39.862  28.825  29.135  1.00  0.00     0.031 A 
ATOM     14  C   UNL A   1      40.860  29.739  29.787  1.00  0.00     0.074 A 
ATOM     15  C   UNL A   1      40.220  27.583  28.760  1.00  0.00     0.049 A 
ATOM     16  N   UNL A   1      42.117  29.504  30.074  1.00  0.00    -0.248 NA
ATOM     17  C   UNL A   1      40.402  31.086  30.159  1.00  0.00     0.031 C 
ATOM     18  C   UNL A   1      39.338  26.613  28.103  1.00  0.00     0.029 A 
ATOM     19  N   UNL A   1      41.410  26.914  28.884  1.00  0.00    -0.354 N 
ATOM     20  C   UNL A   1      42.603  30.674  30.642  1.00  0.00     0.074 A 
ATOM     21  C   UNL A   1      41.512  31.625  30.647  1.00  0.00     0.031 C 
ATOM     22  C   UNL A   1      40.004  25.465  27.919  1.00  0.00     0.029 A 
ATOM     23  C   UNL A   1      41.375  25.636  28.381  1.00  0.00     0.049 A 
ATOM     24  H   UNL A   1      42.213  27.311  29.295  1.00  0.00     0.167 HD
ATOM     25  C   UNL A   1      43.848  30.927  31.114  1.00  0.00     0.031 A 
ATOM     26  C   UNL A   1      42.344  24.709  28.277  1.00  0.00     0.031 A 
ATOM     27  C   UNL A   1      44.927  29.974  31.113  1.00  0.00     0.049 A 
ATOM     28  C   UNL A   1      43.718  25.037  28.779  1.00  0.00     0.074 A 
ATOM     29  C   UNL A   1      46.206  30.121  31.624  1.00  0.00     0.029 A 
ATOM     30  N   UNL A   1      44.862  28.703  30.562  1.00  0.00    -0.354 N 
ATOM     31  N   UNL A   1      44.142  26.126  29.370  1.00  0.00    -0.248 NA
ATOM     32  C   UNL A   1      44.750  24.008  28.592  1.00  0.00     0.031 C 
ATOM     33  C   UNL A   1      46.932  28.961  31.331  1.00  0.00     0.029 A 
ATOM     34  C   UNL A   1      46.089  28.072  30.685  1.00  0.00     0.049 A 
ATOM     35  H   UNL A   1      44.062  28.308  30.146  1.00  0.00     0.167 HD
ATOM     36  C   UNL A   1      45.487  25.912  29.634  1.00  0.00     0.074 A 
ATOM     37  C   UNL A   1      45.799  24.577  29.167  1.00  0.00     0.031 C 
ATOM     38  C   UNL A   1      46.385  26.749  30.203  1.00  0.00     0.031 A 
BRANCH  25  39
ATOM     39  C   UNL A   1      44.134  32.299  31.657  1.00  0.00    -0.014 A 
ATOM     40  C   UNL A   1      44.567  33.339  30.821  1.00  0.00     0.009 A 
ATOM     41  C   UNL A   1      43.866  32.578  33.007  1.00  0.00     0.009 A 
ATOM     42  C   UNL A   1      44.739  34.628  31.331  1.00  0.00     0.001 A 
ATOM     43  C   UNL A   1      44.020  33.871  33.509  1.00  0.00     0.001 A 
ATOM     44  C   UNL A   1      44.459  34.895  32.672  1.00  0.00     0.000 A 
ENDBRANCH  25  39
BRANCH  26  45
ATOM     45  C   UNL A   1      42.056  23.404  27.630  1.00  0.00    -0.014 A 
ATOM     46  C   UNL A   1      42.340  23.197  26.273  1.00  0.00     0.009 A 
ATOM     47  C   UNL A   1      41.484  22.358  28.372  1.00  0.00     0.009 A 
ATOM     48  C   UNL A   1      42.030  21.977  25.665  1.00  0.00     0.001 A 
ATOM     49  C   UNL A   1      41.206  21.130  27.771  1.00  0.00     0.001 A 
ATOM     50  C   UNL A   1      41.469  20.945  26.416  1.00  0.00     0.000 A 
ENDBRANCH  26  45
BRANCH  38  51
ATOM     51  C   UNL A   1      47.788  26.236  30.355  1.00  0.00    -0.014 A 
ATOM     52  C   UNL A   1      48.679  26.239  29.271  1.00  0.00     0.009 A 
ATOM     53  C   UNL A   1      48.227  25.760  31.600  1.00  0.00     0.009 A 
ATOM     54  C   UNL A   1      49.974  25.743  29.423  1.00  0.00     0.001 A 
ATOM     55  C   UNL A   1      49.531  25.291  31.755  1.00  0.00     0.001 A 
ATOM     56  C   UNL A   1      50.400  25.274  30.665  1.00  0.00     0.000 A 
ENDBRANCH  38  51
ENDBRANCH  12  13
ENDBRANCH   5   7
ENDBRANCH   2   3
ENDBRANCH   1   2
BRANCH   1  57
ATOM     57  C   UNL A   1      33.129  29.334  24.889  1.00  0.00     0.023 C 
BRANCH  57  58
ATOM     58  C   UNL A   1      31.627  29.153  24.700  1.00  0.00     0.116 C 
BRANCH  58  59
ATOM     59  N   UNL A   1      31.288  28.502  23.442  1.00  0.00    -0.352 N 
ATOM     60  C   UNL A   1      30.979  27.196  23.186  1.00  0.00     0.252 C 
ATOM     61  H   UNL A   1      31.281  29.094  22.655  1.00  0.00     0.163 HD
ATOM     62  O   UNL A   1      30.820  26.820  22.028  1.00  0.00    -0.269 OA
BRANCH  60  63
ATOM     63  C   UNL A   1      30.875  26.252  24.327  1.00  0.00     0.056 A 
ATOM     64  C   UNL A   1      29.733  26.238  25.029  1.00  0.00     0.099 A 
ATOM     65  C   UNL A   1      31.943  25.341  24.683  1.00  0.00     0.029 A 
ATOM     66  N   UNL A   1      29.553  25.319  26.035  1.00  0.00    -0.328 N 
ATOM     67  C   UNL A   1      31.781  24.392  25.623  1.00  0.00     0.048 A 
ATOM     68  C   UNL A   1      30.480  24.360  26.382  1.00  0.00     0.255 A 
ATOM     69  H   UNL A   1      28.710  25.349  26.541  1.00  0.00     0.169 HD
ATOM     70  O   UNL A   1      30.249  23.533  27.257  1.00  0.00    -0.269 OA
BRANCH  67  71
ATOM     71  C   UNL A   1      32.825  23.366  25.804  1.00  0.00    -0.006 A 
ATOM     72  C   UNL A   1      34.093  23.698  26.308  1.00  0.00     0.009 A 
ATOM     73  C   UNL A   1      32.579  22.046  25.399  1.00  0.00     0.094 A 
ATOM     74  C   UNL A   1      35.103  22.735  26.397  1.00  0.00     0.008 A 
ATOM     75  C   UNL A   1      33.595  21.085  25.488  1.00  0.00     0.270 A 
ATOM     76  C   UNL A   1      34.860  21.427  25.983  1.00  0.00     0.085 A 
BRANCH  75  77
ATOM     77  N   UNL A   1      33.341  19.713  25.030  1.00  0.00     0.062 N 
ATOM     78  O   UNL A   1      32.187  19.276  25.139  1.00  0.00    -0.258 OA
ATOM     79  O   UNL A   1      34.298  19.068  24.580  1.00  0.00    -0.258 OA
ENDBRANCH  75  77
ENDBRANCH  67  71
ENDBRANCH  60  63
ENDBRANCH  58  59
ENDBRANCH  57  58
ENDBRANCH   1  57
TORSDOF 13
ENDMDL
MODEL 3
REMARK VINA RESULT:     -10.2      4.539     10.234
REMARK SMILES O=C(NCCCCNC(=O)c1c[nH]c(=O)c(-c2cccc([N+](=O)[O-])c2)c1)c1ccc(-c2c3nc(c(-c4ccccc4)c4ccc([nH]4)c(-c4ccccc4)c4nc(c(-c5ccccc5)c5ccc2[nH]5)C=C4)C=C3)cc1
REMARK SMILES IDX 5 1 4 2 3 3 1 4 2 5 27 7 28 8 74 9 29 10 73 11 30 12 31 13
REMARK SMILES IDX 32 14 67 15 33 16 72 17 66 18 68 19 34 20 71 21 65 22 64 23
REMARK SMILES IDX 35 25 57 26 42 27 56 28 43 29 46 30 55 31 69 32 44 33 45 34
REMARK SMILES IDX 54 36 70 37 47 38 36 39 37 40 41 41 38 42 40 43 39 44 58 45
REMARK SMILES IDX 59 46 63 47 60 48 62 49 61 50 48 51 49 52 53 53 50 54 52 55
REMARK SMILES IDX 51 56 6 57 7 58 8 59 9 60 10 62 11 63 12 64 26 65 13 66
REMARK SMILES IDX 16 67 14 68 15 70 17 71 18 72 25 73 19 74 21 75 20 76 22 77
REMARK SMILES IDX 23 78 24 79
REMARK H PARENT 3 6 68 24 46 35 8 61 13 69
REMARK Flexibility Score: inf
ROOT
ATOM      1  C   UNL A   1      33.738  28.175  25.724  1.00  0.00     0.023 C 
ENDROOT
BRANCH   1   2
ATOM      2  C   UNL A   1      33.669  28.423  27.224  1.00  0.00     0.116 C 
BRANCH   2   3
ATOM      3  N   UNL A   1      33.533  29.831  27.561  1.00  0.00    -0.352 N 
ATOM      4  O   UNL A   1      34.117  31.802  28.495  1.00  0.00    -0.269 OA
ATOM      5  C   UNL A   1      34.446  30.669  28.155  1.00  0.00     0.251 C 
ATOM      6  H   UNL A   1      32.668  30.240  27.331  1.00  0.00     0.163 HD
BRANCH   5   7
ATOM      7  C   UNL A   1      35.825  30.197  28.402  1.00  0.00     0.039 A 
ATOM      8  C   UNL A   1      36.796  30.284  27.401  1.00  0.00     0.014 A 
ATOM      9  C   UNL A   1      36.154  29.674  29.656  1.00  0.00     0.014 A 
ATOM     10  C   UNL A   1      38.057  29.738  27.613  1.00  0.00     0.010 A 
ATOM     11  C   UNL A   1      37.447  29.201  29.895  1.00  0.00     0.010 A 
ATOM     12  C   UNL A   1      38.405  29.216  28.869  1.00  0.00    -0.014 A 
BRANCH  12  13
ATOM     13  C   UNL A   1      39.808  28.807  29.117  1.00  0.00     0.031 A 
ATOM     14  C   UNL A   1      40.794  29.729  29.776  1.00  0.00     0.074 A 
ATOM     15  C   UNL A   1      40.181  27.568  28.743  1.00  0.00     0.049 A 
ATOM     16  N   UNL A   1      42.051  29.506  30.071  1.00  0.00    -0.248 NA
ATOM     17  C   UNL A   1      40.320  31.072  30.146  1.00  0.00     0.031 C 
ATOM     18  C   UNL A   1      39.312  26.591  28.079  1.00  0.00     0.029 A 
ATOM     19  N   UNL A   1      41.376  26.910  28.874  1.00  0.00    -0.354 N 
ATOM     20  C   UNL A   1      42.523  30.680  30.644  1.00  0.00     0.074 A 
ATOM     21  C   UNL A   1      41.423  31.621  30.642  1.00  0.00     0.031 C 
ATOM     22  C   UNL A   1      39.990  25.450  27.898  1.00  0.00     0.029 A 
ATOM     23  C   UNL A   1      41.356  25.632  28.370  1.00  0.00     0.049 A 
ATOM     24  H   UNL A   1      42.172  27.314  29.290  1.00  0.00     0.167 HD
ATOM     25  C   UNL A   1      43.762  30.944  31.124  1.00  0.00     0.031 A 
ATOM     26  C   UNL A   1      42.335  24.715  28.271  1.00  0.00     0.031 A 
ATOM     27  C   UNL A   1      44.850  30.001  31.129  1.00  0.00     0.049 A 
ATOM     28  C   UNL A   1      43.703  25.055  28.782  1.00  0.00     0.074 A 
ATOM     29  C   UNL A   1      46.124  30.160  31.649  1.00  0.00     0.029 A 
ATOM     30  N   UNL A   1      44.800  28.730  30.576  1.00  0.00    -0.354 N 
ATOM     31  N   UNL A   1      44.112  26.147  29.378  1.00  0.00    -0.248 NA
ATOM     32  C   UNL A   1      44.745  24.036  28.601  1.00  0.00     0.031 C 
ATOM     33  C   UNL A   1      46.862  29.007  31.360  1.00  0.00     0.029 A 
ATOM     34  C   UNL A   1      46.032  28.111  30.707  1.00  0.00     0.049 A 
ATOM     35  H   UNL A   1      44.007  28.328  30.154  1.00  0.00     0.167 HD
ATOM     36  C   UNL A   1      45.457  25.946  29.649  1.00  0.00     0.074 A 
ATOM     37  C   UNL A   1      45.785  24.614  29.183  1.00  0.00     0.031 C 
ATOM     38  C   UNL A   1      46.344  26.791  30.226  1.00  0.00     0.031 A 
BRANCH  25  39
ATOM     39  C   UNL A   1      44.031  32.318  31.670  1.00  0.00    -0.014 A 
ATOM     40  C   UNL A   1      43.873  32.604  33.034  1.00  0.00     0.009 A 
ATOM     41  C   UNL A   1      44.548  33.310  30.822  1.00  0.00     0.009 A 
ATOM     42  C   UNL A   1      44.215  33.864  33.534  1.00  0.00     0.001 A 
ATOM     43  C   UNL A   1      44.908  34.560  31.328  1.00  0.00     0.001 A 
ATOM     44  C   UNL A   1      44.738  34.838  32.682  1.00  0.00     0.000 A 
ENDBRANCH  25  39
BRANCH  26  45
ATOM     45  C   UNL A   1      42.063  23.408  27.621  1.00  0.00    -0.014 A 
ATOM     46  C   UNL A   1      42.356  23.206  26.265  1.00  0.00     0.009 A 
ATOM     47  C   UNL A   1      41.498  22.355  28.359  1.00  0.00     0.009 A 
ATOM     48  C   UNL A   1      42.062  21.984  25.654  1.00  0.00     0.001 A 
ATOM     49  C   UNL A   1      41.236  21.126  27.754  1.00  0.00     0.001 A 
ATOM     50  C   UNL A   1      41.507  20.945  26.400  1.00  0.00     0.000 A 
ENDBRANCH  26  45
BRANCH  38  51
ATOM     51  C   UNL A   1      47.750  26.290  30.386  1.00  0.00    -0.014 A 
ATOM     52  C   UNL A   1      48.668  26.366  29.328  1.00  0.00     0.009 A 
ATOM     53  C   UNL A   1      48.165  25.755  31.614  1.00  0.00     0.009 A 
ATOM     54  C   UNL A   1      49.967  25.881  29.487  1.00  0.00     0.001 A 
ATOM     55  C   UNL A   1      49.472  25.297  31.778  1.00  0.00     0.001 A 
ATOM     56  C   UNL A   1      50.369  25.351  30.712  1.00  0.00     0.000 A 
ENDBRANCH  38  51
ENDBRANCH  12  13
ENDBRANCH   5   7
ENDBRANCH   2   3
ENDBRANCH   1   2
BRANCH   1  57
ATOM     57  C   UNL A   1      33.011  26.925  25.238  1.00  0.00     0.023 C 
BRANCH  57  58
ATOM     58  C   UNL A   1      33.044  25.737  26.194  1.00  0.00     0.116 C 
BRANCH  58  59
ATOM     59  N   UNL A   1      31.733  25.409  26.735  1.00  0.00    -0.352 N 
ATOM     60  C   UNL A   1      30.807  24.502  26.302  1.00  0.00     0.252 C 
ATOM     61  H   UNL A   1      31.474  25.919  27.536  1.00  0.00     0.163 HD
ATOM     62  O   UNL A   1      29.706  24.445  26.842  1.00  0.00    -0.269 OA
BRANCH  60  63
ATOM     63  C   UNL A   1      31.152  23.623  25.156  1.00  0.00     0.056 A 
ATOM     64  C   UNL A   1      30.718  23.978  23.938  1.00  0.00     0.099 A 
ATOM     65  C   UNL A   1      31.951  22.425  25.308  1.00  0.00     0.029 A 
ATOM     66  N   UNL A   1      31.088  23.247  22.835  1.00  0.00    -0.328 N 
ATOM     67  C   UNL A   1      32.379  21.719  24.245  1.00  0.00     0.048 A 
ATOM     68  C   UNL A   1      31.917  22.147  22.877  1.00  0.00     0.255 A 
ATOM     69  H   UNL A   1      30.737  23.527  21.959  1.00  0.00     0.169 HD
ATOM     70  O   UNL A   1      32.254  21.560  21.855  1.00  0.00    -0.269 OA
BRANCH  67  71
ATOM     71  C   UNL A   1      33.354  20.630  24.443  1.00  0.00    -0.006 A 
ATOM     72  C   UNL A   1      34.660  20.893  24.886  1.00  0.00     0.009 A 
ATOM     73  C   UNL A   1      32.999  19.313  24.116  1.00  0.00     0.094 A 
ATOM     74  C   UNL A   1      35.601  19.865  24.990  1.00  0.00     0.008 A 
ATOM     75  C   UNL A   1      33.947  18.286  24.220  1.00  0.00     0.270 A 
ATOM     76  C   UNL A   1      35.251  18.559  24.653  1.00  0.00     0.085 A 
BRANCH  75  77
ATOM     77  N   UNL A   1      33.579  16.916  23.843  1.00  0.00     0.062 N 
ATOM     78  O   UNL A   1      33.899  16.525  22.712  1.00  0.00    -0.258 OA
ATOM     79  O   UNL A   1      32.953  16.238  24.670  1.00  0.00    -0.258 OA
ENDBRANCH  75  77
ENDBRANCH  67  71
ENDBRANCH  60  63
ENDBRANCH  58  59
ENDBRANCH  57  58
ENDBRANCH   1  57
TORSDOF 13
ENDMDL
