MODEL 1
REMARK VINA RESULT:     -10.8      0.000      0.000
REMARK SMILES CC[C@@](C)(NC(=O)Nc1c(C)cccc1Cl)C(=O)NCCCCNC(=O)c1ccc(-c2c3nc(c(-c4ccccc4)c4ccc([nH]4)c(-c4ccccc4)c4nc(c(-c5ccccc5)c5ccc2[nH]5)C=C4)C=C3)cc1
REMARK SMILES IDX 21 1 20 2 19 3 17 4 18 5 3 7 4 8 2 9 1 10 5 11 6 12 7 14
REMARK SMILES IDX 8 15 9 17 10 18 15 19 11 20 12 21 14 22 16 23 13 24 22 25
REMARK SMILES IDX 23 26 24 27 25 28 26 30 27 31 28 32 74 33 29 34 73 35 30 36
REMARK SMILES IDX 31 37 32 38 67 39 33 40 72 41 66 42 68 43 34 44 71 45 65 46
REMARK SMILES IDX 64 47 35 49 57 50 42 51 56 52 43 53 46 54 55 55 69 56 44 57
REMARK SMILES IDX 45 58 54 60 70 61 47 62 36 63 37 64 41 65 38 66 40 67 39 68
REMARK SMILES IDX 58 69 59 70 63 71 60 72 62 73 61 74 48 75 49 76 53 77 50 78
REMARK SMILES IDX 52 79 51 80
REMARK H PARENT 19 6 5 13 8 16 24 29 68 48 46 59
REMARK Flexibility Score: inf
ROOT
ATOM      1  C   UNL A   1      36.983  21.081  24.615  1.00  0.00     0.023 C 
ENDROOT
BRANCH   1   2
ATOM      2  C   UNL A   1      37.347  22.440  25.250  1.00  0.00     0.116 C 
BRANCH   2   3
ATOM      3  N   UNL A   1      36.421  22.857  26.286  1.00  0.00    -0.354 N 
ATOM      4  C   UNL A   1      35.079  22.496  26.370  1.00  0.00     0.245 C 
ATOM      5  O   UNL A   1      34.710  21.485  26.963  1.00  0.00    -0.272 OA
ATOM      6  H   UNL A   1      36.772  23.447  26.990  1.00  0.00     0.163 HD
BRANCH   4   7
ATOM      7  C   UNL A   1      34.124  23.397  25.539  1.00  0.00     0.117 C 
ATOM      8  C   UNL A   1      34.895  24.755  25.588  1.00  0.00     0.045 C 
BRANCH   7   9
ATOM      9  C   UNL A   1      33.768  23.146  24.060  1.00  0.00     0.035 C 
ATOM     10  C   UNL A   1      32.954  21.924  23.710  1.00  0.00     0.007 C 
ENDBRANCH   7   9
BRANCH   7  11
ATOM     11  N   UNL A   1      32.860  23.507  26.281  1.00  0.00    -0.324 N 
ATOM     12  C   UNL A   1      31.849  24.361  26.348  1.00  0.00     0.320 C 
ATOM     13  H   UNL A   1      32.730  22.743  26.889  1.00  0.00     0.166 HD
ATOM     14  O   UNL A   1      30.985  24.057  27.183  1.00  0.00    -0.248 OA
ATOM     15  N   UNL A   1      31.566  25.455  25.624  1.00  0.00    -0.306 N 
ATOM     16  H   UNL A   1      30.593  25.597  25.671  1.00  0.00     0.171 HD
BRANCH  15  17
ATOM     17  C   UNL A   1      32.115  26.497  24.810  1.00  0.00     0.064 A 
ATOM     18  C   UNL A   1      32.315  26.573  23.408  1.00  0.00    -0.026 A 
ATOM     19  C   UNL A   1      32.132  27.760  25.475  1.00  0.00     0.064 A 
ATOM     20  C   UNL A   1      31.725  25.696  22.333  1.00  0.00     0.046 C 
ATOM     21  C   UNL A   1      32.855  27.758  22.833  1.00  0.00     0.005 A 
ATOM     22  C   UNL A   1      32.503  28.959  24.853  1.00  0.00     0.023 A 
ATOM     23  Cl  UNL A   1      31.570  27.911  27.119  1.00  0.00    -0.082 Cl
ATOM     24  C   UNL A   1      32.928  28.945  23.541  1.00  0.00     0.002 A 
ENDBRANCH  15  17
ENDBRANCH   7  11
ENDBRANCH   4   7
ENDBRANCH   2   3
ENDBRANCH   1   2
BRANCH   1  25
ATOM     25  C   UNL A   1      38.002  19.932  24.684  1.00  0.00     0.023 C 
BRANCH  25  26
ATOM     26  C   UNL A   1      38.851  19.822  25.945  1.00  0.00     0.116 C 
BRANCH  26  27
ATOM     27  N   UNL A   1      40.118  19.160  25.732  1.00  0.00    -0.352 N 
ATOM     28  C   UNL A   1      41.396  19.546  26.016  1.00  0.00     0.251 C 
ATOM     29  H   UNL A   1      40.047  18.275  25.306  1.00  0.00     0.163 HD
ATOM     30  O   UNL A   1      42.319  18.772  25.719  1.00  0.00    -0.269 OA
BRANCH  28  31
ATOM     31  C   UNL A   1      41.737  20.859  26.617  1.00  0.00     0.039 A 
ATOM     32  C   UNL A   1      42.150  21.872  25.741  1.00  0.00     0.014 A 
ATOM     33  C   UNL A   1      41.739  21.109  27.993  1.00  0.00     0.014 A 
ATOM     34  C   UNL A   1      42.515  23.131  26.227  1.00  0.00     0.010 A 
ATOM     35  C   UNL A   1      42.059  22.387  28.477  1.00  0.00     0.010 A 
ATOM     36  C   UNL A   1      42.447  23.412  27.599  1.00  0.00    -0.014 A 
BRANCH  36  37
ATOM     37  C   UNL A   1      42.758  24.780  28.102  1.00  0.00     0.031 A 
ATOM     38  C   UNL A   1      44.162  25.176  28.467  1.00  0.00     0.074 A 
ATOM     39  C   UNL A   1      41.762  25.677  28.249  1.00  0.00     0.049 A 
ATOM     40  N   UNL A   1      44.603  26.319  28.935  1.00  0.00    -0.248 NA
ATOM     41  C   UNL A   1      45.207  24.156  28.293  1.00  0.00     0.031 C 
ATOM     42  C   UNL A   1      40.350  25.431  27.947  1.00  0.00     0.029 A 
ATOM     43  N   UNL A   1      41.784  26.977  28.690  1.00  0.00    -0.354 N 
ATOM     44  C   UNL A   1      45.970  26.154  29.123  1.00  0.00     0.074 A 
ATOM     45  C   UNL A   1      46.280  24.789  28.749  1.00  0.00     0.031 C 
ATOM     46  C   UNL A   1      39.647  26.547  28.196  1.00  0.00     0.029 A 
ATOM     47  C   UNL A   1      40.547  27.575  28.706  1.00  0.00     0.049 A 
ATOM     48  H   UNL A   1      42.609  27.438  28.968  1.00  0.00     0.167 HD
ATOM     49  C   UNL A   1      46.887  27.054  29.554  1.00  0.00     0.031 A 
ATOM     50  C   UNL A   1      40.171  28.809  29.098  1.00  0.00     0.031 A 
ATOM     51  C   UNL A   1      46.591  28.415  29.924  1.00  0.00     0.049 A 
ATOM     52  C   UNL A   1      41.203  29.779  29.598  1.00  0.00     0.074 A 
ATOM     53  C   UNL A   1      47.468  29.406  30.334  1.00  0.00     0.029 A 
ATOM     54  N   UNL A   1      45.324  28.975  29.936  1.00  0.00    -0.354 N 
ATOM     55  N   UNL A   1      42.498  29.619  29.721  1.00  0.00    -0.248 NA
ATOM     56  C   UNL A   1      40.719  31.107  30.007  1.00  0.00     0.031 C 
ATOM     57  C   UNL A   1      46.725  30.553  30.636  1.00  0.00     0.029 A 
ATOM     58  C   UNL A   1      45.393  30.291  30.366  1.00  0.00     0.049 A 
ATOM     59  H   UNL A   1      44.497  28.508  29.676  1.00  0.00     0.167 HD
ATOM     60  C   UNL A   1      42.985  30.831  30.195  1.00  0.00     0.074 A 
ATOM     61  C   UNL A   1      41.851  31.720  30.325  1.00  0.00     0.031 C 
ATOM     62  C   UNL A   1      44.261  31.172  30.495  1.00  0.00     0.031 A 
BRANCH  49  63
ATOM     63  C   UNL A   1      48.313  26.592  29.662  1.00  0.00    -0.014 A 
ATOM     64  C   UNL A   1      49.206  26.734  28.588  1.00  0.00     0.009 A 
ATOM     65  C   UNL A   1      48.784  26.055  30.870  1.00  0.00     0.009 A 
ATOM     66  C   UNL A   1      50.532  26.315  28.711  1.00  0.00     0.001 A 
ATOM     67  C   UNL A   1      50.118  25.662  30.999  1.00  0.00     0.001 A 
ATOM     68  C   UNL A   1      50.988  25.784  29.917  1.00  0.00     0.000 A 
ENDBRANCH  49  63
BRANCH  50  69
ATOM     69  C   UNL A   1      38.740  29.202  29.030  1.00  0.00    -0.014 A 
ATOM     70  C   UNL A   1      37.903  29.045  30.145  1.00  0.00     0.009 A 
ATOM     71  C   UNL A   1      38.203  29.725  27.843  1.00  0.00     0.009 A 
ATOM     72  C   UNL A   1      36.550  29.381  30.065  1.00  0.00     0.001 A 
ATOM     73  C   UNL A   1      36.856  30.086  27.776  1.00  0.00     0.001 A 
ATOM     74  C   UNL A   1      36.029  29.906  28.883  1.00  0.00     0.000 A 
ENDBRANCH  50  69
BRANCH  62  75
ATOM     75  C   UNL A   1      44.506  32.578  30.963  1.00  0.00    -0.014 A 
ATOM     76  C   UNL A   1      44.496  32.904  32.328  1.00  0.00     0.009 A 
ATOM     77  C   UNL A   1      44.784  33.585  30.026  1.00  0.00     0.009 A 
ATOM     78  C   UNL A   1      44.728  34.218  32.743  1.00  0.00     0.001 A 
ATOM     79  C   UNL A   1      45.040  34.892  30.444  1.00  0.00     0.001 A 
ATOM     80  C   UNL A   1      45.003  35.209  31.801  1.00  0.00     0.000 A 
ENDBRANCH  62  75
ENDBRANCH  36  37
ENDBRANCH  28  31
ENDBRANCH  26  27
ENDBRANCH  25  26
ENDBRANCH   1  25
TORSDOF 14
ENDMDL
MODEL 2
REMARK VINA RESULT:     -10.8      1.176      1.603
REMARK SMILES CC[C@@](C)(NC(=O)Nc1c(C)cccc1Cl)C(=O)NCCCCNC(=O)c1ccc(-c2c3nc(c(-c4ccccc4)c4ccc([nH]4)c(-c4ccccc4)c4nc(c(-c5ccccc5)c5ccc2[nH]5)C=C4)C=C3)cc1
REMARK SMILES IDX 21 1 20 2 19 3 17 4 18 5 3 7 4 8 2 9 1 10 5 11 6 12 7 14
REMARK SMILES IDX 8 15 9 17 10 18 15 19 11 20 12 21 14 22 16 23 13 24 22 25
REMARK SMILES IDX 23 26 24 27 25 28 26 30 27 31 28 32 74 33 29 34 73 35 30 36
REMARK SMILES IDX 31 37 32 38 67 39 33 40 72 41 66 42 68 43 34 44 71 45 65 46
REMARK SMILES IDX 64 47 35 49 57 50 42 51 56 52 43 53 46 54 55 55 69 56 44 57
REMARK SMILES IDX 45 58 54 60 70 61 47 62 36 63 37 64 41 65 38 66 40 67 39 68
REMARK SMILES IDX 58 69 59 70 63 71 60 72 62 73 61 74 48 75 49 76 53 77 50 78
REMARK SMILES IDX 52 79 51 80
REMARK H PARENT 19 6 5 13 8 16 24 29 68 48 46 59
REMARK Flexibility Score: inf
ROOT
ATOM      1  C   UNL A   1      38.139  22.481  25.727  1.00  0.00     0.023 C 
ENDROOT
BRANCH   1   2
ATOM      2  C   UNL A   1      36.983  23.434  25.353  1.00  0.00     0.116 C 
BRANCH   2   3
ATOM      3  N   UNL A   1      36.137  22.923  24.292  1.00  0.00    -0.354 N 
ATOM      4  C   UNL A   1      34.887  23.422  23.936  1.00  0.00     0.245 C 
ATOM      5  O   UNL A   1      34.753  24.319  23.108  1.00  0.00    -0.272 OA
ATOM      6  H   UNL A   1      36.477  22.156  23.778  1.00  0.00     0.163 HD
BRANCH   4   7
ATOM      7  C   UNL A   1      33.711  22.847  24.774  1.00  0.00     0.117 C 
ATOM      8  C   UNL A   1      34.069  21.326  24.766  1.00  0.00     0.045 C 
BRANCH   7   9
ATOM      9  C   UNL A   1      33.429  23.225  26.242  1.00  0.00     0.035 C 
ATOM     10  C   UNL A   1      33.968  22.334  27.334  1.00  0.00     0.007 C 
ENDBRANCH   7   9
BRANCH   7  11
ATOM     11  N   UNL A   1      32.473  23.079  24.017  1.00  0.00    -0.324 N 
ATOM     12  C   UNL A   1      31.666  24.102  23.774  1.00  0.00     0.320 C 
ATOM     13  H   UNL A   1      32.162  22.258  23.572  1.00  0.00     0.166 HD
ATOM     14  O   UNL A   1      30.673  23.812  23.090  1.00  0.00    -0.248 OA
ATOM     15  N   UNL A   1      31.771  25.404  24.080  1.00  0.00    -0.306 N 
ATOM     16  H   UNL A   1      31.230  25.906  23.429  1.00  0.00     0.171 HD
BRANCH  15  17
ATOM     17  C   UNL A   1      32.358  26.355  24.976  1.00  0.00     0.064 A 
ATOM     18  C   UNL A   1      33.404  27.293  24.782  1.00  0.00    -0.026 A 
ATOM     19  C   UNL A   1      31.529  26.625  26.106  1.00  0.00     0.064 A 
ATOM     20  C   UNL A   1      33.997  27.771  23.482  1.00  0.00     0.046 C 
ATOM     21  C   UNL A   1      33.780  28.164  25.843  1.00  0.00     0.005 A 
ATOM     22  C   UNL A   1      31.818  27.608  27.063  1.00  0.00     0.023 A 
ATOM     23  Cl  UNL A   1      30.006  25.802  26.315  1.00  0.00    -0.082 Cl
ATOM     24  C   UNL A   1      32.984  28.336  26.963  1.00  0.00     0.002 A 
ENDBRANCH  15  17
ENDBRANCH   7  11
ENDBRANCH   4   7
ENDBRANCH   2   3
ENDBRANCH   1   2
BRANCH   1  25
ATOM     25  C   UNL A   1      38.266  21.140  24.985  1.00  0.00     0.023 C 
BRANCH  25  26
ATOM     26  C   UNL A   1      38.416  19.881  25.831  1.00  0.00     0.116 C 
BRANCH  26  27
ATOM     27  N   UNL A   1      39.673  19.198  25.632  1.00  0.00    -0.352 N 
ATOM     28  C   UNL A   1      40.953  19.556  25.945  1.00  0.00     0.251 C 
ATOM     29  H   UNL A   1      39.594  18.321  25.193  1.00  0.00     0.163 HD
ATOM     30  O   UNL A   1      41.866  18.769  25.654  1.00  0.00    -0.269 OA
BRANCH  28  31
ATOM     31  C   UNL A   1      41.308  20.854  26.569  1.00  0.00     0.039 A 
ATOM     32  C   UNL A   1      41.873  21.828  25.736  1.00  0.00     0.014 A 
ATOM     33  C   UNL A   1      41.177  21.122  27.936  1.00  0.00     0.014 A 
ATOM     34  C   UNL A   1      42.261  23.070  26.250  1.00  0.00     0.010 A 
ATOM     35  C   UNL A   1      41.522  22.385  28.443  1.00  0.00     0.010 A 
ATOM     36  C   UNL A   1      42.064  23.373  27.605  1.00  0.00    -0.014 A 
BRANCH  36  37
ATOM     37  C   UNL A   1      42.402  24.726  28.128  1.00  0.00     0.031 A 
ATOM     38  C   UNL A   1      43.806  25.074  28.541  1.00  0.00     0.074 A 
ATOM     39  C   UNL A   1      41.432  25.654  28.251  1.00  0.00     0.049 A 
ATOM     40  N   UNL A   1      44.269  26.199  29.033  1.00  0.00    -0.248 NA
ATOM     41  C   UNL A   1      44.823  24.022  28.393  1.00  0.00     0.031 C 
ATOM     42  C   UNL A   1      40.023  25.456  27.902  1.00  0.00     0.029 A 
ATOM     43  N   UNL A   1      41.482  26.950  28.704  1.00  0.00    -0.354 N 
ATOM     44  C   UNL A   1      45.623  25.987  29.263  1.00  0.00     0.074 A 
ATOM     45  C   UNL A   1      45.900  24.616  28.887  1.00  0.00     0.031 C 
ATOM     46  C   UNL A   1      39.349  26.592  28.138  1.00  0.00     0.029 A 
ATOM     47  C   UNL A   1      40.265  27.588  28.686  1.00  0.00     0.049 A 
ATOM     48  H   UNL A   1      42.312  27.381  29.011  1.00  0.00     0.167 HD
ATOM     49  C   UNL A   1      46.554  26.854  29.730  1.00  0.00     0.031 A 
ATOM     50  C   UNL A   1      39.917  28.830  29.075  1.00  0.00     0.031 A 
ATOM     51  C   UNL A   1      46.290  28.221  30.102  1.00  0.00     0.049 A 
ATOM     52  C   UNL A   1      40.962  29.763  29.616  1.00  0.00     0.074 A 
ATOM     53  C   UNL A   1      47.185  29.181  30.548  1.00  0.00     0.029 A 
ATOM     54  N   UNL A   1      45.042  28.822  30.078  1.00  0.00    -0.354 N 
ATOM     55  N   UNL A   1      42.247  29.559  29.779  1.00  0.00    -0.248 NA
ATOM     56  C   UNL A   1      40.508  31.103  30.021  1.00  0.00     0.031 C 
ATOM     57  C   UNL A   1      46.471  30.349  30.835  1.00  0.00     0.029 A 
ATOM     58  C   UNL A   1      45.140  30.132  30.522  1.00  0.00     0.049 A 
ATOM     59  H   UNL A   1      44.210  28.384  29.789  1.00  0.00     0.167 HD
ATOM     60  C   UNL A   1      42.757  30.751  30.279  1.00  0.00     0.074 A 
ATOM     61  C   UNL A   1      41.649  31.676  30.380  1.00  0.00     0.031 C 
ATOM     62  C   UNL A   1      44.034  31.048  30.622  1.00  0.00     0.031 A 
BRANCH  49  63
ATOM     63  C   UNL A   1      47.960  26.345  29.880  1.00  0.00    -0.014 A 
ATOM     64  C   UNL A   1      48.884  26.443  28.827  1.00  0.00     0.009 A 
ATOM     65  C   UNL A   1      48.382  25.808  31.105  1.00  0.00     0.009 A 
ATOM     66  C   UNL A   1      50.192  25.981  28.989  1.00  0.00     0.001 A 
ATOM     67  C   UNL A   1      49.699  25.370  31.273  1.00  0.00     0.001 A 
ATOM     68  C   UNL A   1      50.599  25.449  30.212  1.00  0.00     0.000 A 
ENDBRANCH  49  63
BRANCH  50  69
ATOM     69  C   UNL A   1      38.502  29.270  28.965  1.00  0.00    -0.014 A 
ATOM     70  C   UNL A   1      37.998  29.753  27.749  1.00  0.00     0.009 A 
ATOM     71  C   UNL A   1      37.654  29.221  30.083  1.00  0.00     0.009 A 
ATOM     72  C   UNL A   1      36.678  30.201  27.659  1.00  0.00     0.001 A 
ATOM     73  C   UNL A   1      36.327  29.644  29.983  1.00  0.00     0.001 A 
ATOM     74  C   UNL A   1      35.843  30.141  28.774  1.00  0.00     0.000 A 
ENDBRANCH  50  69
BRANCH  62  75
ATOM     75  C   UNL A   1      44.309  32.442  31.109  1.00  0.00    -0.014 A 
ATOM     76  C   UNL A   1      44.264  32.758  32.476  1.00  0.00     0.009 A 
ATOM     77  C   UNL A   1      44.651  33.446  30.190  1.00  0.00     0.009 A 
ATOM     78  C   UNL A   1      44.524  34.061  32.908  1.00  0.00     0.001 A 
ATOM     79  C   UNL A   1      44.935  34.741  30.627  1.00  0.00     0.001 A 
ATOM     80  C   UNL A   1      44.864  35.049  31.985  1.00  0.00     0.000 A 
ENDBRANCH  62  75
ENDBRANCH  36  37
ENDBRANCH  28  31
ENDBRANCH  26  27
ENDBRANCH  25  26
ENDBRANCH   1  25
TORSDOF 14
ENDMDL
MODEL 3
REMARK VINA RESULT:     -10.7      3.371      8.523
REMARK SMILES CC[C@@](C)(NC(=O)Nc1c(C)cccc1Cl)C(=O)NCCCCNC(=O)c1ccc(-c2c3nc(c(-c4ccccc4)c4ccc([nH]4)c(-c4ccccc4)c4nc(c(-c5ccccc5)c5ccc2[nH]5)C=C4)C=C3)cc1
REMARK SMILES IDX 21 1 20 2 19 3 17 4 18 5 3 7 4 8 2 9 1 10 5 11 6 12 7 14
REMARK SMILES IDX 8 15 9 17 10 18 15 19 11 20 12 21 14 22 16 23 13 24 22 25
REMARK SMILES IDX 23 26 24 27 25 28 26 30 27 31 28 32 74 33 29 34 73 35 30 36
REMARK SMILES IDX 31 37 32 38 67 39 33 40 72 41 66 42 68 43 34 44 71 45 65 46
REMARK SMILES IDX 64 47 35 49 57 50 42 51 56 52 43 53 46 54 55 55 69 56 44 57
REMARK SMILES IDX 45 58 54 60 70 61 47 62 36 63 37 64 41 65 38 66 40 67 39 68
REMARK SMILES IDX 58 69 59 70 63 71 60 72 62 73 61 74 48 75 49 76 53 77 50 78
REMARK SMILES IDX 52 79 51 80
REMARK H PARENT 19 6 5 13 8 16 24 29 68 48 46 59
REMARK Flexibility Score: inf
ROOT
ATOM      1  C   UNL A   1      33.718  30.093  27.299  1.00  0.00     0.023 C 
ENDROOT
BRANCH   1   2
ATOM      2  C   UNL A   1      33.636  28.553  27.214  1.00  0.00     0.116 C 
BRANCH   2   3
ATOM      3  N   UNL A   1      32.297  28.063  26.948  1.00  0.00    -0.354 N 
ATOM      4  C   UNL A   1      31.982  26.867  26.308  1.00  0.00     0.245 C 
ATOM      5  O   UNL A   1      31.847  25.812  26.923  1.00  0.00    -0.272 OA
ATOM      6  H   UNL A   1      31.546  28.624  27.245  1.00  0.00     0.163 HD
BRANCH   4   7
ATOM      7  C   UNL A   1      31.958  26.963  24.756  1.00  0.00     0.117 C 
ATOM      8  C   UNL A   1      31.158  28.291  24.564  1.00  0.00     0.045 C 
BRANCH   7   9
ATOM      9  C   UNL A   1      33.219  27.076  23.878  1.00  0.00     0.035 C 
ATOM     10  C   UNL A   1      33.785  28.447  23.598  1.00  0.00     0.007 C 
ENDBRANCH   7   9
BRANCH   7  11
ATOM     11  N   UNL A   1      31.175  25.824  24.255  1.00  0.00    -0.324 N 
ATOM     12  C   UNL A   1      31.365  24.525  24.073  1.00  0.00     0.320 C 
ATOM     13  H   UNL A   1      30.270  26.099  23.983  1.00  0.00     0.166 HD
ATOM     14  O   UNL A   1      30.401  23.940  23.560  1.00  0.00    -0.248 OA
ATOM     15  N   UNL A   1      32.389  23.726  24.410  1.00  0.00    -0.306 N 
ATOM     16  H   UNL A   1      32.036  22.810  24.487  1.00  0.00     0.171 HD
BRANCH  15  17
ATOM     17  C   UNL A   1      33.790  23.674  24.702  1.00  0.00     0.064 A 
ATOM     18  C   UNL A   1      34.477  23.480  25.928  1.00  0.00    -0.026 A 
ATOM     19  C   UNL A   1      34.583  23.435  23.540  1.00  0.00     0.064 A 
ATOM     20  C   UNL A   1      33.927  22.968  27.234  1.00  0.00     0.046 C 
ATOM     21  C   UNL A   1      35.900  23.432  25.941  1.00  0.00     0.005 A 
ATOM     22  C   UNL A   1      35.967  23.217  23.576  1.00  0.00     0.023 A 
ATOM     23  Cl  UNL A   1      33.842  23.285  21.968  1.00  0.00    -0.082 Cl
ATOM     24  C   UNL A   1      36.637  23.281  24.779  1.00  0.00     0.002 A 
ENDBRANCH  15  17
ENDBRANCH   7  11
ENDBRANCH   4   7
ENDBRANCH   2   3
ENDBRANCH   1   2
BRANCH   1  25
ATOM     25  C   UNL A   1      32.414  30.907  27.288  1.00  0.00     0.023 C 
BRANCH  25  26
ATOM     26  C   UNL A   1      32.402  32.203  26.486  1.00  0.00     0.116 C 
BRANCH  26  27
ATOM     27  N   UNL A   1      32.162  33.379  27.290  1.00  0.00    -0.352 N 
ATOM     28  C   UNL A   1      32.945  34.020  28.207  1.00  0.00     0.251 C 
ATOM     29  H   UNL A   1      31.278  33.790  27.155  1.00  0.00     0.163 HD
ATOM     30  O   UNL A   1      32.484  35.026  28.766  1.00  0.00    -0.269 OA
BRANCH  28  31
ATOM     31  C   UNL A   1      34.296  33.547  28.599  1.00  0.00     0.039 A 
ATOM     32  C   UNL A   1      34.398  32.839  29.803  1.00  0.00     0.014 A 
ATOM     33  C   UNL A   1      35.460  33.831  27.877  1.00  0.00     0.014 A 
ATOM     34  C   UNL A   1      35.638  32.381  30.260  1.00  0.00     0.010 A 
ATOM     35  C   UNL A   1      36.697  33.330  28.310  1.00  0.00     0.010 A 
ATOM     36  C   UNL A   1      36.799  32.596  29.504  1.00  0.00    -0.014 A 
BRANCH  36  37
ATOM     37  C   UNL A   1      38.103  32.034  29.954  1.00  0.00     0.031 A 
ATOM     38  C   UNL A   1      38.595  30.705  29.451  1.00  0.00     0.074 A 
ATOM     39  C   UNL A   1      38.852  32.721  30.840  1.00  0.00     0.049 A 
ATOM     40  N   UNL A   1      39.698  30.063  29.754  1.00  0.00    -0.248 NA
ATOM     41  C   UNL A   1      37.734  29.997  28.492  1.00  0.00     0.031 C 
ATOM     42  C   UNL A   1      38.498  34.016  31.424  1.00  0.00     0.029 A 
ATOM     43  N   UNL A   1      40.068  32.423  31.407  1.00  0.00    -0.354 N 
ATOM     44  C   UNL A   1      39.659  28.875  29.034  1.00  0.00     0.074 A 
ATOM     45  C   UNL A   1      38.408  28.870  28.305  1.00  0.00     0.031 C 
ATOM     46  C   UNL A   1      39.480  34.408  32.251  1.00  0.00     0.029 A 
ATOM     47  C   UNL A   1      40.516  33.381  32.285  1.00  0.00     0.049 A 
ATOM     48  H   UNL A   1      40.571  31.602  31.202  1.00  0.00     0.167 HD
ATOM     49  C   UNL A   1      40.583  27.885  28.973  1.00  0.00     0.031 A 
ATOM     50  C   UNL A   1      41.628  33.428  33.043  1.00  0.00     0.031 A 
ATOM     51  C   UNL A   1      41.833  27.881  29.690  1.00  0.00     0.049 A 
ATOM     52  C   UNL A   1      42.623  32.304  32.979  1.00  0.00     0.074 A 
ATOM     53  C   UNL A   1      42.844  26.935  29.654  1.00  0.00     0.029 A 
ATOM     54  N   UNL A   1      42.241  28.865  30.575  1.00  0.00    -0.354 N 
ATOM     55  N   UNL A   1      42.591  31.213  32.253  1.00  0.00    -0.248 NA
ATOM     56  C   UNL A   1      43.814  32.424  33.834  1.00  0.00     0.031 C 
ATOM     57  C   UNL A   1      43.844  27.325  30.551  1.00  0.00     0.029 A 
ATOM     58  C   UNL A   1      43.478  28.539  31.108  1.00  0.00     0.049 A 
ATOM     59  H   UNL A   1      41.728  29.677  30.794  1.00  0.00     0.167 HD
ATOM     60  C   UNL A   1      43.766  30.531  32.545  1.00  0.00     0.074 A 
ATOM     61  C   UNL A   1      44.495  31.336  33.501  1.00  0.00     0.031 C 
ATOM     62  C   UNL A   1      44.199  29.343  32.060  1.00  0.00     0.031 A 
BRANCH  49  63
ATOM     63  C   UNL A   1      40.271  26.701  28.101  1.00  0.00    -0.014 A 
ATOM     64  C   UNL A   1      40.789  26.601  26.800  1.00  0.00     0.009 A 
ATOM     65  C   UNL A   1      39.492  25.648  28.603  1.00  0.00     0.009 A 
ATOM     66  C   UNL A   1      40.505  25.486  26.009  1.00  0.00     0.001 A 
ATOM     67  C   UNL A   1      39.230  24.522  27.819  1.00  0.00     0.001 A 
ATOM     68  C   UNL A   1      39.729  24.446  26.521  1.00  0.00     0.000 A 
ENDBRANCH  49  63
BRANCH  50  69
ATOM     69  C   UNL A   1      41.866  34.590  33.937  1.00  0.00    -0.014 A 
ATOM     70  C   UNL A   1      41.420  34.571  35.267  1.00  0.00     0.009 A 
ATOM     71  C   UNL A   1      42.530  35.731  33.457  1.00  0.00     0.009 A 
ATOM     72  C   UNL A   1      41.613  35.681  36.092  1.00  0.00     0.001 A 
ATOM     73  C   UNL A   1      42.745  36.828  34.293  1.00  0.00     0.001 A 
ATOM     74  C   UNL A   1      42.279  36.805  35.607  1.00  0.00     0.000 A 
ENDBRANCH  50  69
BRANCH  62  75
ATOM     75  C   UNL A   1      45.540  28.853  32.531  1.00  0.00    -0.014 A 
ATOM     76  C   UNL A   1      45.657  28.015  33.650  1.00  0.00     0.009 A 
ATOM     77  C   UNL A   1      46.698  29.211  31.825  1.00  0.00     0.009 A 
ATOM     78  C   UNL A   1      46.913  27.570  34.070  1.00  0.00     0.001 A 
ATOM     79  C   UNL A   1      47.950  28.746  32.232  1.00  0.00     0.001 A 
ATOM     80  C   UNL A   1      48.056  27.932  33.359  1.00  0.00     0.000 A 
ENDBRANCH  62  75
ENDBRANCH  36  37
ENDBRANCH  28  31
ENDBRANCH  26  27
ENDBRANCH  25  26
ENDBRANCH   1  25
TORSDOF 14
ENDMDL
