MODEL 1
REMARK VINA RESULT:     -11.2      0.000      0.000
REMARK SMILES Cc1cccc([C@@H](CC(F)(F)F)C(=O)NCCCCNC(=O)c2ccc(-c3c4nc(c(-c5ccccc5)c5ccc([nH]5)c(-c5ccccc5)c5nc(c(-c6ccccc6)c6ccc3[nH]6)C=C5)C=C4)cc2)c1
REMARK SMILES IDX 17 1 16 2 15 3 13 4 14 5 7 7 6 8 1 9 2 10 3 11 71 12 4 13
REMARK SMILES IDX 5 14 8 15 9 16 10 17 11 18 12 19 18 20 19 21 20 22 21 23
REMARK SMILES IDX 22 25 23 26 24 27 70 28 25 29 69 30 26 31 27 32 28 33 63 34
REMARK SMILES IDX 29 35 68 36 62 37 64 38 30 39 67 40 61 41 60 42 31 44 53 45
REMARK SMILES IDX 38 46 52 47 39 48 42 49 51 50 65 51 40 52 41 53 50 55 66 56
REMARK SMILES IDX 43 57 32 58 33 59 37 60 34 61 36 62 35 63 54 64 55 65 59 66
REMARK SMILES IDX 56 67 58 68 57 69 44 70 45 71 49 72 46 73 48 74 47 75
REMARK H PARENT 15 6 20 24 64 43 42 54
REMARK Flexibility Score: inf
ROOT
ATOM      1  C   UNL A   1      38.132  21.873  25.406  1.00  0.00     0.023 C 
ENDROOT
BRANCH   1   2
ATOM      2  C   UNL A   1      37.050  22.957  25.387  1.00  0.00     0.116 C 
BRANCH   2   3
ATOM      3  N   UNL A   1      36.108  22.860  26.483  1.00  0.00    -0.356 N 
ATOM      4  C   UNL A   1      34.753  22.873  26.531  1.00  0.00     0.227 C 
ATOM      5  O   UNL A   1      34.254  22.619  27.636  1.00  0.00    -0.274 OA
ATOM      6  H   UNL A   1      36.534  22.765  27.366  1.00  0.00     0.163 HD
BRANCH   4   7
ATOM      7  C   UNL A   1      33.820  23.141  25.341  1.00  0.00     0.117 C 
BRANCH   7   8
ATOM      8  C   UNL A   1      33.744  24.586  24.855  1.00  0.00    -0.035 A 
ATOM      9  C   UNL A   1      33.662  28.057  26.482  1.00  0.00     0.044 C 
ATOM     10  C   UNL A   1      33.715  26.975  25.446  1.00  0.00    -0.051 A 
ATOM     11  C   UNL A   1      33.723  27.307  24.091  1.00  0.00     0.003 A 
ATOM     12  C   UNL A   1      33.759  25.622  25.814  1.00  0.00     0.008 A 
ATOM     13  C   UNL A   1      33.692  26.303  23.129  1.00  0.00     0.001 A 
ATOM     14  C   UNL A   1      33.661  24.958  23.510  1.00  0.00     0.004 A 
ENDBRANCH   7   8
BRANCH   7  15
ATOM     15  C   UNL A   1      33.667  22.007  24.317  1.00  0.00     0.133 C 
BRANCH  15  16
ATOM     16  C   UNL A   1      32.295  21.477  24.004  1.00  0.00     0.390 C 
ATOM     17  F   UNL A   1      31.428  22.459  23.696  1.00  0.00    -0.171 F 
ATOM     18  F   UNL A   1      32.359  20.651  22.933  1.00  0.00    -0.171 F 
ATOM     19  F   UNL A   1      31.776  20.756  25.017  1.00  0.00    -0.171 F 
ENDBRANCH  15  16
ENDBRANCH   7  15
ENDBRANCH   4   7
ENDBRANCH   2   3
ENDBRANCH   1   2
BRANCH   1  20
ATOM     20  C   UNL A   1      39.398  22.220  26.189  1.00  0.00     0.023 C 
BRANCH  20  21
ATOM     21  C   UNL A   1      40.055  21.031  26.876  1.00  0.00     0.116 C 
BRANCH  21  22
ATOM     22  N   UNL A   1      41.064  20.324  26.100  1.00  0.00    -0.352 N 
ATOM     23  C   UNL A   1      42.410  20.618  25.917  1.00  0.00     0.251 C 
ATOM     24  H   UNL A   1      40.745  19.516  25.635  1.00  0.00     0.163 HD
ATOM     25  O   UNL A   1      43.073  19.952  25.139  1.00  0.00    -0.269 OA
BRANCH  23  26
ATOM     26  C   UNL A   1      43.082  21.638  26.776  1.00  0.00     0.039 A 
ATOM     27  C   UNL A   1      42.812  21.612  28.150  1.00  0.00     0.014 A 
ATOM     28  C   UNL A   1      43.749  22.727  26.231  1.00  0.00     0.014 A 
ATOM     29  C   UNL A   1      42.937  22.783  28.895  1.00  0.00     0.010 A 
ATOM     30  C   UNL A   1      43.744  23.920  26.924  1.00  0.00     0.010 A 
ATOM     31  C   UNL A   1      43.268  23.963  28.235  1.00  0.00    -0.014 A 
BRANCH  31  32
ATOM     32  C   UNL A   1      43.007  25.290  28.778  1.00  0.00     0.031 A 
ATOM     33  C   UNL A   1      41.830  26.065  28.349  1.00  0.00     0.074 A 
ATOM     34  C   UNL A   1      43.791  25.763  29.773  1.00  0.00     0.049 A 
ATOM     35  N   UNL A   1      41.728  27.346  28.466  1.00  0.00    -0.248 NA
ATOM     36  C   UNL A   1      40.676  25.451  27.705  1.00  0.00     0.031 C 
ATOM     37  C   UNL A   1      43.535  26.902  30.651  1.00  0.00     0.029 A 
ATOM     38  N   UNL A   1      45.112  25.408  30.044  1.00  0.00    -0.354 N 
ATOM     39  C   UNL A   1      40.419  27.677  28.216  1.00  0.00     0.074 A 
ATOM     40  C   UNL A   1      39.828  26.482  27.660  1.00  0.00     0.031 C 
ATOM     41  C   UNL A   1      44.702  27.320  31.165  1.00  0.00     0.029 A 
ATOM     42  C   UNL A   1      45.761  26.567  30.515  1.00  0.00     0.049 A 
ATOM     43  H   UNL A   1      45.514  24.517  29.929  1.00  0.00     0.167 HD
ATOM     44  C   UNL A   1      39.942  28.883  28.635  1.00  0.00     0.031 A 
ATOM     45  C   UNL A   1      46.785  27.115  29.797  1.00  0.00     0.031 A 
ATOM     46  C   UNL A   1      40.993  29.726  29.212  1.00  0.00     0.049 A 
ATOM     47  C   UNL A   1      46.493  28.497  29.240  1.00  0.00     0.074 A 
ATOM     48  C   UNL A   1      41.329  30.122  30.497  1.00  0.00     0.029 A 
ATOM     49  N   UNL A   1      42.075  30.070  28.417  1.00  0.00    -0.354 N 
ATOM     50  N   UNL A   1      45.365  29.136  29.383  1.00  0.00    -0.248 NA
ATOM     51  C   UNL A   1      47.430  29.220  28.377  1.00  0.00     0.031 C 
ATOM     52  C   UNL A   1      42.629  30.706  30.459  1.00  0.00     0.029 A 
ATOM     53  C   UNL A   1      43.074  30.677  29.150  1.00  0.00     0.049 A 
ATOM     54  H   UNL A   1      42.124  29.904  27.447  1.00  0.00     0.167 HD
ATOM     55  C   UNL A   1      45.379  30.267  28.610  1.00  0.00     0.074 A 
ATOM     56  C   UNL A   1      46.698  30.285  28.007  1.00  0.00     0.031 C 
ATOM     57  C   UNL A   1      44.293  31.081  28.471  1.00  0.00     0.031 A 
BRANCH  44  58
ATOM     58  C   UNL A   1      38.468  29.198  28.739  1.00  0.00    -0.014 A 
ATOM     59  C   UNL A   1      37.780  29.693  27.616  1.00  0.00     0.009 A 
ATOM     60  C   UNL A   1      37.709  29.077  29.916  1.00  0.00     0.009 A 
ATOM     61  C   UNL A   1      36.454  30.139  27.693  1.00  0.00     0.001 A 
ATOM     62  C   UNL A   1      36.396  29.561  30.014  1.00  0.00     0.001 A 
ATOM     63  C   UNL A   1      35.772  30.104  28.902  1.00  0.00     0.000 A 
ENDBRANCH  44  58
BRANCH  45  64
ATOM     64  C   UNL A   1      47.633  26.092  29.121  1.00  0.00    -0.014 A 
ATOM     65  C   UNL A   1      47.373  25.795  27.767  1.00  0.00     0.009 A 
ATOM     66  C   UNL A   1      48.866  25.706  29.665  1.00  0.00     0.009 A 
ATOM     67  C   UNL A   1      48.362  25.238  26.953  1.00  0.00     0.001 A 
ATOM     68  C   UNL A   1      49.850  25.134  28.848  1.00  0.00     0.001 A 
ATOM     69  C   UNL A   1      49.611  24.936  27.489  1.00  0.00     0.000 A 
ENDBRANCH  45  64
BRANCH  57  70
ATOM     70  C   UNL A   1      44.289  32.330  27.635  1.00  0.00    -0.014 A 
ATOM     71  C   UNL A   1      44.100  33.605  28.189  1.00  0.00     0.009 A 
ATOM     72  C   UNL A   1      44.351  32.244  26.229  1.00  0.00     0.009 A 
ATOM     73  C   UNL A   1      44.034  34.744  27.376  1.00  0.00     0.001 A 
ATOM     74  C   UNL A   1      44.261  33.374  25.414  1.00  0.00     0.001 A 
ATOM     75  C   UNL A   1      44.114  34.628  25.990  1.00  0.00     0.000 A 
ENDBRANCH  57  70
ENDBRANCH  31  32
ENDBRANCH  23  26
ENDBRANCH  21  22
ENDBRANCH  20  21
ENDBRANCH   1  20
TORSDOF 14
ENDMDL
MODEL 2
REMARK VINA RESULT:     -11.1      4.248      9.070
REMARK SMILES Cc1cccc([C@@H](CC(F)(F)F)C(=O)NCCCCNC(=O)c2ccc(-c3c4nc(c(-c5ccccc5)c5ccc([nH]5)c(-c5ccccc5)c5nc(c(-c6ccccc6)c6ccc3[nH]6)C=C5)C=C4)cc2)c1
REMARK SMILES IDX 17 1 16 2 15 3 13 4 14 5 7 7 6 8 1 9 2 10 3 11 71 12 4 13
REMARK SMILES IDX 5 14 8 15 9 16 10 17 11 18 12 19 18 20 19 21 20 22 21 23
REMARK SMILES IDX 22 25 23 26 24 27 70 28 25 29 69 30 26 31 27 32 28 33 63 34
REMARK SMILES IDX 29 35 68 36 62 37 64 38 30 39 67 40 61 41 60 42 31 44 53 45
REMARK SMILES IDX 38 46 52 47 39 48 42 49 51 50 65 51 40 52 41 53 50 55 66 56
REMARK SMILES IDX 43 57 32 58 33 59 37 60 34 61 36 62 35 63 54 64 55 65 59 66
REMARK SMILES IDX 56 67 58 68 57 69 44 70 45 71 49 72 46 73 48 74 47 75
REMARK H PARENT 15 6 20 24 64 43 42 54
REMARK Flexibility Score: inf
ROOT
ATOM      1  C   UNL A   1      34.714  30.350  27.083  1.00  0.00     0.023 C 
ENDROOT
BRANCH   1   2
ATOM      2  C   UNL A   1      34.311  28.878  27.211  1.00  0.00     0.116 C 
BRANCH   2   3
ATOM      3  N   UNL A   1      32.950  28.684  27.670  1.00  0.00    -0.356 N 
ATOM      4  C   UNL A   1      31.939  27.894  27.234  1.00  0.00     0.227 C 
ATOM      5  O   UNL A   1      30.933  27.865  27.956  1.00  0.00    -0.274 OA
ATOM      6  H   UNL A   1      32.715  29.234  28.453  1.00  0.00     0.163 HD
BRANCH   4   7
ATOM      7  C   UNL A   1      31.964  27.033  25.963  1.00  0.00     0.117 C 
BRANCH   7   8
ATOM      8  C   UNL A   1      32.554  25.633  26.107  1.00  0.00    -0.035 A 
ATOM      9  C   UNL A   1      35.921  23.954  25.364  1.00  0.00     0.044 C 
ATOM     10  C   UNL A   1      34.517  24.172  25.844  1.00  0.00    -0.051 A 
ATOM     11  C   UNL A   1      33.809  23.120  26.425  1.00  0.00     0.003 A 
ATOM     12  C   UNL A   1      33.896  25.423  25.721  1.00  0.00     0.008 A 
ATOM     13  C   UNL A   1      32.482  23.299  26.799  1.00  0.00     0.001 A 
ATOM     14  C   UNL A   1      31.851  24.532  26.603  1.00  0.00     0.004 A 
ENDBRANCH   7   8
BRANCH   7  15
ATOM     15  C   UNL A   1      30.823  27.255  24.958  1.00  0.00     0.133 C 
BRANCH  15  16
ATOM     16  C   UNL A   1      31.047  26.932  23.507  1.00  0.00     0.390 C 
ATOM     17  F   UNL A   1      32.330  27.105  23.138  1.00  0.00    -0.171 F 
ATOM     18  F   UNL A   1      30.739  25.634  23.276  1.00  0.00    -0.171 F 
ATOM     19  F   UNL A   1      30.269  27.666  22.688  1.00  0.00    -0.171 F 
ENDBRANCH  15  16
ENDBRANCH   7  15
ENDBRANCH   4   7
ENDBRANCH   2   3
ENDBRANCH   1   2
BRANCH   1  20
ATOM     20  C   UNL A   1      34.202  31.271  28.189  1.00  0.00     0.023 C 
BRANCH  20  21
ATOM     21  C   UNL A   1      34.185  32.748  27.817  1.00  0.00     0.116 C 
BRANCH  21  22
ATOM     22  N   UNL A   1      33.503  33.632  28.750  1.00  0.00    -0.352 N 
ATOM     23  C   UNL A   1      33.961  34.198  29.933  1.00  0.00     0.251 C 
ATOM     24  H   UNL A   1      32.577  33.864  28.505  1.00  0.00     0.163 HD
ATOM     25  O   UNL A   1      33.193  34.839  30.632  1.00  0.00    -0.269 OA
BRANCH  23  26
ATOM     26  C   UNL A   1      35.413  34.160  30.274  1.00  0.00     0.039 A 
ATOM     27  C   UNL A   1      36.329  34.468  29.259  1.00  0.00     0.014 A 
ATOM     28  C   UNL A   1      35.871  33.603  31.461  1.00  0.00     0.014 A 
ATOM     29  C   UNL A   1      37.621  33.949  29.321  1.00  0.00     0.010 A 
ATOM     30  C   UNL A   1      37.097  32.972  31.466  1.00  0.00     0.010 A 
ATOM     31  C   UNL A   1      37.944  33.084  30.363  1.00  0.00    -0.014 A 
BRANCH  31  32
ATOM     32  C   UNL A   1      39.062  32.149  30.316  1.00  0.00     0.031 A 
ATOM     33  C   UNL A   1      38.860  30.749  29.905  1.00  0.00     0.074 A 
ATOM     34  C   UNL A   1      40.315  32.605  30.539  1.00  0.00     0.049 A 
ATOM     35  N   UNL A   1      39.671  29.788  30.197  1.00  0.00    -0.248 NA
ATOM     36  C   UNL A   1      37.688  30.309  29.159  1.00  0.00     0.031 C 
ATOM     37  C   UNL A   1      41.578  31.932  30.251  1.00  0.00     0.029 A 
ATOM     38  N   UNL A   1      40.681  33.723  31.289  1.00  0.00    -0.354 N 
ATOM     39  C   UNL A   1      39.309  28.703  29.437  1.00  0.00     0.074 A 
ATOM     40  C   UNL A   1      38.021  29.046  28.880  1.00  0.00     0.031 C 
ATOM     41  C   UNL A   1      42.540  32.478  31.012  1.00  0.00     0.029 A 
ATOM     42  C   UNL A   1      41.900  33.410  31.924  1.00  0.00     0.049 A 
ATOM     43  H   UNL A   1      40.185  34.569  31.359  1.00  0.00     0.167 HD
ATOM     44  C   UNL A   1      40.201  27.689  29.250  1.00  0.00     0.031 A 
ATOM     45  C   UNL A   1      41.960  33.338  33.287  1.00  0.00     0.031 A 
ATOM     46  C   UNL A   1      41.427  27.878  30.031  1.00  0.00     0.049 A 
ATOM     47  C   UNL A   1      42.264  31.954  33.831  1.00  0.00     0.074 A 
ATOM     48  C   UNL A   1      42.730  28.236  29.726  1.00  0.00     0.029 A 
ATOM     49  N   UNL A   1      41.325  27.963  31.411  1.00  0.00    -0.354 N 
ATOM     50  N   UNL A   1      42.432  30.886  33.101  1.00  0.00    -0.248 NA
ATOM     51  C   UNL A   1      42.293  31.652  35.264  1.00  0.00     0.031 C 
ATOM     52  C   UNL A   1      43.406  28.539  30.944  1.00  0.00     0.029 A 
ATOM     53  C   UNL A   1      42.518  28.351  31.986  1.00  0.00     0.049 A 
ATOM     54  H   UNL A   1      40.504  27.768  31.918  1.00  0.00     0.167 HD
ATOM     55  C   UNL A   1      42.510  29.786  33.914  1.00  0.00     0.074 A 
ATOM     56  C   UNL A   1      42.431  30.316  35.261  1.00  0.00     0.031 C 
ATOM     57  C   UNL A   1      42.578  28.512  33.429  1.00  0.00     0.031 A 
BRANCH  44  58
ATOM     58  C   UNL A   1      40.053  26.647  28.167  1.00  0.00    -0.014 A 
ATOM     59  C   UNL A   1      39.294  25.488  28.413  1.00  0.00     0.009 A 
ATOM     60  C   UNL A   1      40.668  26.717  26.905  1.00  0.00     0.009 A 
ATOM     61  C   UNL A   1      39.242  24.424  27.502  1.00  0.00     0.001 A 
ATOM     62  C   UNL A   1      40.659  25.641  26.006  1.00  0.00     0.001 A 
ATOM     63  C   UNL A   1      39.954  24.487  26.311  1.00  0.00     0.000 A 
ENDBRANCH  44  58
BRANCH  45  64
ATOM     64  C   UNL A   1      41.084  34.339  33.960  1.00  0.00    -0.014 A 
ATOM     65  C   UNL A   1      39.816  33.921  34.414  1.00  0.00     0.009 A 
ATOM     66  C   UNL A   1      41.612  35.537  34.462  1.00  0.00     0.009 A 
ATOM     67  C   UNL A   1      39.154  34.616  35.430  1.00  0.00     0.001 A 
ATOM     68  C   UNL A   1      40.937  36.238  35.469  1.00  0.00     0.001 A 
ATOM     69  C   UNL A   1      39.731  35.758  35.977  1.00  0.00     0.000 A 
ENDBRANCH  45  64
BRANCH  57  70
ATOM     70  C   UNL A   1      42.672  27.292  34.302  1.00  0.00    -0.014 A 
ATOM     71  C   UNL A   1      43.838  26.517  34.387  1.00  0.00     0.009 A 
ATOM     72  C   UNL A   1      41.531  26.811  34.976  1.00  0.00     0.009 A 
ATOM     73  C   UNL A   1      43.873  25.347  35.156  1.00  0.00     0.001 A 
ATOM     74  C   UNL A   1      41.555  25.632  35.724  1.00  0.00     0.001 A 
ATOM     75  C   UNL A   1      42.733  24.905  35.823  1.00  0.00     0.000 A 
ENDBRANCH  57  70
ENDBRANCH  31  32
ENDBRANCH  23  26
ENDBRANCH  21  22
ENDBRANCH  20  21
ENDBRANCH   1  20
TORSDOF 14
ENDMDL
MODEL 3
REMARK VINA RESULT:     -11.1      1.482      2.899
REMARK SMILES Cc1cccc([C@@H](CC(F)(F)F)C(=O)NCCCCNC(=O)c2ccc(-c3c4nc(c(-c5ccccc5)c5ccc([nH]5)c(-c5ccccc5)c5nc(c(-c6ccccc6)c6ccc3[nH]6)C=C5)C=C4)cc2)c1
REMARK SMILES IDX 17 1 16 2 15 3 13 4 14 5 7 7 6 8 1 9 2 10 3 11 71 12 4 13
REMARK SMILES IDX 5 14 8 15 9 16 10 17 11 18 12 19 18 20 19 21 20 22 21 23
REMARK SMILES IDX 22 25 23 26 24 27 70 28 25 29 69 30 26 31 27 32 28 33 63 34
REMARK SMILES IDX 29 35 68 36 62 37 64 38 30 39 67 40 61 41 60 42 31 44 53 45
REMARK SMILES IDX 38 46 52 47 39 48 42 49 51 50 65 51 40 52 41 53 50 55 66 56
REMARK SMILES IDX 43 57 32 58 33 59 37 60 34 61 36 62 35 63 54 64 55 65 59 66
REMARK SMILES IDX 56 67 58 68 57 69 44 70 45 71 49 72 46 73 48 74 47 75
REMARK H PARENT 15 6 20 24 64 43 42 54
REMARK Flexibility Score: inf
ROOT
ATOM      1  C   UNL A   1      37.995  21.270  25.288  1.00  0.00     0.023 C 
ENDROOT
BRANCH   1   2
ATOM      2  C   UNL A   1      36.695  22.045  25.048  1.00  0.00     0.116 C 
BRANCH   2   3
ATOM      3  N   UNL A   1      35.650  21.741  26.004  1.00  0.00    -0.356 N 
ATOM      4  C   UNL A   1      34.406  21.220  25.868  1.00  0.00     0.227 C 
ATOM      5  O   UNL A   1      33.818  20.953  26.926  1.00  0.00    -0.274 OA
ATOM      6  H   UNL A   1      35.890  21.955  26.935  1.00  0.00     0.163 HD
BRANCH   4   7
ATOM      7  C   UNL A   1      33.706  20.916  24.535  1.00  0.00     0.117 C 
BRANCH   7   8
ATOM      8  C   UNL A   1      33.573  19.441  24.164  1.00  0.00    -0.035 A 
ATOM      9  C   UNL A   1      35.349  16.175  25.105  1.00  0.00     0.044 C 
ATOM     10  C   UNL A   1      34.370  17.137  24.501  1.00  0.00    -0.051 A 
ATOM     11  C   UNL A   1      33.365  16.668  23.656  1.00  0.00     0.003 A 
ATOM     12  C   UNL A   1      34.444  18.511  24.773  1.00  0.00     0.008 A 
ATOM     13  C   UNL A   1      32.506  17.568  23.033  1.00  0.00     0.001 A 
ATOM     14  C   UNL A   1      32.637  18.942  23.255  1.00  0.00     0.004 A 
ENDBRANCH   7   8
BRANCH   7  15
ATOM     15  C   UNL A   1      32.603  21.891  24.098  1.00  0.00     0.133 C 
BRANCH  15  16
ATOM     16  C   UNL A   1      32.724  22.594  22.774  1.00  0.00     0.390 C 
ATOM     17  F   UNL A   1      33.985  22.996  22.524  1.00  0.00    -0.171 F 
ATOM     18  F   UNL A   1      32.371  21.750  21.776  1.00  0.00    -0.171 F 
ATOM     19  F   UNL A   1      31.912  23.665  22.681  1.00  0.00    -0.171 F 
ENDBRANCH  15  16
ENDBRANCH   7  15
ENDBRANCH   4   7
ENDBRANCH   2   3
ENDBRANCH   1   2
BRANCH   1  20
ATOM     20  C   UNL A   1      39.100  22.047  26.001  1.00  0.00     0.023 C 
BRANCH  20  21
ATOM     21  C   UNL A   1      40.024  21.184  26.851  1.00  0.00     0.116 C 
BRANCH  21  22
ATOM     22  N   UNL A   1      41.019  20.409  26.125  1.00  0.00    -0.352 N 
ATOM     23  C   UNL A   1      42.379  20.642  25.962  1.00  0.00     0.251 C 
ATOM     24  H   UNL A   1      40.677  19.598  25.683  1.00  0.00     0.163 HD
ATOM     25  O   UNL A   1      43.031  19.921  25.225  1.00  0.00    -0.269 OA
BRANCH  23  26
ATOM     26  C   UNL A   1      43.074  21.665  26.798  1.00  0.00     0.039 A 
ATOM     27  C   UNL A   1      42.843  21.642  28.180  1.00  0.00     0.014 A 
ATOM     28  C   UNL A   1      43.724  22.754  26.232  1.00  0.00     0.014 A 
ATOM     29  C   UNL A   1      42.988  22.816  28.918  1.00  0.00     0.010 A 
ATOM     30  C   UNL A   1      43.737  23.949  26.921  1.00  0.00     0.010 A 
ATOM     31  C   UNL A   1      43.298  23.994  28.245  1.00  0.00    -0.014 A 
BRANCH  31  32
ATOM     32  C   UNL A   1      43.050  25.323  28.792  1.00  0.00     0.031 A 
ATOM     33  C   UNL A   1      41.864  26.097  28.389  1.00  0.00     0.074 A 
ATOM     34  C   UNL A   1      43.858  25.798  29.767  1.00  0.00     0.049 A 
ATOM     35  N   UNL A   1      41.765  27.379  28.505  1.00  0.00    -0.248 NA
ATOM     36  C   UNL A   1      40.694  25.482  27.774  1.00  0.00     0.031 C 
ATOM     37  C   UNL A   1      43.623  26.938  30.648  1.00  0.00     0.029 A 
ATOM     38  N   UNL A   1      45.185  25.442  30.006  1.00  0.00    -0.354 N 
ATOM     39  C   UNL A   1      40.450  27.709  28.287  1.00  0.00     0.074 A 
ATOM     40  C   UNL A   1      39.846  26.514  27.747  1.00  0.00     0.031 C 
ATOM     41  C   UNL A   1      44.803  27.357  31.133  1.00  0.00     0.029 A 
ATOM     42  C   UNL A   1      45.845  26.602  30.459  1.00  0.00     0.049 A 
ATOM     43  H   UNL A   1      45.584  24.551  29.883  1.00  0.00     0.167 HD
ATOM     44  C   UNL A   1      39.984  28.917  28.714  1.00  0.00     0.031 A 
ATOM     45  C   UNL A   1      46.852  27.149  29.716  1.00  0.00     0.031 A 
ATOM     46  C   UNL A   1      41.049  29.760  29.264  1.00  0.00     0.049 A 
ATOM     47  C   UNL A   1      46.547  28.530  29.163  1.00  0.00     0.074 A 
ATOM     48  C   UNL A   1      41.415  30.159  30.540  1.00  0.00     0.029 A 
ATOM     49  N   UNL A   1      42.112  30.103  28.443  1.00  0.00    -0.354 N 
ATOM     50  N   UNL A   1      45.423  29.169  29.332  1.00  0.00    -0.248 NA
ATOM     51  C   UNL A   1      47.464  29.251  28.277  1.00  0.00     0.031 C 
ATOM     52  C   UNL A   1      42.714  30.742  30.469  1.00  0.00     0.029 A 
ATOM     53  C   UNL A   1      43.128  30.711  29.151  1.00  0.00     0.049 A 
ATOM     54  H   UNL A   1      42.137  29.934  27.473  1.00  0.00     0.167 HD
ATOM     55  C   UNL A   1      45.419  30.298  28.557  1.00  0.00     0.074 A 
ATOM     56  C   UNL A   1      46.723  30.315  27.923  1.00  0.00     0.031 C 
ATOM     57  C   UNL A   1      44.331  31.113  28.442  1.00  0.00     0.031 A 
BRANCH  44  58
ATOM     58  C   UNL A   1      38.513  29.233  28.852  1.00  0.00    -0.014 A 
ATOM     59  C   UNL A   1      37.798  29.721  27.744  1.00  0.00     0.009 A 
ATOM     60  C   UNL A   1      37.783  29.119  30.049  1.00  0.00     0.009 A 
ATOM     61  C   UNL A   1      36.473  30.168  27.851  1.00  0.00     0.001 A 
ATOM     62  C   UNL A   1      36.473  29.603  30.176  1.00  0.00     0.001 A 
ATOM     63  C   UNL A   1      35.822  30.140  29.077  1.00  0.00     0.000 A 
ENDBRANCH  44  58
BRANCH  45  64
ATOM     64  C   UNL A   1      47.684  26.124  29.022  1.00  0.00    -0.014 A 
ATOM     65  C   UNL A   1      47.398  25.832  27.672  1.00  0.00     0.009 A 
ATOM     66  C   UNL A   1      48.924  25.730  29.543  1.00  0.00     0.009 A 
ATOM     67  C   UNL A   1      48.371  25.273  26.839  1.00  0.00     0.001 A 
ATOM     68  C   UNL A   1      49.891  25.157  28.707  1.00  0.00     0.001 A 
ATOM     69  C   UNL A   1      49.627  24.964  27.352  1.00  0.00     0.000 A 
ENDBRANCH  45  64
BRANCH  57  70
ATOM     70  C   UNL A   1      44.307  32.360  27.604  1.00  0.00    -0.014 A 
ATOM     71  C   UNL A   1      44.168  33.639  28.163  1.00  0.00     0.009 A 
ATOM     72  C   UNL A   1      44.298  32.270  26.197  1.00  0.00     0.009 A 
ATOM     73  C   UNL A   1      44.082  34.777  27.351  1.00  0.00     0.001 A 
ATOM     74  C   UNL A   1      44.188  33.400  25.384  1.00  0.00     0.001 A 
ATOM     75  C   UNL A   1      44.090  34.658  25.963  1.00  0.00     0.000 A 
ENDBRANCH  57  70
ENDBRANCH  31  32
ENDBRANCH  23  26
ENDBRANCH  21  22
ENDBRANCH  20  21
ENDBRANCH   1  20
TORSDOF 14
ENDMDL
