MODEL 1
REMARK VINA RESULT:     -12.4      0.000      0.000
REMARK SMILES O=C(NCCCCNC(=O)[C@H]1CCC[N@@H+](C2CC[NH+](Cc3ccccc3)CC2)C1)c1ccc(-c2c3nc(c(-c4ccccc4)c4ccc([nH]4)c(-c4ccccc4)c4nc(c(-c5ccccc5)c5ccc2[nH]5)C=C4)C=C3)cc1
REMARK SMILES IDX 6 1 5 2 4 3 3 4 1 5 2 6 30 8 31 9 77 10 32 11 76 12 33 13
REMARK SMILES IDX 34 14 35 15 70 16 36 17 75 18 69 19 71 20 37 21 74 22 68 23
REMARK SMILES IDX 67 24 38 26 60 27 45 28 59 29 46 30 49 31 58 32 72 33 47 34
REMARK SMILES IDX 48 35 57 37 73 38 50 39 39 40 40 41 44 42 41 43 43 44 42 45
REMARK SMILES IDX 61 46 62 47 66 48 63 49 65 50 64 51 51 52 52 53 56 54 53 55
REMARK SMILES IDX 55 56 54 57 7 58 8 59 9 60 10 62 11 63 12 64 29 65 13 66
REMARK SMILES IDX 15 67 14 68 16 70 17 71 28 72 18 73 27 74 19 75 20 77 21 78
REMARK SMILES IDX 22 79 26 80 23 81 25 82 24 83
REMARK H PARENT 3 7 71 25 49 36 8 61 15 69 19 76
REMARK Flexibility Score: inf
ROOT
ATOM      1  C   UNL A   1      31.593  30.283  26.317  1.00  0.00     0.023 C 
ENDROOT
BRANCH   1   2
ATOM      2  C   UNL A   1      31.427  31.788  26.505  1.00  0.00     0.023 C 
BRANCH   2   3
ATOM      3  C   UNL A   1      32.612  32.492  27.149  1.00  0.00     0.116 C 
BRANCH   3   4
ATOM      4  N   UNL A   1      32.318  33.861  27.541  1.00  0.00    -0.352 N 
ATOM      5  O   UNL A   1      32.528  35.747  28.763  1.00  0.00    -0.269 OA
ATOM      6  C   UNL A   1      32.970  34.648  28.460  1.00  0.00     0.251 C 
ATOM      7  H   UNL A   1      31.550  34.280  27.089  1.00  0.00     0.163 HD
BRANCH   6   8
ATOM      8  C   UNL A   1      34.194  34.131  29.103  1.00  0.00     0.039 A 
ATOM      9  C   UNL A   1      35.457  34.519  28.644  1.00  0.00     0.014 A 
ATOM     10  C   UNL A   1      34.066  33.228  30.160  1.00  0.00     0.014 A 
ATOM     11  C   UNL A   1      36.594  33.913  29.166  1.00  0.00     0.010 A 
ATOM     12  C   UNL A   1      35.211  32.672  30.727  1.00  0.00     0.010 A 
ATOM     13  C   UNL A   1      36.480  32.991  30.217  1.00  0.00    -0.014 A 
BRANCH  13  14
ATOM     14  C   UNL A   1      37.694  32.401  30.823  1.00  0.00     0.031 A 
ATOM     15  C   UNL A   1      38.371  31.222  30.192  1.00  0.00     0.074 A 
ATOM     16  C   UNL A   1      38.157  32.918  31.976  1.00  0.00     0.049 A 
ATOM     17  N   UNL A   1      39.380  30.518  30.637  1.00  0.00    -0.248 NA
ATOM     18  C   UNL A   1      37.842  30.768  28.897  1.00  0.00     0.031 C 
ATOM     19  C   UNL A   1      37.580  34.068  32.676  1.00  0.00     0.029 A 
ATOM     20  N   UNL A   1      39.208  32.535  32.767  1.00  0.00    -0.354 N 
ATOM     21  C   UNL A   1      39.589  29.519  29.695  1.00  0.00     0.074 A 
ATOM     22  C   UNL A   1      38.593  29.701  28.660  1.00  0.00     0.031 C 
ATOM     23  C   UNL A   1      38.287  34.299  33.791  1.00  0.00     0.029 A 
ATOM     24  C   UNL A   1      39.324  33.281  33.913  1.00  0.00     0.049 A 
ATOM     25  H   UNL A   1      39.820  31.799  32.535  1.00  0.00     0.167 HD
ATOM     26  C   UNL A   1      40.524  28.539  29.699  1.00  0.00     0.031 A 
ATOM     27  C   UNL A   1      40.146  33.138  34.967  1.00  0.00     0.031 A 
ATOM     28  C   UNL A   1      41.506  28.364  30.736  1.00  0.00     0.049 A 
ATOM     29  C   UNL A   1      41.146  32.023  34.970  1.00  0.00     0.074 A 
ATOM     30  C   UNL A   1      42.523  27.427  30.813  1.00  0.00     0.029 A 
ATOM     31  N   UNL A   1      41.588  29.138  31.883  1.00  0.00    -0.354 N 
ATOM     32  N   UNL A   1      41.353  31.105  34.057  1.00  0.00    -0.248 NA
ATOM     33  C   UNL A   1      42.023  31.923  36.143  1.00  0.00     0.031 C 
ATOM     34  C   UNL A   1      43.187  27.603  32.031  1.00  0.00     0.029 A 
ATOM     35  C   UNL A   1      42.619  28.683  32.688  1.00  0.00     0.049 A 
ATOM     36  H   UNL A   1      41.000  29.899  32.095  1.00  0.00     0.167 HD
ATOM     37  C   UNL A   1      42.400  30.328  34.535  1.00  0.00     0.074 A 
ATOM     38  C   UNL A   1      42.787  30.889  35.815  1.00  0.00     0.031 C 
ATOM     39  C   UNL A   1      42.988  29.251  33.959  1.00  0.00     0.031 A 
BRANCH  26  40
ATOM     40  C   UNL A   1      40.495  27.553  28.565  1.00  0.00    -0.014 A 
ATOM     41  C   UNL A   1      41.224  27.769  27.385  1.00  0.00     0.009 A 
ATOM     42  C   UNL A   1      39.737  26.377  28.688  1.00  0.00     0.009 A 
ATOM     43  C   UNL A   1      41.164  26.846  26.338  1.00  0.00     0.001 A 
ATOM     44  C   UNL A   1      39.698  25.445  27.651  1.00  0.00     0.001 A 
ATOM     45  C   UNL A   1      40.403  25.684  26.472  1.00  0.00     0.000 A 
ENDBRANCH  26  40
BRANCH  27  46
ATOM     46  C   UNL A   1      40.019  34.076  36.110  1.00  0.00    -0.014 A 
ATOM     47  C   UNL A   1      40.749  35.273  36.136  1.00  0.00     0.009 A 
ATOM     48  C   UNL A   1      39.110  33.808  37.147  1.00  0.00     0.009 A 
ATOM     49  C   UNL A   1      40.571  36.183  37.181  1.00  0.00     0.001 A 
ATOM     50  C   UNL A   1      38.918  34.731  38.176  1.00  0.00     0.001 A 
ATOM     51  C   UNL A   1      39.650  35.916  38.194  1.00  0.00     0.000 A 
ENDBRANCH  27  46
BRANCH  39  52
ATOM     52  C   UNL A   1      44.138  28.625  34.694  1.00  0.00    -0.014 A 
ATOM     53  C   UNL A   1      43.938  27.560  35.584  1.00  0.00     0.009 A 
ATOM     54  C   UNL A   1      45.444  29.070  34.441  1.00  0.00     0.009 A 
ATOM     55  C   UNL A   1      45.028  26.964  36.221  1.00  0.00     0.001 A 
ATOM     56  C   UNL A   1      46.532  28.458  35.063  1.00  0.00     0.001 A 
ATOM     57  C   UNL A   1      46.323  27.408  35.956  1.00  0.00     0.000 A 
ENDBRANCH  39  52
ENDBRANCH  13  14
ENDBRANCH   6   8
ENDBRANCH   3   4
ENDBRANCH   2   3
ENDBRANCH   1   2
BRANCH   1  58
ATOM     58  C   UNL A   1      33.026  29.824  26.038  1.00  0.00     0.116 C 
BRANCH  58  59
ATOM     59  N   UNL A   1      33.281  29.692  24.617  1.00  0.00    -0.356 N 
ATOM     60  C   UNL A   1      33.263  28.607  23.795  1.00  0.00     0.228 C 
ATOM     61  H   UNL A   1      33.506  30.538  24.166  1.00  0.00     0.163 HD
ATOM     62  O   UNL A   1      33.573  28.800  22.615  1.00  0.00    -0.275 OA
BRANCH  60  63
ATOM     63  C   UNL A   1      32.841  27.216  24.260  1.00  0.00     0.133 C 
ATOM     64  C   UNL A   1      31.339  27.067  24.494  1.00  0.00     0.025 C 
ATOM     65  C   UNL A   1      33.423  26.134  23.337  1.00  0.00     0.275 C 
ATOM     66  C   UNL A   1      30.982  25.637  24.846  1.00  0.00     0.062 C 
ATOM     67  N   UNL A   1      32.998  24.771  23.704  1.00  0.00    -0.331 N 
ATOM     68  C   UNL A   1      31.546  24.660  23.815  1.00  0.00     0.262 C 
ATOM     69  H   UNL A   1      33.309  24.585  24.656  1.00  0.00     0.348 HD
BRANCH  67  70
ATOM     70  C   UNL A   1      33.723  23.706  22.961  1.00  0.00     0.195 C 
ATOM     71  C   UNL A   1      32.900  22.682  22.160  1.00  0.00     0.126 C 
ATOM     72  C   UNL A   1      34.759  22.896  23.763  1.00  0.00     0.126 C 
ATOM     73  C   UNL A   1      32.217  21.666  23.063  1.00  0.00     0.268 C 
ATOM     74  C   UNL A   1      34.166  21.746  24.591  1.00  0.00     0.268 C 
ATOM     75  N   UNL A   1      33.151  20.933  23.915  1.00  0.00    -0.331 N 
ATOM     76  H   UNL A   1      33.690  20.372  23.253  1.00  0.00     0.348 HD
BRANCH  75  77
ATOM     77  C   UNL A   1      32.469  19.997  24.837  1.00  0.00     0.299 C 
BRANCH  77  78
ATOM     78  C   UNL A   1      32.870  18.531  24.742  1.00  0.00     0.006 A 
ATOM     79  C   UNL A   1      33.607  18.060  23.645  1.00  0.00     0.009 A 
ATOM     80  C   UNL A   1      32.533  17.620  25.757  1.00  0.00     0.009 A 
ATOM     81  C   UNL A   1      34.028  16.729  23.583  1.00  0.00     0.001 A 
ATOM     82  C   UNL A   1      32.968  16.293  25.704  1.00  0.00     0.001 A 
ATOM     83  C   UNL A   1      33.719  15.849  24.619  1.00  0.00     0.000 A 
ENDBRANCH  77  78
ENDBRANCH  75  77
ENDBRANCH  67  70
ENDBRANCH  60  63
ENDBRANCH  58  59
ENDBRANCH   1  58
TORSDOF 14
ENDMDL
MODEL 2
REMARK VINA RESULT:     -12.3      5.027     10.668
REMARK SMILES O=C(NCCCCNC(=O)[C@H]1CCC[N@@H+](C2CC[NH+](Cc3ccccc3)CC2)C1)c1ccc(-c2c3nc(c(-c4ccccc4)c4ccc([nH]4)c(-c4ccccc4)c4nc(c(-c5ccccc5)c5ccc2[nH]5)C=C4)C=C3)cc1
REMARK SMILES IDX 6 1 5 2 4 3 3 4 1 5 2 6 30 8 31 9 77 10 32 11 76 12 33 13
REMARK SMILES IDX 34 14 35 15 70 16 36 17 75 18 69 19 71 20 37 21 74 22 68 23
REMARK SMILES IDX 67 24 38 26 60 27 45 28 59 29 46 30 49 31 58 32 72 33 47 34
REMARK SMILES IDX 48 35 57 37 73 38 50 39 39 40 40 41 44 42 41 43 43 44 42 45
REMARK SMILES IDX 61 46 62 47 66 48 63 49 65 50 64 51 51 52 52 53 56 54 53 55
REMARK SMILES IDX 55 56 54 57 7 58 8 59 9 60 10 62 11 63 12 64 29 65 13 66
REMARK SMILES IDX 15 67 14 68 16 70 17 71 28 72 18 73 27 74 19 75 20 77 21 78
REMARK SMILES IDX 22 79 26 80 23 81 25 82 24 83
REMARK H PARENT 3 7 71 25 49 36 8 61 15 69 19 76
REMARK Flexibility Score: inf
ROOT
ATOM      1  C   UNL A   1      36.749  21.027  24.770  1.00  0.00     0.023 C 
ENDROOT
BRANCH   1   2
ATOM      2  C   UNL A   1      37.745  19.893  24.996  1.00  0.00     0.023 C 
BRANCH   2   3
ATOM      3  C   UNL A   1      39.002  20.282  25.759  1.00  0.00     0.116 C 
BRANCH   3   4
ATOM      4  N   UNL A   1      40.021  19.245  25.746  1.00  0.00    -0.352 N 
ATOM      5  O   UNL A   1      42.118  18.412  25.824  1.00  0.00    -0.269 OA
ATOM      6  C   UNL A   1      41.369  19.365  25.986  1.00  0.00     0.251 C 
ATOM      7  H   UNL A   1      39.704  18.337  25.538  1.00  0.00     0.163 HD
BRANCH   6   8
ATOM      8  C   UNL A   1      41.905  20.673  26.410  1.00  0.00     0.039 A 
ATOM      9  C   UNL A   1      42.041  20.981  27.767  1.00  0.00     0.014 A 
ATOM     10  C   UNL A   1      42.251  21.605  25.429  1.00  0.00     0.014 A 
ATOM     11  C   UNL A   1      42.412  22.267  28.146  1.00  0.00     0.010 A 
ATOM     12  C   UNL A   1      42.686  22.873  25.813  1.00  0.00     0.010 A 
ATOM     13  C   UNL A   1      42.744  23.219  27.172  1.00  0.00    -0.014 A 
BRANCH  13  14
ATOM     14  C   UNL A   1      43.210  24.563  27.577  1.00  0.00     0.031 A 
ATOM     15  C   UNL A   1      42.233  25.618  28.002  1.00  0.00     0.074 A 
ATOM     16  C   UNL A   1      44.527  24.837  27.518  1.00  0.00     0.049 A 
ATOM     17  N   UNL A   1      42.454  26.876  28.291  1.00  0.00    -0.248 NA
ATOM     18  C   UNL A   1      40.823  25.213  28.107  1.00  0.00     0.031 C 
ATOM     19  C   UNL A   1      45.568  23.886  27.124  1.00  0.00     0.029 A 
ATOM     20  N   UNL A   1      45.209  25.996  27.774  1.00  0.00    -0.354 N 
ATOM     21  C   UNL A   1      41.210  27.420  28.582  1.00  0.00     0.074 A 
ATOM     22  C   UNL A   1      40.237  26.360  28.423  1.00  0.00     0.031 C 
ATOM     23  C   UNL A   1      46.759  24.499  27.168  1.00  0.00     0.029 A 
ATOM     24  C   UNL A   1      46.557  25.896  27.534  1.00  0.00     0.049 A 
ATOM     25  H   UNL A   1      44.777  26.819  28.100  1.00  0.00     0.167 HD
ATOM     26  C   UNL A   1      40.911  28.691  28.945  1.00  0.00     0.031 A 
ATOM     27  C   UNL A   1      47.521  26.833  27.564  1.00  0.00     0.031 A 
ATOM     28  C   UNL A   1      41.885  29.738  29.096  1.00  0.00     0.049 A 
ATOM     29  C   UNL A   1      47.161  28.241  27.929  1.00  0.00     0.074 A 
ATOM     30  C   UNL A   1      41.688  31.048  29.499  1.00  0.00     0.029 A 
ATOM     31  N   UNL A   1      43.240  29.598  28.839  1.00  0.00    -0.354 N 
ATOM     32  N   UNL A   1      45.986  28.735  28.233  1.00  0.00    -0.248 NA
ATOM     33  C   UNL A   1      48.256  29.219  27.954  1.00  0.00     0.031 C 
ATOM     34  C   UNL A   1      42.918  31.713  29.438  1.00  0.00     0.029 A 
ATOM     35  C   UNL A   1      43.888  30.803  29.048  1.00  0.00     0.049 A 
ATOM     36  H   UNL A   1      43.677  28.764  28.551  1.00  0.00     0.167 HD
ATOM     37  C   UNL A   1      46.201  30.078  28.508  1.00  0.00     0.074 A 
ATOM     38  C   UNL A   1      47.621  30.318  28.340  1.00  0.00     0.031 C 
ATOM     39  C   UNL A   1      45.301  31.024  28.872  1.00  0.00     0.031 A 
BRANCH  26  40
ATOM     40  C   UNL A   1      39.461  29.023  29.159  1.00  0.00    -0.014 A 
ATOM     41  C   UNL A   1      38.641  29.448  28.101  1.00  0.00     0.009 A 
ATOM     42  C   UNL A   1      38.900  28.890  30.439  1.00  0.00     0.009 A 
ATOM     43  C   UNL A   1      37.301  29.770  28.331  1.00  0.00     0.001 A 
ATOM     44  C   UNL A   1      37.555  29.188  30.662  1.00  0.00     0.001 A 
ATOM     45  C   UNL A   1      36.759  29.638  29.610  1.00  0.00     0.000 A 
ENDBRANCH  26  40
BRANCH  27  46
ATOM     46  C   UNL A   1      48.909  26.449  27.209  1.00  0.00    -0.014 A 
ATOM     47  C   UNL A   1      49.806  26.019  28.196  1.00  0.00     0.009 A 
ATOM     48  C   UNL A   1      49.318  26.443  25.865  1.00  0.00     0.009 A 
ATOM     49  C   UNL A   1      51.089  25.592  27.844  1.00  0.00     0.001 A 
ATOM     50  C   UNL A   1      50.592  25.993  25.514  1.00  0.00     0.001 A 
ATOM     51  C   UNL A   1      51.477  25.571  26.504  1.00  0.00     0.000 A 
ENDBRANCH  27  46
BRANCH  39  52
ATOM     52  C   UNL A   1      45.830  32.402  29.146  1.00  0.00    -0.014 A 
ATOM     53  C   UNL A   1      46.307  32.759  30.416  1.00  0.00     0.009 A 
ATOM     54  C   UNL A   1      45.907  33.334  28.100  1.00  0.00     0.009 A 
ATOM     55  C   UNL A   1      46.837  34.031  30.636  1.00  0.00     0.001 A 
ATOM     56  C   UNL A   1      46.457  34.597  28.317  1.00  0.00     0.001 A 
ATOM     57  C   UNL A   1      46.917  34.946  29.586  1.00  0.00     0.000 A 
ENDBRANCH  39  52
ENDBRANCH  13  14
ENDBRANCH   6   8
ENDBRANCH   3   4
ENDBRANCH   2   3
ENDBRANCH   1   2
BRANCH   1  58
ATOM     58  C   UNL A   1      36.887  22.207  25.735  1.00  0.00     0.116 C 
BRANCH  58  59
ATOM     59  N   UNL A   1      35.657  22.454  26.461  1.00  0.00    -0.356 N 
ATOM     60  C   UNL A   1      34.598  23.265  26.189  1.00  0.00     0.228 C 
ATOM     61  H   UNL A   1      35.572  21.943  27.298  1.00  0.00     0.163 HD
ATOM     62  O   UNL A   1      33.697  23.300  27.033  1.00  0.00    -0.275 OA
BRANCH  60  63
ATOM     63  C   UNL A   1      34.471  24.067  24.898  1.00  0.00     0.133 C 
ATOM     64  C   UNL A   1      33.478  23.481  23.896  1.00  0.00     0.025 C 
ATOM     65  C   UNL A   1      34.224  25.553  25.202  1.00  0.00     0.275 C 
ATOM     66  C   UNL A   1      33.325  24.386  22.690  1.00  0.00     0.062 C 
ATOM     67  N   UNL A   1      34.035  26.368  23.989  1.00  0.00    -0.331 N 
ATOM     68  C   UNL A   1      33.002  25.818  23.114  1.00  0.00     0.262 C 
ATOM     69  H   UNL A   1      34.875  26.291  23.417  1.00  0.00     0.348 HD
BRANCH  67  70
ATOM     70  C   UNL A   1      34.014  27.831  24.256  1.00  0.00     0.195 C 
ATOM     71  C   UNL A   1      33.178  28.347  25.439  1.00  0.00     0.126 C 
ATOM     72  C   UNL A   1      33.679  28.741  23.059  1.00  0.00     0.126 C 
ATOM     73  C   UNL A   1      31.687  28.324  25.138  1.00  0.00     0.268 C 
ATOM     74  C   UNL A   1      32.177  28.894  22.777  1.00  0.00     0.268 C 
ATOM     75  N   UNL A   1      31.327  29.101  23.953  1.00  0.00    -0.331 N 
ATOM     76  H   UNL A   1      31.521  30.063  24.228  1.00  0.00     0.348 HD
BRANCH  75  77
ATOM     77  C   UNL A   1      29.884  29.014  23.630  1.00  0.00     0.299 C 
BRANCH  77  78
ATOM     78  C   UNL A   1      29.254  30.243  22.989  1.00  0.00     0.006 A 
ATOM     79  C   UNL A   1      29.048  31.414  23.735  1.00  0.00     0.009 A 
ATOM     80  C   UNL A   1      28.881  30.244  21.635  1.00  0.00     0.009 A 
ATOM     81  C   UNL A   1      28.525  32.562  23.136  1.00  0.00     0.001 A 
ATOM     82  C   UNL A   1      28.374  31.397  21.031  1.00  0.00     0.001 A 
ATOM     83  C   UNL A   1      28.200  32.557  21.780  1.00  0.00     0.000 A 
ENDBRANCH  77  78
ENDBRANCH  75  77
ENDBRANCH  67  70
ENDBRANCH  60  63
ENDBRANCH  58  59
ENDBRANCH   1  58
TORSDOF 14
ENDMDL
MODEL 3
REMARK VINA RESULT:     -12.1      4.994      9.976
REMARK SMILES O=C(NCCCCNC(=O)[C@H]1CCC[N@@H+](C2CC[NH+](Cc3ccccc3)CC2)C1)c1ccc(-c2c3nc(c(-c4ccccc4)c4ccc([nH]4)c(-c4ccccc4)c4nc(c(-c5ccccc5)c5ccc2[nH]5)C=C4)C=C3)cc1
REMARK SMILES IDX 6 1 5 2 4 3 3 4 1 5 2 6 30 8 31 9 77 10 32 11 76 12 33 13
REMARK SMILES IDX 34 14 35 15 70 16 36 17 75 18 69 19 71 20 37 21 74 22 68 23
REMARK SMILES IDX 67 24 38 26 60 27 45 28 59 29 46 30 49 31 58 32 72 33 47 34
REMARK SMILES IDX 48 35 57 37 73 38 50 39 39 40 40 41 44 42 41 43 43 44 42 45
REMARK SMILES IDX 61 46 62 47 66 48 63 49 65 50 64 51 51 52 52 53 56 54 53 55
REMARK SMILES IDX 55 56 54 57 7 58 8 59 9 60 10 62 11 63 12 64 29 65 13 66
REMARK SMILES IDX 15 67 14 68 16 70 17 71 28 72 18 73 27 74 19 75 20 77 21 78
REMARK SMILES IDX 22 79 26 80 23 81 25 82 24 83
REMARK H PARENT 3 7 71 25 49 36 8 61 15 69 19 76
REMARK Flexibility Score: inf
ROOT
ATOM      1  C   UNL A   1      37.173  21.056  24.452  1.00  0.00     0.023 C 
ENDROOT
BRANCH   1   2
ATOM      2  C   UNL A   1      37.937  19.855  25.001  1.00  0.00     0.023 C 
BRANCH   2   3
ATOM      3  C   UNL A   1      39.075  20.196  25.952  1.00  0.00     0.116 C 
BRANCH   3   4
ATOM      4  N   UNL A   1      40.137  19.203  25.948  1.00  0.00    -0.352 N 
ATOM      5  O   UNL A   1      42.271  18.464  25.967  1.00  0.00    -0.269 OA
ATOM      6  C   UNL A   1      41.489  19.393  26.110  1.00  0.00     0.251 C 
ATOM      7  H   UNL A   1      39.851  18.271  25.811  1.00  0.00     0.163 HD
BRANCH   6   8
ATOM      8  C   UNL A   1      41.987  20.747  26.427  1.00  0.00     0.039 A 
ATOM      9  C   UNL A   1      42.137  21.157  27.755  1.00  0.00     0.014 A 
ATOM     10  C   UNL A   1      42.280  21.616  25.374  1.00  0.00     0.014 A 
ATOM     11  C   UNL A   1      42.469  22.479  28.033  1.00  0.00     0.010 A 
ATOM     12  C   UNL A   1      42.677  22.922  25.656  1.00  0.00     0.010 A 
ATOM     13  C   UNL A   1      42.749  23.368  26.985  1.00  0.00    -0.014 A 
BRANCH  13  14
ATOM     14  C   UNL A   1      43.174  24.754  27.281  1.00  0.00     0.031 A 
ATOM     15  C   UNL A   1      44.623  25.137  27.237  1.00  0.00     0.074 A 
ATOM     16  C   UNL A   1      42.240  25.657  27.632  1.00  0.00     0.049 A 
ATOM     17  N   UNL A   1      45.184  26.274  27.564  1.00  0.00    -0.248 NA
ATOM     18  C   UNL A   1      45.568  24.108  26.774  1.00  0.00     0.031 C 
ATOM     19  C   UNL A   1      40.800  25.396  27.703  1.00  0.00     0.029 A 
ATOM     20  N   UNL A   1      42.364  26.969  28.006  1.00  0.00    -0.354 N 
ATOM     21  C   UNL A   1      46.547  26.090  27.377  1.00  0.00     0.074 A 
ATOM     22  C   UNL A   1      46.731  24.728  26.920  1.00  0.00     0.031 C 
ATOM     23  C   UNL A   1      40.174  26.514  28.094  1.00  0.00     0.029 A 
ATOM     24  C   UNL A   1      41.169  27.547  28.357  1.00  0.00     0.049 A 
ATOM     25  H   UNL A   1      43.222  27.449  28.021  1.00  0.00     0.167 HD
ATOM     26  C   UNL A   1      47.552  26.977  27.574  1.00  0.00     0.031 A 
ATOM     27  C   UNL A   1      40.905  28.760  28.873  1.00  0.00     0.031 A 
ATOM     28  C   UNL A   1      47.359  28.327  28.033  1.00  0.00     0.049 A 
ATOM     29  C   UNL A   1      42.035  29.711  29.121  1.00  0.00     0.074 A 
ATOM     30  C   UNL A   1      48.308  29.317  28.225  1.00  0.00     0.029 A 
ATOM     31  N   UNL A   1      46.133  28.873  28.381  1.00  0.00    -0.354 N 
ATOM     32  N   UNL A   1      43.317  29.535  28.909  1.00  0.00    -0.248 NA
ATOM     33  C   UNL A   1      41.686  31.025  29.676  1.00  0.00     0.031 C 
ATOM     34  C   UNL A   1      47.661  30.447  28.738  1.00  0.00     0.029 A 
ATOM     35  C   UNL A   1      46.304  30.177  28.815  1.00  0.00     0.049 A 
ATOM     36  H   UNL A   1      45.270  28.404  28.329  1.00  0.00     0.167 HD
ATOM     37  C   UNL A   1      43.928  30.723  29.286  1.00  0.00     0.074 A 
ATOM     38  C   UNL A   1      42.874  31.613  29.732  1.00  0.00     0.031 C 
ATOM     39  C   UNL A   1      45.244  31.047  29.258  1.00  0.00     0.031 A 
BRANCH  26  40
ATOM     40  C   UNL A   1      48.955  26.494  27.335  1.00  0.00    -0.014 A 
ATOM     41  C   UNL A   1      49.751  26.003  28.382  1.00  0.00     0.009 A 
ATOM     42  C   UNL A   1      49.483  26.513  26.034  1.00  0.00     0.009 A 
ATOM     43  C   UNL A   1      51.060  25.579  28.135  1.00  0.00     0.001 A 
ATOM     44  C   UNL A   1      50.781  26.065  25.786  1.00  0.00     0.001 A 
ATOM     45  C   UNL A   1      51.573  25.608  26.839  1.00  0.00     0.000 A 
ENDBRANCH  26  40
BRANCH  27  46
ATOM     46  C   UNL A   1      39.503  29.110  29.207  1.00  0.00    -0.014 A 
ATOM     47  C   UNL A   1      38.663  29.691  28.246  1.00  0.00     0.009 A 
ATOM     48  C   UNL A   1      38.978  28.796  30.472  1.00  0.00     0.009 A 
ATOM     49  C   UNL A   1      37.325  29.952  28.547  1.00  0.00     0.001 A 
ATOM     50  C   UNL A   1      37.634  29.037  30.760  1.00  0.00     0.001 A 
ATOM     51  C   UNL A   1      36.809  29.617  29.799  1.00  0.00     0.000 A 
ENDBRANCH  27  46
BRANCH  39  52
ATOM     52  C   UNL A   1      45.617  32.434  29.693  1.00  0.00    -0.014 A 
ATOM     53  C   UNL A   1      45.979  32.708  31.020  1.00  0.00     0.009 A 
ATOM     54  C   UNL A   1      45.667  33.466  28.743  1.00  0.00     0.009 A 
ATOM     55  C   UNL A   1      46.366  33.997  31.391  1.00  0.00     0.001 A 
ATOM     56  C   UNL A   1      46.075  34.747  29.112  1.00  0.00     0.001 A 
ATOM     57  C   UNL A   1      46.420  35.012  30.437  1.00  0.00     0.000 A 
ENDBRANCH  39  52
ENDBRANCH  13  14
ENDBRANCH   6   8
ENDBRANCH   3   4
ENDBRANCH   2   3
ENDBRANCH   1   2
BRANCH   1  58
ATOM     58  C   UNL A   1      36.916  22.174  25.465  1.00  0.00     0.116 C 
BRANCH  58  59
ATOM     59  N   UNL A   1      35.943  21.780  26.465  1.00  0.00    -0.356 N 
ATOM     60  C   UNL A   1      34.623  22.082  26.605  1.00  0.00     0.228 C 
ATOM     61  H   UNL A   1      36.301  21.189  27.166  1.00  0.00     0.163 HD
ATOM     62  O   UNL A   1      34.054  21.626  27.602  1.00  0.00    -0.275 OA
BRANCH  60  63
ATOM     63  C   UNL A   1      33.840  22.896  25.580  1.00  0.00     0.133 C 
ATOM     64  C   UNL A   1      33.298  22.073  24.414  1.00  0.00     0.025 C 
ATOM     65  C   UNL A   1      32.767  23.754  26.270  1.00  0.00     0.275 C 
ATOM     66  C   UNL A   1      32.443  22.924  23.497  1.00  0.00     0.062 C 
ATOM     67  N   UNL A   1      31.939  24.518  25.321  1.00  0.00    -0.331 N 
ATOM     68  C   UNL A   1      31.362  23.665  24.285  1.00  0.00     0.262 C 
ATOM     69  H   UNL A   1      32.551  25.135  24.787  1.00  0.00     0.348 HD
BRANCH  67  70
ATOM     70  C   UNL A   1      31.050  25.512  25.980  1.00  0.00     0.195 C 
ATOM     71  C   UNL A   1      29.732  25.890  25.283  1.00  0.00     0.126 C 
ATOM     72  C   UNL A   1      31.706  26.836  26.413  1.00  0.00     0.126 C 
ATOM     73  C   UNL A   1      29.959  26.802  24.087  1.00  0.00     0.268 C 
ATOM     74  C   UNL A   1      31.837  27.878  25.292  1.00  0.00     0.268 C 
ATOM     75  N   UNL A   1      30.663  28.037  24.430  1.00  0.00    -0.331 N 
ATOM     76  H   UNL A   1      29.996  28.538  25.017  1.00  0.00     0.348 HD
BRANCH  75  77
ATOM     77  C   UNL A   1      30.939  28.883  23.247  1.00  0.00     0.299 C 
BRANCH  77  78
ATOM     78  C   UNL A   1      29.886  29.924  22.893  1.00  0.00     0.006 A 
ATOM     79  C   UNL A   1      29.357  30.773  23.878  1.00  0.00     0.009 A 
ATOM     80  C   UNL A   1      29.432  30.076  21.572  1.00  0.00     0.009 A 
ATOM     81  C   UNL A   1      28.435  31.769  23.546  1.00  0.00     0.001 A 
ATOM     82  C   UNL A   1      28.522  31.082  21.236  1.00  0.00     0.001 A 
ATOM     83  C   UNL A   1      28.027  31.931  22.223  1.00  0.00     0.000 A 
ENDBRANCH  77  78
ENDBRANCH  75  77
ENDBRANCH  67  70
ENDBRANCH  60  63
ENDBRANCH  58  59
ENDBRANCH   1  58
TORSDOF 14
ENDMDL
