MODEL 1
REMARK VINA RESULT:     -11.6      0.000      0.000
REMARK SMILES O=C(NCCCCNC(=O)C1(CCc2ccccn2)CCCCC1)c1ccc(-c2c3nc(c(-c4ccccc4)c4ccc([nH]4)c(-c4ccccc4)c4nc(c(-c5ccccc5)c5ccc2[nH]5)C=C4)C=C3)cc1
REMARK SMILES IDX 6 1 5 2 4 3 3 4 1 5 2 6 25 8 26 9 72 10 27 11 71 12 28 13
REMARK SMILES IDX 29 14 30 15 65 16 31 17 70 18 64 19 66 20 32 21 69 22 63 23
REMARK SMILES IDX 62 24 33 26 55 27 40 28 54 29 41 30 44 31 53 32 67 33 42 34
REMARK SMILES IDX 43 35 52 37 68 38 45 39 34 40 35 41 39 42 36 43 38 44 37 45
REMARK SMILES IDX 56 46 57 47 61 48 58 49 60 50 59 51 46 52 47 53 51 54 48 55
REMARK SMILES IDX 50 56 49 57 7 58 8 59 9 60 10 62 11 63 20 64 24 65 21 66
REMARK SMILES IDX 23 67 22 68 12 69 13 70 14 71 15 72 19 73 16 74 18 75 17 76
REMARK H PARENT 3 7 66 25 44 36 8 61
REMARK Flexibility Score: inf
ROOT
ATOM      1  C   UNL A   1      31.949  30.389  26.644  1.00  0.00     0.023 C 
ENDROOT
BRANCH   1   2
ATOM      2  C   UNL A   1      31.699  31.873  26.877  1.00  0.00     0.023 C 
BRANCH   2   3
ATOM      3  C   UNL A   1      32.860  32.644  27.454  1.00  0.00     0.116 C 
BRANCH   3   4
ATOM      4  N   UNL A   1      32.522  34.043  27.638  1.00  0.00    -0.352 N 
ATOM      5  O   UNL A   1      32.450  35.983  28.783  1.00  0.00    -0.269 OA
ATOM      6  C   UNL A   1      33.013  34.913  28.579  1.00  0.00     0.251 C 
ATOM      7  H   UNL A   1      31.861  34.415  27.010  1.00  0.00     0.163 HD
BRANCH   6   8
ATOM      8  C   UNL A   1      34.235  34.561  29.340  1.00  0.00     0.039 A 
ATOM      9  C   UNL A   1      34.143  34.047  30.639  1.00  0.00     0.014 A 
ATOM     10  C   UNL A   1      35.480  34.657  28.712  1.00  0.00     0.014 A 
ATOM     11  C   UNL A   1      35.291  33.670  31.324  1.00  0.00     0.010 A 
ATOM     12  C   UNL A   1      36.625  34.205  29.370  1.00  0.00     0.010 A 
ATOM     13  C   UNL A   1      36.530  33.684  30.669  1.00  0.00    -0.014 A 
BRANCH  13  14
ATOM     14  C   UNL A   1      37.668  32.949  31.269  1.00  0.00     0.031 A 
ATOM     15  C   UNL A   1      38.264  31.746  30.609  1.00  0.00     0.074 A 
ATOM     16  C   UNL A   1      38.122  33.379  32.463  1.00  0.00     0.049 A 
ATOM     17  N   UNL A   1      39.221  30.968  31.044  1.00  0.00    -0.248 NA
ATOM     18  C   UNL A   1      37.719  31.358  29.299  1.00  0.00     0.031 C 
ATOM     19  C   UNL A   1      37.592  34.532  33.202  1.00  0.00     0.029 A 
ATOM     20  N   UNL A   1      39.121  32.903  33.272  1.00  0.00    -0.354 N 
ATOM     21  C   UNL A   1      39.378  29.983  30.079  1.00  0.00     0.074 A 
ATOM     22  C   UNL A   1      38.416  30.258  29.033  1.00  0.00     0.031 C 
ATOM     23  C   UNL A   1      38.283  34.685  34.339  1.00  0.00     0.029 A 
ATOM     24  C   UNL A   1      39.252  33.604  34.446  1.00  0.00     0.049 A 
ATOM     25  H   UNL A   1      39.689  32.135  33.034  1.00  0.00     0.167 HD
ATOM     26  C   UNL A   1      40.247  28.945  30.078  1.00  0.00     0.031 A 
ATOM     27  C   UNL A   1      40.035  33.379  35.516  1.00  0.00     0.031 A 
ATOM     28  C   UNL A   1      41.199  28.686  31.128  1.00  0.00     0.049 A 
ATOM     29  C   UNL A   1      40.951  32.193  35.498  1.00  0.00     0.074 A 
ATOM     30  C   UNL A   1      42.171  27.701  31.184  1.00  0.00     0.029 A 
ATOM     31  N   UNL A   1      41.288  29.404  32.310  1.00  0.00    -0.354 N 
ATOM     32  N   UNL A   1      41.142  31.317  34.543  1.00  0.00    -0.248 NA
ATOM     33  C   UNL A   1      41.751  31.958  36.707  1.00  0.00     0.031 C 
ATOM     34  C   UNL A   1      42.803  27.784  32.429  1.00  0.00     0.029 A 
ATOM     35  C   UNL A   1      42.263  28.854  33.124  1.00  0.00     0.049 A 
ATOM     36  H   UNL A   1      40.739  30.189  32.538  1.00  0.00     0.167 HD
ATOM     37  C   UNL A   1      42.087  30.429  35.032  1.00  0.00     0.074 A 
ATOM     38  C   UNL A   1      42.453  30.891  36.356  1.00  0.00     0.031 C 
ATOM     39  C   UNL A   1      42.601  29.323  34.442  1.00  0.00     0.031 A 
BRANCH  26  40
ATOM     40  C   UNL A   1      40.197  27.980  28.928  1.00  0.00    -0.014 A 
ATOM     41  C   UNL A   1      40.917  28.211  27.747  1.00  0.00     0.009 A 
ATOM     42  C   UNL A   1      39.488  26.776  29.068  1.00  0.00     0.009 A 
ATOM     43  C   UNL A   1      40.917  27.259  26.723  1.00  0.00     0.001 A 
ATOM     44  C   UNL A   1      39.507  25.818  28.053  1.00  0.00     0.001 A 
ATOM     45  C   UNL A   1      40.219  26.062  26.880  1.00  0.00     0.000 A 
ENDBRANCH  26  40
BRANCH  27  46
ATOM     46  C   UNL A   1      39.934  34.257  36.710  1.00  0.00    -0.014 A 
ATOM     47  C   UNL A   1      39.092  33.922  37.779  1.00  0.00     0.009 A 
ATOM     48  C   UNL A   1      40.685  35.442  36.783  1.00  0.00     0.009 A 
ATOM     49  C   UNL A   1      38.983  34.771  38.885  1.00  0.00     0.001 A 
ATOM     50  C   UNL A   1      40.599  36.272  37.902  1.00  0.00     0.001 A 
ATOM     51  C   UNL A   1      39.739  35.940  38.947  1.00  0.00     0.000 A 
ENDBRANCH  27  46
BRANCH  39  52
ATOM     52  C   UNL A   1      43.614  28.546  35.229  1.00  0.00    -0.014 A 
ATOM     53  C   UNL A   1      44.982  28.847  35.138  1.00  0.00     0.009 A 
ATOM     54  C   UNL A   1      43.193  27.526  36.096  1.00  0.00     0.009 A 
ATOM     55  C   UNL A   1      45.913  28.122  35.883  1.00  0.00     0.001 A 
ATOM     56  C   UNL A   1      44.125  26.822  36.860  1.00  0.00     0.001 A 
ATOM     57  C   UNL A   1      45.483  27.116  36.747  1.00  0.00     0.000 A 
ENDBRANCH  39  52
ENDBRANCH  13  14
ENDBRANCH   6   8
ENDBRANCH   3   4
ENDBRANCH   2   3
ENDBRANCH   1   2
BRANCH   1  58
ATOM     58  C   UNL A   1      31.599  29.771  25.273  1.00  0.00     0.116 C 
BRANCH  58  59
ATOM     59  N   UNL A   1      32.653  29.591  24.284  1.00  0.00    -0.356 N 
ATOM     60  C   UNL A   1      33.251  28.523  23.668  1.00  0.00     0.226 C 
ATOM     61  H   UNL A   1      33.030  30.450  23.984  1.00  0.00     0.163 HD
ATOM     62  O   UNL A   1      33.921  28.798  22.662  1.00  0.00    -0.274 OA
BRANCH  60  63
ATOM     63  C   UNL A   1      33.041  27.043  24.088  1.00  0.00     0.050 C 
ATOM     64  C   UNL A   1      33.789  26.234  22.987  1.00  0.00     0.017 C 
ATOM     65  C   UNL A   1      33.752  26.722  25.438  1.00  0.00     0.017 C 
ATOM     66  C   UNL A   1      33.943  24.739  23.263  1.00  0.00     0.001 C 
ATOM     67  C   UNL A   1      33.772  25.218  25.747  1.00  0.00     0.001 C 
ATOM     68  C   UNL A   1      34.492  24.440  24.653  1.00  0.00     0.000 C 
BRANCH  63  69
ATOM     69  C   UNL A   1      31.552  26.648  24.226  1.00  0.00     0.023 C 
BRANCH  69  70
ATOM     70  C   UNL A   1      30.589  26.766  23.003  1.00  0.00     0.057 C 
BRANCH  70  71
ATOM     71  C   UNL A   1      29.669  27.946  22.745  1.00  0.00     0.040 A 
ATOM     72  C   UNL A   1      28.370  27.947  23.247  1.00  0.00     0.024 A 
ATOM     73  N   UNL A   1      30.118  28.997  22.046  1.00  0.00    -0.261 NA
ATOM     74  C   UNL A   1      27.535  29.043  22.999  1.00  0.00     0.003 A 
ATOM     75  C   UNL A   1      29.307  30.056  21.820  1.00  0.00     0.111 A 
ATOM     76  C   UNL A   1      28.007  30.119  22.263  1.00  0.00     0.020 A 
ENDBRANCH  70  71
ENDBRANCH  69  70
ENDBRANCH  63  69
ENDBRANCH  60  63
ENDBRANCH  58  59
ENDBRANCH   1  58
TORSDOF 14
ENDMDL
MODEL 2
REMARK VINA RESULT:     -11.5      5.935     10.629
REMARK SMILES O=C(NCCCCNC(=O)C1(CCc2ccccn2)CCCCC1)c1ccc(-c2c3nc(c(-c4ccccc4)c4ccc([nH]4)c(-c4ccccc4)c4nc(c(-c5ccccc5)c5ccc2[nH]5)C=C4)C=C3)cc1
REMARK SMILES IDX 6 1 5 2 4 3 3 4 1 5 2 6 25 8 26 9 72 10 27 11 71 12 28 13
REMARK SMILES IDX 29 14 30 15 65 16 31 17 70 18 64 19 66 20 32 21 69 22 63 23
REMARK SMILES IDX 62 24 33 26 55 27 40 28 54 29 41 30 44 31 53 32 67 33 42 34
REMARK SMILES IDX 43 35 52 37 68 38 45 39 34 40 35 41 39 42 36 43 38 44 37 45
REMARK SMILES IDX 56 46 57 47 61 48 58 49 60 50 59 51 46 52 47 53 51 54 48 55
REMARK SMILES IDX 50 56 49 57 7 58 8 59 9 60 10 62 11 63 20 64 24 65 21 66
REMARK SMILES IDX 23 67 22 68 12 69 13 70 14 71 15 72 19 73 16 74 18 75 17 76
REMARK H PARENT 3 7 66 25 44 36 8 61
REMARK Flexibility Score: inf
ROOT
ATOM      1  C   UNL A   1      36.906  21.893  24.533  1.00  0.00     0.023 C 
ENDROOT
BRANCH   1   2
ATOM      2  C   UNL A   1      37.698  20.662  24.952  1.00  0.00     0.023 C 
BRANCH   2   3
ATOM      3  C   UNL A   1      38.961  20.937  25.730  1.00  0.00     0.116 C 
BRANCH   3   4
ATOM      4  N   UNL A   1      39.795  19.753  25.813  1.00  0.00    -0.352 N 
ATOM      5  O   UNL A   1      41.758  18.644  25.785  1.00  0.00    -0.269 OA
ATOM      6  C   UNL A   1      41.154  19.690  25.998  1.00  0.00     0.251 C 
ATOM      7  H   UNL A   1      39.331  18.889  25.726  1.00  0.00     0.163 HD
BRANCH   6   8
ATOM      8  C   UNL A   1      41.889  20.888  26.469  1.00  0.00     0.039 A 
ATOM      9  C   UNL A   1      42.412  21.809  25.554  1.00  0.00     0.014 A 
ATOM     10  C   UNL A   1      41.974  21.138  27.841  1.00  0.00     0.014 A 
ATOM     11  C   UNL A   1      43.053  22.956  26.006  1.00  0.00     0.010 A 
ATOM     12  C   UNL A   1      42.547  22.328  28.294  1.00  0.00     0.010 A 
ATOM     13  C   UNL A   1      43.064  23.254  27.375  1.00  0.00    -0.014 A 
BRANCH  13  14
ATOM     14  C   UNL A   1      43.414  24.627  27.809  1.00  0.00     0.031 A 
ATOM     15  C   UNL A   1      42.366  25.649  28.112  1.00  0.00     0.074 A 
ATOM     16  C   UNL A   1      44.724  24.938  27.878  1.00  0.00     0.049 A 
ATOM     17  N   UNL A   1      42.522  26.905  28.443  1.00  0.00    -0.248 NA
ATOM     18  C   UNL A   1      40.961  25.218  28.028  1.00  0.00     0.031 C 
ATOM     19  C   UNL A   1      45.828  24.015  27.580  1.00  0.00     0.029 A 
ATOM     20  N   UNL A   1      45.356  26.107  28.211  1.00  0.00    -0.354 N 
ATOM     21  C   UNL A   1      41.243  27.424  28.583  1.00  0.00     0.074 A 
ATOM     22  C   UNL A   1      40.317  26.348  28.298  1.00  0.00     0.031 C 
ATOM     23  C   UNL A   1      46.995  24.647  27.764  1.00  0.00     0.029 A 
ATOM     24  C   UNL A   1      46.725  26.033  28.121  1.00  0.00     0.049 A 
ATOM     25  H   UNL A   1      44.876  26.921  28.488  1.00  0.00     0.167 HD
ATOM     26  C   UNL A   1      40.885  28.686  28.915  1.00  0.00     0.031 A 
ATOM     27  C   UNL A   1      47.664  26.984  28.265  1.00  0.00     0.031 A 
ATOM     28  C   UNL A   1      41.821  29.745  29.195  1.00  0.00     0.049 A 
ATOM     29  C   UNL A   1      47.227  28.381  28.587  1.00  0.00     0.074 A 
ATOM     30  C   UNL A   1      41.556  31.039  29.611  1.00  0.00     0.029 A 
ATOM     31  N   UNL A   1      43.198  29.637  29.074  1.00  0.00    -0.354 N 
ATOM     32  N   UNL A   1      46.016  28.836  28.793  1.00  0.00    -0.248 NA
ATOM     33  C   UNL A   1      48.283  29.397  28.687  1.00  0.00     0.031 C 
ATOM     34  C   UNL A   1      42.769  31.732  29.677  1.00  0.00     0.029 A 
ATOM     35  C   UNL A   1      43.792  30.855  29.356  1.00  0.00     0.049 A 
ATOM     36  H   UNL A   1      43.680  28.817  28.823  1.00  0.00     0.167 HD
ATOM     37  C   UNL A   1      46.162  30.190  29.051  1.00  0.00     0.074 A 
ATOM     38  C   UNL A   1      47.582  30.475  29.007  1.00  0.00     0.031 C 
ATOM     39  C   UNL A   1      45.206  31.118  29.294  1.00  0.00     0.031 A 
BRANCH  26  40
ATOM     40  C   UNL A   1      39.421  29.018  28.962  1.00  0.00    -0.014 A 
ATOM     41  C   UNL A   1      38.734  29.464  27.823  1.00  0.00     0.009 A 
ATOM     42  C   UNL A   1      38.699  28.791  30.145  1.00  0.00     0.009 A 
ATOM     43  C   UNL A   1      37.356  29.690  27.873  1.00  0.00     0.001 A 
ATOM     44  C   UNL A   1      37.319  28.997  30.186  1.00  0.00     0.001 A 
ATOM     45  C   UNL A   1      36.649  29.449  29.051  1.00  0.00     0.000 A 
ENDBRANCH  26  40
BRANCH  27  46
ATOM     46  C   UNL A   1      49.096  26.657  28.041  1.00  0.00    -0.014 A 
ATOM     47  C   UNL A   1      49.932  26.321  29.114  1.00  0.00     0.009 A 
ATOM     48  C   UNL A   1      49.634  26.684  26.744  1.00  0.00     0.009 A 
ATOM     49  C   UNL A   1      51.285  26.044  28.896  1.00  0.00     0.001 A 
ATOM     50  C   UNL A   1      50.977  26.375  26.524  1.00  0.00     0.001 A 
ATOM     51  C   UNL A   1      51.804  26.067  27.602  1.00  0.00     0.000 A 
ENDBRANCH  27  46
BRANCH  39  52
ATOM     52  C   UNL A   1      45.673  32.523  29.533  1.00  0.00    -0.014 A 
ATOM     53  C   UNL A   1      45.771  33.439  28.474  1.00  0.00     0.009 A 
ATOM     54  C   UNL A   1      45.984  32.945  30.834  1.00  0.00     0.009 A 
ATOM     55  C   UNL A   1      46.198  34.746  28.712  1.00  0.00     0.001 A 
ATOM     56  C   UNL A   1      46.384  34.260  31.072  1.00  0.00     0.001 A 
ATOM     57  C   UNL A   1      46.498  35.156  30.010  1.00  0.00     0.000 A 
ENDBRANCH  39  52
ENDBRANCH  13  14
ENDBRANCH   6   8
ENDBRANCH   3   4
ENDBRANCH   2   3
ENDBRANCH   1   2
BRANCH   1  58
ATOM     58  C   UNL A   1      36.518  22.940  25.599  1.00  0.00     0.116 C 
BRANCH  58  59
ATOM     59  N   UNL A   1      35.710  22.529  26.739  1.00  0.00    -0.356 N 
ATOM     60  C   UNL A   1      34.370  22.420  27.004  1.00  0.00     0.226 C 
ATOM     61  H   UNL A   1      36.263  22.266  27.509  1.00  0.00     0.163 HD
ATOM     62  O   UNL A   1      34.082  21.752  28.010  1.00  0.00    -0.274 OA
BRANCH  60  63
ATOM     63  C   UNL A   1      33.248  22.971  26.083  1.00  0.00     0.050 C 
ATOM     64  C   UNL A   1      32.007  23.056  27.020  1.00  0.00     0.017 C 
ATOM     65  C   UNL A   1      33.552  24.425  25.614  1.00  0.00     0.017 C 
ATOM     66  C   UNL A   1      30.795  23.781  26.437  1.00  0.00     0.001 C 
ATOM     67  C   UNL A   1      32.352  25.079  24.913  1.00  0.00     0.001 C 
ATOM     68  C   UNL A   1      31.142  25.139  25.836  1.00  0.00     0.000 C 
BRANCH  63  69
ATOM     69  C   UNL A   1      33.004  22.102  24.826  1.00  0.00     0.023 C 
BRANCH  69  70
ATOM     70  C   UNL A   1      32.222  20.756  24.938  1.00  0.00     0.057 C 
BRANCH  70  71
ATOM     71  C   UNL A   1      32.869  19.384  24.917  1.00  0.00     0.040 A 
ATOM     72  C   UNL A   1      34.167  19.225  24.435  1.00  0.00     0.024 A 
ATOM     73  N   UNL A   1      32.193  18.323  25.380  1.00  0.00    -0.261 NA
ATOM     74  C   UNL A   1      34.748  17.952  24.421  1.00  0.00     0.003 A 
ATOM     75  C   UNL A   1      32.767  17.098  25.373  1.00  0.00     0.111 A 
ATOM     76  C   UNL A   1      34.033  16.860  24.892  1.00  0.00     0.020 A 
ENDBRANCH  70  71
ENDBRANCH  69  70
ENDBRANCH  63  69
ENDBRANCH  60  63
ENDBRANCH  58  59
ENDBRANCH   1  58
TORSDOF 14
ENDMDL
MODEL 3
REMARK VINA RESULT:     -11.5      5.438     10.257
REMARK SMILES O=C(NCCCCNC(=O)C1(CCc2ccccn2)CCCCC1)c1ccc(-c2c3nc(c(-c4ccccc4)c4ccc([nH]4)c(-c4ccccc4)c4nc(c(-c5ccccc5)c5ccc2[nH]5)C=C4)C=C3)cc1
REMARK SMILES IDX 6 1 5 2 4 3 3 4 1 5 2 6 25 8 26 9 72 10 27 11 71 12 28 13
REMARK SMILES IDX 29 14 30 15 65 16 31 17 70 18 64 19 66 20 32 21 69 22 63 23
REMARK SMILES IDX 62 24 33 26 55 27 40 28 54 29 41 30 44 31 53 32 67 33 42 34
REMARK SMILES IDX 43 35 52 37 68 38 45 39 34 40 35 41 39 42 36 43 38 44 37 45
REMARK SMILES IDX 56 46 57 47 61 48 58 49 60 50 59 51 46 52 47 53 51 54 48 55
REMARK SMILES IDX 50 56 49 57 7 58 8 59 9 60 10 62 11 63 20 64 24 65 21 66
REMARK SMILES IDX 23 67 22 68 12 69 13 70 14 71 15 72 19 73 16 74 18 75 17 76
REMARK H PARENT 3 7 66 25 44 36 8 61
REMARK Flexibility Score: inf
ROOT
ATOM      1  C   UNL A   1      37.043  22.012  23.904  1.00  0.00     0.023 C 
ENDROOT
BRANCH   1   2
ATOM      2  C   UNL A   1      37.404  20.854  24.825  1.00  0.00     0.023 C 
BRANCH   2   3
ATOM      3  C   UNL A   1      38.599  21.082  25.717  1.00  0.00     0.116 C 
BRANCH   3   4
ATOM      4  N   UNL A   1      39.460  19.914  25.750  1.00  0.00    -0.352 N 
ATOM      5  O   UNL A   1      41.449  18.855  25.724  1.00  0.00    -0.269 OA
ATOM      6  C   UNL A   1      40.811  19.869  25.985  1.00  0.00     0.251 C 
ATOM      7  H   UNL A   1      39.021  19.048  25.584  1.00  0.00     0.163 HD
BRANCH   6   8
ATOM      8  C   UNL A   1      41.496  21.047  26.568  1.00  0.00     0.039 A 
ATOM      9  C   UNL A   1      42.095  22.005  25.742  1.00  0.00     0.014 A 
ATOM     10  C   UNL A   1      41.457  21.241  27.952  1.00  0.00     0.014 A 
ATOM     11  C   UNL A   1      42.689  23.132  26.295  1.00  0.00     0.010 A 
ATOM     12  C   UNL A   1      41.983  22.412  28.502  1.00  0.00     0.010 A 
ATOM     13  C   UNL A   1      42.576  23.374  27.671  1.00  0.00    -0.014 A 
BRANCH  13  14
ATOM     14  C   UNL A   1      42.881  24.728  28.190  1.00  0.00     0.031 A 
ATOM     15  C   UNL A   1      41.808  25.746  28.415  1.00  0.00     0.074 A 
ATOM     16  C   UNL A   1      44.177  25.028  28.411  1.00  0.00     0.049 A 
ATOM     17  N   UNL A   1      41.932  26.988  28.806  1.00  0.00    -0.248 NA
ATOM     18  C   UNL A   1      40.420  25.327  28.164  1.00  0.00     0.031 C 
ATOM     19  C   UNL A   1      45.304  24.110  28.201  1.00  0.00     0.029 A 
ATOM     20  N   UNL A   1      44.772  26.181  28.853  1.00  0.00    -0.354 N 
ATOM     21  C   UNL A   1      40.646  27.509  28.826  1.00  0.00     0.074 A 
ATOM     22  C   UNL A   1      39.754  26.450  28.404  1.00  0.00     0.031 C 
ATOM     23  C   UNL A   1      46.445  24.727  28.533  1.00  0.00     0.029 A 
ATOM     24  C   UNL A   1      46.142  26.101  28.909  1.00  0.00     0.049 A 
ATOM     25  H   UNL A   1      44.267  26.987  29.106  1.00  0.00     0.167 HD
ATOM     26  C   UNL A   1      40.258  28.761  29.163  1.00  0.00     0.031 A 
ATOM     27  C   UNL A   1      47.063  27.040  29.188  1.00  0.00     0.031 A 
ATOM     28  C   UNL A   1      41.160  29.803  29.582  1.00  0.00     0.049 A 
ATOM     29  C   UNL A   1      46.597  28.428  29.512  1.00  0.00     0.074 A 
ATOM     30  C   UNL A   1      40.855  31.083  30.013  1.00  0.00     0.029 A 
ATOM     31  N   UNL A   1      42.542  29.691  29.606  1.00  0.00    -0.354 N 
ATOM     32  N   UNL A   1      45.372  28.883  29.602  1.00  0.00    -0.248 NA
ATOM     33  C   UNL A   1      47.638  29.432  29.762  1.00  0.00     0.031 C 
ATOM     34  C   UNL A   1      42.055  31.765  30.235  1.00  0.00     0.029 A 
ATOM     35  C   UNL A   1      43.105  30.894  29.995  1.00  0.00     0.049 A 
ATOM     36  H   UNL A   1      43.047  28.878  29.378  1.00  0.00     0.167 HD
ATOM     37  C   UNL A   1      45.493  30.226  29.923  1.00  0.00     0.074 A 
ATOM     38  C   UNL A   1      46.910  30.503  30.044  1.00  0.00     0.031 C 
ATOM     39  C   UNL A   1      44.518  31.150  30.095  1.00  0.00     0.031 A 
BRANCH  26  40
ATOM     40  C   UNL A   1      38.797  29.101  29.064  1.00  0.00    -0.014 A 
ATOM     41  C   UNL A   1      37.938  28.965  30.164  1.00  0.00     0.009 A 
ATOM     42  C   UNL A   1      38.296  29.652  27.874  1.00  0.00     0.009 A 
ATOM     43  C   UNL A   1      36.602  29.363  30.069  1.00  0.00     0.001 A 
ATOM     44  C   UNL A   1      36.967  30.068  27.788  1.00  0.00     0.001 A 
ATOM     45  C   UNL A   1      36.119  29.920  28.885  1.00  0.00     0.000 A 
ENDBRANCH  26  40
BRANCH  27  46
ATOM     46  C   UNL A   1      48.509  26.712  29.108  1.00  0.00    -0.014 A 
ATOM     47  C   UNL A   1      49.207  26.261  30.237  1.00  0.00     0.009 A 
ATOM     48  C   UNL A   1      49.202  26.854  27.894  1.00  0.00     0.009 A 
ATOM     49  C   UNL A   1      50.575  25.984  30.158  1.00  0.00     0.001 A 
ATOM     50  C   UNL A   1      50.560  26.545  27.810  1.00  0.00     0.001 A 
ATOM     51  C   UNL A   1      51.248  26.121  28.945  1.00  0.00     0.000 A 
ENDBRANCH  27  46
BRANCH  39  52
ATOM     52  C   UNL A   1      44.960  32.543  30.434  1.00  0.00    -0.014 A 
ATOM     53  C   UNL A   1      45.172  32.926  31.767  1.00  0.00     0.009 A 
ATOM     54  C   UNL A   1      45.200  33.469  29.408  1.00  0.00     0.009 A 
ATOM     55  C   UNL A   1      45.592  34.223  32.068  1.00  0.00     0.001 A 
ATOM     56  C   UNL A   1      45.647  34.756  29.712  1.00  0.00     0.001 A 
ATOM     57  C   UNL A   1      45.835  35.133  31.041  1.00  0.00     0.000 A 
ENDBRANCH  39  52
ENDBRANCH  13  14
ENDBRANCH   6   8
ENDBRANCH   3   4
ENDBRANCH   2   3
ENDBRANCH   1   2
BRANCH   1  58
ATOM     58  C   UNL A   1      36.691  23.384  24.520  1.00  0.00     0.116 C 
BRANCH  58  59
ATOM     59  N   UNL A   1      35.886  23.434  25.733  1.00  0.00    -0.356 N 
ATOM     60  C   UNL A   1      34.582  23.165  26.057  1.00  0.00     0.226 C 
ATOM     61  H   UNL A   1      36.407  23.737  26.511  1.00  0.00     0.163 HD
ATOM     62  O   UNL A   1      34.350  23.056  27.271  1.00  0.00    -0.274 OA
BRANCH  60  63
ATOM     63  C   UNL A   1      33.461  22.891  25.019  1.00  0.00     0.050 C 
ATOM     64  C   UNL A   1      32.151  23.238  25.786  1.00  0.00     0.017 C 
ATOM     65  C   UNL A   1      33.543  23.873  23.811  1.00  0.00     0.017 C 
ATOM     66  C   UNL A   1      30.883  23.275  24.934  1.00  0.00     0.001 C 
ATOM     67  C   UNL A   1      32.309  23.789  22.901  1.00  0.00     0.001 C 
ATOM     68  C   UNL A   1      31.035  24.114  23.671  1.00  0.00     0.000 C 
BRANCH  63  69
ATOM     69  C   UNL A   1      33.477  21.447  24.465  1.00  0.00     0.023 C 
BRANCH  69  70
ATOM     70  C   UNL A   1      32.762  20.297  25.241  1.00  0.00     0.057 C 
BRANCH  70  71
ATOM     71  C   UNL A   1      33.125  18.828  25.124  1.00  0.00     0.040 A 
ATOM     72  C   UNL A   1      34.236  18.435  24.381  1.00  0.00     0.024 A 
ATOM     73  N   UNL A   1      32.382  17.908  25.755  1.00  0.00    -0.261 NA
ATOM     74  C   UNL A   1      34.555  17.076  24.282  1.00  0.00     0.003 A 
ATOM     75  C   UNL A   1      32.705  16.598  25.663  1.00  0.00     0.111 A 
ATOM     76  C   UNL A   1      33.771  16.132  24.929  1.00  0.00     0.020 A 
ENDBRANCH  70  71
ENDBRANCH  69  70
ENDBRANCH  63  69
ENDBRANCH  60  63
ENDBRANCH  58  59
ENDBRANCH   1  58
TORSDOF 14
ENDMDL
