MODEL 1
REMARK VINA RESULT:     -13.0      0.000      0.000
REMARK SMILES Cc1ccc(-c2cc([C@@H](C)C(=O)NCCCCNC(=O)c3ccc(-c4c5nc(c(-c6ccccc6)c6ccc([nH]6)c(-c6ccccc6)c6nc(c(-c7ccccc7)c7ccc4[nH]7)C=C6)C=C5)cc3)ccc2C[C@H]2CCCC2=O)cc1
REMARK SMILES IDX 15 1 14 2 13 3 11 4 12 5 9 7 10 8 8 9 6 10 7 11 71 12 70 13
REMARK SMILES IDX 69 14 5 15 1 16 2 17 3 18 80 19 4 20 79 21 72 22 73 23 74 24
REMARK SMILES IDX 77 25 75 26 76 27 78 28 16 29 17 30 18 31 19 32 20 34 21 35
REMARK SMILES IDX 22 36 68 37 23 38 67 39 24 40 25 41 26 42 61 43 27 44 66 45
REMARK SMILES IDX 60 46 62 47 28 48 65 49 59 50 58 51 29 53 51 54 36 55 50 56
REMARK SMILES IDX 37 57 40 58 49 59 63 60 38 61 39 62 48 64 64 65 41 66 30 67
REMARK SMILES IDX 31 68 35 69 32 70 34 71 33 72 52 73 53 74 57 75 54 76 56 77
REMARK SMILES IDX 55 78 42 79 43 80 47 81 44 82 46 83 45 84
REMARK H PARENT 13 6 18 33 62 52 40 63
REMARK Flexibility Score: inf
ROOT
ATOM      1  C   UNL A   1      35.129  31.054  27.652  1.00  0.00     0.023 C 
ENDROOT
BRANCH   1   2
ATOM      2  C   UNL A   1      34.594  29.685  27.208  1.00  0.00     0.116 C 
BRANCH   2   3
ATOM      3  N   UNL A   1      34.041  29.727  25.866  1.00  0.00    -0.356 N 
ATOM      4  C   UNL A   1      32.899  29.214  25.329  1.00  0.00     0.227 C 
ATOM      5  O   UNL A   1      32.777  29.335  24.103  1.00  0.00    -0.274 OA
ATOM      6  H   UNL A   1      34.597  30.219  25.221  1.00  0.00     0.163 HD
BRANCH   4   7
ATOM      7  C   UNL A   1      31.782  28.543  26.144  1.00  0.00     0.105 C 
ATOM      8  C   UNL A   1      31.671  29.077  27.571  1.00  0.00     0.023 C 
BRANCH   7   9
ATOM      9  C   UNL A   1      31.729  27.030  25.991  1.00  0.00    -0.035 A 
ATOM     10  C   UNL A   1      32.908  24.865  26.060  1.00  0.00    -0.015 A 
ATOM     11  C   UNL A   1      32.908  26.275  26.121  1.00  0.00     0.013 A 
ATOM     12  C   UNL A   1      31.665  24.193  26.026  1.00  0.00    -0.039 A 
ATOM     13  C   UNL A   1      30.504  24.945  25.801  1.00  0.00     0.004 A 
ATOM     14  C   UNL A   1      30.549  26.338  25.723  1.00  0.00     0.005 A 
BRANCH  10  15
ATOM     15  C   UNL A   1      34.187  24.153  25.881  1.00  0.00    -0.018 A 
ATOM     16  C   UNL A   1      37.892  21.943  25.527  1.00  0.00     0.044 C 
ATOM     17  C   UNL A   1      36.603  22.704  25.623  1.00  0.00    -0.051 A 
ATOM     18  C   UNL A   1      35.673  22.351  26.602  1.00  0.00     0.004 A 
ATOM     19  C   UNL A   1      36.314  23.770  24.763  1.00  0.00     0.004 A 
ATOM     20  C   UNL A   1      34.477  23.058  26.715  1.00  0.00     0.009 A 
ATOM     21  C   UNL A   1      35.115  24.486  24.887  1.00  0.00     0.009 A 
ENDBRANCH  10  15
BRANCH  12  22
ATOM     22  C   UNL A   1      31.526  22.694  26.221  1.00  0.00     0.047 C 
BRANCH  22  23
ATOM     23  C   UNL A   1      31.379  21.844  24.951  1.00  0.00     0.060 C 
ATOM     24  C   UNL A   1      31.683  22.523  23.608  1.00  0.00     0.012 C 
ATOM     25  C   UNL A   1      32.306  20.652  24.924  1.00  0.00     0.136 C 
ATOM     26  C   UNL A   1      33.071  22.045  23.199  1.00  0.00     0.009 C 
ATOM     27  C   UNL A   1      33.132  20.602  23.672  1.00  0.00     0.076 C 
ATOM     28  O   UNL A   1      32.356  19.795  25.799  1.00  0.00    -0.299 OA
ENDBRANCH  22  23
ENDBRANCH  12  22
ENDBRANCH   7   9
ENDBRANCH   4   7
ENDBRANCH   2   3
ENDBRANCH   1   2
BRANCH   1  29
ATOM     29  C   UNL A   1      34.042  32.066  28.002  1.00  0.00     0.023 C 
BRANCH  29  30
ATOM     30  C   UNL A   1      34.588  33.424  28.404  1.00  0.00     0.116 C 
BRANCH  30  31
ATOM     31  N   UNL A   1      33.687  34.271  29.171  1.00  0.00    -0.352 N 
ATOM     32  C   UNL A   1      33.645  34.470  30.555  1.00  0.00     0.251 C 
ATOM     33  H   UNL A   1      33.020  34.771  28.647  1.00  0.00     0.163 HD
ATOM     34  O   UNL A   1      32.797  35.177  31.054  1.00  0.00    -0.269 OA
BRANCH  32  35
ATOM     35  C   UNL A   1      34.751  33.923  31.388  1.00  0.00     0.039 A 
ATOM     36  C   UNL A   1      35.899  34.709  31.537  1.00  0.00     0.014 A 
ATOM     37  C   UNL A   1      34.777  32.583  31.753  1.00  0.00     0.014 A 
ATOM     38  C   UNL A   1      37.124  34.083  31.750  1.00  0.00     0.010 A 
ATOM     39  C   UNL A   1      36.000  31.945  31.809  1.00  0.00     0.010 A 
ATOM     40  C   UNL A   1      37.178  32.690  31.730  1.00  0.00    -0.014 A 
BRANCH  40  41
ATOM     41  C   UNL A   1      38.411  31.941  31.505  1.00  0.00     0.031 A 
ATOM     42  C   UNL A   1      38.365  30.635  30.801  1.00  0.00     0.074 A 
ATOM     43  C   UNL A   1      39.605  32.446  31.900  1.00  0.00     0.049 A 
ATOM     44  N   UNL A   1      39.229  29.691  30.980  1.00  0.00    -0.248 NA
ATOM     45  C   UNL A   1      37.309  30.269  29.860  1.00  0.00     0.031 C 
ATOM     46  C   UNL A   1      40.928  31.912  31.570  1.00  0.00     0.029 A 
ATOM     47  N   UNL A   1      39.887  33.429  32.856  1.00  0.00    -0.354 N 
ATOM     48  C   UNL A   1      39.020  28.746  30.004  1.00  0.00     0.074 A 
ATOM     49  C   UNL A   1      37.775  29.114  29.375  1.00  0.00     0.031 C 
ATOM     50  C   UNL A   1      41.799  32.310  32.512  1.00  0.00     0.029 A 
ATOM     51  C   UNL A   1      41.030  32.986  33.541  1.00  0.00     0.049 A 
ATOM     52  H   UNL A   1      39.386  34.261  33.015  1.00  0.00     0.167 HD
ATOM     53  C   UNL A   1      39.983  27.821  29.738  1.00  0.00     0.031 A 
ATOM     54  C   UNL A   1      41.066  32.682  34.872  1.00  0.00     0.031 A 
ATOM     55  C   UNL A   1      41.137  27.965  30.616  1.00  0.00     0.049 A 
ATOM     56  C   UNL A   1      41.555  31.272  35.161  1.00  0.00     0.074 A 
ATOM     57  C   UNL A   1      42.382  28.553  30.456  1.00  0.00     0.029 A 
ATOM     58  N   UNL A   1      40.988  27.722  31.974  1.00  0.00    -0.354 N 
ATOM     59  N   UNL A   1      41.639  30.333  34.260  1.00  0.00    -0.248 NA
ATOM     60  C   UNL A   1      41.921  30.788  36.492  1.00  0.00     0.031 C 
ATOM     61  C   UNL A   1      42.967  28.700  31.740  1.00  0.00     0.029 A 
ATOM     62  C   UNL A   1      42.088  28.178  32.672  1.00  0.00     0.049 A 
ATOM     63  H   UNL A   1      40.207  27.284  32.382  1.00  0.00     0.167 HD
ATOM     64  C   UNL A   1      42.037  29.156  34.845  1.00  0.00     0.074 A 
ATOM     65  C   UNL A   1      42.219  29.499  36.242  1.00  0.00     0.031 C 
ATOM     66  C   UNL A   1      42.155  28.005  34.118  1.00  0.00     0.031 A 
BRANCH  53  67
ATOM     67  C   UNL A   1      39.982  26.954  28.505  1.00  0.00    -0.014 A 
ATOM     68  C   UNL A   1      39.286  25.730  28.514  1.00  0.00     0.009 A 
ATOM     69  C   UNL A   1      40.668  27.267  27.320  1.00  0.00     0.009 A 
ATOM     70  C   UNL A   1      39.353  24.829  27.442  1.00  0.00     0.001 A 
ATOM     71  C   UNL A   1      40.775  26.354  26.262  1.00  0.00     0.001 A 
ATOM     72  C   UNL A   1      40.125  25.128  26.327  1.00  0.00     0.000 A 
ENDBRANCH  53  67
BRANCH  54  73
ATOM     73  C   UNL A   1      40.074  33.409  35.706  1.00  0.00    -0.014 A 
ATOM     74  C   UNL A   1      38.856  32.770  36.007  1.00  0.00     0.009 A 
ATOM     75  C   UNL A   1      40.455  34.520  36.470  1.00  0.00     0.009 A 
ATOM     76  C   UNL A   1      38.103  33.155  37.119  1.00  0.00     0.001 A 
ATOM     77  C   UNL A   1      39.693  34.909  37.579  1.00  0.00     0.001 A 
ATOM     78  C   UNL A   1      38.540  34.203  37.925  1.00  0.00     0.000 A 
ENDBRANCH  54  73
BRANCH  66  79
ATOM     79  C   UNL A   1      42.379  26.601  34.642  1.00  0.00    -0.014 A 
ATOM     80  C   UNL A   1      41.464  25.869  35.407  1.00  0.00     0.009 A 
ATOM     81  C   UNL A   1      43.550  25.908  34.243  1.00  0.00     0.009 A 
ATOM     82  C   UNL A   1      41.717  24.538  35.777  1.00  0.00     0.001 A 
ATOM     83  C   UNL A   1      43.785  24.569  34.568  1.00  0.00     0.001 A 
ATOM     84  C   UNL A   1      42.868  23.885  35.346  1.00  0.00     0.000 A 
ENDBRANCH  66  79
ENDBRANCH  40  41
ENDBRANCH  32  35
ENDBRANCH  30  31
ENDBRANCH  29  30
ENDBRANCH   1  29
TORSDOF 15
ENDMDL
MODEL 2
REMARK VINA RESULT:     -13.0      2.513      4.249
REMARK SMILES Cc1ccc(-c2cc([C@@H](C)C(=O)NCCCCNC(=O)c3ccc(-c4c5nc(c(-c6ccccc6)c6ccc([nH]6)c(-c6ccccc6)c6nc(c(-c7ccccc7)c7ccc4[nH]7)C=C6)C=C5)cc3)ccc2C[C@H]2CCCC2=O)cc1
REMARK SMILES IDX 15 1 14 2 13 3 11 4 12 5 9 7 10 8 8 9 6 10 7 11 71 12 70 13
REMARK SMILES IDX 69 14 5 15 1 16 2 17 3 18 80 19 4 20 79 21 72 22 73 23 74 24
REMARK SMILES IDX 77 25 75 26 76 27 78 28 16 29 17 30 18 31 19 32 20 34 21 35
REMARK SMILES IDX 22 36 68 37 23 38 67 39 24 40 25 41 26 42 61 43 27 44 66 45
REMARK SMILES IDX 60 46 62 47 28 48 65 49 59 50 58 51 29 53 51 54 36 55 50 56
REMARK SMILES IDX 37 57 40 58 49 59 63 60 38 61 39 62 48 64 64 65 41 66 30 67
REMARK SMILES IDX 31 68 35 69 32 70 34 71 33 72 52 73 53 74 57 75 54 76 56 77
REMARK SMILES IDX 55 78 42 79 43 80 47 81 44 82 46 83 45 84
REMARK H PARENT 13 6 18 33 62 52 40 63
REMARK Flexibility Score: inf
ROOT
ATOM      1  C   UNL A   1      32.141  28.710  27.593  1.00  0.00     0.023 C 
ENDROOT
BRANCH   1   2
ATOM      2  C   UNL A   1      32.021  27.765  26.389  1.00  0.00     0.116 C 
BRANCH   2   3
ATOM      3  N   UNL A   1      31.330  26.534  26.731  1.00  0.00    -0.356 N 
ATOM      4  C   UNL A   1      31.028  25.422  26.006  1.00  0.00     0.227 C 
ATOM      5  O   UNL A   1      30.319  24.581  26.576  1.00  0.00    -0.274 OA
ATOM      6  H   UNL A   1      31.023  26.497  27.664  1.00  0.00     0.163 HD
BRANCH   4   7
ATOM      7  C   UNL A   1      31.529  25.154  24.578  1.00  0.00     0.105 C 
ATOM      8  C   UNL A   1      30.507  25.516  23.502  1.00  0.00     0.023 C 
BRANCH   7   9
ATOM      9  C   UNL A   1      32.229  23.814  24.410  1.00  0.00    -0.035 A 
ATOM     10  C   UNL A   1      34.165  22.372  24.916  1.00  0.00    -0.015 A 
ATOM     11  C   UNL A   1      33.500  23.616  24.978  1.00  0.00     0.013 A 
ATOM     12  C   UNL A   1      33.461  21.257  24.407  1.00  0.00    -0.039 A 
ATOM     13  C   UNL A   1      32.239  21.476  23.758  1.00  0.00     0.004 A 
ATOM     14  C   UNL A   1      31.665  22.748  23.709  1.00  0.00     0.005 A 
BRANCH  10  15
ATOM     15  C   UNL A   1      35.603  22.309  25.237  1.00  0.00    -0.018 A 
ATOM     16  C   UNL A   1      39.825  21.924  26.109  1.00  0.00     0.044 C 
ATOM     17  C   UNL A   1      38.368  22.080  25.793  1.00  0.00    -0.051 A 
ATOM     18  C   UNL A   1      37.683  21.028  25.184  1.00  0.00     0.004 A 
ATOM     19  C   UNL A   1      37.671  23.254  26.105  1.00  0.00     0.004 A 
ATOM     20  C   UNL A   1      36.325  21.151  24.897  1.00  0.00     0.009 A 
ATOM     21  C   UNL A   1      36.301  23.370  25.827  1.00  0.00     0.009 A 
ENDBRANCH  10  15
BRANCH  12  22
ATOM     22  C   UNL A   1      33.966  19.831  24.527  1.00  0.00     0.047 C 
BRANCH  22  23
ATOM     23  C   UNL A   1      33.004  18.718  24.087  1.00  0.00     0.060 C 
ATOM     24  C   UNL A   1      33.404  17.881  22.865  1.00  0.00     0.012 C 
ATOM     25  C   UNL A   1      32.797  17.661  25.146  1.00  0.00     0.136 C 
ATOM     26  C   UNL A   1      33.932  16.560  23.412  1.00  0.00     0.009 C 
ATOM     27  C   UNL A   1      33.063  16.278  24.627  1.00  0.00     0.076 C 
ATOM     28  O   UNL A   1      32.416  17.890  26.287  1.00  0.00    -0.299 OA
ENDBRANCH  22  23
ENDBRANCH  12  22
ENDBRANCH   7   9
ENDBRANCH   4   7
ENDBRANCH   2   3
ENDBRANCH   1   2
BRANCH   1  29
ATOM     29  C   UNL A   1      32.374  30.171  27.220  1.00  0.00     0.023 C 
BRANCH  29  30
ATOM     30  C   UNL A   1      33.838  30.516  27.017  1.00  0.00     0.116 C 
BRANCH  30  31
ATOM     31  N   UNL A   1      34.409  31.456  27.970  1.00  0.00    -0.352 N 
ATOM     32  C   UNL A   1      35.498  31.275  28.828  1.00  0.00     0.251 C 
ATOM     33  H   UNL A   1      33.970  32.337  28.017  1.00  0.00     0.163 HD
ATOM     34  O   UNL A   1      35.827  32.143  29.605  1.00  0.00    -0.269 OA
BRANCH  32  35
ATOM     35  C   UNL A   1      36.341  30.059  28.662  1.00  0.00     0.039 A 
ATOM     36  C   UNL A   1      36.640  29.317  29.810  1.00  0.00     0.014 A 
ATOM     37  C   UNL A   1      37.048  29.833  27.487  1.00  0.00     0.014 A 
ATOM     38  C   UNL A   1      37.829  28.592  29.856  1.00  0.00     0.010 A 
ATOM     39  C   UNL A   1      38.294  29.247  27.578  1.00  0.00     0.010 A 
ATOM     40  C   UNL A   1      38.718  28.693  28.787  1.00  0.00    -0.014 A 
BRANCH  40  41
ATOM     41  C   UNL A   1      40.135  28.357  28.892  1.00  0.00     0.031 A 
ATOM     42  C   UNL A   1      40.633  27.072  28.342  1.00  0.00     0.074 A 
ATOM     43  C   UNL A   1      41.009  29.227  29.456  1.00  0.00     0.049 A 
ATOM     44  N   UNL A   1      41.675  26.454  28.790  1.00  0.00    -0.248 NA
ATOM     45  C   UNL A   1      39.967  26.353  27.259  1.00  0.00     0.031 C 
ATOM     46  C   UNL A   1      42.469  29.118  29.453  1.00  0.00     0.029 A 
ATOM     47  N   UNL A   1      40.770  30.291  30.333  1.00  0.00    -0.354 N 
ATOM     48  C   UNL A   1      41.976  25.448  27.903  1.00  0.00     0.074 A 
ATOM     49  C   UNL A   1      40.848  25.380  27.005  1.00  0.00     0.031 C 
ATOM     50  C   UNL A   1      42.953  29.810  30.497  1.00  0.00     0.029 A 
ATOM     51  C   UNL A   1      41.812  30.258  31.274  1.00  0.00     0.049 A 
ATOM     52  H   UNL A   1      40.023  30.931  30.298  1.00  0.00     0.167 HD
ATOM     53  C   UNL A   1      43.203  24.859  27.935  1.00  0.00     0.031 A 
ATOM     54  C   UNL A   1      41.642  30.040  32.612  1.00  0.00     0.031 A 
ATOM     55  C   UNL A   1      44.039  25.396  29.001  1.00  0.00     0.049 A 
ATOM     56  C   UNL A   1      42.449  28.868  33.145  1.00  0.00     0.074 A 
ATOM     57  C   UNL A   1      45.058  26.334  29.023  1.00  0.00     0.029 A 
ATOM     58  N   UNL A   1      43.673  25.179  30.321  1.00  0.00    -0.354 N 
ATOM     59  N   UNL A   1      43.003  27.962  32.388  1.00  0.00    -0.248 NA
ATOM     60  C   UNL A   1      42.638  28.583  34.567  1.00  0.00     0.031 C 
ATOM     61  C   UNL A   1      45.276  26.714  30.373  1.00  0.00     0.029 A 
ATOM     62  C   UNL A   1      44.407  25.986  31.166  1.00  0.00     0.049 A 
ATOM     63  H   UNL A   1      42.986  24.538  30.614  1.00  0.00     0.167 HD
ATOM     64  C   UNL A   1      43.592  26.996  33.165  1.00  0.00     0.074 A 
ATOM     65  C   UNL A   1      43.351  27.441  34.525  1.00  0.00     0.031 C 
ATOM     66  C   UNL A   1      44.201  25.908  32.607  1.00  0.00     0.031 A 
BRANCH  53  67
ATOM     67  C   UNL A   1      43.730  23.980  26.828  1.00  0.00    -0.014 A 
ATOM     68  C   UNL A   1      44.513  24.545  25.804  1.00  0.00     0.009 A 
ATOM     69  C   UNL A   1      43.466  22.605  26.719  1.00  0.00     0.009 A 
ATOM     70  C   UNL A   1      44.925  23.803  24.688  1.00  0.00     0.001 A 
ATOM     71  C   UNL A   1      43.837  21.867  25.587  1.00  0.00     0.001 A 
ATOM     72  C   UNL A   1      44.559  22.469  24.564  1.00  0.00     0.000 A 
ENDBRANCH  53  67
BRANCH  54  73
ATOM     73  C   UNL A   1      40.321  30.458  33.150  1.00  0.00    -0.014 A 
ATOM     74  C   UNL A   1      40.041  31.835  33.242  1.00  0.00     0.009 A 
ATOM     75  C   UNL A   1      39.256  29.550  33.221  1.00  0.00     0.009 A 
ATOM     76  C   UNL A   1      38.722  32.295  33.280  1.00  0.00     0.001 A 
ATOM     77  C   UNL A   1      37.935  30.015  33.268  1.00  0.00     0.001 A 
ATOM     78  C   UNL A   1      37.668  31.384  33.258  1.00  0.00     0.000 A 
ENDBRANCH  54  73
BRANCH  66  79
ATOM     79  C   UNL A   1      44.709  24.669  33.317  1.00  0.00    -0.014 A 
ATOM     80  C   UNL A   1      46.038  24.441  33.691  1.00  0.00     0.009 A 
ATOM     81  C   UNL A   1      43.767  23.703  33.752  1.00  0.00     0.009 A 
ATOM     82  C   UNL A   1      46.408  23.303  34.428  1.00  0.00     0.001 A 
ATOM     83  C   UNL A   1      44.122  22.594  34.524  1.00  0.00     0.001 A 
ATOM     84  C   UNL A   1      45.450  22.389  34.855  1.00  0.00     0.000 A 
ENDBRANCH  66  79
ENDBRANCH  40  41
ENDBRANCH  32  35
ENDBRANCH  30  31
ENDBRANCH  29  30
ENDBRANCH   1  29
TORSDOF 15
ENDMDL
MODEL 3
REMARK VINA RESULT:     -12.8      1.552      2.114
REMARK SMILES Cc1ccc(-c2cc([C@@H](C)C(=O)NCCCCNC(=O)c3ccc(-c4c5nc(c(-c6ccccc6)c6ccc([nH]6)c(-c6ccccc6)c6nc(c(-c7ccccc7)c7ccc4[nH]7)C=C6)C=C5)cc3)ccc2C[C@H]2CCCC2=O)cc1
REMARK SMILES IDX 15 1 14 2 13 3 11 4 12 5 9 7 10 8 8 9 6 10 7 11 71 12 70 13
REMARK SMILES IDX 69 14 5 15 1 16 2 17 3 18 80 19 4 20 79 21 72 22 73 23 74 24
REMARK SMILES IDX 77 25 75 26 76 27 78 28 16 29 17 30 18 31 19 32 20 34 21 35
REMARK SMILES IDX 22 36 68 37 23 38 67 39 24 40 25 41 26 42 61 43 27 44 66 45
REMARK SMILES IDX 60 46 62 47 28 48 65 49 59 50 58 51 29 53 51 54 36 55 50 56
REMARK SMILES IDX 37 57 40 58 49 59 63 60 38 61 39 62 48 64 64 65 41 66 30 67
REMARK SMILES IDX 31 68 35 69 32 70 34 71 33 72 52 73 53 74 57 75 54 76 56 77
REMARK SMILES IDX 55 78 42 79 43 80 47 81 44 82 46 83 45 84
REMARK H PARENT 13 6 18 33 62 52 40 63
REMARK Flexibility Score: inf
ROOT
ATOM      1  C   UNL A   1      32.835  28.914  26.483  1.00  0.00     0.023 C 
ENDROOT
BRANCH   1   2
ATOM      2  C   UNL A   1      32.344  29.761  25.300  1.00  0.00     0.116 C 
BRANCH   2   3
ATOM      3  N   UNL A   1      33.247  29.686  24.166  1.00  0.00    -0.356 N 
ATOM      4  C   UNL A   1      33.317  28.834  23.105  1.00  0.00     0.227 C 
ATOM      5  O   UNL A   1      34.294  28.980  22.359  1.00  0.00    -0.274 OA
ATOM      6  H   UNL A   1      33.940  30.384  24.162  1.00  0.00     0.163 HD
BRANCH   4   7
ATOM      7  C   UNL A   1      32.266  27.760  22.785  1.00  0.00     0.105 C 
ATOM      8  C   UNL A   1      30.897  28.340  22.432  1.00  0.00     0.023 C 
BRANCH   7   9
ATOM      9  C   UNL A   1      32.265  26.588  23.754  1.00  0.00    -0.035 A 
ATOM     10  C   UNL A   1      33.544  24.901  25.019  1.00  0.00    -0.015 A 
ATOM     11  C   UNL A   1      33.475  25.945  24.072  1.00  0.00     0.013 A 
ATOM     12  C   UNL A   1      32.392  24.604  25.780  1.00  0.00    -0.039 A 
ATOM     13  C   UNL A   1      31.171  25.176  25.397  1.00  0.00     0.004 A 
ATOM     14  C   UNL A   1      31.104  26.106  24.359  1.00  0.00     0.005 A 
BRANCH  10  15
ATOM     15  C   UNL A   1      34.756  24.061  25.075  1.00  0.00    -0.018 A 
ATOM     16  C   UNL A   1      38.258  21.518  25.048  1.00  0.00     0.044 C 
ATOM     17  C   UNL A   1      37.061  22.420  25.063  1.00  0.00    -0.051 A 
ATOM     18  C   UNL A   1      36.205  22.438  23.961  1.00  0.00     0.004 A 
ATOM     19  C   UNL A   1      36.772  23.239  26.161  1.00  0.00     0.004 A 
ATOM     20  C   UNL A   1      35.079  23.259  23.965  1.00  0.00     0.009 A 
ATOM     21  C   UNL A   1      35.632  24.055  26.167  1.00  0.00     0.009 A 
ENDBRANCH  10  15
BRANCH  12  22
ATOM     22  C   UNL A   1      32.410  23.693  26.995  1.00  0.00     0.047 C 
BRANCH  22  23
ATOM     23  C   UNL A   1      32.054  22.219  26.757  1.00  0.00     0.060 C 
ATOM     24  C   UNL A   1      31.338  21.868  25.446  1.00  0.00     0.012 C 
ATOM     25  C   UNL A   1      33.264  21.316  26.714  1.00  0.00     0.136 C 
ATOM     26  C   UNL A   1      32.401  21.269  24.532  1.00  0.00     0.009 C 
ATOM     27  C   UNL A   1      33.306  20.482  25.466  1.00  0.00     0.076 C 
ATOM     28  O   UNL A   1      34.099  21.236  27.606  1.00  0.00    -0.299 OA
ENDBRANCH  22  23
ENDBRANCH  12  22
ENDBRANCH   7   9
ENDBRANCH   4   7
ENDBRANCH   2   3
ENDBRANCH   1   2
BRANCH   1  29
ATOM     29  C   UNL A   1      34.343  28.973  26.710  1.00  0.00     0.023 C 
BRANCH  29  30
ATOM     30  C   UNL A   1      34.776  30.134  27.585  1.00  0.00     0.116 C 
BRANCH  30  31
ATOM     31  N   UNL A   1      33.941  31.324  27.526  1.00  0.00    -0.352 N 
ATOM     32  C   UNL A   1      34.063  32.512  28.252  1.00  0.00     0.251 C 
ATOM     33  H   UNL A   1      33.190  31.287  26.889  1.00  0.00     0.163 HD
ATOM     34  O   UNL A   1      33.252  33.403  28.124  1.00  0.00    -0.269 OA
BRANCH  32  35
ATOM     35  C   UNL A   1      35.290  32.726  29.068  1.00  0.00     0.039 A 
ATOM     36  C   UNL A   1      36.335  33.453  28.488  1.00  0.00     0.014 A 
ATOM     37  C   UNL A   1      35.516  31.993  30.227  1.00  0.00     0.014 A 
ATOM     38  C   UNL A   1      37.643  33.191  28.887  1.00  0.00     0.010 A 
ATOM     39  C   UNL A   1      36.811  31.617  30.520  1.00  0.00     0.010 A 
ATOM     40  C   UNL A   1      37.874  32.160  29.796  1.00  0.00    -0.014 A 
BRANCH  40  41
ATOM     41  C   UNL A   1      39.172  31.512  29.957  1.00  0.00     0.031 A 
ATOM     42  C   UNL A   1      39.426  30.195  29.321  1.00  0.00     0.074 A 
ATOM     43  C   UNL A   1      40.165  32.121  30.652  1.00  0.00     0.049 A 
ATOM     44  N   UNL A   1      40.271  29.329  29.773  1.00  0.00    -0.248 NA
ATOM     45  C   UNL A   1      38.710  29.727  28.137  1.00  0.00     0.031 C 
ATOM     46  C   UNL A   1      41.563  31.692  30.728  1.00  0.00     0.029 A 
ATOM     47  N   UNL A   1      40.091  33.141  31.608  1.00  0.00    -0.354 N 
ATOM     48  C   UNL A   1      40.418  28.353  28.817  1.00  0.00     0.074 A 
ATOM     49  C   UNL A   1      39.378  28.606  27.848  1.00  0.00     0.031 C 
ATOM     50  C   UNL A   1      42.099  32.177  31.860  1.00  0.00     0.029 A 
ATOM     51  C   UNL A   1      41.022  32.806  32.604  1.00  0.00     0.049 A 
ATOM     52  H   UNL A   1      39.504  33.931  31.586  1.00  0.00     0.167 HD
ATOM     53  C   UNL A   1      41.483  27.507  28.869  1.00  0.00     0.031 A 
ATOM     54  C   UNL A   1      40.702  32.528  33.903  1.00  0.00     0.031 A 
ATOM     55  C   UNL A   1      42.328  27.761  30.030  1.00  0.00     0.049 A 
ATOM     56  C   UNL A   1      41.192  31.169  34.374  1.00  0.00     0.074 A 
ATOM     57  C   UNL A   1      43.519  28.447  30.202  1.00  0.00     0.029 A 
ATOM     58  N   UNL A   1      41.818  27.530  31.299  1.00  0.00    -0.354 N 
ATOM     59  N   UNL A   1      41.598  30.224  33.570  1.00  0.00    -0.248 NA
ATOM     60  C   UNL A   1      41.201  30.740  35.772  1.00  0.00     0.031 C 
ATOM     61  C   UNL A   1      43.704  28.663  31.593  1.00  0.00     0.029 A 
ATOM     62  C   UNL A   1      42.638  28.087  32.260  1.00  0.00     0.049 A 
ATOM     63  H   UNL A   1      40.988  27.036  31.489  1.00  0.00     0.167 HD
ATOM     64  C   UNL A   1      41.901  29.095  34.289  1.00  0.00     0.074 A 
ATOM     65  C   UNL A   1      41.653  29.476  35.667  1.00  0.00     0.031 C 
ATOM     66  C   UNL A   1      42.305  27.945  33.671  1.00  0.00     0.031 A 
BRANCH  53  67
ATOM     67  C   UNL A   1      41.897  26.622  27.720  1.00  0.00    -0.014 A 
ATOM     68  C   UNL A   1      42.588  27.177  26.627  1.00  0.00     0.009 A 
ATOM     69  C   UNL A   1      41.610  25.249  27.639  1.00  0.00     0.009 A 
ATOM     70  C   UNL A   1      42.886  26.429  25.479  1.00  0.00     0.001 A 
ATOM     71  C   UNL A   1      41.866  24.506  26.479  1.00  0.00     0.001 A 
ATOM     72  C   UNL A   1      42.497  25.099  25.393  1.00  0.00     0.000 A 
ENDBRANCH  53  67
BRANCH  54  73
ATOM     73  C   UNL A   1      39.463  33.185  34.394  1.00  0.00    -0.014 A 
ATOM     74  C   UNL A   1      38.222  32.618  34.046  1.00  0.00     0.009 A 
ATOM     75  C   UNL A   1      39.508  34.102  35.452  1.00  0.00     0.009 A 
ATOM     76  C   UNL A   1      37.081  32.868  34.814  1.00  0.00     0.001 A 
ATOM     77  C   UNL A   1      38.361  34.357  36.215  1.00  0.00     0.001 A 
ATOM     78  C   UNL A   1      37.160  33.711  35.919  1.00  0.00     0.000 A 
ENDBRANCH  54  73
BRANCH  66  79
ATOM     79  C   UNL A   1      42.476  26.573  34.293  1.00  0.00    -0.014 A 
ATOM     80  C   UNL A   1      41.535  25.934  35.109  1.00  0.00     0.009 A 
ATOM     81  C   UNL A   1      43.617  25.808  33.943  1.00  0.00     0.009 A 
ATOM     82  C   UNL A   1      41.736  24.623  35.571  1.00  0.00     0.001 A 
ATOM     83  C   UNL A   1      43.800  24.487  34.362  1.00  0.00     0.001 A 
ATOM     84  C   UNL A   1      42.859  23.897  35.187  1.00  0.00     0.000 A 
ENDBRANCH  66  79
ENDBRANCH  40  41
ENDBRANCH  32  35
ENDBRANCH  30  31
ENDBRANCH  29  30
ENDBRANCH   1  29
TORSDOF 15
ENDMDL
