MODEL 1
REMARK VINA RESULT:      -9.8      0.000      0.000
REMARK SMILES CCN(CCOC)C(=O)c1cccn1CC(=O)NCCCCNC(=O)c1ccc(-c2c3nc(c(-c4ccccc4)c4ccc([nH]4)c(-c4ccccc4)c4nc(c(-c5ccccc5)c5ccc2[nH]5)C=C4)C=C3)cc1
REMARK SMILES IDX 16 1 17 2 18 3 15 5 14 6 10 7 11 8 12 9 13 10 8 11 9 12 3 13
REMARK SMILES IDX 2 14 1 15 4 16 5 17 6 18 7 19 19 20 20 21 21 22 22 23 23 24
REMARK SMILES IDX 24 25 25 27 26 28 27 29 73 30 28 31 72 32 29 33 30 34 31 35
REMARK SMILES IDX 66 36 32 37 71 38 65 39 67 40 33 41 70 42 64 43 63 44 34 46
REMARK SMILES IDX 56 47 41 48 55 49 42 50 45 51 54 52 68 53 43 54 44 55 53 57
REMARK SMILES IDX 69 58 46 59 35 60 36 61 40 62 37 63 39 64 38 65 57 66 58 67
REMARK SMILES IDX 62 68 59 69 61 70 60 71 47 72 48 73 52 74 49 75 51 76 50 77
REMARK H PARENT 18 4 23 26 67 45 45 56
REMARK Flexibility Score: inf
ROOT
ATOM      1  C   UNL A   1      33.283  25.856  22.795  1.00  0.00     0.239 C 
ATOM      2  O   UNL A   1      34.029  25.057  22.223  1.00  0.00    -0.273 OA
ATOM      3  N   UNL A   1      33.858  26.903  23.461  1.00  0.00    -0.355 N 
ATOM      4  H   UNL A   1      34.843  26.933  23.440  1.00  0.00     0.163 HD
ENDROOT
BRANCH   1   5
ATOM      5  C   UNL A   1      31.772  25.716  22.728  1.00  0.00     0.222 C 
BRANCH   5   6
ATOM      6  N   UNL A   1      31.177  25.459  24.035  1.00  0.00    -0.334 N 
ATOM      7  C   UNL A   1      31.340  24.319  24.817  1.00  0.00     0.107 A 
ATOM      8  C   UNL A   1      30.536  24.520  25.932  1.00  0.00     0.033 A 
ATOM      9  C   UNL A   1      29.896  25.776  25.826  1.00  0.00     0.020 A 
ATOM     10  C   UNL A   1      30.334  26.347  24.659  1.00  0.00     0.087 A 
BRANCH   7  11
ATOM     11  C   UNL A   1      32.254  23.231  24.475  1.00  0.00     0.270 C 
ATOM     12  O   UNL A   1      32.023  22.523  23.496  1.00  0.00    -0.267 OA
BRANCH  11  13
ATOM     13  N   UNL A   1      33.334  22.916  25.318  1.00  0.00    -0.335 N 
BRANCH  13  14
ATOM     14  C   UNL A   1      34.158  24.023  25.822  1.00  0.00     0.116 C 
ATOM     15  C   UNL A   1      35.577  24.029  25.264  1.00  0.00     0.027 C 
ENDBRANCH  13  14
BRANCH  13  16
ATOM     16  C   UNL A   1      33.628  21.589  25.873  1.00  0.00     0.148 C 
BRANCH  16  17
ATOM     17  C   UNL A   1      34.237  20.616  24.845  1.00  0.00     0.181 C 
BRANCH  17  18
ATOM     18  O   UNL A   1      33.713  19.295  24.953  1.00  0.00    -0.383 OA
ATOM     19  C   UNL A   1      32.850  18.916  23.887  1.00  0.00     0.194 C 
ENDBRANCH  17  18
ENDBRANCH  16  17
ENDBRANCH  13  16
ENDBRANCH  11  13
ENDBRANCH   7  11
ENDBRANCH   5   6
ENDBRANCH   1   5
BRANCH   3  20
ATOM     20  C   UNL A   1      33.215  27.974  24.194  1.00  0.00     0.116 C 
BRANCH  20  21
ATOM     21  C   UNL A   1      33.507  27.912  25.692  1.00  0.00     0.023 C 
BRANCH  21  22
ATOM     22  C   UNL A   1      33.998  29.229  26.304  1.00  0.00     0.023 C 
BRANCH  22  23
ATOM     23  C   UNL A   1      34.415  29.119  27.773  1.00  0.00     0.116 C 
BRANCH  23  24
ATOM     24  N   UNL A   1      34.826  30.409  28.307  1.00  0.00    -0.352 N 
ATOM     25  C   UNL A   1      36.016  30.785  28.878  1.00  0.00     0.251 C 
ATOM     26  H   UNL A   1      34.147  31.120  28.249  1.00  0.00     0.163 HD
ATOM     27  O   UNL A   1      36.044  31.765  29.614  1.00  0.00    -0.269 OA
BRANCH  25  28
ATOM     28  C   UNL A   1      37.266  30.038  28.627  1.00  0.00     0.039 A 
ATOM     29  C   UNL A   1      37.834  29.324  29.691  1.00  0.00     0.014 A 
ATOM     30  C   UNL A   1      37.928  30.116  27.397  1.00  0.00     0.014 A 
ATOM     31  C   UNL A   1      39.023  28.627  29.500  1.00  0.00     0.010 A 
ATOM     32  C   UNL A   1      39.114  29.413  27.199  1.00  0.00     0.010 A 
ATOM     33  C   UNL A   1      39.642  28.643  28.243  1.00  0.00    -0.014 A 
BRANCH  33  34
ATOM     34  C   UNL A   1      40.693  27.636  27.962  1.00  0.00     0.031 A 
ATOM     35  C   UNL A   1      42.085  28.311  27.877  1.00  0.00     0.074 A 
ATOM     36  C   UNL A   1      40.292  26.336  27.799  1.00  0.00     0.049 A 
ATOM     37  N   UNL A   1      43.154  27.953  27.237  1.00  0.00    -0.248 NA
ATOM     38  C   UNL A   1      42.300  29.620  28.565  1.00  0.00     0.031 C 
ATOM     39  C   UNL A   1      38.902  25.854  27.975  1.00  0.00     0.029 A 
ATOM     40  N   UNL A   1      40.937  25.162  27.457  1.00  0.00    -0.354 N 
ATOM     41  C   UNL A   1      44.187  28.867  27.563  1.00  0.00     0.074 A 
ATOM     42  C   UNL A   1      43.574  29.921  28.309  1.00  0.00     0.031 C 
ATOM     43  C   UNL A   1      38.796  24.543  27.662  1.00  0.00     0.029 A 
ATOM     44  C   UNL A   1      40.092  24.035  27.257  1.00  0.00     0.049 A 
ATOM     45  H   UNL A   1      41.916  25.109  27.361  1.00  0.00     0.167 HD
ATOM     46  C   UNL A   1      45.508  28.618  27.322  1.00  0.00     0.031 A 
ATOM     47  C   UNL A   1      40.399  22.803  26.743  1.00  0.00     0.031 A 
ATOM     48  C   UNL A   1      45.645  27.415  26.579  1.00  0.00     0.049 A 
ATOM     49  C   UNL A   1      41.857  22.803  26.558  1.00  0.00     0.074 A 
ATOM     50  C   UNL A   1      45.369  27.072  25.284  1.00  0.00     0.029 A 
ATOM     51  N   UNL A   1      45.794  26.275  27.327  1.00  0.00    -0.354 N 
ATOM     52  N   UNL A   1      42.730  22.723  27.513  1.00  0.00    -0.248 NA
ATOM     53  C   UNL A   1      42.391  23.009  25.206  1.00  0.00     0.031 C 
ATOM     54  C   UNL A   1      44.842  25.768  25.410  1.00  0.00     0.029 A 
ATOM     55  C   UNL A   1      45.045  25.306  26.715  1.00  0.00     0.049 A 
ATOM     56  H   UNL A   1      46.333  26.173  28.146  1.00  0.00     0.167 HD
ATOM     57  C   UNL A   1      43.847  23.256  26.922  1.00  0.00     0.074 A 
ATOM     58  C   UNL A   1      43.686  23.091  25.495  1.00  0.00     0.031 C 
ATOM     59  C   UNL A   1      44.531  24.248  27.545  1.00  0.00     0.031 A 
BRANCH  46  60
ATOM     60  C   UNL A   1      46.765  29.168  27.951  1.00  0.00    -0.014 A 
ATOM     61  C   UNL A   1      47.996  28.636  27.486  1.00  0.00     0.009 A 
ATOM     62  C   UNL A   1      46.785  29.838  29.177  1.00  0.00     0.009 A 
ATOM     63  C   UNL A   1      49.138  28.606  28.288  1.00  0.00     0.001 A 
ATOM     64  C   UNL A   1      47.950  29.853  29.962  1.00  0.00     0.001 A 
ATOM     65  C   UNL A   1      49.105  29.194  29.542  1.00  0.00     0.000 A 
ENDBRANCH  46  60
BRANCH  47  66
ATOM     66  C   UNL A   1      39.673  21.575  26.236  1.00  0.00    -0.014 A 
ATOM     67  C   UNL A   1      38.424  21.548  25.613  1.00  0.00     0.009 A 
ATOM     68  C   UNL A   1      40.318  20.308  26.348  1.00  0.00     0.009 A 
ATOM     69  C   UNL A   1      37.917  20.355  25.044  1.00  0.00     0.001 A 
ATOM     70  C   UNL A   1      39.848  19.137  25.748  1.00  0.00     0.001 A 
ATOM     71  C   UNL A   1      38.645  19.164  25.075  1.00  0.00     0.000 A 
ENDBRANCH  47  66
BRANCH  59  72
ATOM     72  C   UNL A   1      44.330  24.336  29.050  1.00  0.00    -0.014 A 
ATOM     73  C   UNL A   1      44.041  25.576  29.637  1.00  0.00     0.009 A 
ATOM     74  C   UNL A   1      44.518  23.243  29.918  1.00  0.00     0.009 A 
ATOM     75  C   UNL A   1      43.961  25.726  31.028  1.00  0.00     0.001 A 
ATOM     76  C   UNL A   1      44.441  23.388  31.313  1.00  0.00     0.001 A 
ATOM     77  C   UNL A   1      44.164  24.634  31.867  1.00  0.00     0.000 A 
ENDBRANCH  59  72
ENDBRANCH  33  34
ENDBRANCH  25  28
ENDBRANCH  23  24
ENDBRANCH  22  23
ENDBRANCH  21  22
ENDBRANCH  20  21
ENDBRANCH   3  20
TORSDOF 18
ENDMDL
MODEL 2
REMARK VINA RESULT:      -9.7      1.988      3.354
REMARK SMILES CCN(CCOC)C(=O)c1cccn1CC(=O)NCCCCNC(=O)c1ccc(-c2c3nc(c(-c4ccccc4)c4ccc([nH]4)c(-c4ccccc4)c4nc(c(-c5ccccc5)c5ccc2[nH]5)C=C4)C=C3)cc1
REMARK SMILES IDX 16 1 17 2 18 3 15 5 14 6 10 7 11 8 12 9 13 10 8 11 9 12 3 13
REMARK SMILES IDX 2 14 1 15 4 16 5 17 6 18 7 19 19 20 20 21 21 22 22 23 23 24
REMARK SMILES IDX 24 25 25 27 26 28 27 29 73 30 28 31 72 32 29 33 30 34 31 35
REMARK SMILES IDX 66 36 32 37 71 38 65 39 67 40 33 41 70 42 64 43 63 44 34 46
REMARK SMILES IDX 56 47 41 48 55 49 42 50 45 51 54 52 68 53 43 54 44 55 53 57
REMARK SMILES IDX 69 58 46 59 35 60 36 61 40 62 37 63 39 64 38 65 57 66 58 67
REMARK SMILES IDX 62 68 59 69 61 70 60 71 47 72 48 73 52 74 49 75 51 76 50 77
REMARK H PARENT 18 4 23 26 67 45 45 56
REMARK Flexibility Score: inf
ROOT
ATOM      1  C   UNL A   1      34.351  25.129  24.545  1.00  0.00     0.239 C 
ATOM      2  O   UNL A   1      34.360  24.589  23.436  1.00  0.00    -0.273 OA
ATOM      3  N   UNL A   1      33.696  26.324  24.669  1.00  0.00    -0.355 N 
ATOM      4  H   UNL A   1      33.283  26.671  23.845  1.00  0.00     0.163 HD
ENDROOT
BRANCH   1   5
ATOM      5  C   UNL A   1      35.003  24.475  25.750  1.00  0.00     0.222 C 
BRANCH   5   6
ATOM      6  N   UNL A   1      35.721  23.253  25.402  1.00  0.00    -0.334 N 
ATOM      7  C   UNL A   1      35.292  21.945  25.608  1.00  0.00     0.107 A 
ATOM      8  C   UNL A   1      36.337  21.142  25.169  1.00  0.00     0.033 A 
ATOM      9  C   UNL A   1      37.388  21.961  24.696  1.00  0.00     0.020 A 
ATOM     10  C   UNL A   1      36.968  23.260  24.825  1.00  0.00     0.087 A 
BRANCH   7  11
ATOM     11  C   UNL A   1      33.965  21.603  26.114  1.00  0.00     0.270 C 
ATOM     12  O   UNL A   1      33.848  21.091  27.227  1.00  0.00    -0.267 OA
BRANCH  11  13
ATOM     13  N   UNL A   1      32.830  21.749  25.297  1.00  0.00    -0.335 N 
BRANCH  13  14
ATOM     14  C   UNL A   1      32.897  21.222  23.928  1.00  0.00     0.116 C 
ATOM     15  C   UNL A   1      32.150  22.078  22.910  1.00  0.00     0.027 C 
ENDBRANCH  13  14
BRANCH  13  16
ATOM     16  C   UNL A   1      31.518  22.243  25.735  1.00  0.00     0.148 C 
BRANCH  16  17
ATOM     17  C   UNL A   1      31.602  23.271  26.880  1.00  0.00     0.181 C 
BRANCH  17  18
ATOM     18  O   UNL A   1      31.490  24.618  26.425  1.00  0.00    -0.383 OA
ATOM     19  C   UNL A   1      30.632  24.790  25.303  1.00  0.00     0.194 C 
ENDBRANCH  17  18
ENDBRANCH  16  17
ENDBRANCH  13  16
ENDBRANCH  11  13
ENDBRANCH   7  11
ENDBRANCH   5   6
ENDBRANCH   1   5
BRANCH   3  20
ATOM     20  C   UNL A   1      33.528  27.147  25.849  1.00  0.00     0.116 C 
BRANCH  20  21
ATOM     21  C   UNL A   1      34.046  28.570  25.644  1.00  0.00     0.023 C 
BRANCH  21  22
ATOM     22  C   UNL A   1      34.263  29.365  26.938  1.00  0.00     0.023 C 
BRANCH  22  23
ATOM     23  C   UNL A   1      35.603  29.088  27.624  1.00  0.00     0.116 C 
BRANCH  23  24
ATOM     24  N   UNL A   1      36.130  30.285  28.262  1.00  0.00    -0.352 N 
ATOM     25  C   UNL A   1      37.343  30.495  28.870  1.00  0.00     0.251 C 
ATOM     26  H   UNL A   1      35.526  31.061  28.255  1.00  0.00     0.163 HD
ATOM     27  O   UNL A   1      37.456  31.407  29.681  1.00  0.00    -0.269 OA
BRANCH  25  28
ATOM     28  C   UNL A   1      38.517  29.650  28.568  1.00  0.00     0.039 A 
ATOM     29  C   UNL A   1      38.952  29.576  27.238  1.00  0.00     0.014 A 
ATOM     30  C   UNL A   1      39.121  28.861  29.553  1.00  0.00     0.014 A 
ATOM     31  C   UNL A   1      40.040  28.772  26.910  1.00  0.00     0.010 A 
ATOM     32  C   UNL A   1      40.215  28.062  29.230  1.00  0.00     0.010 A 
ATOM     33  C   UNL A   1      40.693  28.045  27.914  1.00  0.00    -0.014 A 
BRANCH  33  34
ATOM     34  C   UNL A   1      42.032  27.483  27.620  1.00  0.00     0.031 A 
ATOM     35  C   UNL A   1      43.071  28.618  27.440  1.00  0.00     0.074 A 
ATOM     36  C   UNL A   1      42.139  26.120  27.528  1.00  0.00     0.049 A 
ATOM     37  N   UNL A   1      44.175  28.646  26.762  1.00  0.00    -0.248 NA
ATOM     38  C   UNL A   1      42.807  29.950  28.065  1.00  0.00     0.031 C 
ATOM     39  C   UNL A   1      41.032  25.169  27.791  1.00  0.00     0.029 A 
ATOM     40  N   UNL A   1      43.161  25.251  27.200  1.00  0.00    -0.354 N 
ATOM     41  C   UNL A   1      44.806  29.893  27.001  1.00  0.00     0.074 A 
ATOM     42  C   UNL A   1      43.870  30.685  27.735  1.00  0.00     0.031 C 
ATOM     43  C   UNL A   1      41.410  23.897  27.535  1.00  0.00     0.029 A 
ATOM     44  C   UNL A   1      42.788  23.882  27.086  1.00  0.00     0.049 A 
ATOM     45  H   UNL A   1      44.086  25.557  27.057  1.00  0.00     0.167 HD
ATOM     46  C   UNL A   1      46.117  30.137  26.704  1.00  0.00     0.031 A 
ATOM     47  C   UNL A   1      43.515  22.824  26.605  1.00  0.00     0.031 A 
ATOM     48  C   UNL A   1      46.666  29.031  26.002  1.00  0.00     0.049 A 
ATOM     49  C   UNL A   1      44.861  23.352  26.347  1.00  0.00     0.074 A 
ATOM     50  C   UNL A   1      46.496  28.541  24.736  1.00  0.00     0.029 A 
ATOM     51  N   UNL A   1      47.252  28.069  26.785  1.00  0.00    -0.354 N 
ATOM     52  N   UNL A   1      45.732  23.652  27.260  1.00  0.00    -0.248 NA
ATOM     53  C   UNL A   1      45.237  23.667  24.963  1.00  0.00     0.031 C 
ATOM     54  C   UNL A   1      46.495  27.143  24.938  1.00  0.00     0.029 A 
ATOM     55  C   UNL A   1      46.897  26.860  26.248  1.00  0.00     0.049 A 
ATOM     56  H   UNL A   1      47.816  28.217  27.578  1.00  0.00     0.167 HD
ATOM     57  C   UNL A   1      46.552  24.527  26.594  1.00  0.00     0.074 A 
ATOM     58  C   UNL A   1      46.418  24.237  25.184  1.00  0.00     0.031 C 
ATOM     59  C   UNL A   1      46.839  25.734  27.143  1.00  0.00     0.031 A 
BRANCH  46  60
ATOM     60  C   UNL A   1      47.099  31.145  27.247  1.00  0.00    -0.014 A 
ATOM     61  C   UNL A   1      47.162  32.397  26.581  1.00  0.00     0.009 A 
ATOM     62  C   UNL A   1      48.180  30.806  28.065  1.00  0.00     0.009 A 
ATOM     63  C   UNL A   1      48.320  33.176  26.580  1.00  0.00     0.001 A 
ATOM     64  C   UNL A   1      49.326  31.616  28.105  1.00  0.00     0.001 A 
ATOM     65  C   UNL A   1      49.415  32.769  27.325  1.00  0.00     0.000 A 
ENDBRANCH  46  60
BRANCH  47  66
ATOM     66  C   UNL A   1      43.281  21.389  26.182  1.00  0.00    -0.014 A 
ATOM     67  C   UNL A   1      44.111  20.619  25.366  1.00  0.00     0.009 A 
ATOM     68  C   UNL A   1      42.133  20.710  26.685  1.00  0.00     0.009 A 
ATOM     69  C   UNL A   1      43.864  19.239  25.167  1.00  0.00     0.001 A 
ATOM     70  C   UNL A   1      41.908  19.339  26.533  1.00  0.00     0.001 A 
ATOM     71  C   UNL A   1      42.790  18.593  25.782  1.00  0.00     0.000 A 
ENDBRANCH  47  66
BRANCH  59  72
ATOM     72  C   UNL A   1      46.668  25.823  28.652  1.00  0.00    -0.014 A 
ATOM     73  C   UNL A   1      45.458  26.293  29.184  1.00  0.00     0.009 A 
ATOM     74  C   UNL A   1      47.707  25.550  29.563  1.00  0.00     0.009 A 
ATOM     75  C   UNL A   1      45.296  26.499  30.560  1.00  0.00     0.001 A 
ATOM     76  C   UNL A   1      47.549  25.757  30.943  1.00  0.00     0.001 A 
ATOM     77  C   UNL A   1      46.342  26.235  31.440  1.00  0.00     0.000 A 
ENDBRANCH  59  72
ENDBRANCH  33  34
ENDBRANCH  25  28
ENDBRANCH  23  24
ENDBRANCH  22  23
ENDBRANCH  21  22
ENDBRANCH  20  21
ENDBRANCH   3  20
TORSDOF 18
ENDMDL
MODEL 3
REMARK VINA RESULT:      -9.7      1.917      6.536
REMARK SMILES CCN(CCOC)C(=O)c1cccn1CC(=O)NCCCCNC(=O)c1ccc(-c2c3nc(c(-c4ccccc4)c4ccc([nH]4)c(-c4ccccc4)c4nc(c(-c5ccccc5)c5ccc2[nH]5)C=C4)C=C3)cc1
REMARK SMILES IDX 16 1 17 2 18 3 15 5 14 6 10 7 11 8 12 9 13 10 8 11 9 12 3 13
REMARK SMILES IDX 2 14 1 15 4 16 5 17 6 18 7 19 19 20 20 21 21 22 22 23 23 24
REMARK SMILES IDX 24 25 25 27 26 28 27 29 73 30 28 31 72 32 29 33 30 34 31 35
REMARK SMILES IDX 66 36 32 37 71 38 65 39 67 40 33 41 70 42 64 43 63 44 34 46
REMARK SMILES IDX 56 47 41 48 55 49 42 50 45 51 54 52 68 53 43 54 44 55 53 57
REMARK SMILES IDX 69 58 46 59 35 60 36 61 40 62 37 63 39 64 38 65 57 66 58 67
REMARK SMILES IDX 62 68 59 69 61 70 60 71 47 72 48 73 52 74 49 75 51 76 50 77
REMARK H PARENT 18 4 23 26 67 45 45 56
REMARK Flexibility Score: inf
ROOT
ATOM      1  C   UNL A   1      31.858  26.021  23.690  1.00  0.00     0.239 C 
ATOM      2  O   UNL A   1      31.620  25.590  22.559  1.00  0.00    -0.273 OA
ATOM      3  N   UNL A   1      31.325  27.232  24.038  1.00  0.00    -0.355 N 
ATOM      4  H   UNL A   1      30.791  27.679  23.342  1.00  0.00     0.163 HD
ENDROOT
BRANCH   1   5
ATOM      5  C   UNL A   1      32.676  25.219  24.687  1.00  0.00     0.222 C 
BRANCH   5   6
ATOM      6  N   UNL A   1      31.901  24.159  25.322  1.00  0.00    -0.334 N 
ATOM      7  C   UNL A   1      32.067  22.788  25.155  1.00  0.00     0.107 A 
ATOM      8  C   UNL A   1      31.063  22.200  25.914  1.00  0.00     0.033 A 
ATOM      9  C   UNL A   1      30.298  23.211  26.540  1.00  0.00     0.020 A 
ATOM     10  C   UNL A   1      30.857  24.411  26.181  1.00  0.00     0.087 A 
BRANCH   7  11
ATOM     11  C   UNL A   1      33.156  22.197  24.380  1.00  0.00     0.270 C 
ATOM     12  O   UNL A   1      33.166  22.310  23.155  1.00  0.00    -0.267 OA
BRANCH  11  13
ATOM     13  N   UNL A   1      34.132  21.406  25.010  1.00  0.00    -0.335 N 
BRANCH  13  14
ATOM     14  C   UNL A   1      34.872  21.995  26.134  1.00  0.00     0.116 C 
ATOM     15  C   UNL A   1      35.768  23.160  25.729  1.00  0.00     0.027 C 
ENDBRANCH  13  14
BRANCH  13  16
ATOM     16  C   UNL A   1      34.377  19.981  24.752  1.00  0.00     0.148 C 
BRANCH  16  17
ATOM     17  C   UNL A   1      33.172  19.082  25.089  1.00  0.00     0.181 C 
BRANCH  17  18
ATOM     18  O   UNL A   1      33.489  17.693  25.051  1.00  0.00    -0.383 OA
ATOM     19  C   UNL A   1      34.709  17.386  24.387  1.00  0.00     0.194 C 
ENDBRANCH  17  18
ENDBRANCH  16  17
ENDBRANCH  13  16
ENDBRANCH  11  13
ENDBRANCH   7  11
ENDBRANCH   5   6
ENDBRANCH   1   5
BRANCH   3  20
ATOM     20  C   UNL A   1      31.442  27.947  25.293  1.00  0.00     0.116 C 
BRANCH  20  21
ATOM     21  C   UNL A   1      32.746  28.736  25.395  1.00  0.00     0.023 C 
BRANCH  21  22
ATOM     22  C   UNL A   1      33.271  28.923  26.823  1.00  0.00     0.023 C 
BRANCH  22  23
ATOM     23  C   UNL A   1      34.797  28.984  26.925  1.00  0.00     0.116 C 
BRANCH  23  24
ATOM     24  N   UNL A   1      35.254  30.324  27.262  1.00  0.00    -0.352 N 
ATOM     25  C   UNL A   1      36.352  30.722  27.984  1.00  0.00     0.251 C 
ATOM     26  H   UNL A   1      34.691  31.055  26.919  1.00  0.00     0.163 HD
ATOM     27  O   UNL A   1      36.359  31.836  28.495  1.00  0.00    -0.269 OA
BRANCH  25  28
ATOM     28  C   UNL A   1      37.525  29.842  28.158  1.00  0.00     0.039 A 
ATOM     29  C   UNL A   1      38.443  29.751  27.103  1.00  0.00     0.014 A 
ATOM     30  C   UNL A   1      37.673  29.039  29.294  1.00  0.00     0.014 A 
ATOM     31  C   UNL A   1      39.550  28.915  27.219  1.00  0.00     0.010 A 
ATOM     32  C   UNL A   1      38.784  28.207  29.418  1.00  0.00     0.010 A 
ATOM     33  C   UNL A   1      39.737  28.171  28.393  1.00  0.00    -0.014 A 
BRANCH  33  34
ATOM     34  C   UNL A   1      41.069  27.570  28.641  1.00  0.00     0.031 A 
ATOM     35  C   UNL A   1      41.093  26.091  28.178  1.00  0.00     0.074 A 
ATOM     36  C   UNL A   1      42.016  28.359  29.237  1.00  0.00     0.049 A 
ATOM     37  N   UNL A   1      41.816  25.096  28.585  1.00  0.00    -0.248 NA
ATOM     38  C   UNL A   1      40.118  25.640  27.140  1.00  0.00     0.031 C 
ATOM     39  C   UNL A   1      41.833  29.793  29.566  1.00  0.00     0.029 A 
ATOM     40  N   UNL A   1      43.304  28.147  29.692  1.00  0.00    -0.354 N 
ATOM     41  C   UNL A   1      41.517  23.974  27.771  1.00  0.00     0.074 A 
ATOM     42  C   UNL A   1      40.398  24.347  26.964  1.00  0.00     0.031 C 
ATOM     43  C   UNL A   1      42.905  30.284  30.226  1.00  0.00     0.029 A 
ATOM     44  C   UNL A   1      43.892  29.236  30.395  1.00  0.00     0.049 A 
ATOM     45  H   UNL A   1      43.783  27.301  29.539  1.00  0.00     0.167 HD
ATOM     46  C   UNL A   1      42.306  22.861  27.713  1.00  0.00     0.031 A 
ATOM     47  C   UNL A   1      45.058  29.273  31.114  1.00  0.00     0.031 A 
ATOM     48  C   UNL A   1      43.342  22.952  28.681  1.00  0.00     0.049 A 
ATOM     49  C   UNL A   1      45.696  27.967  30.903  1.00  0.00     0.074 A 
ATOM     50  C   UNL A   1      43.363  22.866  30.047  1.00  0.00     0.029 A 
ATOM     51  N   UNL A   1      44.507  23.531  28.246  1.00  0.00    -0.354 N 
ATOM     52  N   UNL A   1      46.277  27.589  29.807  1.00  0.00    -0.248 NA
ATOM     53  C   UNL A   1      45.593  26.958  31.964  1.00  0.00     0.031 C 
ATOM     54  C   UNL A   1      44.291  23.868  30.410  1.00  0.00     0.029 A 
ATOM     55  C   UNL A   1      44.949  24.331  29.265  1.00  0.00     0.049 A 
ATOM     56  H   UNL A   1      44.939  23.399  27.371  1.00  0.00     0.167 HD
ATOM     57  C   UNL A   1      46.242  26.222  29.923  1.00  0.00     0.074 A 
ATOM     58  C   UNL A   1      46.143  25.924  31.334  1.00  0.00     0.031 C 
ATOM     59  C   UNL A   1      45.750  25.472  28.905  1.00  0.00     0.031 A 
BRANCH  46  60
ATOM     60  C   UNL A   1      42.466  21.797  26.655  1.00  0.00    -0.014 A 
ATOM     61  C   UNL A   1      41.643  20.647  26.779  1.00  0.00     0.009 A 
ATOM     62  C   UNL A   1      43.591  21.688  25.834  1.00  0.00     0.009 A 
ATOM     63  C   UNL A   1      42.026  19.405  26.267  1.00  0.00     0.001 A 
ATOM     64  C   UNL A   1      43.950  20.449  25.276  1.00  0.00     0.001 A 
ATOM     65  C   UNL A   1      43.198  19.303  25.536  1.00  0.00     0.000 A 
ENDBRANCH  46  60
BRANCH  47  66
ATOM     66  C   UNL A   1      45.753  30.192  32.096  1.00  0.00    -0.014 A 
ATOM     67  C   UNL A   1      46.962  30.861  31.894  1.00  0.00     0.009 A 
ATOM     68  C   UNL A   1      45.119  30.460  33.344  1.00  0.00     0.009 A 
ATOM     69  C   UNL A   1      47.434  31.815  32.827  1.00  0.00     0.001 A 
ATOM     70  C   UNL A   1      45.552  31.433  34.248  1.00  0.00     0.001 A 
ATOM     71  C   UNL A   1      46.712  32.130  33.979  1.00  0.00     0.000 A 
ENDBRANCH  47  66
BRANCH  59  72
ATOM     72  C   UNL A   1      45.763  26.137  27.538  1.00  0.00    -0.014 A 
ATOM     73  C   UNL A   1      44.566  26.629  26.997  1.00  0.00     0.009 A 
ATOM     74  C   UNL A   1      46.909  26.201  26.722  1.00  0.00     0.009 A 
ATOM     75  C   UNL A   1      44.509  27.144  25.695  1.00  0.00     0.001 A 
ATOM     76  C   UNL A   1      46.857  26.716  25.416  1.00  0.00     0.001 A 
ATOM     77  C   UNL A   1      45.652  27.185  24.903  1.00  0.00     0.000 A 
ENDBRANCH  59  72
ENDBRANCH  33  34
ENDBRANCH  25  28
ENDBRANCH  23  24
ENDBRANCH  22  23
ENDBRANCH  21  22
ENDBRANCH  20  21
ENDBRANCH   3  20
TORSDOF 18
ENDMDL
