MODEL 1
REMARK VINA RESULT:     -10.7      0.000      0.000
REMARK SMILES [NH3+][C@H](C(=O)NCCCCNC(=O)c1ccc(-c2c3nc(c(-c4ccccc4)c4ccc([nH]4)c(-c4ccccc4)c4nc(c(-c5ccccc5)c5ccc2[nH]5)C=C4)C=C3)cc1)c1cccc(OCc2ccc(F)cc2)c1
REMARK SMILES IDX 6 1 5 2 3 3 4 4 2 6 1 7 61 11 62 12 75 13 63 14 65 15 64 16
REMARK SMILES IDX 66 17 67 18 68 19 69 20 74 21 70 22 73 23 71 24 72 25 7 26
REMARK SMILES IDX 8 27 9 28 10 29 11 30 12 32 13 33 14 34 60 35 15 36 59 37
REMARK SMILES IDX 16 38 17 39 18 40 53 41 19 42 58 43 52 44 54 45 20 46 57 47
REMARK SMILES IDX 51 48 50 49 21 51 43 52 28 53 42 54 29 55 32 56 41 57 55 58
REMARK SMILES IDX 30 59 31 60 40 62 56 63 33 64 22 65 23 66 27 67 24 68 26 69
REMARK SMILES IDX 25 70 44 71 45 72 49 73 46 74 48 75 47 76 34 77 35 78 39 79
REMARK SMILES IDX 36 80 38 81 37 82
REMARK H PARENT 5 5 1 8 1 9 1 10 10 31 54 50 32 61
REMARK Flexibility Score: inf
ROOT
ATOM      1  C   UNL A   1      31.554  29.650  25.033  1.00  0.00     0.116 C 
ENDROOT
BRANCH   1   2
ATOM      2  N   UNL A   1      31.015  29.453  23.701  1.00  0.00    -0.351 N 
ATOM      3  C   UNL A   1      30.216  28.454  23.225  1.00  0.00     0.283 C 
ATOM      4  O   UNL A   1      30.035  28.404  22.003  1.00  0.00    -0.268 OA
ATOM      5  H   UNL A   1      31.259  30.144  23.043  1.00  0.00     0.163 HD
BRANCH   3   6
ATOM      6  C   UNL A   1      29.471  27.493  24.196  1.00  0.00     0.302 C 
BRANCH   6   7
ATOM      7  N   UNL A   1      28.261  27.015  23.478  1.00  0.00    -0.343 N 
ATOM      8  H   UNL A   1      27.824  27.796  22.988  1.00  0.00     0.345 HD
ATOM      9  H   UNL A   1      27.601  26.623  24.149  1.00  0.00     0.345 HD
ATOM     10  H   UNL A   1      28.527  26.297  22.804  1.00  0.00     0.345 HD
ENDBRANCH   6   7
BRANCH   6  11
ATOM     11  C   UNL A   1      30.367  26.360  24.687  1.00  0.00     0.023 A 
ATOM     12  C   UNL A   1      30.051  25.589  25.816  1.00  0.00     0.011 A 
ATOM     13  C   UNL A   1      31.544  26.040  23.978  1.00  0.00     0.057 A 
ATOM     14  C   UNL A   1      30.881  24.546  26.229  1.00  0.00     0.004 A 
ATOM     15  C   UNL A   1      32.329  24.941  24.336  1.00  0.00     0.120 A 
ATOM     16  C   UNL A   1      32.014  24.224  25.489  1.00  0.00     0.046 A 
BRANCH  15  17
ATOM     17  O   UNL A   1      33.372  24.418  23.623  1.00  0.00    -0.489 OA
BRANCH  17  18
ATOM     18  C   UNL A   1      33.791  23.072  23.866  1.00  0.00     0.265 C 
BRANCH  18  19
ATOM     19  C   UNL A   1      35.126  22.886  24.580  1.00  0.00    -0.011 A 
ATOM     20  C   UNL A   1      35.690  23.990  25.249  1.00  0.00     0.010 A 
ATOM     21  C   UNL A   1      35.882  21.704  24.506  1.00  0.00     0.010 A 
ATOM     22  C   UNL A   1      36.974  23.917  25.800  1.00  0.00     0.039 A 
ATOM     23  C   UNL A   1      37.175  21.640  25.031  1.00  0.00     0.039 A 
ATOM     24  C   UNL A   1      37.712  22.749  25.668  1.00  0.00     0.123 A 
ATOM     25  F   UNL A   1      38.969  22.703  26.128  1.00  0.00    -0.207 F 
ENDBRANCH  18  19
ENDBRANCH  17  18
ENDBRANCH  15  17
ENDBRANCH   6  11
ENDBRANCH   3   6
ENDBRANCH   1   2
BRANCH   1  26
ATOM     26  C   UNL A   1      33.076  29.534  25.009  1.00  0.00     0.023 C 
BRANCH  26  27
ATOM     27  C   UNL A   1      33.612  28.340  25.786  1.00  0.00     0.023 C 
BRANCH  27  28
ATOM     28  C   UNL A   1      33.606  28.538  27.290  1.00  0.00     0.116 C 
BRANCH  28  29
ATOM     29  N   UNL A   1      33.605  29.950  27.654  1.00  0.00    -0.352 N 
ATOM     30  C   UNL A   1      34.551  30.727  28.279  1.00  0.00     0.251 C 
ATOM     31  H   UNL A   1      32.782  30.431  27.409  1.00  0.00     0.163 HD
ATOM     32  O   UNL A   1      34.231  31.843  28.683  1.00  0.00    -0.269 OA
BRANCH  30  33
ATOM     33  C   UNL A   1      35.936  30.241  28.489  1.00  0.00     0.039 A 
ATOM     34  C   UNL A   1      36.282  29.678  29.723  1.00  0.00     0.014 A 
ATOM     35  C   UNL A   1      36.912  30.370  27.504  1.00  0.00     0.014 A 
ATOM     36  C   UNL A   1      37.582  29.204  29.937  1.00  0.00     0.010 A 
ATOM     37  C   UNL A   1      38.150  29.760  27.659  1.00  0.00     0.010 A 
ATOM     38  C   UNL A   1      38.518  29.209  28.892  1.00  0.00    -0.014 A 
BRANCH  38  39
ATOM     39  C   UNL A   1      39.911  28.719  29.066  1.00  0.00     0.031 A 
ATOM     40  C   UNL A   1      40.965  29.646  29.623  1.00  0.00     0.074 A 
ATOM     41  C   UNL A   1      40.254  27.485  28.651  1.00  0.00     0.049 A 
ATOM     42  N   UNL A   1      42.255  29.460  29.742  1.00  0.00    -0.248 NA
ATOM     43  C   UNL A   1      40.514  30.978  30.060  1.00  0.00     0.031 C 
ATOM     44  C   UNL A   1      39.347  26.504  28.052  1.00  0.00     0.029 A 
ATOM     45  N   UNL A   1      41.468  26.847  28.669  1.00  0.00    -0.354 N 
ATOM     46  C   UNL A   1      42.766  30.663  30.216  1.00  0.00     0.074 A 
ATOM     47  C   UNL A   1      41.661  31.591  30.297  1.00  0.00     0.031 C 
ATOM     48  C   UNL A   1      40.027  25.373  27.803  1.00  0.00     0.029 A 
ATOM     49  C   UNL A   1      41.423  25.566  28.176  1.00  0.00     0.049 A 
ATOM     50  H   UNL A   1      42.293  27.267  29.003  1.00  0.00     0.167 HD
ATOM     51  C   UNL A   1      44.034  30.967  30.580  1.00  0.00     0.031 A 
ATOM     52  C   UNL A   1      42.400  24.649  28.040  1.00  0.00     0.031 A 
ATOM     53  C   UNL A   1      45.125  30.031  30.541  1.00  0.00     0.049 A 
ATOM     54  C   UNL A   1      43.798  24.997  28.468  1.00  0.00     0.074 A 
ATOM     55  C   UNL A   1      46.432  30.208  30.960  1.00  0.00     0.029 A 
ATOM     56  N   UNL A   1      45.029  28.734  30.058  1.00  0.00    -0.354 N 
ATOM     57  N   UNL A   1      44.254  26.118  28.973  1.00  0.00    -0.248 NA
ATOM     58  C   UNL A   1      44.812  23.945  28.320  1.00  0.00     0.031 C 
ATOM     59  C   UNL A   1      47.139  29.033  30.685  1.00  0.00     0.029 A 
ATOM     60  C   UNL A   1      46.258  28.105  30.151  1.00  0.00     0.049 A 
ATOM     61  H   UNL A   1      44.209  28.323  29.703  1.00  0.00     0.167 HD
ATOM     62  C   UNL A   1      45.600  25.896  29.235  1.00  0.00     0.074 A 
ATOM     63  C   UNL A   1      45.882  24.529  28.843  1.00  0.00     0.031 C 
ATOM     64  C   UNL A   1      46.519  26.744  29.758  1.00  0.00     0.031 A 
BRANCH  51  65
ATOM     65  C   UNL A   1      44.300  32.374  31.046  1.00  0.00    -0.014 A 
ATOM     66  C   UNL A   1      44.186  32.734  32.400  1.00  0.00     0.009 A 
ATOM     67  C   UNL A   1      44.666  33.358  30.115  1.00  0.00     0.009 A 
ATOM     68  C   UNL A   1      44.371  34.060  32.800  1.00  0.00     0.001 A 
ATOM     69  C   UNL A   1      44.888  34.676  30.525  1.00  0.00     0.001 A 
ATOM     70  C   UNL A   1      44.725  35.029  31.863  1.00  0.00     0.000 A 
ENDBRANCH  51  65
BRANCH  52  71
ATOM     71  C   UNL A   1      42.076  23.295  27.517  1.00  0.00    -0.014 A 
ATOM     72  C   UNL A   1      42.361  22.969  26.181  1.00  0.00     0.009 A 
ATOM     73  C   UNL A   1      41.501  22.320  28.346  1.00  0.00     0.009 A 
ATOM     74  C   UNL A   1      42.056  21.702  25.682  1.00  0.00     0.001 A 
ATOM     75  C   UNL A   1      41.224  21.044  27.851  1.00  0.00     0.001 A 
ATOM     76  C   UNL A   1      41.494  20.739  26.517  1.00  0.00     0.000 A 
ENDBRANCH  52  71
BRANCH  64  77
ATOM     77  C   UNL A   1      47.903  26.203  29.985  1.00  0.00    -0.014 A 
ATOM     78  C   UNL A   1      48.848  26.149  28.949  1.00  0.00     0.009 A 
ATOM     79  C   UNL A   1      48.275  25.778  31.270  1.00  0.00     0.009 A 
ATOM     80  C   UNL A   1      50.128  25.645  29.189  1.00  0.00     0.001 A 
ATOM     81  C   UNL A   1      49.564  25.305  31.514  1.00  0.00     0.001 A 
ATOM     82  C   UNL A   1      50.486  25.228  30.472  1.00  0.00     0.000 A 
ENDBRANCH  64  77
ENDBRANCH  38  39
ENDBRANCH  30  33
ENDBRANCH  28  29
ENDBRANCH  27  28
ENDBRANCH  26  27
ENDBRANCH   1  26
TORSDOF 16
ENDMDL
MODEL 2
REMARK VINA RESULT:     -10.6      2.042      2.668
REMARK SMILES [NH3+][C@H](C(=O)NCCCCNC(=O)c1ccc(-c2c3nc(c(-c4ccccc4)c4ccc([nH]4)c(-c4ccccc4)c4nc(c(-c5ccccc5)c5ccc2[nH]5)C=C4)C=C3)cc1)c1cccc(OCc2ccc(F)cc2)c1
REMARK SMILES IDX 6 1 5 2 3 3 4 4 2 6 1 7 61 11 62 12 75 13 63 14 65 15 64 16
REMARK SMILES IDX 66 17 67 18 68 19 69 20 74 21 70 22 73 23 71 24 72 25 7 26
REMARK SMILES IDX 8 27 9 28 10 29 11 30 12 32 13 33 14 34 60 35 15 36 59 37
REMARK SMILES IDX 16 38 17 39 18 40 53 41 19 42 58 43 52 44 54 45 20 46 57 47
REMARK SMILES IDX 51 48 50 49 21 51 43 52 28 53 42 54 29 55 32 56 41 57 55 58
REMARK SMILES IDX 30 59 31 60 40 62 56 63 33 64 22 65 23 66 27 67 24 68 26 69
REMARK SMILES IDX 25 70 44 71 45 72 49 73 46 74 48 75 47 76 34 77 35 78 39 79
REMARK SMILES IDX 36 80 38 81 37 82
REMARK H PARENT 5 5 1 8 1 9 1 10 10 31 54 50 32 61
REMARK Flexibility Score: inf
ROOT
ATOM      1  C   UNL A   1      31.962  28.592  23.597  1.00  0.00     0.116 C 
ENDROOT
BRANCH   1   2
ATOM      2  N   UNL A   1      32.628  27.947  22.482  1.00  0.00    -0.351 N 
ATOM      3  C   UNL A   1      32.977  26.638  22.318  1.00  0.00     0.283 C 
ATOM      4  O   UNL A   1      33.704  26.359  21.357  1.00  0.00    -0.268 OA
ATOM      5  H   UNL A   1      32.862  28.540  21.732  1.00  0.00     0.163 HD
BRANCH   3   6
ATOM      6  C   UNL A   1      32.385  25.529  23.235  1.00  0.00     0.302 C 
BRANCH   6   7
ATOM      7  N   UNL A   1      31.451  24.734  22.396  1.00  0.00    -0.343 N 
ATOM      8  H   UNL A   1      31.331  23.807  22.805  1.00  0.00     0.345 HD
ATOM      9  H   UNL A   1      31.834  24.644  21.455  1.00  0.00     0.345 HD
ATOM     10  H   UNL A   1      30.549  25.206  22.352  1.00  0.00     0.345 HD
ENDBRANCH   6   7
BRANCH   6  11
ATOM     11  C   UNL A   1      33.472  24.684  23.893  1.00  0.00     0.023 A 
ATOM     12  C   UNL A   1      34.413  25.229  24.781  1.00  0.00     0.011 A 
ATOM     13  C   UNL A   1      33.531  23.297  23.638  1.00  0.00     0.057 A 
ATOM     14  C   UNL A   1      35.383  24.425  25.382  1.00  0.00     0.004 A 
ATOM     15  C   UNL A   1      34.443  22.476  24.307  1.00  0.00     0.120 A 
ATOM     16  C   UNL A   1      35.394  23.054  25.145  1.00  0.00     0.046 A 
BRANCH  15  17
ATOM     17  O   UNL A   1      34.471  21.109  24.292  1.00  0.00    -0.489 OA
BRANCH  17  18
ATOM     18  C   UNL A   1      33.455  20.373  24.977  1.00  0.00     0.265 C 
BRANCH  18  19
ATOM     19  C   UNL A   1      33.560  18.852  24.935  1.00  0.00    -0.011 A 
ATOM     20  C   UNL A   1      32.494  18.090  25.453  1.00  0.00     0.010 A 
ATOM     21  C   UNL A   1      34.715  18.169  24.518  1.00  0.00     0.010 A 
ATOM     22  C   UNL A   1      32.594  16.700  25.569  1.00  0.00     0.039 A 
ATOM     23  C   UNL A   1      34.827  16.784  24.660  1.00  0.00     0.039 A 
ATOM     24  C   UNL A   1      33.768  16.062  25.190  1.00  0.00     0.123 A 
ATOM     25  F   UNL A   1      33.894  14.742  25.372  1.00  0.00    -0.207 F 
ENDBRANCH  18  19
ENDBRANCH  17  18
ENDBRANCH  15  17
ENDBRANCH   6  11
ENDBRANCH   3   6
ENDBRANCH   1   2
BRANCH   1  26
ATOM     26  C   UNL A   1      32.965  28.900  24.705  1.00  0.00     0.023 C 
BRANCH  26  27
ATOM     27  C   UNL A   1      32.627  28.245  26.038  1.00  0.00     0.023 C 
BRANCH  27  28
ATOM     28  C   UNL A   1      33.646  28.519  27.128  1.00  0.00     0.116 C 
BRANCH  28  29
ATOM     29  N   UNL A   1      33.626  29.913  27.555  1.00  0.00    -0.352 N 
ATOM     30  C   UNL A   1      34.551  30.667  28.238  1.00  0.00     0.251 C 
ATOM     31  H   UNL A   1      32.806  30.400  27.312  1.00  0.00     0.163 HD
ATOM     32  O   UNL A   1      34.213  31.761  28.684  1.00  0.00    -0.269 OA
BRANCH  30  33
ATOM     33  C   UNL A   1      35.933  30.180  28.460  1.00  0.00     0.039 A 
ATOM     34  C   UNL A   1      36.273  29.630  29.702  1.00  0.00     0.014 A 
ATOM     35  C   UNL A   1      36.915  30.295  27.478  1.00  0.00     0.014 A 
ATOM     36  C   UNL A   1      37.570  29.155  29.927  1.00  0.00     0.010 A 
ATOM     37  C   UNL A   1      38.150  29.684  27.646  1.00  0.00     0.010 A 
ATOM     38  C   UNL A   1      38.511  29.146  28.887  1.00  0.00    -0.014 A 
BRANCH  38  39
ATOM     39  C   UNL A   1      39.902  28.655  29.073  1.00  0.00     0.031 A 
ATOM     40  C   UNL A   1      40.950  29.578  29.648  1.00  0.00     0.074 A 
ATOM     41  C   UNL A   1      40.250  27.423  28.654  1.00  0.00     0.049 A 
ATOM     42  N   UNL A   1      42.239  29.391  29.779  1.00  0.00    -0.248 NA
ATOM     43  C   UNL A   1      40.494  30.908  30.087  1.00  0.00     0.031 C 
ATOM     44  C   UNL A   1      39.349  26.446  28.039  1.00  0.00     0.029 A 
ATOM     45  N   UNL A   1      41.463  26.785  28.681  1.00  0.00    -0.354 N 
ATOM     46  C   UNL A   1      42.745  30.591  30.266  1.00  0.00     0.074 A 
ATOM     47  C   UNL A   1      41.639  31.518  30.341  1.00  0.00     0.031 C 
ATOM     48  C   UNL A   1      40.031  25.316  27.790  1.00  0.00     0.029 A 
ATOM     49  C   UNL A   1      41.424  25.507  28.179  1.00  0.00     0.049 A 
ATOM     50  H   UNL A   1      42.285  27.203  29.026  1.00  0.00     0.167 HD
ATOM     51  C   UNL A   1      44.009  30.892  30.646  1.00  0.00     0.031 A 
ATOM     52  C   UNL A   1      42.402  24.591  28.048  1.00  0.00     0.031 A 
ATOM     53  C   UNL A   1      45.100  29.956  30.612  1.00  0.00     0.049 A 
ATOM     54  C   UNL A   1      43.795  24.936  28.494  1.00  0.00     0.074 A 
ATOM     55  C   UNL A   1      46.402  30.131  31.047  1.00  0.00     0.029 A 
ATOM     56  N   UNL A   1      45.009  28.663  30.121  1.00  0.00    -0.354 N 
ATOM     57  N   UNL A   1      44.245  26.053  29.011  1.00  0.00    -0.248 NA
ATOM     58  C   UNL A   1      44.811  23.885  28.350  1.00  0.00     0.031 C 
ATOM     59  C   UNL A   1      47.112  28.957  30.772  1.00  0.00     0.029 A 
ATOM     60  C   UNL A   1      46.237  28.033  30.223  1.00  0.00     0.049 A 
ATOM     61  H   UNL A   1      44.193  28.254  29.754  1.00  0.00     0.167 HD
ATOM     62  C   UNL A   1      45.589  25.830  29.286  1.00  0.00     0.074 A 
ATOM     63  C   UNL A   1      45.874  24.465  28.888  1.00  0.00     0.031 C 
ATOM     64  C   UNL A   1      46.502  26.674  29.825  1.00  0.00     0.031 A 
BRANCH  51  65
ATOM     65  C   UNL A   1      44.270  32.297  31.124  1.00  0.00    -0.014 A 
ATOM     66  C   UNL A   1      44.059  32.669  32.462  1.00  0.00     0.009 A 
ATOM     67  C   UNL A   1      44.729  33.266  30.219  1.00  0.00     0.009 A 
ATOM     68  C   UNL A   1      44.243  33.993  32.869  1.00  0.00     0.001 A 
ATOM     69  C   UNL A   1      44.949  34.581  30.637  1.00  0.00     0.001 A 
ATOM     70  C   UNL A   1      44.690  34.947  31.956  1.00  0.00     0.000 A 
ENDBRANCH  51  65
BRANCH  52  71
ATOM     71  C   UNL A   1      42.084  23.241  27.513  1.00  0.00    -0.014 A 
ATOM     72  C   UNL A   1      41.519  22.266  28.350  1.00  0.00     0.009 A 
ATOM     73  C   UNL A   1      42.324  22.923  26.167  1.00  0.00     0.009 A 
ATOM     74  C   UNL A   1      41.222  20.994  27.856  1.00  0.00     0.001 A 
ATOM     75  C   UNL A   1      41.999  21.659  25.669  1.00  0.00     0.001 A 
ATOM     76  C   UNL A   1      41.455  20.694  26.516  1.00  0.00     0.000 A 
ENDBRANCH  52  71
BRANCH  64  77
ATOM     77  C   UNL A   1      47.883  26.132  30.063  1.00  0.00    -0.014 A 
ATOM     78  C   UNL A   1      48.796  25.960  29.010  1.00  0.00     0.009 A 
ATOM     79  C   UNL A   1      48.287  25.826  31.372  1.00  0.00     0.009 A 
ATOM     80  C   UNL A   1      50.074  25.457  29.262  1.00  0.00     0.001 A 
ATOM     81  C   UNL A   1      49.575  25.354  31.624  1.00  0.00     0.001 A 
ATOM     82  C   UNL A   1      50.464  25.160  30.568  1.00  0.00     0.000 A 
ENDBRANCH  64  77
ENDBRANCH  38  39
ENDBRANCH  30  33
ENDBRANCH  28  29
ENDBRANCH  27  28
ENDBRANCH  26  27
ENDBRANCH   1  26
TORSDOF 16
ENDMDL
MODEL 3
REMARK VINA RESULT:     -10.3      4.579      8.093
REMARK SMILES [NH3+][C@H](C(=O)NCCCCNC(=O)c1ccc(-c2c3nc(c(-c4ccccc4)c4ccc([nH]4)c(-c4ccccc4)c4nc(c(-c5ccccc5)c5ccc2[nH]5)C=C4)C=C3)cc1)c1cccc(OCc2ccc(F)cc2)c1
REMARK SMILES IDX 6 1 5 2 3 3 4 4 2 6 1 7 61 11 62 12 75 13 63 14 65 15 64 16
REMARK SMILES IDX 66 17 67 18 68 19 69 20 74 21 70 22 73 23 71 24 72 25 7 26
REMARK SMILES IDX 8 27 9 28 10 29 11 30 12 32 13 33 14 34 60 35 15 36 59 37
REMARK SMILES IDX 16 38 17 39 18 40 53 41 19 42 58 43 52 44 54 45 20 46 57 47
REMARK SMILES IDX 51 48 50 49 21 51 43 52 28 53 42 54 29 55 32 56 41 57 55 58
REMARK SMILES IDX 30 59 31 60 40 62 56 63 33 64 22 65 23 66 27 67 24 68 26 69
REMARK SMILES IDX 25 70 44 71 45 72 49 73 46 74 48 75 47 76 34 77 35 78 39 79
REMARK SMILES IDX 36 80 38 81 37 82
REMARK H PARENT 5 5 1 8 1 9 1 10 10 31 54 50 32 61
REMARK Flexibility Score: inf
ROOT
ATOM      1  C   UNL A   1      33.441  36.450  29.572  1.00  0.00     0.116 C 
ENDROOT
BRANCH   1   2
ATOM      2  N   UNL A   1      32.429  36.466  30.611  1.00  0.00    -0.351 N 
ATOM      3  C   UNL A   1      32.558  36.257  31.954  1.00  0.00     0.283 C 
ATOM      4  O   UNL A   1      31.519  36.140  32.614  1.00  0.00    -0.268 OA
ATOM      5  H   UNL A   1      31.514  36.656  30.303  1.00  0.00     0.163 HD
BRANCH   3   6
ATOM      6  C   UNL A   1      33.956  36.286  32.638  1.00  0.00     0.302 C 
BRANCH   6   7
ATOM      7  N   UNL A   1      33.761  36.894  33.980  1.00  0.00    -0.343 N 
ATOM      8  H   UNL A   1      33.461  36.174  34.639  1.00  0.00     0.345 HD
ATOM      9  H   UNL A   1      33.048  37.621  33.924  1.00  0.00     0.345 HD
ATOM     10  H   UNL A   1      34.639  37.302  34.299  1.00  0.00     0.345 HD
ENDBRANCH   6   7
BRANCH   6  11
ATOM     11  C   UNL A   1      34.601  34.905  32.691  1.00  0.00     0.023 A 
ATOM     12  C   UNL A   1      34.129  33.826  31.926  1.00  0.00     0.011 A 
ATOM     13  C   UNL A   1      35.733  34.690  33.506  1.00  0.00     0.057 A 
ATOM     14  C   UNL A   1      34.754  32.579  31.981  1.00  0.00     0.004 A 
ATOM     15  C   UNL A   1      36.413  33.470  33.494  1.00  0.00     0.120 A 
ATOM     16  C   UNL A   1      35.892  32.405  32.761  1.00  0.00     0.046 A 
BRANCH  15  17
ATOM     17  O   UNL A   1      37.618  33.203  34.083  1.00  0.00    -0.489 OA
BRANCH  17  18
ATOM     18  C   UNL A   1      38.595  34.240  34.196  1.00  0.00     0.265 C 
BRANCH  18  19
ATOM     19  C   UNL A   1      38.993  34.660  35.607  1.00  0.00    -0.011 A 
ATOM     20  C   UNL A   1      38.458  33.945  36.697  1.00  0.00     0.010 A 
ATOM     21  C   UNL A   1      39.771  35.797  35.884  1.00  0.00     0.010 A 
ATOM     22  C   UNL A   1      38.675  34.370  38.012  1.00  0.00     0.039 A 
ATOM     23  C   UNL A   1      39.964  36.239  37.195  1.00  0.00     0.039 A 
ATOM     24  C   UNL A   1      39.410  35.525  38.247  1.00  0.00     0.123 A 
ATOM     25  F   UNL A   1      39.553  35.975  39.500  1.00  0.00    -0.207 F 
ENDBRANCH  18  19
ENDBRANCH  17  18
ENDBRANCH  15  17
ENDBRANCH   6  11
ENDBRANCH   3   6
ENDBRANCH   1   2
BRANCH   1  26
ATOM     26  C   UNL A   1      33.270  35.219  28.687  1.00  0.00     0.023 C 
BRANCH  26  27
ATOM     27  C   UNL A   1      34.527  34.839  27.916  1.00  0.00     0.023 C 
BRANCH  27  28
ATOM     28  C   UNL A   1      35.126  33.511  28.342  1.00  0.00     0.116 C 
BRANCH  28  29
ATOM     29  N   UNL A   1      34.286  32.385  27.953  1.00  0.00    -0.352 N 
ATOM     30  C   UNL A   1      34.561  31.042  27.842  1.00  0.00     0.251 C 
ATOM     31  H   UNL A   1      33.358  32.628  27.730  1.00  0.00     0.163 HD
ATOM     32  O   UNL A   1      33.750  30.314  27.275  1.00  0.00    -0.269 OA
BRANCH  30  33
ATOM     33  C   UNL A   1      35.818  30.464  28.375  1.00  0.00     0.039 A 
ATOM     34  C   UNL A   1      35.825  29.912  29.662  1.00  0.00     0.014 A 
ATOM     35  C   UNL A   1      37.004  30.495  27.644  1.00  0.00     0.014 A 
ATOM     36  C   UNL A   1      36.999  29.352  30.178  1.00  0.00     0.010 A 
ATOM     37  C   UNL A   1      38.121  29.803  28.090  1.00  0.00     0.010 A 
ATOM     38  C   UNL A   1      38.150  29.261  29.381  1.00  0.00    -0.014 A 
BRANCH  38  39
ATOM     39  C   UNL A   1      39.423  28.678  29.880  1.00  0.00     0.031 A 
ATOM     40  C   UNL A   1      40.080  29.260  31.110  1.00  0.00     0.074 A 
ATOM     41  C   UNL A   1      40.034  27.693  29.196  1.00  0.00     0.049 A 
ATOM     42  N   UNL A   1      41.244  28.982  31.639  1.00  0.00    -0.248 NA
ATOM     43  C   UNL A   1      39.350  30.332  31.808  1.00  0.00     0.031 C 
ATOM     44  C   UNL A   1      39.534  27.071  27.968  1.00  0.00     0.029 A 
ATOM     45  N   UNL A   1      41.218  27.043  29.439  1.00  0.00    -0.354 N 
ATOM     46  C   UNL A   1      41.401  29.876  32.692  1.00  0.00     0.074 A 
ATOM     47  C   UNL A   1      40.248  30.747  32.685  1.00  0.00     0.031 C 
ATOM     48  C   UNL A   1      40.382  26.099  27.592  1.00  0.00     0.029 A 
ATOM     49  C   UNL A   1      41.506  26.064  28.520  1.00  0.00     0.049 A 
ATOM     50  H   UNL A   1      41.805  27.260  30.199  1.00  0.00     0.167 HD
ATOM     51  C   UNL A   1      42.398  29.952  33.606  1.00  0.00     0.031 A 
ATOM     52  C   UNL A   1      42.561  25.231  28.436  1.00  0.00     0.031 A 
ATOM     53  C   UNL A   1      43.523  29.058  33.639  1.00  0.00     0.049 A 
ATOM     54  C   UNL A   1      43.648  25.316  29.470  1.00  0.00     0.074 A 
ATOM     55  C   UNL A   1      44.549  28.994  34.565  1.00  0.00     0.029 A 
ATOM     56  N   UNL A   1      43.763  28.062  32.704  1.00  0.00    -0.354 N 
ATOM     57  N   UNL A   1      43.752  26.125  30.496  1.00  0.00    -0.248 NA
ATOM     58  C   UNL A   1      44.757  24.362  29.338  1.00  0.00     0.031 C 
ATOM     59  C   UNL A   1      45.437  27.991  34.161  1.00  0.00     0.029 A 
ATOM     60  C   UNL A   1      44.931  27.391  33.019  1.00  0.00     0.049 A 
ATOM     61  H   UNL A   1      43.187  27.863  31.931  1.00  0.00     0.167 HD
ATOM     62  C   UNL A   1      44.918  25.755  31.154  1.00  0.00     0.074 A 
ATOM     63  C   UNL A   1      45.480  24.642  30.414  1.00  0.00     0.031 C 
ATOM     64  C   UNL A   1      45.472  26.284  32.273  1.00  0.00     0.031 A 
BRANCH  51  65
ATOM     65  C   UNL A   1      42.309  31.048  34.635  1.00  0.00    -0.014 A 
ATOM     66  C   UNL A   1      41.686  30.840  35.877  1.00  0.00     0.009 A 
ATOM     67  C   UNL A   1      42.852  32.311  34.356  1.00  0.00     0.009 A 
ATOM     68  C   UNL A   1      41.555  31.889  36.791  1.00  0.00     0.001 A 
ATOM     69  C   UNL A   1      42.753  33.348  35.287  1.00  0.00     0.001 A 
ATOM     70  C   UNL A   1      42.091  33.141  36.496  1.00  0.00     0.000 A 
ENDBRANCH  51  65
BRANCH  52  71
ATOM     71  C   UNL A   1      42.612  24.210  27.356  1.00  0.00    -0.014 A 
ATOM     72  C   UNL A   1      43.256  24.498  26.143  1.00  0.00     0.009 A 
ATOM     73  C   UNL A   1      42.037  22.942  27.535  1.00  0.00     0.009 A 
ATOM     74  C   UNL A   1      43.304  23.547  25.123  1.00  0.00     0.001 A 
ATOM     75  C   UNL A   1      42.113  21.982  26.523  1.00  0.00     0.001 A 
ATOM     76  C   UNL A   1      42.739  22.288  25.315  1.00  0.00     0.000 A 
ENDBRANCH  52  71
BRANCH  64  77
ATOM     77  C   UNL A   1      46.723  25.634  32.793  1.00  0.00    -0.014 A 
ATOM     78  C   UNL A   1      47.994  26.015  32.335  1.00  0.00     0.009 A 
ATOM     79  C   UNL A   1      46.625  24.650  33.790  1.00  0.00     0.009 A 
ATOM     80  C   UNL A   1      49.140  25.396  32.840  1.00  0.00     0.001 A 
ATOM     81  C   UNL A   1      47.773  24.057  34.315  1.00  0.00     0.001 A 
ATOM     82  C   UNL A   1      49.028  24.422  33.832  1.00  0.00     0.000 A 
ENDBRANCH  64  77
ENDBRANCH  38  39
ENDBRANCH  30  33
ENDBRANCH  28  29
ENDBRANCH  27  28
ENDBRANCH  26  27
ENDBRANCH   1  26
TORSDOF 16
ENDMDL
