MODEL 1
REMARK VINA RESULT:     -11.6      0.000      0.000
REMARK SMILES CC1=C[C@@H]([C@@H]2N=N[C@H](S)N2/N=C/c2ccc(C(=O)NCCCCNC(=O)c3ccc(-c4c5nc(c(-c6ccccc6)c6ccc([nH]6)c(-c6ccccc6)c6nc(c(-c7ccccc7)c7ccc4[nH]7)C=C6)C=C5)cc3)cc2)N=N1
REMARK SMILES IDX 21 1 20 2 19 3 17 4 18 5 16 7 13 8 14 9 76 10 15 11 75 12
REMARK SMILES IDX 12 13 11 14 10 15 5 16 6 17 7 18 8 19 4 20 1 21 2 22 3 23
REMARK SMILES IDX 78 24 77 25 9 26 22 28 23 29 24 30 25 31 26 33 27 34 28 35
REMARK SMILES IDX 74 36 29 37 73 38 30 39 31 40 32 41 67 42 33 43 72 44 66 45
REMARK SMILES IDX 68 46 34 47 71 48 65 49 64 50 35 52 57 53 42 54 56 55 43 56
REMARK SMILES IDX 46 57 55 58 69 59 44 60 45 61 54 63 70 64 47 65 36 66 37 67
REMARK SMILES IDX 41 68 38 69 40 70 39 71 58 72 59 73 63 74 60 75 62 76 61 77
REMARK SMILES IDX 48 78 49 79 53 80 50 81 52 82 51 83
REMARK H PARENT 19 6 9 27 24 32 68 51 46 62
REMARK Flexibility Score: inf
ROOT
ATOM      1  C   UNL A   1      35.885  31.463  31.598  1.00  0.00     0.023 C 
ENDROOT
BRANCH   1   2
ATOM      2  C   UNL A   1      34.852  32.377  30.930  1.00  0.00     0.116 C 
BRANCH   2   3
ATOM      3  N   UNL A   1      35.366  32.957  29.705  1.00  0.00    -0.352 N 
ATOM      4  C   UNL A   1      35.315  32.571  28.390  1.00  0.00     0.251 C 
ATOM      5  O   UNL A   1      35.824  33.333  27.564  1.00  0.00    -0.269 OA
ATOM      6  H   UNL A   1      35.853  33.802  29.845  1.00  0.00     0.163 HD
BRANCH   4   7
ATOM      7  C   UNL A   1      34.647  31.329  27.904  1.00  0.00     0.039 A 
ATOM      8  C   UNL A   1      33.585  28.927  26.908  1.00  0.00    -0.005 A 
ATOM      9  C   UNL A   1      34.912  28.966  27.331  1.00  0.00     0.010 A 
ATOM     10  C   UNL A   1      32.774  30.052  27.027  1.00  0.00     0.010 A 
ATOM     11  C   UNL A   1      35.441  30.168  27.811  1.00  0.00     0.014 A 
ATOM     12  C   UNL A   1      33.296  31.232  27.561  1.00  0.00     0.014 A 
BRANCH   8  13
ATOM     13  C   UNL A   1      33.034  27.684  26.346  1.00  0.00     0.141 C 
ATOM     14  N   UNL A   1      33.817  26.779  25.850  1.00  0.00    -0.180 NA
BRANCH  14  15
ATOM     15  N   UNL A   1      33.259  25.667  25.330  1.00  0.00    -0.233 NA
ATOM     16  C   UNL A   1      33.095  24.438  26.107  1.00  0.00     0.274 C 
ATOM     17  N   UNL A   1      32.013  23.650  25.454  1.00  0.00    -0.161 NA
ATOM     18  N   UNL A   1      31.631  24.213  24.399  1.00  0.00    -0.153 NA
ATOM     19  C   UNL A   1      32.332  25.500  24.219  1.00  0.00     0.298 C 
BRANCH  16  20
ATOM     20  C   UNL A   1      34.399  23.592  26.198  1.00  0.00     0.201 C 
ATOM     21  C   UNL A   1      34.037  20.110  25.039  1.00  0.00     0.068 C 
ATOM     22  C   UNL A   1      34.311  21.402  25.717  1.00  0.00     0.058 C 
ATOM     23  C   UNL A   1      34.518  22.572  25.118  1.00  0.00     0.031 C 
ATOM     24  N   UNL A   1      34.253  21.515  27.082  1.00  0.00    -0.160 NA
ATOM     25  N   UNL A   1      34.362  22.731  27.422  1.00  0.00    -0.177 NA
ENDBRANCH  16  20
BRANCH  19  26
ATOM     26  S   UNL A   1      33.224  25.685  22.635  1.00  0.00    -0.128 SA
ATOM     27  H   UNL A   1      32.941  24.627  21.829  1.00  0.00     0.106 HD
ENDBRANCH  19  26
ENDBRANCH  14  15
ENDBRANCH   8  13
ENDBRANCH   4   7
ENDBRANCH   2   3
ENDBRANCH   1   2
BRANCH   1  28
ATOM     28  C   UNL A   1      36.527  32.028  32.875  1.00  0.00     0.023 C 
BRANCH  28  29
ATOM     29  C   UNL A   1      37.959  32.524  32.712  1.00  0.00     0.116 C 
BRANCH  29  30
ATOM     30  N   UNL A   1      38.107  33.521  31.652  1.00  0.00    -0.352 N 
ATOM     31  C   UNL A   1      39.094  33.597  30.684  1.00  0.00     0.251 C 
ATOM     32  H   UNL A   1      37.418  34.225  31.623  1.00  0.00     0.163 HD
ATOM     33  O   UNL A   1      39.363  34.652  30.134  1.00  0.00    -0.269 OA
BRANCH  31  34
ATOM     34  C   UNL A   1      39.805  32.360  30.313  1.00  0.00     0.039 A 
ATOM     35  C   UNL A   1      41.184  32.227  30.470  1.00  0.00     0.014 A 
ATOM     36  C   UNL A   1      39.037  31.304  29.831  1.00  0.00     0.014 A 
ATOM     37  C   UNL A   1      41.767  30.985  30.221  1.00  0.00     0.010 A 
ATOM     38  C   UNL A   1      39.581  30.048  29.743  1.00  0.00     0.010 A 
ATOM     39  C   UNL A   1      40.952  29.889  29.885  1.00  0.00    -0.014 A 
BRANCH  39  40
ATOM     40  C   UNL A   1      41.502  28.538  29.817  1.00  0.00     0.031 A 
ATOM     41  C   UNL A   1      42.205  28.109  31.054  1.00  0.00     0.074 A 
ATOM     42  C   UNL A   1      41.242  27.663  28.820  1.00  0.00     0.049 A 
ATOM     43  N   UNL A   1      43.477  27.952  31.205  1.00  0.00    -0.248 NA
ATOM     44  C   UNL A   1      41.435  27.983  32.302  1.00  0.00     0.031 C 
ATOM     45  C   UNL A   1      40.332  27.817  27.679  1.00  0.00     0.029 A 
ATOM     46  N   UNL A   1      41.673  26.379  28.677  1.00  0.00    -0.354 N 
ATOM     47  C   UNL A   1      43.654  27.489  32.504  1.00  0.00     0.074 A 
ATOM     48  C   UNL A   1      42.401  27.708  33.182  1.00  0.00     0.031 C 
ATOM     49  C   UNL A   1      40.098  26.610  27.114  1.00  0.00     0.029 A 
ATOM     50  C   UNL A   1      40.975  25.633  27.731  1.00  0.00     0.049 A 
ATOM     51  H   UNL A   1      42.419  26.006  29.200  1.00  0.00     0.167 HD
ATOM     52  C   UNL A   1      44.725  26.710  32.823  1.00  0.00     0.031 A 
ATOM     53  C   UNL A   1      41.105  24.306  27.481  1.00  0.00     0.031 A 
ATOM     54  C   UNL A   1      45.739  26.759  31.797  1.00  0.00     0.049 A 
ATOM     55  C   UNL A   1      42.424  23.890  28.002  1.00  0.00     0.074 A 
ATOM     56  C   UNL A   1      46.485  27.757  31.203  1.00  0.00     0.029 A 
ATOM     57  N   UNL A   1      45.802  25.687  30.938  1.00  0.00    -0.354 N 
ATOM     58  N   UNL A   1      43.549  24.279  27.481  1.00  0.00    -0.248 NA
ATOM     59  C   UNL A   1      42.499  23.408  29.370  1.00  0.00     0.031 C 
ATOM     60  C   UNL A   1      46.533  27.407  29.820  1.00  0.00     0.029 A 
ATOM     61  C   UNL A   1      45.893  26.177  29.661  1.00  0.00     0.049 A 
ATOM     62  H   UNL A   1      45.785  24.736  31.194  1.00  0.00     0.167 HD
ATOM     63  C   UNL A   1      44.359  24.549  28.573  1.00  0.00     0.074 A 
ATOM     64  C   UNL A   1      43.701  23.888  29.701  1.00  0.00     0.031 C 
ATOM     65  C   UNL A   1      45.320  25.518  28.509  1.00  0.00     0.031 A 
BRANCH  52  66
ATOM     66  C   UNL A   1      44.647  25.559  33.801  1.00  0.00    -0.014 A 
ATOM     67  C   UNL A   1      44.164  24.321  33.341  1.00  0.00     0.009 A 
ATOM     68  C   UNL A   1      44.732  25.723  35.197  1.00  0.00     0.009 A 
ATOM     69  C   UNL A   1      43.698  23.345  34.228  1.00  0.00     0.001 A 
ATOM     70  C   UNL A   1      44.308  24.733  36.088  1.00  0.00     0.001 A 
ATOM     71  C   UNL A   1      43.760  23.557  35.602  1.00  0.00     0.000 A 
ENDBRANCH  52  66
BRANCH  53  72
ATOM     72  C   UNL A   1      40.099  23.307  27.059  1.00  0.00    -0.014 A 
ATOM     73  C   UNL A   1      38.830  23.721  26.613  1.00  0.00     0.009 A 
ATOM     74  C   UNL A   1      40.488  21.984  26.787  1.00  0.00     0.009 A 
ATOM     75  C   UNL A   1      38.011  22.863  25.868  1.00  0.00     0.001 A 
ATOM     76  C   UNL A   1      39.668  21.127  26.045  1.00  0.00     0.001 A 
ATOM     77  C   UNL A   1      38.439  21.572  25.567  1.00  0.00     0.000 A 
ENDBRANCH  53  72
BRANCH  65  78
ATOM     78  C   UNL A   1      45.643  26.099  27.151  1.00  0.00    -0.014 A 
ATOM     79  C   UNL A   1      44.910  27.140  26.550  1.00  0.00     0.009 A 
ATOM     80  C   UNL A   1      46.795  25.640  26.496  1.00  0.00     0.009 A 
ATOM     81  C   UNL A   1      45.291  27.664  25.309  1.00  0.00     0.001 A 
ATOM     82  C   UNL A   1      47.188  26.179  25.269  1.00  0.00     0.001 A 
ATOM     83  C   UNL A   1      46.430  27.181  24.669  1.00  0.00     0.000 A 
ENDBRANCH  65  78
ENDBRANCH  39  40
ENDBRANCH  31  34
ENDBRANCH  29  30
ENDBRANCH  28  29
ENDBRANCH   1  28
TORSDOF 15
ENDMDL
MODEL 2
REMARK VINA RESULT:     -11.4      3.528      8.522
REMARK SMILES CC1=C[C@@H]([C@@H]2N=N[C@H](S)N2/N=C/c2ccc(C(=O)NCCCCNC(=O)c3ccc(-c4c5nc(c(-c6ccccc6)c6ccc([nH]6)c(-c6ccccc6)c6nc(c(-c7ccccc7)c7ccc4[nH]7)C=C6)C=C5)cc3)cc2)N=N1
REMARK SMILES IDX 21 1 20 2 19 3 17 4 18 5 16 7 13 8 14 9 76 10 15 11 75 12
REMARK SMILES IDX 12 13 11 14 10 15 5 16 6 17 7 18 8 19 4 20 1 21 2 22 3 23
REMARK SMILES IDX 78 24 77 25 9 26 22 28 23 29 24 30 25 31 26 33 27 34 28 35
REMARK SMILES IDX 74 36 29 37 73 38 30 39 31 40 32 41 67 42 33 43 72 44 66 45
REMARK SMILES IDX 68 46 34 47 71 48 65 49 64 50 35 52 57 53 42 54 56 55 43 56
REMARK SMILES IDX 46 57 55 58 69 59 44 60 45 61 54 63 70 64 47 65 36 66 37 67
REMARK SMILES IDX 41 68 38 69 40 70 39 71 58 72 59 73 63 74 60 75 62 76 61 77
REMARK SMILES IDX 48 78 49 79 53 80 50 81 52 82 51 83
REMARK H PARENT 19 6 9 27 24 32 68 51 46 62
REMARK Flexibility Score: inf
ROOT
ATOM      1  C   UNL A   1      40.809  21.468  27.467  1.00  0.00     0.023 C 
ENDROOT
BRANCH   1   2
ATOM      2  C   UNL A   1      39.941  21.846  26.261  1.00  0.00     0.116 C 
BRANCH   2   3
ATOM      3  N   UNL A   1      39.163  20.718  25.789  1.00  0.00    -0.352 N 
ATOM      4  C   UNL A   1      37.901  20.600  25.266  1.00  0.00     0.251 C 
ATOM      5  O   UNL A   1      37.547  19.475  24.909  1.00  0.00    -0.269 OA
ATOM      6  H   UNL A   1      39.639  19.858  25.858  1.00  0.00     0.163 HD
BRANCH   4   7
ATOM      7  C   UNL A   1      36.966  21.745  25.062  1.00  0.00     0.039 A 
ATOM      8  C   UNL A   1      35.334  23.963  24.511  1.00  0.00    -0.005 A 
ATOM      9  C   UNL A   1      36.013  23.335  23.468  1.00  0.00     0.010 A 
ATOM     10  C   UNL A   1      35.418  23.465  25.808  1.00  0.00     0.010 A 
ATOM     11  C   UNL A   1      36.836  22.241  23.750  1.00  0.00     0.014 A 
ATOM     12  C   UNL A   1      36.199  22.337  26.070  1.00  0.00     0.014 A 
BRANCH   8  13
ATOM     13  C   UNL A   1      34.511  25.151  24.235  1.00  0.00     0.141 C 
ATOM     14  N   UNL A   1      33.285  25.217  24.649  1.00  0.00    -0.180 NA
BRANCH  14  15
ATOM     15  N   UNL A   1      32.570  26.320  24.353  1.00  0.00    -0.233 NA
ATOM     16  C   UNL A   1      33.060  27.670  24.634  1.00  0.00     0.274 C 
ATOM     17  N   UNL A   1      32.324  28.599  23.732  1.00  0.00    -0.161 NA
ATOM     18  N   UNL A   1      31.452  27.980  23.076  1.00  0.00    -0.153 NA
ATOM     19  C   UNL A   1      31.516  26.534  23.368  1.00  0.00     0.298 C 
BRANCH  16  20
ATOM     20  C   UNL A   1      32.868  28.094  26.120  1.00  0.00     0.201 C 
ATOM     21  C   UNL A   1      31.568  31.516  26.568  1.00  0.00     0.068 C 
ATOM     22  C   UNL A   1      32.269  30.207  26.579  1.00  0.00     0.058 C 
ATOM     23  C   UNL A   1      31.720  29.022  26.325  1.00  0.00     0.031 C 
ATOM     24  N   UNL A   1      33.629  30.131  26.745  1.00  0.00    -0.160 NA
ATOM     25  N   UNL A   1      34.021  28.940  26.560  1.00  0.00    -0.177 NA
ENDBRANCH  16  20
BRANCH  19  26
ATOM     26  S   UNL A   1      29.956  25.789  23.960  1.00  0.00    -0.128 SA
ATOM     27  H   UNL A   1      29.179  26.752  24.524  1.00  0.00     0.106 HD
ENDBRANCH  19  26
ENDBRANCH  14  15
ENDBRANCH   8  13
ENDBRANCH   4   7
ENDBRANCH   2   3
ENDBRANCH   1   2
BRANCH   1  28
ATOM     28  C   UNL A   1      41.821  20.340  27.215  1.00  0.00     0.023 C 
BRANCH  28  29
ATOM     29  C   UNL A   1      41.955  19.906  25.759  1.00  0.00     0.116 C 
BRANCH  29  30
ATOM     30  N   UNL A   1      43.330  19.590  25.376  1.00  0.00    -0.352 N 
ATOM     31  C   UNL A   1      44.323  20.462  24.964  1.00  0.00     0.251 C 
ATOM     32  H   UNL A   1      43.581  18.638  25.416  1.00  0.00     0.163 HD
ATOM     33  O   UNL A   1      45.264  20.079  24.289  1.00  0.00    -0.269 OA
BRANCH  31  34
ATOM     34  C   UNL A   1      44.229  21.873  25.381  1.00  0.00     0.039 A 
ATOM     35  C   UNL A   1      43.381  22.777  24.740  1.00  0.00     0.014 A 
ATOM     36  C   UNL A   1      44.996  22.267  26.474  1.00  0.00     0.014 A 
ATOM     37  C   UNL A   1      43.248  24.058  25.272  1.00  0.00     0.010 A 
ATOM     38  C   UNL A   1      44.745  23.467  27.088  1.00  0.00     0.010 A 
ATOM     39  C   UNL A   1      43.913  24.389  26.467  1.00  0.00    -0.014 A 
BRANCH  39  40
ATOM     40  C   UNL A   1      43.637  25.646  27.156  1.00  0.00     0.031 A 
ATOM     41  C   UNL A   1      44.546  26.757  26.774  1.00  0.00     0.074 A 
ATOM     42  C   UNL A   1      42.545  25.867  27.922  1.00  0.00     0.049 A 
ATOM     43  N   UNL A   1      45.477  27.279  27.500  1.00  0.00    -0.248 NA
ATOM     44  C   UNL A   1      44.527  27.246  25.385  1.00  0.00     0.031 C 
ATOM     45  C   UNL A   1      41.399  24.982  28.162  1.00  0.00     0.029 A 
ATOM     46  N   UNL A   1      42.178  27.003  28.578  1.00  0.00    -0.354 N 
ATOM     47  C   UNL A   1      46.014  28.315  26.746  1.00  0.00     0.074 A 
ATOM     48  C   UNL A   1      45.530  28.127  25.401  1.00  0.00     0.031 C 
ATOM     49  C   UNL A   1      40.377  25.690  28.694  1.00  0.00     0.029 A 
ATOM     50  C   UNL A   1      40.851  27.026  29.000  1.00  0.00     0.049 A 
ATOM     51  H   UNL A   1      42.800  27.748  28.741  1.00  0.00     0.167 HD
ATOM     52  C   UNL A   1      46.581  29.395  27.354  1.00  0.00     0.031 A 
ATOM     53  C   UNL A   1      40.191  28.074  29.555  1.00  0.00     0.031 A 
ATOM     54  C   UNL A   1      46.850  29.135  28.749  1.00  0.00     0.049 A 
ATOM     55  C   UNL A   1      41.211  29.000  30.092  1.00  0.00     0.074 A 
ATOM     56  C   UNL A   1      47.586  28.199  29.447  1.00  0.00     0.029 A 
ATOM     57  N   UNL A   1      45.968  29.669  29.659  1.00  0.00    -0.354 N 
ATOM     58  N   UNL A   1      41.969  28.711  31.107  1.00  0.00    -0.248 NA
ATOM     59  C   UNL A   1      41.699  30.059  29.225  1.00  0.00     0.031 C 
ATOM     60  C   UNL A   1      46.784  27.873  30.582  1.00  0.00     0.029 A 
ATOM     61  C   UNL A   1      45.650  28.686  30.560  1.00  0.00     0.049 A 
ATOM     62  H   UNL A   1      45.625  30.592  29.662  1.00  0.00     0.167 HD
ATOM     63  C   UNL A   1      43.220  29.187  30.749  1.00  0.00     0.074 A 
ATOM     64  C   UNL A   1      42.969  30.104  29.636  1.00  0.00     0.031 C 
ATOM     65  C   UNL A   1      44.357  28.573  31.196  1.00  0.00     0.031 A 
BRANCH  52  66
ATOM     66  C   UNL A   1      46.449  30.805  26.826  1.00  0.00    -0.014 A 
ATOM     67  C   UNL A   1      47.581  31.640  26.855  1.00  0.00     0.009 A 
ATOM     68  C   UNL A   1      45.209  31.433  26.596  1.00  0.00     0.009 A 
ATOM     69  C   UNL A   1      47.464  33.031  26.762  1.00  0.00     0.001 A 
ATOM     70  C   UNL A   1      45.093  32.818  26.459  1.00  0.00     0.001 A 
ATOM     71  C   UNL A   1      46.217  33.620  26.576  1.00  0.00     0.000 A 
ENDBRANCH  52  66
BRANCH  53  72
ATOM     72  C   UNL A   1      38.772  28.478  29.447  1.00  0.00    -0.014 A 
ATOM     73  C   UNL A   1      38.001  28.679  30.606  1.00  0.00     0.009 A 
ATOM     74  C   UNL A   1      38.270  28.977  28.233  1.00  0.00     0.009 A 
ATOM     75  C   UNL A   1      36.805  29.408  30.561  1.00  0.00     0.001 A 
ATOM     76  C   UNL A   1      37.074  29.702  28.188  1.00  0.00     0.001 A 
ATOM     77  C   UNL A   1      36.352  29.936  29.355  1.00  0.00     0.000 A 
ENDBRANCH  53  72
BRANCH  65  78
ATOM     78  C   UNL A   1      44.212  27.535  32.285  1.00  0.00    -0.014 A 
ATOM     79  C   UNL A   1      43.992  27.846  33.640  1.00  0.00     0.009 A 
ATOM     80  C   UNL A   1      44.200  26.184  31.908  1.00  0.00     0.009 A 
ATOM     81  C   UNL A   1      43.821  26.833  34.592  1.00  0.00     0.001 A 
ATOM     82  C   UNL A   1      44.005  25.175  32.854  1.00  0.00     0.001 A 
ATOM     83  C   UNL A   1      43.829  25.497  34.197  1.00  0.00     0.000 A 
ENDBRANCH  65  78
ENDBRANCH  39  40
ENDBRANCH  31  34
ENDBRANCH  29  30
ENDBRANCH  28  29
ENDBRANCH   1  28
TORSDOF 15
ENDMDL
MODEL 3
REMARK VINA RESULT:     -11.4      3.412      5.899
REMARK SMILES CC1=C[C@@H]([C@@H]2N=N[C@H](S)N2/N=C/c2ccc(C(=O)NCCCCNC(=O)c3ccc(-c4c5nc(c(-c6ccccc6)c6ccc([nH]6)c(-c6ccccc6)c6nc(c(-c7ccccc7)c7ccc4[nH]7)C=C6)C=C5)cc3)cc2)N=N1
REMARK SMILES IDX 21 1 20 2 19 3 17 4 18 5 16 7 13 8 14 9 76 10 15 11 75 12
REMARK SMILES IDX 12 13 11 14 10 15 5 16 6 17 7 18 8 19 4 20 1 21 2 22 3 23
REMARK SMILES IDX 78 24 77 25 9 26 22 28 23 29 24 30 25 31 26 33 27 34 28 35
REMARK SMILES IDX 74 36 29 37 73 38 30 39 31 40 32 41 67 42 33 43 72 44 66 45
REMARK SMILES IDX 68 46 34 47 71 48 65 49 64 50 35 52 57 53 42 54 56 55 43 56
REMARK SMILES IDX 46 57 55 58 69 59 44 60 45 61 54 63 70 64 47 65 36 66 37 67
REMARK SMILES IDX 41 68 38 69 40 70 39 71 58 72 59 73 63 74 60 75 62 76 61 77
REMARK SMILES IDX 48 78 49 79 53 80 50 81 52 82 51 83
REMARK H PARENT 19 6 9 27 24 32 68 51 46 62
REMARK Flexibility Score: inf
ROOT
ATOM      1  C   UNL A   1      34.178  33.706  28.616  1.00  0.00     0.023 C 
ENDROOT
BRANCH   1   2
ATOM      2  C   UNL A   1      33.825  32.389  27.916  1.00  0.00     0.116 C 
BRANCH   2   3
ATOM      3  N   UNL A   1      32.574  32.490  27.191  1.00  0.00    -0.352 N 
ATOM      4  C   UNL A   1      31.822  31.585  26.485  1.00  0.00     0.251 C 
ATOM      5  O   UNL A   1      30.756  31.990  26.017  1.00  0.00    -0.269 OA
ATOM      6  H   UNL A   1      32.183  33.394  27.207  1.00  0.00     0.163 HD
BRANCH   4   7
ATOM      7  C   UNL A   1      32.191  30.152  26.297  1.00  0.00     0.039 A 
ATOM      8  C   UNL A   1      32.872  27.431  26.162  1.00  0.00    -0.005 A 
ATOM      9  C   UNL A   1      32.031  27.877  27.180  1.00  0.00     0.010 A 
ATOM     10  C   UNL A   1      33.329  28.313  25.187  1.00  0.00     0.010 A 
ATOM     11  C   UNL A   1      31.708  29.235  27.252  1.00  0.00     0.014 A 
ATOM     12  C   UNL A   1      32.954  29.658  25.236  1.00  0.00     0.014 A 
BRANCH   8  13
ATOM     13  C   UNL A   1      33.268  26.014  26.110  1.00  0.00     0.141 C 
ATOM     14  N   UNL A   1      32.811  25.235  25.183  1.00  0.00    -0.180 NA
BRANCH  14  15
ATOM     15  N   UNL A   1      33.190  23.941  25.193  1.00  0.00    -0.233 NA
ATOM     16  C   UNL A   1      34.400  23.485  25.879  1.00  0.00     0.274 C 
ATOM     17  N   UNL A   1      34.227  22.031  26.149  1.00  0.00    -0.161 NA
ATOM     18  N   UNL A   1      33.161  21.609  25.639  1.00  0.00    -0.153 NA
ATOM     19  C   UNL A   1      32.412  22.721  25.019  1.00  0.00     0.298 C 
BRANCH  16  20
ATOM     20  C   UNL A   1      35.700  23.731  25.059  1.00  0.00     0.201 C 
ATOM     21  C   UNL A   1      37.987  20.842  24.931  1.00  0.00     0.068 C 
ATOM     22  C   UNL A   1      37.289  22.148  25.038  1.00  0.00     0.058 C 
ATOM     23  C   UNL A   1      36.200  22.511  24.365  1.00  0.00     0.031 C 
ATOM     24  N   UNL A   1      37.665  23.081  25.970  1.00  0.00    -0.160 NA
ATOM     25  N   UNL A   1      36.835  24.038  25.984  1.00  0.00    -0.177 NA
ENDBRANCH  16  20
BRANCH  19  26
ATOM     26  S   UNL A   1      32.003  22.494  23.253  1.00  0.00    -0.128 SA
ATOM     27  H   UNL A   1      33.146  22.293  22.545  1.00  0.00     0.106 HD
ENDBRANCH  19  26
ENDBRANCH  14  15
ENDBRANCH   8  13
ENDBRANCH   4   7
ENDBRANCH   2   3
ENDBRANCH   1   2
BRANCH   1  28
ATOM     28  C   UNL A   1      32.982  34.613  28.944  1.00  0.00     0.023 C 
BRANCH  28  29
ATOM     29  C   UNL A   1      33.340  35.940  29.604  1.00  0.00     0.116 C 
BRANCH  29  30
ATOM     30  N   UNL A   1      32.706  36.124  30.910  1.00  0.00    -0.352 N 
ATOM     31  C   UNL A   1      32.837  35.336  32.040  1.00  0.00     0.251 C 
ATOM     32  H   UNL A   1      32.113  36.907  30.995  1.00  0.00     0.163 HD
ATOM     33  O   UNL A   1      31.981  35.326  32.909  1.00  0.00    -0.269 OA
BRANCH  31  34
ATOM     34  C   UNL A   1      34.056  34.519  32.184  1.00  0.00     0.039 A 
ATOM     35  C   UNL A   1      34.020  33.126  32.126  1.00  0.00     0.014 A 
ATOM     36  C   UNL A   1      35.262  35.195  32.342  1.00  0.00     0.014 A 
ATOM     37  C   UNL A   1      35.226  32.427  32.138  1.00  0.00     0.010 A 
ATOM     38  C   UNL A   1      36.448  34.522  32.192  1.00  0.00     0.010 A 
ATOM     39  C   UNL A   1      36.442  33.135  32.142  1.00  0.00    -0.014 A 
BRANCH  39  40
ATOM     40  C   UNL A   1      37.714  32.445  31.952  1.00  0.00     0.031 A 
ATOM     41  C   UNL A   1      38.455  32.184  33.213  1.00  0.00     0.074 A 
ATOM     42  C   UNL A   1      38.114  31.902  30.779  1.00  0.00     0.049 A 
ATOM     43  N   UNL A   1      39.538  32.765  33.607  1.00  0.00    -0.248 NA
ATOM     44  C   UNL A   1      37.856  31.291  34.218  1.00  0.00     0.031 C 
ATOM     45  C   UNL A   1      37.375  31.807  29.514  1.00  0.00     0.029 A 
ATOM     46  N   UNL A   1      39.256  31.214  30.502  1.00  0.00    -0.354 N 
ATOM     47  C   UNL A   1      39.885  32.154  34.806  1.00  0.00     0.074 A 
ATOM     48  C   UNL A   1      38.728  31.402  35.223  1.00  0.00     0.031 C 
ATOM     49  C   UNL A   1      37.974  30.906  28.702  1.00  0.00     0.029 A 
ATOM     50  C   UNL A   1      39.229  30.501  29.307  1.00  0.00     0.049 A 
ATOM     51  H   UNL A   1      40.038  31.220  31.099  1.00  0.00     0.167 HD
ATOM     52  C   UNL A   1      41.186  32.096  35.204  1.00  0.00     0.031 A 
ATOM     53  C   UNL A   1      40.170  29.634  28.854  1.00  0.00     0.031 A 
ATOM     54  C   UNL A   1      42.011  33.011  34.451  1.00  0.00     0.049 A 
ATOM     55  C   UNL A   1      41.428  29.942  29.566  1.00  0.00     0.074 A 
ATOM     56  C   UNL A   1      42.011  34.373  34.227  1.00  0.00     0.029 A 
ATOM     57  N   UNL A   1      42.777  32.469  33.446  1.00  0.00    -0.354 N 
ATOM     58  N   UNL A   1      42.098  31.041  29.383  1.00  0.00    -0.248 NA
ATOM     59  C   UNL A   1      41.703  29.238  30.806  1.00  0.00     0.031 C 
ATOM     60  C   UNL A   1      42.349  34.519  32.847  1.00  0.00     0.029 A 
ATOM     61  C   UNL A   1      42.621  33.251  32.331  1.00  0.00     0.049 A 
ATOM     62  H   UNL A   1      43.338  31.663  33.514  1.00  0.00     0.167 HD
ATOM     63  C   UNL A   1      42.497  31.416  30.656  1.00  0.00     0.074 A 
ATOM     64  C   UNL A   1      42.324  30.214  31.474  1.00  0.00     0.031 C 
ATOM     65  C   UNL A   1      42.651  32.734  30.982  1.00  0.00     0.031 A 
BRANCH  52  66
ATOM     66  C   UNL A   1      41.781  30.902  35.916  1.00  0.00    -0.014 A 
ATOM     67  C   UNL A   1      42.812  31.122  36.846  1.00  0.00     0.009 A 
ATOM     68  C   UNL A   1      41.589  29.573  35.489  1.00  0.00     0.009 A 
ATOM     69  C   UNL A   1      43.666  30.088  37.246  1.00  0.00     0.001 A 
ATOM     70  C   UNL A   1      42.413  28.530  35.920  1.00  0.00     0.001 A 
ATOM     71  C   UNL A   1      43.473  28.794  36.773  1.00  0.00     0.000 A 
ENDBRANCH  52  66
BRANCH  53  72
ATOM     72  C   UNL A   1      40.028  28.403  28.048  1.00  0.00    -0.014 A 
ATOM     73  C   UNL A   1      40.777  28.235  26.869  1.00  0.00     0.009 A 
ATOM     74  C   UNL A   1      39.411  27.265  28.598  1.00  0.00     0.009 A 
ATOM     75  C   UNL A   1      40.954  26.967  26.299  1.00  0.00     0.001 A 
ATOM     76  C   UNL A   1      39.586  26.000  28.027  1.00  0.00     0.001 A 
ATOM     77  C   UNL A   1      40.375  25.847  26.890  1.00  0.00     0.000 A 
ENDBRANCH  53  72
BRANCH  65  78
ATOM     78  C   UNL A   1      42.625  33.743  29.856  1.00  0.00    -0.014 A 
ATOM     79  C   UNL A   1      43.700  33.959  28.972  1.00  0.00     0.009 A 
ATOM     80  C   UNL A   1      41.428  34.433  29.619  1.00  0.00     0.009 A 
ATOM     81  C   UNL A   1      43.592  34.878  27.921  1.00  0.00     0.001 A 
ATOM     82  C   UNL A   1      41.313  35.331  28.556  1.00  0.00     0.001 A 
ATOM     83  C   UNL A   1      42.398  35.564  27.715  1.00  0.00     0.000 A 
ENDBRANCH  65  78
ENDBRANCH  39  40
ENDBRANCH  31  34
ENDBRANCH  29  30
ENDBRANCH  28  29
ENDBRANCH   1  28
TORSDOF 15
ENDMDL
