MODEL 1
REMARK VINA RESULT:     -11.9      0.000      0.000
REMARK SMILES CC(C)(CC(=O)NCCCCNC(=O)c1ccc(-c2c3nc(c(-c4ccccc4)c4ccc([nH]4)c(-c4ccccc4)c4nc(c(-c5ccccc5)c5ccc2[nH]5)C=C4)C=C3)cc1)CC(=O)N1CCN(c2nc3ccc(Cl)cc3s2)CC1
REMARK SMILES IDX 8 1 7 2 5 3 6 4 4 6 2 7 1 8 3 9 63 10 64 11 65 12 66 13
REMARK SMILES IDX 67 14 81 15 68 16 80 17 69 18 70 19 71 20 79 21 72 22 78 23
REMARK SMILES IDX 73 24 77 25 74 26 75 27 76 28 9 29 10 30 11 31 12 32 13 33
REMARK SMILES IDX 14 35 15 36 16 37 62 38 17 39 61 40 18 41 19 42 20 43 55 44
REMARK SMILES IDX 21 45 60 46 54 47 56 48 22 49 59 50 53 51 52 52 23 54 45 55
REMARK SMILES IDX 30 56 44 57 31 58 34 59 43 60 57 61 32 62 33 63 42 65 58 66
REMARK SMILES IDX 35 67 24 68 25 69 29 70 26 71 28 72 27 73 46 74 47 75 51 76
REMARK SMILES IDX 48 77 50 78 49 79 36 80 37 81 41 82 38 83 40 84 39 85
REMARK H PARENT 7 5 12 34 56 53 34 64
REMARK Flexibility Score: inf
ROOT
ATOM      1  C   UNL A   1      32.868  29.853  25.879  1.00  0.00     0.116 C 
ENDROOT
BRANCH   1   2
ATOM      2  N   UNL A   1      33.383  29.250  24.678  1.00  0.00    -0.356 N 
ATOM      3  C   UNL A   1      32.642  28.865  23.599  1.00  0.00     0.220 C 
ATOM      4  O   UNL A   1      33.096  29.020  22.462  1.00  0.00    -0.275 OA
ATOM      5  H   UNL A   1      34.355  29.104  24.630  1.00  0.00     0.163 HD
BRANCH   3   6
ATOM      6  C   UNL A   1      31.304  28.206  23.786  1.00  0.00     0.107 C 
BRANCH   6   7
ATOM      7  C   UNL A   1      31.242  26.651  23.865  1.00  0.00    -0.018 C 
ATOM      8  C   UNL A   1      32.094  26.117  25.035  1.00  0.00     0.012 C 
ATOM      9  C   UNL A   1      29.766  26.355  24.303  1.00  0.00     0.012 C 
BRANCH   7  10
ATOM     10  C   UNL A   1      31.441  25.891  22.497  1.00  0.00     0.107 C 
BRANCH  10  11
ATOM     11  C   UNL A   1      32.724  25.151  21.998  1.00  0.00     0.223 C 
ATOM     12  O   UNL A   1      33.433  25.616  21.107  1.00  0.00    -0.275 OA
ATOM     13  N   UNL A   1      33.160  24.104  22.811  1.00  0.00    -0.339 N 
ATOM     14  C   UNL A   1      34.504  23.959  23.391  1.00  0.00     0.141 C 
ATOM     15  C   UNL A   1      32.430  22.863  22.895  1.00  0.00     0.141 C 
ATOM     16  C   UNL A   1      34.485  23.243  24.813  1.00  0.00     0.140 C 
ATOM     17  C   UNL A   1      32.124  22.590  24.348  1.00  0.00     0.140 C 
ATOM     18  N   UNL A   1      33.403  22.244  24.973  1.00  0.00    -0.345 N 
BRANCH  18  19
ATOM     19  C   UNL A   1      33.584  20.911  25.198  1.00  0.00     0.186 A 
ATOM     20  N   UNL A   1      34.186  20.148  24.309  1.00  0.00    -0.220 NA
ATOM     21  S   UNL A   1      32.868  20.031  26.494  1.00  0.00    -0.097 S 
ATOM     22  C   UNL A   1      33.873  18.824  24.491  1.00  0.00     0.084 A 
ATOM     23  C   UNL A   1      33.124  18.546  25.633  1.00  0.00     0.058 A 
ATOM     24  C   UNL A   1      34.208  17.777  23.607  1.00  0.00     0.031 A 
ATOM     25  C   UNL A   1      32.688  17.241  25.922  1.00  0.00     0.042 A 
ATOM     26  C   UNL A   1      33.761  16.479  23.870  1.00  0.00     0.023 A 
ATOM     27  C   UNL A   1      33.010  16.224  25.012  1.00  0.00     0.042 A 
ATOM     28  Cl  UNL A   1      32.451  14.620  25.304  1.00  0.00    -0.084 Cl
ENDBRANCH  18  19
ENDBRANCH  10  11
ENDBRANCH   7  10
ENDBRANCH   6   7
ENDBRANCH   3   6
ENDBRANCH   1   2
BRANCH   1  29
ATOM     29  C   UNL A   1      31.569  30.629  25.696  1.00  0.00     0.023 C 
BRANCH  29  30
ATOM     30  C   UNL A   1      31.350  31.841  26.590  1.00  0.00     0.023 C 
BRANCH  30  31
ATOM     31  C   UNL A   1      32.615  32.487  27.124  1.00  0.00     0.116 C 
BRANCH  31  32
ATOM     32  N   UNL A   1      32.397  33.831  27.639  1.00  0.00    -0.352 N 
ATOM     33  C   UNL A   1      33.118  34.563  28.546  1.00  0.00     0.251 C 
ATOM     34  H   UNL A   1      31.604  34.288  27.276  1.00  0.00     0.163 HD
ATOM     35  O   UNL A   1      32.691  35.638  28.939  1.00  0.00    -0.269 OA
BRANCH  33  36
ATOM     36  C   UNL A   1      34.392  34.032  29.064  1.00  0.00     0.039 A 
ATOM     37  C   UNL A   1      34.353  33.161  30.154  1.00  0.00     0.014 A 
ATOM     38  C   UNL A   1      35.613  34.382  28.484  1.00  0.00     0.014 A 
ATOM     39  C   UNL A   1      35.538  32.602  30.626  1.00  0.00     0.010 A 
ATOM     40  C   UNL A   1      36.776  33.739  28.881  1.00  0.00     0.010 A 
ATOM     41  C   UNL A   1      36.755  32.862  29.972  1.00  0.00    -0.014 A 
BRANCH  41  42
ATOM     42  C   UNL A   1      38.012  32.233  30.441  1.00  0.00     0.031 A 
ATOM     43  C   UNL A   1      38.756  32.811  31.612  1.00  0.00     0.074 A 
ATOM     44  C   UNL A   1      38.488  31.152  29.795  1.00  0.00     0.049 A 
ATOM     45  N   UNL A   1      39.844  32.371  32.194  1.00  0.00    -0.248 NA
ATOM     46  C   UNL A   1      38.232  34.060  32.192  1.00  0.00     0.031 C 
ATOM     47  C   UNL A   1      37.885  30.539  28.608  1.00  0.00     0.029 A 
ATOM     48  N   UNL A   1      39.581  30.368  30.055  1.00  0.00    -0.354 N 
ATOM     49  C   UNL A   1      40.133  33.290  33.195  1.00  0.00     0.074 A 
ATOM     50  C   UNL A   1      39.152  34.347  33.100  1.00  0.00     0.031 C 
ATOM     51  C   UNL A   1      38.582  29.441  28.279  1.00  0.00     0.029 A 
ATOM     52  C   UNL A   1      39.702  29.297  29.203  1.00  0.00     0.049 A 
ATOM     53  H   UNL A   1      40.219  30.554  30.781  1.00  0.00     0.167 HD
ATOM     54  C   UNL A   1      41.109  33.245  34.132  1.00  0.00     0.031 A 
ATOM     55  C   UNL A   1      40.608  28.302  29.178  1.00  0.00     0.031 A 
ATOM     56  C   UNL A   1      42.081  32.188  34.225  1.00  0.00     0.049 A 
ATOM     57  C   UNL A   1      41.683  28.275  30.228  1.00  0.00     0.074 A 
ATOM     58  C   UNL A   1      43.082  32.018  35.165  1.00  0.00     0.029 A 
ATOM     59  N   UNL A   1      42.175  31.124  33.341  1.00  0.00    -0.354 N 
ATOM     60  N   UNL A   1      41.894  29.107  31.221  1.00  0.00    -0.248 NA
ATOM     61  C   UNL A   1      42.633  27.157  30.166  1.00  0.00     0.031 C 
ATOM     62  C   UNL A   1      43.819  30.882  34.814  1.00  0.00     0.029 A 
ATOM     63  C   UNL A   1      43.233  30.306  33.697  1.00  0.00     0.049 A 
ATOM     64  H   UNL A   1      41.578  30.973  32.573  1.00  0.00     0.167 HD
ATOM     65  C   UNL A   1      42.982  28.597  31.916  1.00  0.00     0.074 A 
ATOM     66  C   UNL A   1      43.366  27.371  31.247  1.00  0.00     0.031 C 
ATOM     67  C   UNL A   1      43.607  29.096  33.011  1.00  0.00     0.031 A 
BRANCH  54  68
ATOM     68  C   UNL A   1      41.173  34.376  35.122  1.00  0.00    -0.014 A 
ATOM     69  C   UNL A   1      40.475  34.319  36.342  1.00  0.00     0.009 A 
ATOM     70  C   UNL A   1      41.958  35.505  34.846  1.00  0.00     0.009 A 
ATOM     71  C   UNL A   1      40.532  35.385  37.242  1.00  0.00     0.001 A 
ATOM     72  C   UNL A   1      42.041  36.554  35.763  1.00  0.00     0.001 A 
ATOM     73  C   UNL A   1      41.320  36.498  36.956  1.00  0.00     0.000 A 
ENDBRANCH  54  68
BRANCH  55  74
ATOM     74  C   UNL A   1      40.520  27.235  28.146  1.00  0.00    -0.014 A 
ATOM     75  C   UNL A   1      41.210  27.357  26.931  1.00  0.00     0.009 A 
ATOM     76  C   UNL A   1      39.739  26.092  28.370  1.00  0.00     0.009 A 
ATOM     77  C   UNL A   1      41.092  26.373  25.947  1.00  0.00     0.001 A 
ATOM     78  C   UNL A   1      39.649  25.093  27.398  1.00  0.00     0.001 A 
ATOM     79  C   UNL A   1      40.315  25.240  26.183  1.00  0.00     0.000 A 
ENDBRANCH  55  74
BRANCH  67  80
ATOM     80  C   UNL A   1      44.750  28.291  33.568  1.00  0.00    -0.014 A 
ATOM     81  C   UNL A   1      44.532  27.227  34.458  1.00  0.00     0.009 A 
ATOM     82  C   UNL A   1      46.065  28.600  33.187  1.00  0.00     0.009 A 
ATOM     83  C   UNL A   1      45.614  26.527  34.997  1.00  0.00     0.001 A 
ATOM     84  C   UNL A   1      47.140  27.874  33.697  1.00  0.00     0.001 A 
ATOM     85  C   UNL A   1      46.915  26.848  34.613  1.00  0.00     0.000 A 
ENDBRANCH  67  80
ENDBRANCH  41  42
ENDBRANCH  33  36
ENDBRANCH  31  32
ENDBRANCH  30  31
ENDBRANCH  29  30
ENDBRANCH   1  29
TORSDOF 15
ENDMDL
MODEL 2
REMARK VINA RESULT:     -11.4      2.247      2.993
REMARK SMILES CC(C)(CC(=O)NCCCCNC(=O)c1ccc(-c2c3nc(c(-c4ccccc4)c4ccc([nH]4)c(-c4ccccc4)c4nc(c(-c5ccccc5)c5ccc2[nH]5)C=C4)C=C3)cc1)CC(=O)N1CCN(c2nc3ccc(Cl)cc3s2)CC1
REMARK SMILES IDX 8 1 7 2 5 3 6 4 4 6 2 7 1 8 3 9 63 10 64 11 65 12 66 13
REMARK SMILES IDX 67 14 81 15 68 16 80 17 69 18 70 19 71 20 79 21 72 22 78 23
REMARK SMILES IDX 73 24 77 25 74 26 75 27 76 28 9 29 10 30 11 31 12 32 13 33
REMARK SMILES IDX 14 35 15 36 16 37 62 38 17 39 61 40 18 41 19 42 20 43 55 44
REMARK SMILES IDX 21 45 60 46 54 47 56 48 22 49 59 50 53 51 52 52 23 54 45 55
REMARK SMILES IDX 30 56 44 57 31 58 34 59 43 60 57 61 32 62 33 63 42 65 58 66
REMARK SMILES IDX 35 67 24 68 25 69 29 70 26 71 28 72 27 73 46 74 47 75 51 76
REMARK SMILES IDX 48 77 50 78 49 79 36 80 37 81 41 82 38 83 40 84 39 85
REMARK H PARENT 7 5 12 34 56 53 34 64
REMARK Flexibility Score: inf
ROOT
ATOM      1  C   UNL A   1      33.921  29.366  26.609  1.00  0.00     0.116 C 
ENDROOT
BRANCH   1   2
ATOM      2  N   UNL A   1      33.111  29.620  25.446  1.00  0.00    -0.356 N 
ATOM      3  C   UNL A   1      31.858  29.127  25.225  1.00  0.00     0.220 C 
ATOM      4  O   UNL A   1      31.014  29.837  24.673  1.00  0.00    -0.275 OA
ATOM      5  H   UNL A   1      33.495  30.201  24.750  1.00  0.00     0.163 HD
BRANCH   3   6
ATOM      6  C   UNL A   1      31.517  27.712  25.598  1.00  0.00     0.107 C 
BRANCH   6   7
ATOM      7  C   UNL A   1      31.140  26.710  24.465  1.00  0.00    -0.018 C 
ATOM      8  C   UNL A   1      29.903  27.194  23.680  1.00  0.00     0.012 C 
ATOM      9  C   UNL A   1      32.318  26.843  23.438  1.00  0.00     0.012 C 
BRANCH   7  10
ATOM     10  C   UNL A   1      31.109  25.189  24.882  1.00  0.00     0.107 C 
BRANCH  10  11
ATOM     11  C   UNL A   1      31.713  24.544  26.171  1.00  0.00     0.223 C 
ATOM     12  O   UNL A   1      31.093  24.518  27.232  1.00  0.00    -0.275 OA
ATOM     13  N   UNL A   1      32.850  23.762  25.967  1.00  0.00    -0.339 N 
ATOM     14  C   UNL A   1      33.025  22.361  26.380  1.00  0.00     0.141 C 
ATOM     15  C   UNL A   1      34.119  24.355  25.621  1.00  0.00     0.141 C 
ATOM     16  C   UNL A   1      33.943  21.534  25.377  1.00  0.00     0.140 C 
ATOM     17  C   UNL A   1      34.617  23.705  24.352  1.00  0.00     0.140 C 
ATOM     18  N   UNL A   1      34.999  22.339  24.719  1.00  0.00    -0.345 N 
BRANCH  18  19
ATOM     19  C   UNL A   1      36.341  22.139  24.848  1.00  0.00     0.186 A 
ATOM     20  N   UNL A   1      36.876  20.957  24.628  1.00  0.00    -0.220 NA
ATOM     21  S   UNL A   1      37.440  23.281  25.526  1.00  0.00    -0.097 S 
ATOM     22  C   UNL A   1      38.104  20.841  25.232  1.00  0.00     0.084 A 
ATOM     23  C   UNL A   1      38.588  22.012  25.813  1.00  0.00     0.058 A 
ATOM     24  C   UNL A   1      38.854  19.651  25.337  1.00  0.00     0.031 A 
ATOM     25  C   UNL A   1      39.809  22.032  26.511  1.00  0.00     0.042 A 
ATOM     26  C   UNL A   1      40.057  19.651  26.047  1.00  0.00     0.023 A 
ATOM     27  C   UNL A   1      40.520  20.828  26.625  1.00  0.00     0.042 A 
ATOM     28  Cl  UNL A   1      41.995  20.800  27.515  1.00  0.00    -0.084 Cl
ENDBRANCH  18  19
ENDBRANCH  10  11
ENDBRANCH   7  10
ENDBRANCH   6   7
ENDBRANCH   3   6
ENDBRANCH   1   2
BRANCH   1  29
ATOM     29  C   UNL A   1      34.021  30.534  27.583  1.00  0.00     0.023 C 
BRANCH  29  30
ATOM     30  C   UNL A   1      33.631  31.909  27.061  1.00  0.00     0.023 C 
BRANCH  30  31
ATOM     31  C   UNL A   1      32.239  32.375  27.446  1.00  0.00     0.116 C 
BRANCH  31  32
ATOM     32  N   UNL A   1      32.158  33.811  27.670  1.00  0.00    -0.352 N 
ATOM     33  C   UNL A   1      32.973  34.647  28.388  1.00  0.00     0.251 C 
ATOM     34  H   UNL A   1      31.394  34.254  27.234  1.00  0.00     0.163 HD
ATOM     35  O   UNL A   1      32.655  35.815  28.553  1.00  0.00    -0.269 OA
BRANCH  33  36
ATOM     36  C   UNL A   1      34.216  34.120  28.982  1.00  0.00     0.039 A 
ATOM     37  C   UNL A   1      34.114  33.261  30.077  1.00  0.00     0.014 A 
ATOM     38  C   UNL A   1      35.467  34.463  28.467  1.00  0.00     0.014 A 
ATOM     39  C   UNL A   1      35.270  32.706  30.621  1.00  0.00     0.010 A 
ATOM     40  C   UNL A   1      36.606  33.823  28.936  1.00  0.00     0.010 A 
ATOM     41  C   UNL A   1      36.522  32.958  30.033  1.00  0.00    -0.014 A 
BRANCH  41  42
ATOM     42  C   UNL A   1      37.750  32.333  30.578  1.00  0.00     0.031 A 
ATOM     43  C   UNL A   1      38.344  32.830  31.867  1.00  0.00     0.074 A 
ATOM     44  C   UNL A   1      38.337  31.332  29.896  1.00  0.00     0.049 A 
ATOM     45  N   UNL A   1      39.384  32.377  32.522  1.00  0.00    -0.248 NA
ATOM     46  C   UNL A   1      37.709  34.003  32.492  1.00  0.00     0.031 C 
ATOM     47  C   UNL A   1      37.887  30.806  28.604  1.00  0.00     0.029 A 
ATOM     48  N   UNL A   1      39.431  30.564  30.203  1.00  0.00    -0.354 N 
ATOM     49  C   UNL A   1      39.528  33.212  33.622  1.00  0.00     0.074 A 
ATOM     50  C   UNL A   1      38.517  34.239  33.513  1.00  0.00     0.031 C 
ATOM     51  C   UNL A   1      38.661  29.766  28.259  1.00  0.00     0.029 A 
ATOM     52  C   UNL A   1      39.685  29.579  29.281  1.00  0.00     0.049 A 
ATOM     53  H   UNL A   1      39.981  30.707  31.007  1.00  0.00     0.167 HD
ATOM     54  C   UNL A   1      40.403  33.117  34.650  1.00  0.00     0.031 A 
ATOM     55  C   UNL A   1      40.631  28.622  29.269  1.00  0.00     0.031 A 
ATOM     56  C   UNL A   1      41.405  32.090  34.757  1.00  0.00     0.049 A 
ATOM     57  C   UNL A   1      41.592  28.538  30.421  1.00  0.00     0.074 A 
ATOM     58  C   UNL A   1      42.310  31.870  35.780  1.00  0.00     0.029 A 
ATOM     59  N   UNL A   1      41.636  31.113  33.800  1.00  0.00    -0.354 N 
ATOM     60  N   UNL A   1      41.663  29.285  31.498  1.00  0.00    -0.248 NA
ATOM     61  C   UNL A   1      42.591  27.463  30.365  1.00  0.00     0.031 C 
ATOM     62  C   UNL A   1      43.128  30.796  35.414  1.00  0.00     0.029 A 
ATOM     63  C   UNL A   1      42.686  30.303  34.196  1.00  0.00     0.049 A 
ATOM     64  H   UNL A   1      41.128  31.011  32.963  1.00  0.00     0.167 HD
ATOM     65  C   UNL A   1      42.694  28.752  32.259  1.00  0.00     0.074 A 
ATOM     66  C   UNL A   1      43.199  27.605  31.533  1.00  0.00     0.031 C 
ATOM     67  C   UNL A   1      43.181  29.173  33.453  1.00  0.00     0.031 A 
BRANCH  54  68
ATOM     68  C   UNL A   1      40.315  34.156  35.735  1.00  0.00    -0.014 A 
ATOM     69  C   UNL A   1      40.956  35.401  35.609  1.00  0.00     0.009 A 
ATOM     70  C   UNL A   1      39.561  33.899  36.890  1.00  0.00     0.009 A 
ATOM     71  C   UNL A   1      40.877  36.347  36.632  1.00  0.00     0.001 A 
ATOM     72  C   UNL A   1      39.454  34.860  37.897  1.00  0.00     0.001 A 
ATOM     73  C   UNL A   1      40.121  36.079  37.772  1.00  0.00     0.000 A 
ENDBRANCH  54  68
BRANCH  55  74
ATOM     74  C   UNL A   1      40.696  27.649  28.146  1.00  0.00    -0.014 A 
ATOM     75  C   UNL A   1      40.028  26.419  28.227  1.00  0.00     0.009 A 
ATOM     76  C   UNL A   1      41.434  27.944  26.990  1.00  0.00     0.009 A 
ATOM     77  C   UNL A   1      40.125  25.489  27.189  1.00  0.00     0.001 A 
ATOM     78  C   UNL A   1      41.502  27.028  25.938  1.00  0.00     0.001 A 
ATOM     79  C   UNL A   1      40.858  25.797  26.044  1.00  0.00     0.000 A 
ENDBRANCH  55  74
BRANCH  67  80
ATOM     80  C   UNL A   1      44.294  28.361  34.058  1.00  0.00    -0.014 A 
ATOM     81  C   UNL A   1      44.035  27.332  34.978  1.00  0.00     0.009 A 
ATOM     82  C   UNL A   1      45.622  28.626  33.692  1.00  0.00     0.009 A 
ATOM     83  C   UNL A   1      45.090  26.626  35.560  1.00  0.00     0.001 A 
ATOM     84  C   UNL A   1      46.671  27.893  34.246  1.00  0.00     0.001 A 
ATOM     85  C   UNL A   1      46.405  26.904  35.191  1.00  0.00     0.000 A 
ENDBRANCH  67  80
ENDBRANCH  41  42
ENDBRANCH  33  36
ENDBRANCH  31  32
ENDBRANCH  30  31
ENDBRANCH  29  30
ENDBRANCH   1  29
TORSDOF 15
ENDMDL
MODEL 3
REMARK VINA RESULT:     -11.3      1.369      5.890
REMARK SMILES CC(C)(CC(=O)NCCCCNC(=O)c1ccc(-c2c3nc(c(-c4ccccc4)c4ccc([nH]4)c(-c4ccccc4)c4nc(c(-c5ccccc5)c5ccc2[nH]5)C=C4)C=C3)cc1)CC(=O)N1CCN(c2nc3ccc(Cl)cc3s2)CC1
REMARK SMILES IDX 8 1 7 2 5 3 6 4 4 6 2 7 1 8 3 9 63 10 64 11 65 12 66 13
REMARK SMILES IDX 67 14 81 15 68 16 80 17 69 18 70 19 71 20 79 21 72 22 78 23
REMARK SMILES IDX 73 24 77 25 74 26 75 27 76 28 9 29 10 30 11 31 12 32 13 33
REMARK SMILES IDX 14 35 15 36 16 37 62 38 17 39 61 40 18 41 19 42 20 43 55 44
REMARK SMILES IDX 21 45 60 46 54 47 56 48 22 49 59 50 53 51 52 52 23 54 45 55
REMARK SMILES IDX 30 56 44 57 31 58 34 59 43 60 57 61 32 62 33 63 42 65 58 66
REMARK SMILES IDX 35 67 24 68 25 69 29 70 26 71 28 72 27 73 46 74 47 75 51 76
REMARK SMILES IDX 48 77 50 78 49 79 36 80 37 81 41 82 38 83 40 84 39 85
REMARK H PARENT 7 5 12 34 56 53 34 64
REMARK Flexibility Score: inf
ROOT
ATOM      1  C   UNL A   1      33.234  29.878  27.114  1.00  0.00     0.116 C 
ENDROOT
BRANCH   1   2
ATOM      2  N   UNL A   1      32.639  30.193  25.842  1.00  0.00    -0.356 N 
ATOM      3  C   UNL A   1      31.792  29.387  25.137  1.00  0.00     0.220 C 
ATOM      4  O   UNL A   1      30.851  29.888  24.518  1.00  0.00    -0.275 OA
ATOM      5  H   UNL A   1      32.863  31.066  25.445  1.00  0.00     0.163 HD
BRANCH   3   6
ATOM      6  C   UNL A   1      32.029  27.905  25.067  1.00  0.00     0.107 C 
BRANCH   6   7
ATOM      7  C   UNL A   1      32.935  27.346  23.928  1.00  0.00    -0.018 C 
ATOM      8  C   UNL A   1      33.714  28.479  23.228  1.00  0.00     0.012 C 
ATOM      9  C   UNL A   1      34.041  26.537  24.689  1.00  0.00     0.012 C 
BRANCH   7  10
ATOM     10  C   UNL A   1      32.246  26.313  22.954  1.00  0.00     0.107 C 
BRANCH  10  11
ATOM     11  C   UNL A   1      32.941  25.217  22.085  1.00  0.00     0.223 C 
ATOM     12  O   UNL A   1      33.257  25.424  20.914  1.00  0.00    -0.275 OA
ATOM     13  N   UNL A   1      33.432  24.120  22.793  1.00  0.00    -0.339 N 
ATOM     14  C   UNL A   1      34.812  23.614  22.761  1.00  0.00     0.141 C 
ATOM     15  C   UNL A   1      32.544  23.147  23.381  1.00  0.00     0.141 C 
ATOM     16  C   UNL A   1      35.269  22.988  24.152  1.00  0.00     0.140 C 
ATOM     17  C   UNL A   1      32.875  23.027  24.849  1.00  0.00     0.140 C 
ATOM     18  N   UNL A   1      34.173  22.350  24.917  1.00  0.00    -0.345 N 
BRANCH  18  19
ATOM     19  C   UNL A   1      34.109  21.031  25.257  1.00  0.00     0.186 A 
ATOM     20  N   UNL A   1      34.893  20.143  24.683  1.00  0.00    -0.220 NA
ATOM     21  S   UNL A   1      32.885  20.334  26.250  1.00  0.00    -0.097 S 
ATOM     22  C   UNL A   1      34.386  18.872  24.805  1.00  0.00     0.084 A 
ATOM     23  C   UNL A   1      33.255  18.764  25.613  1.00  0.00     0.058 A 
ATOM     24  C   UNL A   1      34.888  17.726  24.153  1.00  0.00     0.031 A 
ATOM     25  C   UNL A   1      32.598  17.533  25.789  1.00  0.00     0.042 A 
ATOM     26  C   UNL A   1      34.231  16.503  24.301  1.00  0.00     0.023 A 
ATOM     27  C   UNL A   1      33.102  16.416  25.107  1.00  0.00     0.042 A 
ATOM     28  Cl  UNL A   1      32.294  14.900  25.256  1.00  0.00    -0.084 Cl
ENDBRANCH  18  19
ENDBRANCH  10  11
ENDBRANCH   7  10
ENDBRANCH   6   7
ENDBRANCH   3   6
ENDBRANCH   1   2
BRANCH   1  29
ATOM     29  C   UNL A   1      34.086  30.991  27.712  1.00  0.00     0.023 C 
BRANCH  29  30
ATOM     30  C   UNL A   1      33.787  32.414  27.261  1.00  0.00     0.023 C 
BRANCH  30  31
ATOM     31  C   UNL A   1      32.423  32.945  27.661  1.00  0.00     0.116 C 
BRANCH  31  32
ATOM     32  N   UNL A   1      32.405  34.387  27.858  1.00  0.00    -0.352 N 
ATOM     33  C   UNL A   1      33.176  35.185  28.663  1.00  0.00     0.251 C 
ATOM     34  H   UNL A   1      31.731  34.868  27.325  1.00  0.00     0.163 HD
ATOM     35  O   UNL A   1      32.915  36.373  28.775  1.00  0.00    -0.269 OA
BRANCH  33  36
ATOM     36  C   UNL A   1      34.300  34.594  29.414  1.00  0.00     0.039 A 
ATOM     37  C   UNL A   1      34.034  34.008  30.652  1.00  0.00     0.014 A 
ATOM     38  C   UNL A   1      35.599  34.611  28.905  1.00  0.00     0.014 A 
ATOM     39  C   UNL A   1      35.068  33.394  31.355  1.00  0.00     0.010 A 
ATOM     40  C   UNL A   1      36.603  33.902  29.550  1.00  0.00     0.010 A 
ATOM     41  C   UNL A   1      36.354  33.308  30.793  1.00  0.00    -0.014 A 
BRANCH  41  42
ATOM     42  C   UNL A   1      37.446  32.615  31.515  1.00  0.00     0.031 A 
ATOM     43  C   UNL A   1      38.134  31.432  30.893  1.00  0.00     0.074 A 
ATOM     44  C   UNL A   1      37.802  33.046  32.740  1.00  0.00     0.049 A 
ATOM     45  N   UNL A   1      39.140  30.731  31.351  1.00  0.00    -0.248 NA
ATOM     46  C   UNL A   1      37.611  30.953  29.602  1.00  0.00     0.031 C 
ATOM     47  C   UNL A   1      37.165  34.145  33.472  1.00  0.00     0.029 A 
ATOM     48  N   UNL A   1      38.797  32.619  33.581  1.00  0.00    -0.354 N 
ATOM     49  C   UNL A   1      39.360  29.730  30.412  1.00  0.00     0.074 A 
ATOM     50  C   UNL A   1      38.343  29.870  29.395  1.00  0.00     0.031 C 
ATOM     51  C   UNL A   1      37.824  34.344  34.624  1.00  0.00     0.029 A 
ATOM     52  C   UNL A   1      38.897  33.362  34.732  1.00  0.00     0.049 A 
ATOM     53  H   UNL A   1      39.382  31.854  33.380  1.00  0.00     0.167 HD
ATOM     54  C   UNL A   1      40.339  28.797  30.381  1.00  0.00     0.031 A 
ATOM     55  C   UNL A   1      39.767  33.270  35.754  1.00  0.00     0.031 A 
ATOM     56  C   UNL A   1      41.353  28.665  31.393  1.00  0.00     0.049 A 
ATOM     57  C   UNL A   1      40.845  32.225  35.696  1.00  0.00     0.074 A 
ATOM     58  C   UNL A   1      42.421  27.787  31.435  1.00  0.00     0.029 A 
ATOM     59  N   UNL A   1      41.418  29.431  32.546  1.00  0.00    -0.354 N 
ATOM     60  N   UNL A   1      41.092  31.338  34.761  1.00  0.00    -0.248 NA
ATOM     61  C   UNL A   1      41.779  32.182  36.829  1.00  0.00     0.031 C 
ATOM     62  C   UNL A   1      43.098  27.983  32.643  1.00  0.00     0.029 A 
ATOM     63  C   UNL A   1      42.493  29.031  33.320  1.00  0.00     0.049 A 
ATOM     64  H   UNL A   1      40.792  30.154  32.781  1.00  0.00     0.167 HD
ATOM     65  C   UNL A   1      42.224  30.653  35.178  1.00  0.00     0.074 A 
ATOM     66  C   UNL A   1      42.629  31.246  36.436  1.00  0.00     0.031 C 
ATOM     67  C   UNL A   1      42.873  29.626  34.576  1.00  0.00     0.031 A 
BRANCH  54  68
ATOM     68  C   UNL A   1      40.353  27.845  29.215  1.00  0.00    -0.014 A 
ATOM     69  C   UNL A   1      39.628  26.641  29.246  1.00  0.00     0.009 A 
ATOM     70  C   UNL A   1      41.081  28.165  28.059  1.00  0.00     0.009 A 
ATOM     71  C   UNL A   1      39.665  25.762  28.162  1.00  0.00     0.001 A 
ATOM     72  C   UNL A   1      41.089  27.301  26.963  1.00  0.00     0.001 A 
ATOM     73  C   UNL A   1      40.390  26.095  27.019  1.00  0.00     0.000 A 
ENDBRANCH  54  68
BRANCH  55  74
ATOM     74  C   UNL A   1      39.676  34.212  36.901  1.00  0.00    -0.014 A 
ATOM     75  C   UNL A   1      40.297  35.469  36.845  1.00  0.00     0.009 A 
ATOM     76  C   UNL A   1      38.973  33.855  38.062  1.00  0.00     0.009 A 
ATOM     77  C   UNL A   1      40.245  36.334  37.940  1.00  0.00     0.001 A 
ATOM     78  C   UNL A   1      38.894  34.736  39.143  1.00  0.00     0.001 A 
ATOM     79  C   UNL A   1      39.540  35.969  39.086  1.00  0.00     0.000 A 
ENDBRANCH  55  74
BRANCH  67  80
ATOM     80  C   UNL A   1      44.108  29.107  35.260  1.00  0.00    -0.014 A 
ATOM     81  C   UNL A   1      45.377  29.643  34.988  1.00  0.00     0.009 A 
ATOM     82  C   UNL A   1      43.996  28.070  36.199  1.00  0.00     0.009 A 
ATOM     83  C   UNL A   1      46.513  29.110  35.601  1.00  0.00     0.001 A 
ATOM     84  C   UNL A   1      45.128  27.567  36.839  1.00  0.00     0.001 A 
ATOM     85  C   UNL A   1      46.387  28.076  36.528  1.00  0.00     0.000 A 
ENDBRANCH  67  80
ENDBRANCH  41  42
ENDBRANCH  33  36
ENDBRANCH  31  32
ENDBRANCH  30  31
ENDBRANCH  29  30
ENDBRANCH   1  29
TORSDOF 15
ENDMDL
