MODEL 1
REMARK VINA RESULT:     -12.7      0.000      0.000
REMARK SMILES Cc1ccc(S(=O)(=O)n2cc(C(=O)C(=O)N[C@@H](Cc3cnc[nH]3)C(=O)NCCCCNC(=O)c3ccc(-c4c5nc(c(-c6ccccc6)c6ccc([nH]6)c(-c6ccccc6)c6nc(c(-c7ccccc7)c7ccc4[nH]7)C=C6)C=C5)cc3)c3ccccc32)cc1
REMARK SMILES IDX 27 1 26 2 24 3 25 4 17 6 16 7 14 8 15 9 12 11 13 12 11 13
REMARK SMILES IDX 9 14 10 15 87 16 82 17 86 18 83 19 85 20 84 21 6 22 7 23
REMARK SMILES IDX 8 24 5 25 1 26 2 27 3 28 89 29 4 30 88 31 18 32 19 33 20 34
REMARK SMILES IDX 23 35 21 36 22 37 28 39 29 40 30 41 31 42 32 43 33 45 34 46
REMARK SMILES IDX 35 47 81 48 36 49 80 50 37 51 38 52 39 53 74 54 40 55 79 56
REMARK SMILES IDX 73 57 75 58 41 59 78 60 72 61 71 62 42 64 64 65 49 66 63 67
REMARK SMILES IDX 50 68 53 69 62 70 76 71 51 72 52 73 61 75 77 76 54 77 43 78
REMARK SMILES IDX 44 79 48 80 45 81 47 82 46 83 65 84 66 85 70 86 67 87 69 88
REMARK SMILES IDX 68 89 55 90 56 91 60 92 57 93 59 94 58 95
REMARK H PARENT 26 5 16 10 23 38 31 44 75 63 53 74
REMARK Flexibility Score: inf
ROOT
ATOM      1  C   UNL A   1      34.278  28.316  26.360  1.00  0.00     0.116 C 
ENDROOT
BRANCH   1   2
ATOM      2  N   UNL A   1      32.953  28.250  26.936  1.00  0.00    -0.354 N 
ATOM      3  C   UNL A   1      31.765  28.021  26.293  1.00  0.00     0.242 C 
ATOM      4  O   UNL A   1      30.899  27.416  26.936  1.00  0.00    -0.273 OA
ATOM      5  H   UNL A   1      32.898  28.388  27.909  1.00  0.00     0.163 HD
BRANCH   3   6
ATOM      6  C   UNL A   1      31.515  28.393  24.806  1.00  0.00     0.177 C 
BRANCH   6   7
ATOM      7  N   UNL A   1      30.991  27.265  24.019  1.00  0.00    -0.337 N 
ATOM      8  C   UNL A   1      31.591  26.121  23.553  1.00  0.00     0.293 C 
ATOM      9  O   UNL A   1      30.864  25.239  23.106  1.00  0.00    -0.265 OA
ATOM     10  H   UNL A   1      30.039  27.345  23.784  1.00  0.00     0.164 HD
BRANCH   8  11
ATOM     11  C   UNL A   1      33.129  25.961  23.547  1.00  0.00     0.252 C 
ATOM     12  O   UNL A   1      33.804  26.825  22.999  1.00  0.00    -0.283 OA
BRANCH  11  13
ATOM     13  C   UNL A   1      33.791  24.786  24.126  1.00  0.00     0.054 A 
ATOM     14  N   UNL A   1      35.225  23.134  24.564  1.00  0.00    -0.240 N 
ATOM     15  C   UNL A   1      34.916  24.126  23.669  1.00  0.00     0.117 A 
ATOM     16  C   UNL A   1      34.318  23.097  25.602  1.00  0.00     0.065 A 
ATOM     17  C   UNL A   1      33.381  24.101  25.325  1.00  0.00     0.012 A 
ATOM     18  C   UNL A   1      34.206  22.276  26.739  1.00  0.00     0.028 A 
ATOM     19  C   UNL A   1      32.291  24.268  26.208  1.00  0.00     0.011 A 
ATOM     20  C   UNL A   1      33.109  22.461  27.585  1.00  0.00     0.002 A 
ATOM     21  C   UNL A   1      32.159  23.439  27.322  1.00  0.00     0.001 A 
BRANCH  14  22
ATOM     22  S   UNL A   1      36.540  22.072  24.376  1.00  0.00     0.268 S 
ATOM     23  O   UNL A   1      37.052  22.331  23.051  1.00  0.00    -0.201 OA
ATOM     24  O   UNL A   1      36.048  20.759  24.772  1.00  0.00    -0.201 OA
BRANCH  22  25
ATOM     25  C   UNL A   1      37.790  22.531  25.545  1.00  0.00     0.088 A 
ATOM     26  C   UNL A   1      41.105  23.514  28.100  1.00  0.00     0.044 C 
ATOM     27  C   UNL A   1      39.932  23.168  27.231  1.00  0.00    -0.051 A 
ATOM     28  C   UNL A   1      39.850  21.900  26.644  1.00  0.00     0.005 A 
ATOM     29  C   UNL A   1      38.912  24.099  26.996  1.00  0.00     0.005 A 
ATOM     30  C   UNL A   1      38.787  21.583  25.799  1.00  0.00     0.022 A 
ATOM     31  C   UNL A   1      37.834  23.781  26.166  1.00  0.00     0.022 A 
ENDBRANCH  22  25
ENDBRANCH  14  22
ENDBRANCH  11  13
ENDBRANCH   8  11
ENDBRANCH   6   7
BRANCH   6  32
ATOM     32  C   UNL A   1      30.744  29.714  24.584  1.00  0.00     0.090 C 
BRANCH  32  33
ATOM     33  C   UNL A   1      29.907  29.738  23.354  1.00  0.00     0.037 A 
ATOM     34  C   UNL A   1      28.639  29.258  23.093  1.00  0.00     0.134 A 
ATOM     35  N   UNL A   1      30.286  30.368  22.193  1.00  0.00    -0.348 N 
ATOM     36  N   UNL A   1      28.172  29.759  21.908  1.00  0.00    -0.245 NA
ATOM     37  C   UNL A   1      29.168  30.456  21.414  1.00  0.00     0.196 A 
ATOM     38  H   UNL A   1      31.187  30.693  21.967  1.00  0.00     0.167 HD
ENDBRANCH  32  33
ENDBRANCH   6  32
ENDBRANCH   3   6
ENDBRANCH   1   2
BRANCH   1  39
ATOM     39  C   UNL A   1      35.285  29.198  27.082  1.00  0.00     0.023 C 
BRANCH  39  40
ATOM     40  C   UNL A   1      34.691  30.205  28.054  1.00  0.00     0.023 C 
BRANCH  40  41
ATOM     41  C   UNL A   1      35.245  31.616  27.948  1.00  0.00     0.116 C 
BRANCH  41  42
ATOM     42  N   UNL A   1      34.402  32.692  28.438  1.00  0.00    -0.352 N 
ATOM     43  C   UNL A   1      34.518  33.437  29.603  1.00  0.00     0.251 C 
ATOM     44  H   UNL A   1      33.639  32.926  27.862  1.00  0.00     0.163 HD
ATOM     45  O   UNL A   1      33.598  34.188  29.923  1.00  0.00    -0.269 OA
BRANCH  43  46
ATOM     46  C   UNL A   1      35.804  33.501  30.360  1.00  0.00     0.039 A 
ATOM     47  C   UNL A   1      36.880  34.158  29.741  1.00  0.00     0.014 A 
ATOM     48  C   UNL A   1      36.060  32.652  31.426  1.00  0.00     0.014 A 
ATOM     49  C   UNL A   1      38.174  33.698  29.956  1.00  0.00     0.010 A 
ATOM     50  C   UNL A   1      37.289  32.063  31.506  1.00  0.00     0.010 A 
ATOM     51  C   UNL A   1      38.324  32.550  30.722  1.00  0.00    -0.014 A 
BRANCH  51  52
ATOM     52  C   UNL A   1      39.536  31.780  30.847  1.00  0.00     0.031 A 
ATOM     53  C   UNL A   1      39.599  30.540  30.060  1.00  0.00     0.074 A 
ATOM     54  C   UNL A   1      40.576  32.328  31.518  1.00  0.00     0.049 A 
ATOM     55  N   UNL A   1      40.231  29.487  30.430  1.00  0.00    -0.248 NA
ATOM     56  C   UNL A   1      38.882  30.368  28.790  1.00  0.00     0.031 C 
ATOM     57  C   UNL A   1      41.965  31.888  31.557  1.00  0.00     0.029 A 
ATOM     58  N   UNL A   1      40.555  33.372  32.449  1.00  0.00    -0.354 N 
ATOM     59  C   UNL A   1      40.320  28.685  29.314  1.00  0.00     0.074 A 
ATOM     60  C   UNL A   1      39.338  29.181  28.383  1.00  0.00     0.031 C 
ATOM     61  C   UNL A   1      42.545  32.395  32.664  1.00  0.00     0.029 A 
ATOM     62  C   UNL A   1      41.490  33.033  33.439  1.00  0.00     0.049 A 
ATOM     63  H   UNL A   1      39.996  34.181  32.417  1.00  0.00     0.167 HD
ATOM     64  C   UNL A   1      41.381  27.844  29.196  1.00  0.00     0.031 A 
ATOM     65  C   UNL A   1      41.146  32.693  34.720  1.00  0.00     0.031 A 
ATOM     66  C   UNL A   1      42.285  28.008  30.329  1.00  0.00     0.049 A 
ATOM     67  C   UNL A   1      41.561  31.268  35.039  1.00  0.00     0.074 A 
ATOM     68  C   UNL A   1      43.437  28.763  30.478  1.00  0.00     0.029 A 
ATOM     69  N   UNL A   1      41.839  27.703  31.606  1.00  0.00    -0.354 N 
ATOM     70  N   UNL A   1      41.675  30.339  34.128  1.00  0.00    -0.248 NA
ATOM     71  C   UNL A   1      41.887  30.780  36.377  1.00  0.00     0.031 C 
ATOM     72  C   UNL A   1      43.660  28.944  31.867  1.00  0.00     0.029 A 
ATOM     73  C   UNL A   1      42.655  28.287  32.555  1.00  0.00     0.049 A 
ATOM     74  H   UNL A   1      41.052  27.147  31.809  1.00  0.00     0.167 HD
ATOM     75  C   UNL A   1      42.132  29.185  34.706  1.00  0.00     0.074 A 
ATOM     76  C   UNL A   1      42.226  29.502  36.119  1.00  0.00     0.031 C 
ATOM     77  C   UNL A   1      42.409  28.067  33.971  1.00  0.00     0.031 A 
BRANCH  64  78
ATOM     78  C   UNL A   1      41.768  27.160  27.917  1.00  0.00    -0.014 A 
ATOM     79  C   UNL A   1      43.054  26.600  27.805  1.00  0.00     0.009 A 
ATOM     80  C   UNL A   1      40.927  27.025  26.799  1.00  0.00     0.009 A 
ATOM     81  C   UNL A   1      43.500  25.990  26.630  1.00  0.00     0.001 A 
ATOM     82  C   UNL A   1      41.376  26.438  25.607  1.00  0.00     0.001 A 
ATOM     83  C   UNL A   1      42.665  25.922  25.523  1.00  0.00     0.000 A 
ENDBRANCH  64  78
BRANCH  65  84
ATOM     84  C   UNL A   1      39.873  33.316  35.194  1.00  0.00    -0.014 A 
ATOM     85  C   UNL A   1      38.661  32.677  34.872  1.00  0.00     0.009 A 
ATOM     86  C   UNL A   1      39.891  34.210  36.274  1.00  0.00     0.009 A 
ATOM     87  C   UNL A   1      37.556  32.776  35.726  1.00  0.00     0.001 A 
ATOM     88  C   UNL A   1      38.775  34.318  37.114  1.00  0.00     0.001 A 
ATOM     89  C   UNL A   1      37.633  33.555  36.875  1.00  0.00     0.000 A 
ENDBRANCH  65  84
BRANCH  77  90
ATOM     90  C   UNL A   1      42.562  26.662  34.502  1.00  0.00    -0.014 A 
ATOM     91  C   UNL A   1      41.573  25.976  35.212  1.00  0.00     0.009 A 
ATOM     92  C   UNL A   1      43.713  25.917  34.145  1.00  0.00     0.009 A 
ATOM     93  C   UNL A   1      41.743  24.636  35.587  1.00  0.00     0.001 A 
ATOM     94  C   UNL A   1      43.858  24.565  34.458  1.00  0.00     0.001 A 
ATOM     95  C   UNL A   1      42.876  23.929  35.198  1.00  0.00     0.000 A 
ENDBRANCH  77  90
ENDBRANCH  51  52
ENDBRANCH  43  46
ENDBRANCH  41  42
ENDBRANCH  40  41
ENDBRANCH  39  40
ENDBRANCH   1  39
TORSDOF 18
ENDMDL
MODEL 2
REMARK VINA RESULT:     -11.3      2.619      7.064
REMARK SMILES Cc1ccc(S(=O)(=O)n2cc(C(=O)C(=O)N[C@@H](Cc3cnc[nH]3)C(=O)NCCCCNC(=O)c3ccc(-c4c5nc(c(-c6ccccc6)c6ccc([nH]6)c(-c6ccccc6)c6nc(c(-c7ccccc7)c7ccc4[nH]7)C=C6)C=C5)cc3)c3ccccc32)cc1
REMARK SMILES IDX 27 1 26 2 24 3 25 4 17 6 16 7 14 8 15 9 12 11 13 12 11 13
REMARK SMILES IDX 9 14 10 15 87 16 82 17 86 18 83 19 85 20 84 21 6 22 7 23
REMARK SMILES IDX 8 24 5 25 1 26 2 27 3 28 89 29 4 30 88 31 18 32 19 33 20 34
REMARK SMILES IDX 23 35 21 36 22 37 28 39 29 40 30 41 31 42 32 43 33 45 34 46
REMARK SMILES IDX 35 47 81 48 36 49 80 50 37 51 38 52 39 53 74 54 40 55 79 56
REMARK SMILES IDX 73 57 75 58 41 59 78 60 72 61 71 62 42 64 64 65 49 66 63 67
REMARK SMILES IDX 50 68 53 69 62 70 76 71 51 72 52 73 61 75 77 76 54 77 43 78
REMARK SMILES IDX 44 79 48 80 45 81 47 82 46 83 65 84 66 85 70 86 67 87 69 88
REMARK SMILES IDX 68 89 55 90 56 91 60 92 57 93 59 94 58 95
REMARK H PARENT 26 5 16 10 23 38 31 44 75 63 53 74
REMARK Flexibility Score: inf
ROOT
ATOM      1  C   UNL A   1      33.593  25.545  25.961  1.00  0.00     0.116 C 
ENDROOT
BRANCH   1   2
ATOM      2  N   UNL A   1      32.807  24.417  26.412  1.00  0.00    -0.354 N 
ATOM      3  C   UNL A   1      32.897  23.111  26.008  1.00  0.00     0.242 C 
ATOM      4  O   UNL A   1      32.634  22.253  26.859  1.00  0.00    -0.273 OA
ATOM      5  H   UNL A   1      32.122  24.613  27.091  1.00  0.00     0.163 HD
BRANCH   3   6
ATOM      6  C   UNL A   1      33.398  22.688  24.601  1.00  0.00     0.177 C 
BRANCH   6   7
ATOM      7  N   UNL A   1      33.966  21.330  24.585  1.00  0.00    -0.337 N 
ATOM      8  C   UNL A   1      35.265  20.884  24.623  1.00  0.00     0.293 C 
ATOM      9  O   UNL A   1      35.449  19.687  24.818  1.00  0.00    -0.265 OA
ATOM     10  H   UNL A   1      33.295  20.612  24.538  1.00  0.00     0.164 HD
BRANCH   8  11
ATOM     11  C   UNL A   1      36.455  21.842  24.387  1.00  0.00     0.252 C 
ATOM     12  O   UNL A   1      36.377  22.656  23.473  1.00  0.00    -0.283 OA
BRANCH  11  13
ATOM     13  C   UNL A   1      37.684  21.768  25.185  1.00  0.00     0.054 A 
ATOM     14  N   UNL A   1      39.626  21.122  26.072  1.00  0.00    -0.240 N 
ATOM     15  C   UNL A   1      38.587  20.725  25.271  1.00  0.00     0.117 A 
ATOM     16  C   UNL A   1      39.431  22.402  26.547  1.00  0.00     0.065 A 
ATOM     17  C   UNL A   1      38.193  22.813  26.035  1.00  0.00     0.012 A 
ATOM     18  C   UNL A   1      40.195  23.231  27.387  1.00  0.00     0.028 A 
ATOM     19  C   UNL A   1      37.704  24.087  26.398  1.00  0.00     0.011 A 
ATOM     20  C   UNL A   1      39.675  24.481  27.736  1.00  0.00     0.002 A 
ATOM     21  C   UNL A   1      38.444  24.904  27.254  1.00  0.00     0.001 A 
BRANCH  14  22
ATOM     22  S   UNL A   1      40.955  20.130  26.451  1.00  0.00     0.268 S 
ATOM     23  O   UNL A   1      40.769  18.930  25.670  1.00  0.00    -0.201 OA
ATOM     24  O   UNL A   1      41.027  20.103  27.906  1.00  0.00    -0.201 OA
BRANCH  22  25
ATOM     25  C   UNL A   1      42.425  20.936  25.875  1.00  0.00     0.088 A 
ATOM     26  C   UNL A   1      45.998  22.607  24.165  1.00  0.00     0.044 C 
ATOM     27  C   UNL A   1      44.758  22.034  24.787  1.00  0.00    -0.051 A 
ATOM     28  C   UNL A   1      44.679  20.660  25.044  1.00  0.00     0.005 A 
ATOM     29  C   UNL A   1      43.673  22.856  25.115  1.00  0.00     0.005 A 
ATOM     30  C   UNL A   1      43.515  20.110  25.580  1.00  0.00     0.022 A 
ATOM     31  C   UNL A   1      42.511  22.314  25.672  1.00  0.00     0.022 A 
ENDBRANCH  22  25
ENDBRANCH  14  22
ENDBRANCH  11  13
ENDBRANCH   8  11
ENDBRANCH   6   7
BRANCH   6  32
ATOM     32  C   UNL A   1      32.405  22.957  23.446  1.00  0.00     0.090 C 
BRANCH  32  33
ATOM     33  C   UNL A   1      32.645  24.229  22.713  1.00  0.00     0.037 A 
ATOM     34  C   UNL A   1      33.752  25.051  22.631  1.00  0.00     0.134 A 
ATOM     35  N   UNL A   1      31.725  24.800  21.867  1.00  0.00    -0.348 N 
ATOM     36  N   UNL A   1      33.601  25.956  21.616  1.00  0.00    -0.245 NA
ATOM     37  C   UNL A   1      32.392  25.751  21.149  1.00  0.00     0.196 A 
ATOM     38  H   UNL A   1      30.771  24.568  21.792  1.00  0.00     0.167 HD
ENDBRANCH  32  33
ENDBRANCH   6  32
ENDBRANCH   3   6
ENDBRANCH   1   2
BRANCH   1  39
ATOM     39  C   UNL A   1      32.904  26.901  25.984  1.00  0.00     0.023 C 
BRANCH  39  40
ATOM     40  C   UNL A   1      33.833  28.105  26.007  1.00  0.00     0.023 C 
BRANCH  40  41
ATOM     41  C   UNL A   1      33.658  29.039  27.192  1.00  0.00     0.116 C 
BRANCH  41  42
ATOM     42  N   UNL A   1      34.141  30.399  27.035  1.00  0.00    -0.352 N 
ATOM     43  C   UNL A   1      35.224  31.021  27.639  1.00  0.00     0.251 C 
ATOM     44  H   UNL A   1      33.626  30.960  26.411  1.00  0.00     0.163 HD
ATOM     45  O   UNL A   1      35.364  32.236  27.507  1.00  0.00    -0.269 OA
BRANCH  43  46
ATOM     46  C   UNL A   1      36.324  30.229  28.268  1.00  0.00     0.039 A 
ATOM     47  C   UNL A   1      36.045  29.605  29.494  1.00  0.00     0.014 A 
ATOM     48  C   UNL A   1      37.647  30.399  27.887  1.00  0.00     0.014 A 
ATOM     49  C   UNL A   1      37.052  29.489  30.445  1.00  0.00     0.010 A 
ATOM     50  C   UNL A   1      38.599  30.471  28.863  1.00  0.00     0.010 A 
ATOM     51  C   UNL A   1      38.277  30.074  30.152  1.00  0.00    -0.014 A 
BRANCH  51  52
ATOM     52  C   UNL A   1      39.350  30.285  31.091  1.00  0.00     0.031 A 
ATOM     53  C   UNL A   1      39.304  31.539  31.855  1.00  0.00     0.074 A 
ATOM     54  C   UNL A   1      40.201  29.259  31.330  1.00  0.00     0.049 A 
ATOM     55  N   UNL A   1      40.344  32.176  32.253  1.00  0.00    -0.248 NA
ATOM     56  C   UNL A   1      38.047  32.223  32.185  1.00  0.00     0.031 C 
ATOM     57  C   UNL A   1      41.179  29.122  32.402  1.00  0.00     0.029 A 
ATOM     58  N   UNL A   1      40.453  28.137  30.534  1.00  0.00    -0.354 N 
ATOM     59  C   UNL A   1      39.899  33.091  33.180  1.00  0.00     0.074 A 
ATOM     60  C   UNL A   1      38.476  33.205  32.983  1.00  0.00     0.031 C 
ATOM     61  C   UNL A   1      42.108  28.221  32.023  1.00  0.00     0.029 A 
ATOM     62  C   UNL A   1      41.830  27.888  30.633  1.00  0.00     0.049 A 
ATOM     63  H   UNL A   1      39.796  27.625  30.010  1.00  0.00     0.167 HD
ATOM     64  C   UNL A   1      40.739  33.472  34.178  1.00  0.00     0.031 A 
ATOM     65  C   UNL A   1      42.707  28.068  29.595  1.00  0.00     0.031 A 
ATOM     66  C   UNL A   1      42.004  32.752  34.077  1.00  0.00     0.049 A 
ATOM     67  C   UNL A   1      43.737  29.133  29.926  1.00  0.00     0.074 A 
ATOM     68  C   UNL A   1      42.456  31.604  34.707  1.00  0.00     0.029 A 
ATOM     69  N   UNL A   1      42.808  32.939  32.962  1.00  0.00    -0.354 N 
ATOM     70  N   UNL A   1      43.506  30.112  30.759  1.00  0.00    -0.248 NA
ATOM     71  C   UNL A   1      45.088  29.179  29.371  1.00  0.00     0.031 C 
ATOM     72  C   UNL A   1      43.520  31.075  33.933  1.00  0.00     0.029 A 
ATOM     73  C   UNL A   1      43.722  31.911  32.848  1.00  0.00     0.049 A 
ATOM     74  H   UNL A   1      42.737  33.699  32.340  1.00  0.00     0.167 HD
ATOM     75  C   UNL A   1      44.641  30.864  30.907  1.00  0.00     0.074 A 
ATOM     76  C   UNL A   1      45.597  30.257  30.000  1.00  0.00     0.031 C 
ATOM     77  C   UNL A   1      44.704  31.916  31.775  1.00  0.00     0.031 A 
BRANCH  64  78
ATOM     78  C   UNL A   1      40.295  34.202  35.413  1.00  0.00    -0.014 A 
ATOM     79  C   UNL A   1      40.641  35.558  35.565  1.00  0.00     0.009 A 
ATOM     80  C   UNL A   1      39.540  33.628  36.450  1.00  0.00     0.009 A 
ATOM     81  C   UNL A   1      40.303  36.287  36.708  1.00  0.00     0.001 A 
ATOM     82  C   UNL A   1      39.221  34.346  37.611  1.00  0.00     0.001 A 
ATOM     83  C   UNL A   1      39.604  35.676  37.740  1.00  0.00     0.000 A 
ENDBRANCH  64  78
BRANCH  65  84
ATOM     84  C   UNL A   1      42.095  27.892  28.244  1.00  0.00    -0.014 A 
ATOM     85  C   UNL A   1      41.756  29.046  27.514  1.00  0.00     0.009 A 
ATOM     86  C   UNL A   1      42.270  26.688  27.548  1.00  0.00     0.009 A 
ATOM     87  C   UNL A   1      41.790  29.038  26.114  1.00  0.00     0.001 A 
ATOM     88  C   UNL A   1      42.284  26.683  26.146  1.00  0.00     0.001 A 
ATOM     89  C   UNL A   1      42.107  27.867  25.433  1.00  0.00     0.000 A 
ENDBRANCH  65  84
BRANCH  77  90
ATOM     90  C   UNL A   1      45.735  33.020  31.771  1.00  0.00    -0.014 A 
ATOM     91  C   UNL A   1      45.669  34.156  30.961  1.00  0.00     0.009 A 
ATOM     92  C   UNL A   1      46.764  32.999  32.745  1.00  0.00     0.009 A 
ATOM     93  C   UNL A   1      46.606  35.191  31.081  1.00  0.00     0.001 A 
ATOM     94  C   UNL A   1      47.658  34.056  32.913  1.00  0.00     0.001 A 
ATOM     95  C   UNL A   1      47.589  35.148  32.065  1.00  0.00     0.000 A 
ENDBRANCH  77  90
ENDBRANCH  51  52
ENDBRANCH  43  46
ENDBRANCH  41  42
ENDBRANCH  40  41
ENDBRANCH  39  40
ENDBRANCH   1  39
TORSDOF 18
ENDMDL
MODEL 3
REMARK VINA RESULT:     -10.8      7.701     12.598
REMARK SMILES Cc1ccc(S(=O)(=O)n2cc(C(=O)C(=O)N[C@@H](Cc3cnc[nH]3)C(=O)NCCCCNC(=O)c3ccc(-c4c5nc(c(-c6ccccc6)c6ccc([nH]6)c(-c6ccccc6)c6nc(c(-c7ccccc7)c7ccc4[nH]7)C=C6)C=C5)cc3)c3ccccc32)cc1
REMARK SMILES IDX 27 1 26 2 24 3 25 4 17 6 16 7 14 8 15 9 12 11 13 12 11 13
REMARK SMILES IDX 9 14 10 15 87 16 82 17 86 18 83 19 85 20 84 21 6 22 7 23
REMARK SMILES IDX 8 24 5 25 1 26 2 27 3 28 89 29 4 30 88 31 18 32 19 33 20 34
REMARK SMILES IDX 23 35 21 36 22 37 28 39 29 40 30 41 31 42 32 43 33 45 34 46
REMARK SMILES IDX 35 47 81 48 36 49 80 50 37 51 38 52 39 53 74 54 40 55 79 56
REMARK SMILES IDX 73 57 75 58 41 59 78 60 72 61 71 62 42 64 64 65 49 66 63 67
REMARK SMILES IDX 50 68 53 69 62 70 76 71 51 72 52 73 61 75 77 76 54 77 43 78
REMARK SMILES IDX 44 79 48 80 45 81 47 82 46 83 65 84 66 85 70 86 67 87 69 88
REMARK SMILES IDX 68 89 55 90 56 91 60 92 57 93 59 94 58 95
REMARK H PARENT 26 5 16 10 23 38 31 44 75 63 53 74
REMARK Flexibility Score: inf
ROOT
ATOM      1  C   UNL A   1      46.813  29.747  28.512  1.00  0.00     0.116 C 
ENDROOT
BRANCH   1   2
ATOM      2  N   UNL A   1      47.083  29.742  27.090  1.00  0.00    -0.354 N 
ATOM      3  C   UNL A   1      46.348  29.154  26.095  1.00  0.00     0.242 C 
ATOM      4  O   UNL A   1      46.352  29.724  24.998  1.00  0.00    -0.273 OA
ATOM      5  H   UNL A   1      47.895  30.220  26.804  1.00  0.00     0.163 HD
BRANCH   3   6
ATOM      6  C   UNL A   1      45.463  27.898  26.318  1.00  0.00     0.177 C 
BRANCH   6   7
ATOM      7  N   UNL A   1      44.337  27.821  25.373  1.00  0.00    -0.337 N 
ATOM      8  C   UNL A   1      42.986  27.676  25.574  1.00  0.00     0.293 C 
ATOM      9  O   UNL A   1      42.245  27.860  24.613  1.00  0.00    -0.265 OA
ATOM     10  H   UNL A   1      44.600  27.885  24.427  1.00  0.00     0.164 HD
BRANCH   8  11
ATOM     11  C   UNL A   1      42.414  27.251  26.945  1.00  0.00     0.252 C 
ATOM     12  O   UNL A   1      42.109  28.127  27.748  1.00  0.00    -0.283 OA
BRANCH  11  13
ATOM     13  C   UNL A   1      42.278  25.841  27.329  1.00  0.00     0.054 A 
ATOM     14  N   UNL A   1      41.763  23.671  27.364  1.00  0.00    -0.240 N 
ATOM     15  C   UNL A   1      41.531  24.855  26.713  1.00  0.00     0.117 A 
ATOM     16  C   UNL A   1      42.631  23.843  28.422  1.00  0.00     0.065 A 
ATOM     17  C   UNL A   1      42.936  25.211  28.445  1.00  0.00     0.012 A 
ATOM     18  C   UNL A   1      43.162  22.952  29.372  1.00  0.00     0.028 A 
ATOM     19  C   UNL A   1      43.783  25.695  29.466  1.00  0.00     0.011 A 
ATOM     20  C   UNL A   1      43.987  23.467  30.375  1.00  0.00     0.002 A 
ATOM     21  C   UNL A   1      44.290  24.821  30.428  1.00  0.00     0.001 A 
BRANCH  14  22
ATOM     22  S   UNL A   1      41.029  22.198  26.931  1.00  0.00     0.268 S 
ATOM     23  O   UNL A   1      40.037  22.545  25.940  1.00  0.00    -0.201 OA
ATOM     24  O   UNL A   1      40.674  21.549  28.187  1.00  0.00    -0.201 OA
BRANCH  22  25
ATOM     25  C   UNL A   1      42.253  21.183  26.150  1.00  0.00     0.088 A 
ATOM     26  C   UNL A   1      45.510  18.923  24.486  1.00  0.00     0.044 C 
ATOM     27  C   UNL A   1      44.358  19.707  25.043  1.00  0.00    -0.051 A 
ATOM     28  C   UNL A   1      44.418  21.105  25.075  1.00  0.00     0.005 A 
ATOM     29  C   UNL A   1      43.218  19.058  25.536  1.00  0.00     0.005 A 
ATOM     30  C   UNL A   1      43.373  21.842  25.632  1.00  0.00     0.022 A 
ATOM     31  C   UNL A   1      42.159  19.792  26.076  1.00  0.00     0.022 A 
ENDBRANCH  22  25
ENDBRANCH  14  22
ENDBRANCH  11  13
ENDBRANCH   8  11
ENDBRANCH   6   7
BRANCH   6  32
ATOM     32  C   UNL A   1      46.239  26.570  26.465  1.00  0.00     0.090 C 
BRANCH  32  33
ATOM     33  C   UNL A   1      47.514  26.515  25.699  1.00  0.00     0.037 A 
ATOM     34  C   UNL A   1      48.783  26.100  26.051  1.00  0.00     0.134 A 
ATOM     35  N   UNL A   1      47.611  26.840  24.367  1.00  0.00    -0.348 N 
ATOM     36  N   UNL A   1      49.567  25.965  24.937  1.00  0.00    -0.245 NA
ATOM     37  C   UNL A   1      48.821  26.375  23.939  1.00  0.00     0.196 A 
ATOM     38  H   UNL A   1      46.939  27.315  23.827  1.00  0.00     0.167 HD
ENDBRANCH  32  33
ENDBRANCH   6  32
ENDBRANCH   3   6
ENDBRANCH   1   2
BRANCH   1  39
ATOM     39  C   UNL A   1      46.239  31.034  29.085  1.00  0.00     0.023 C 
BRANCH  39  40
ATOM     40  C   UNL A   1      46.695  32.314  28.401  1.00  0.00     0.023 C 
BRANCH  40  41
ATOM     41  C   UNL A   1      48.095  32.780  28.759  1.00  0.00     0.116 C 
BRANCH  41  42
ATOM     42  N   UNL A   1      49.152  32.478  27.811  1.00  0.00    -0.352 N 
ATOM     43  C   UNL A   1      49.431  33.074  26.589  1.00  0.00     0.251 C 
ATOM     44  H   UNL A   1      49.757  31.747  28.071  1.00  0.00     0.163 HD
ATOM     45  O   UNL A   1      50.267  32.556  25.850  1.00  0.00    -0.269 OA
BRANCH  43  46
ATOM     46  C   UNL A   1      48.896  34.426  26.243  1.00  0.00     0.039 A 
ATOM     47  C   UNL A   1      49.294  35.500  27.055  1.00  0.00     0.014 A 
ATOM     48  C   UNL A   1      47.786  34.577  25.426  1.00  0.00     0.014 A 
ATOM     49  C   UNL A   1      48.402  36.539  27.296  1.00  0.00     0.010 A 
ATOM     50  C   UNL A   1      46.829  35.479  25.792  1.00  0.00     0.010 A 
ATOM     51  C   UNL A   1      47.122  36.416  26.772  1.00  0.00    -0.014 A 
BRANCH  51  52
ATOM     52  C   UNL A   1      45.995  37.244  27.116  1.00  0.00     0.031 A 
ATOM     53  C   UNL A   1      46.031  38.627  26.618  1.00  0.00     0.074 A 
ATOM     54  C   UNL A   1      44.923  36.657  27.699  1.00  0.00     0.049 A 
ATOM     55  N   UNL A   1      45.514  39.626  27.234  1.00  0.00    -0.248 NA
ATOM     56  C   UNL A   1      46.730  39.008  25.384  1.00  0.00     0.031 C 
ATOM     57  C   UNL A   1      43.584  37.199  27.896  1.00  0.00     0.029 A 
ATOM     58  N   UNL A   1      44.867  35.437  28.382  1.00  0.00    -0.354 N 
ATOM     59  C   UNL A   1      45.474  40.656  26.322  1.00  0.00     0.074 A 
ATOM     60  C   UNL A   1      46.380  40.291  25.263  1.00  0.00     0.031 C 
ATOM     61  C   UNL A   1      42.987  36.516  28.892  1.00  0.00     0.029 A 
ATOM     62  C   UNL A   1      43.994  35.632  29.462  1.00  0.00     0.049 A 
ATOM     63  H   UNL A   1      45.345  34.608  28.151  1.00  0.00     0.167 HD
ATOM     64  C   UNL A   1      44.497  41.593  26.437  1.00  0.00     0.031 A 
ATOM     65  C   UNL A   1      44.402  35.652  30.770  1.00  0.00     0.031 A 
ATOM     66  C   UNL A   1      43.610  41.266  27.548  1.00  0.00     0.049 A 
ATOM     67  C   UNL A   1      44.134  37.004  31.407  1.00  0.00     0.074 A 
ATOM     68  C   UNL A   1      42.394  40.603  27.583  1.00  0.00     0.029 A 
ATOM     69  N   UNL A   1      44.115  41.244  28.839  1.00  0.00    -0.354 N 
ATOM     70  N   UNL A   1      44.087  38.116  30.724  1.00  0.00    -0.248 NA
ATOM     71  C   UNL A   1      43.891  37.215  32.832  1.00  0.00     0.031 C 
ATOM     72  C   UNL A   1      42.190  40.143  28.909  1.00  0.00     0.029 A 
ATOM     73  C   UNL A   1      43.271  40.542  29.676  1.00  0.00     0.049 A 
ATOM     74  H   UNL A   1      44.956  41.670  29.120  1.00  0.00     0.167 HD
ATOM     75  C   UNL A   1      43.759  39.152  31.557  1.00  0.00     0.074 A 
ATOM     76  C   UNL A   1      43.670  38.543  32.871  1.00  0.00     0.031 C 
ATOM     77  C   UNL A   1      43.573  40.423  31.094  1.00  0.00     0.031 A 
BRANCH  64  78
ATOM     78  C   UNL A   1      44.146  42.573  25.354  1.00  0.00    -0.014 A 
ATOM     79  C   UNL A   1      44.886  43.765  25.247  1.00  0.00     0.009 A 
ATOM     80  C   UNL A   1      43.117  42.387  24.415  1.00  0.00     0.009 A 
ATOM     81  C   UNL A   1      44.586  44.743  24.295  1.00  0.00     0.001 A 
ATOM     82  C   UNL A   1      42.794  43.376  23.475  1.00  0.00     0.001 A 
ATOM     83  C   UNL A   1      43.528  44.555  23.416  1.00  0.00     0.000 A 
ENDBRANCH  64  78
BRANCH  65  84
ATOM     84  C   UNL A   1      45.620  34.831  31.040  1.00  0.00    -0.014 A 
ATOM     85  C   UNL A   1      46.863  35.486  31.099  1.00  0.00     0.009 A 
ATOM     86  C   UNL A   1      45.496  33.576  31.655  1.00  0.00     0.009 A 
ATOM     87  C   UNL A   1      47.888  34.996  31.917  1.00  0.00     0.001 A 
ATOM     88  C   UNL A   1      46.533  33.082  32.457  1.00  0.00     0.001 A 
ATOM     89  C   UNL A   1      47.701  33.821  32.637  1.00  0.00     0.000 A 
ENDBRANCH  65  84
BRANCH  77  90
ATOM     90  C   UNL A   1      43.569  41.686  31.921  1.00  0.00    -0.014 A 
ATOM     91  C   UNL A   1      44.696  42.216  32.555  1.00  0.00     0.009 A 
ATOM     92  C   UNL A   1      42.397  42.482  31.951  1.00  0.00     0.009 A 
ATOM     93  C   UNL A   1      44.644  43.447  33.223  1.00  0.00     0.001 A 
ATOM     94  C   UNL A   1      42.359  43.738  32.557  1.00  0.00     0.001 A 
ATOM     95  C   UNL A   1      43.483  44.213  33.211  1.00  0.00     0.000 A 
ENDBRANCH  77  90
ENDBRANCH  51  52
ENDBRANCH  43  46
ENDBRANCH  41  42
ENDBRANCH  40  41
ENDBRANCH  39  40
ENDBRANCH   1  39
TORSDOF 18
ENDMDL
