MODEL 1
REMARK VINA RESULT:     -10.7      0.000      0.000
REMARK SMILES C[C@@H]1[C@@H](C(=O)NCCCCNC(=O)c2ccc(-c3c4nc(c(-c5ccccc5)c5ccc([nH]5)c(-c5ccccc5)c5nc(c(-c6ccccc6)c6ccc3[nH]6)C=C5)C=C4)cc2)CCN1C(=O)CN1C(=O)CNC1=O
REMARK SMILES IDX 8 1 7 2 6 3 4 4 5 5 3 7 1 8 2 9 64 10 62 11 63 12 65 13
REMARK SMILES IDX 66 14 67 15 68 16 69 17 73 18 70 19 71 20 72 21 74 22 9 24
REMARK SMILES IDX 10 25 11 26 12 27 13 29 14 30 15 31 61 32 16 33 60 34 17 35
REMARK SMILES IDX 18 36 19 37 54 38 20 39 59 40 53 41 55 42 21 43 58 44 52 45
REMARK SMILES IDX 51 46 22 48 44 49 29 50 43 51 30 52 33 53 42 54 56 55 31 56
REMARK SMILES IDX 32 57 41 59 57 60 34 61 23 62 24 63 28 64 25 65 27 66 26 67
REMARK SMILES IDX 45 68 46 69 50 70 47 71 49 72 48 73 35 74 36 75 40 76 37 77
REMARK SMILES IDX 39 78 38 79
REMARK H PARENT 6 6 72 23 11 28 55 47 33 58
REMARK Flexibility Score: inf
ROOT
ATOM      1  C   UNL A   1      33.237  29.042  24.611  1.00  0.00     0.023 C 
ENDROOT
BRANCH   1   2
ATOM      2  C   UNL A   1      32.275  29.002  23.428  1.00  0.00     0.116 C 
BRANCH   2   3
ATOM      3  N   UNL A   1      32.755  28.155  22.359  1.00  0.00    -0.356 N 
ATOM      4  C   UNL A   1      32.953  26.809  22.335  1.00  0.00     0.225 C 
ATOM      5  O   UNL A   1      33.709  26.387  21.455  1.00  0.00    -0.275 OA
ATOM      6  H   UNL A   1      32.970  28.624  21.520  1.00  0.00     0.163 HD
BRANCH   4   7
ATOM      7  C   UNL A   1      32.433  25.900  23.451  1.00  0.00     0.102 C 
ATOM      8  C   UNL A   1      33.384  25.060  25.647  1.00  0.00     0.032 C 
ATOM      9  C   UNL A   1      33.612  25.164  24.138  1.00  0.00     0.094 C 
ATOM     10  N   UNL A   1      33.634  23.830  23.507  1.00  0.00    -0.338 N 
ATOM     11  C   UNL A   1      31.507  24.736  23.079  1.00  0.00     0.037 C 
ATOM     12  C   UNL A   1      32.440  23.595  22.730  1.00  0.00     0.121 C 
BRANCH  10  13
ATOM     13  C   UNL A   1      34.708  22.968  23.336  1.00  0.00     0.243 C 
ATOM     14  O   UNL A   1      35.734  23.317  22.747  1.00  0.00    -0.273 OA
BRANCH  13  15
ATOM     15  C   UNL A   1      34.616  21.591  23.978  1.00  0.00     0.230 C 
BRANCH  15  16
ATOM     16  N   UNL A   1      34.545  21.582  25.425  1.00  0.00    -0.253 N 
ATOM     17  C   UNL A   1      33.369  21.380  26.092  1.00  0.00     0.250 C 
ATOM     18  C   UNL A   1      35.492  22.058  26.283  1.00  0.00     0.325 C 
ATOM     19  O   UNL A   1      32.317  20.983  25.608  1.00  0.00    -0.272 OA
ATOM     20  C   UNL A   1      33.552  21.786  27.543  1.00  0.00     0.218 C 
ATOM     21  N   UNL A   1      34.917  22.211  27.524  1.00  0.00    -0.329 N 
ATOM     22  O   UNL A   1      36.660  22.306  26.060  1.00  0.00    -0.248 OA
ATOM     23  H   UNL A   1      35.392  22.570  28.308  1.00  0.00     0.165 HD
ENDBRANCH  15  16
ENDBRANCH  13  15
ENDBRANCH  10  13
ENDBRANCH   4   7
ENDBRANCH   2   3
ENDBRANCH   1   2
BRANCH   1  24
ATOM     24  C   UNL A   1      32.655  28.574  25.947  1.00  0.00     0.023 C 
BRANCH  24  25
ATOM     25  C   UNL A   1      33.560  28.763  27.160  1.00  0.00     0.116 C 
BRANCH  25  26
ATOM     26  N   UNL A   1      33.578  30.134  27.647  1.00  0.00    -0.352 N 
ATOM     27  C   UNL A   1      34.563  30.826  28.310  1.00  0.00     0.251 C 
ATOM     28  H   UNL A   1      32.755  30.647  27.476  1.00  0.00     0.163 HD
ATOM     29  O   UNL A   1      34.324  31.939  28.771  1.00  0.00    -0.269 OA
BRANCH  27  30
ATOM     30  C   UNL A   1      35.901  30.227  28.497  1.00  0.00     0.039 A 
ATOM     31  C   UNL A   1      36.813  30.266  27.437  1.00  0.00     0.014 A 
ATOM     32  C   UNL A   1      36.260  29.624  29.704  1.00  0.00     0.014 A 
ATOM     33  C   UNL A   1      38.106  29.769  27.615  1.00  0.00     0.010 A 
ATOM     34  C   UNL A   1      37.573  29.209  29.907  1.00  0.00     0.010 A 
ATOM     35  C   UNL A   1      38.509  29.272  28.865  1.00  0.00    -0.014 A 
BRANCH  35  36
ATOM     36  C   UNL A   1      39.899  28.804  29.103  1.00  0.00     0.031 A 
ATOM     37  C   UNL A   1      40.912  29.730  29.717  1.00  0.00     0.074 A 
ATOM     38  C   UNL A   1      40.270  27.571  28.705  1.00  0.00     0.049 A 
ATOM     39  N   UNL A   1      42.188  29.534  29.934  1.00  0.00    -0.248 NA
ATOM     40  C   UNL A   1      40.435  31.065  30.113  1.00  0.00     0.031 C 
ATOM     41  C   UNL A   1      39.397  26.586  28.063  1.00  0.00     0.029 A 
ATOM     42  N   UNL A   1      41.487  26.940  28.777  1.00  0.00    -0.354 N 
ATOM     43  C   UNL A   1      42.667  30.724  30.468  1.00  0.00     0.074 A 
ATOM     44  C   UNL A   1      41.559  31.653  30.493  1.00  0.00     0.031 C 
ATOM     45  C   UNL A   1      40.099  25.465  27.827  1.00  0.00     0.029 A 
ATOM     46  C   UNL A   1      41.478  25.666  28.260  1.00  0.00     0.049 A 
ATOM     47  H   UNL A   1      42.290  27.359  29.161  1.00  0.00     0.167 HD
ATOM     48  C   UNL A   1      43.912  31.013  30.919  1.00  0.00     0.031 A 
ATOM     49  C   UNL A   1      42.469  24.762  28.145  1.00  0.00     0.031 A 
ATOM     50  C   UNL A   1      45.012  30.088  30.908  1.00  0.00     0.049 A 
ATOM     51  C   UNL A   1      43.844  25.110  28.641  1.00  0.00     0.074 A 
ATOM     52  C   UNL A   1      46.298  30.269  31.388  1.00  0.00     0.029 A 
ATOM     53  N   UNL A   1      44.956  28.803  30.387  1.00  0.00    -0.354 N 
ATOM     54  N   UNL A   1      44.265  26.218  29.200  1.00  0.00    -0.248 NA
ATOM     55  C   UNL A   1      44.877  24.074  28.503  1.00  0.00     0.031 C 
ATOM     56  C   UNL A   1      47.033  29.112  31.116  1.00  0.00     0.029 A 
ATOM     57  C   UNL A   1      46.190  28.188  30.519  1.00  0.00     0.049 A 
ATOM     58  H   UNL A   1      44.159  28.391  29.984  1.00  0.00     0.167 HD
ATOM     59  C   UNL A   1      45.602  26.001  29.511  1.00  0.00     0.074 A 
ATOM     60  C   UNL A   1      45.917  24.652  29.090  1.00  0.00     0.031 C 
ATOM     61  C   UNL A   1      46.488  26.843  30.099  1.00  0.00     0.031 A 
BRANCH  48  62
ATOM     62  C   UNL A   1      44.144  32.399  31.456  1.00  0.00    -0.014 A 
ATOM     63  C   UNL A   1      44.551  33.448  30.614  1.00  0.00     0.009 A 
ATOM     64  C   UNL A   1      43.935  32.665  32.817  1.00  0.00     0.009 A 
ATOM     65  C   UNL A   1      44.787  34.721  31.134  1.00  0.00     0.001 A 
ATOM     66  C   UNL A   1      44.140  33.949  33.328  1.00  0.00     0.001 A 
ATOM     67  C   UNL A   1      44.577  34.972  32.489  1.00  0.00     0.000 A 
ENDBRANCH  48  62
BRANCH  49  68
ATOM     68  C   UNL A   1      42.193  23.426  27.554  1.00  0.00    -0.014 A 
ATOM     69  C   UNL A   1      42.511  23.165  26.212  1.00  0.00     0.009 A 
ATOM     70  C   UNL A   1      41.605  22.410  28.321  1.00  0.00     0.009 A 
ATOM     71  C   UNL A   1      42.222  21.923  25.643  1.00  0.00     0.001 A 
ATOM     72  C   UNL A   1      41.343  21.159  27.758  1.00  0.00     0.001 A 
ATOM     73  C   UNL A   1      41.642  20.920  26.418  1.00  0.00     0.000 A 
ENDBRANCH  49  68
BRANCH  61  74
ATOM     74  C   UNL A   1      47.868  26.313  30.365  1.00  0.00    -0.014 A 
ATOM     75  C   UNL A   1      48.876  26.365  29.389  1.00  0.00     0.009 A 
ATOM     76  C   UNL A   1      48.174  25.789  31.631  1.00  0.00     0.009 A 
ATOM     77  C   UNL A   1      50.151  25.869  29.665  1.00  0.00     0.001 A 
ATOM     78  C   UNL A   1      49.458  25.323  31.914  1.00  0.00     0.001 A 
ATOM     79  C   UNL A   1      50.443  25.355  30.928  1.00  0.00     0.000 A 
ENDBRANCH  61  74
ENDBRANCH  35  36
ENDBRANCH  27  30
ENDBRANCH  25  26
ENDBRANCH  24  25
ENDBRANCH   1  24
TORSDOF 14
ENDMDL
MODEL 2
REMARK VINA RESULT:     -10.6      3.343      4.824
REMARK SMILES C[C@@H]1[C@@H](C(=O)NCCCCNC(=O)c2ccc(-c3c4nc(c(-c5ccccc5)c5ccc([nH]5)c(-c5ccccc5)c5nc(c(-c6ccccc6)c6ccc3[nH]6)C=C5)C=C4)cc2)CCN1C(=O)CN1C(=O)CNC1=O
REMARK SMILES IDX 8 1 7 2 6 3 4 4 5 5 3 7 1 8 2 9 64 10 62 11 63 12 65 13
REMARK SMILES IDX 66 14 67 15 68 16 69 17 73 18 70 19 71 20 72 21 74 22 9 24
REMARK SMILES IDX 10 25 11 26 12 27 13 29 14 30 15 31 61 32 16 33 60 34 17 35
REMARK SMILES IDX 18 36 19 37 54 38 20 39 59 40 53 41 55 42 21 43 58 44 52 45
REMARK SMILES IDX 51 46 22 48 44 49 29 50 43 51 30 52 33 53 42 54 56 55 31 56
REMARK SMILES IDX 32 57 41 59 57 60 34 61 23 62 24 63 28 64 25 65 27 66 26 67
REMARK SMILES IDX 45 68 46 69 50 70 47 71 49 72 48 73 35 74 36 75 40 76 37 77
REMARK SMILES IDX 39 78 38 79
REMARK H PARENT 6 6 72 23 11 28 55 47 33 58
REMARK Flexibility Score: inf
ROOT
ATOM      1  C   UNL A   1      31.413  30.751  26.050  1.00  0.00     0.023 C 
ENDROOT
BRANCH   1   2
ATOM      2  C   UNL A   1      32.299  29.857  26.912  1.00  0.00     0.116 C 
BRANCH   2   3
ATOM      3  N   UNL A   1      31.656  28.605  27.245  1.00  0.00    -0.356 N 
ATOM      4  C   UNL A   1      31.637  27.428  26.564  1.00  0.00     0.225 C 
ATOM      5  O   UNL A   1      30.728  26.645  26.859  1.00  0.00    -0.275 OA
ATOM      6  H   UNL A   1      31.157  28.606  28.094  1.00  0.00     0.163 HD
BRANCH   4   7
ATOM      7  C   UNL A   1      32.561  27.173  25.371  1.00  0.00     0.102 C 
ATOM      8  C   UNL A   1      32.208  26.381  22.988  1.00  0.00     0.032 C 
ATOM      9  C   UNL A   1      31.974  26.060  24.465  1.00  0.00     0.094 C 
ATOM     10  N   UNL A   1      32.694  24.837  24.867  1.00  0.00    -0.338 N 
ATOM     11  C   UNL A   1      33.977  26.650  25.637  1.00  0.00     0.037 C 
ATOM     12  C   UNL A   1      33.828  25.145  25.706  1.00  0.00     0.121 C 
BRANCH  10  13
ATOM     13  C   UNL A   1      32.272  23.517  24.794  1.00  0.00     0.243 C 
ATOM     14  O   UNL A   1      31.149  23.171  25.168  1.00  0.00    -0.273 OA
BRANCH  13  15
ATOM     15  C   UNL A   1      33.215  22.510  24.150  1.00  0.00     0.230 C 
BRANCH  15  16
ATOM     16  N   UNL A   1      33.289  21.219  24.804  1.00  0.00    -0.253 N 
ATOM     17  C   UNL A   1      32.654  20.116  24.304  1.00  0.00     0.250 C 
ATOM     18  C   UNL A   1      33.691  20.985  26.086  1.00  0.00     0.325 C 
ATOM     19  O   UNL A   1      32.152  20.007  23.193  1.00  0.00    -0.272 OA
ATOM     20  C   UNL A   1      32.615  19.044  25.378  1.00  0.00     0.218 C 
ATOM     21  N   UNL A   1      33.278  19.723  26.448  1.00  0.00    -0.329 N 
ATOM     22  O   UNL A   1      34.323  21.712  26.825  1.00  0.00    -0.248 OA
ATOM     23  H   UNL A   1      33.424  19.333  27.339  1.00  0.00     0.165 HD
ENDBRANCH  15  16
ENDBRANCH  13  15
ENDBRANCH  10  13
ENDBRANCH   4   7
ENDBRANCH   2   3
ENDBRANCH   1   2
BRANCH   1  24
ATOM     24  C   UNL A   1      31.281  32.200  26.526  1.00  0.00     0.023 C 
BRANCH  24  25
ATOM     25  C   UNL A   1      32.541  32.811  27.129  1.00  0.00     0.116 C 
BRANCH  25  26
ATOM     26  N   UNL A   1      32.335  34.163  27.626  1.00  0.00    -0.352 N 
ATOM     27  C   UNL A   1      32.984  34.849  28.624  1.00  0.00     0.251 C 
ATOM     28  H   UNL A   1      31.618  34.666  27.176  1.00  0.00     0.163 HD
ATOM     29  O   UNL A   1      32.556  35.939  28.994  1.00  0.00    -0.269 OA
BRANCH  27  30
ATOM     30  C   UNL A   1      34.177  34.270  29.276  1.00  0.00     0.039 A 
ATOM     31  C   UNL A   1      34.008  33.481  30.418  1.00  0.00     0.014 A 
ATOM     32  C   UNL A   1      35.458  34.504  28.773  1.00  0.00     0.014 A 
ATOM     33  C   UNL A   1      35.114  32.866  31.008  1.00  0.00     0.010 A 
ATOM     34  C   UNL A   1      36.548  33.822  29.308  1.00  0.00     0.010 A 
ATOM     35  C   UNL A   1      36.389  33.000  30.434  1.00  0.00    -0.014 A 
BRANCH  35  36
ATOM     36  C   UNL A   1      37.572  32.299  30.998  1.00  0.00     0.031 A 
ATOM     37  C   UNL A   1      38.229  32.815  32.249  1.00  0.00     0.074 A 
ATOM     38  C   UNL A   1      38.098  31.241  30.351  1.00  0.00     0.049 A 
ATOM     39  N   UNL A   1      39.310  32.389  32.851  1.00  0.00    -0.248 NA
ATOM     40  C   UNL A   1      37.604  33.983  32.892  1.00  0.00     0.031 C 
ATOM     41  C   UNL A   1      37.582  30.661  29.108  1.00  0.00     0.029 A 
ATOM     42  N   UNL A   1      39.193  30.469  30.647  1.00  0.00    -0.354 N 
ATOM     43  C   UNL A   1      39.506  33.248  33.926  1.00  0.00     0.074 A 
ATOM     44  C   UNL A   1      38.464  34.249  33.863  1.00  0.00     0.031 C 
ATOM     45  C   UNL A   1      38.342  29.608  28.767  1.00  0.00     0.029 A 
ATOM     46  C   UNL A   1      39.421  29.464  29.738  1.00  0.00     0.049 A 
ATOM     47  H   UNL A   1      39.762  30.620  31.436  1.00  0.00     0.167 HD
ATOM     48  C   UNL A   1      40.453  33.198  34.893  1.00  0.00     0.031 A 
ATOM     49  C   UNL A   1      40.392  28.532  29.689  1.00  0.00     0.031 A 
ATOM     50  C   UNL A   1      41.482  32.196  34.967  1.00  0.00     0.049 A 
ATOM     51  C   UNL A   1      41.440  28.503  30.767  1.00  0.00     0.074 A 
ATOM     52  C   UNL A   1      42.457  32.029  35.935  1.00  0.00     0.029 A 
ATOM     53  N   UNL A   1      41.669  31.188  34.032  1.00  0.00    -0.354 N 
ATOM     54  N   UNL A   1      41.574  29.285  31.810  1.00  0.00    -0.248 NA
ATOM     55  C   UNL A   1      42.461  27.451  30.666  1.00  0.00     0.031 C 
ATOM     56  C   UNL A   1      43.264  30.950  35.562  1.00  0.00     0.029 A 
ATOM     57  C   UNL A   1      42.755  30.408  34.392  1.00  0.00     0.049 A 
ATOM     58  H   UNL A   1      41.113  31.049  33.232  1.00  0.00     0.167 HD
ATOM     59  C   UNL A   1      42.673  28.800  32.508  1.00  0.00     0.074 A 
ATOM     60  C   UNL A   1      43.160  27.649  31.776  1.00  0.00     0.031 C 
ATOM     61  C   UNL A   1      43.226  29.263  33.656  1.00  0.00     0.031 A 
BRANCH  48  62
ATOM     62  C   UNL A   1      40.419  34.270  35.947  1.00  0.00    -0.014 A 
ATOM     63  C   UNL A   1      41.117  35.478  35.780  1.00  0.00     0.009 A 
ATOM     64  C   UNL A   1      39.663  34.080  37.114  1.00  0.00     0.009 A 
ATOM     65  C   UNL A   1      41.094  36.452  36.780  1.00  0.00     0.001 A 
ATOM     66  C   UNL A   1      39.616  35.070  38.098  1.00  0.00     0.001 A 
ATOM     67  C   UNL A   1      40.341  36.250  37.936  1.00  0.00     0.000 A 
ENDBRANCH  48  62
BRANCH  49  68
ATOM     68  C   UNL A   1      40.408  27.530  28.591  1.00  0.00    -0.014 A 
ATOM     69  C   UNL A   1      41.092  27.800  27.395  1.00  0.00     0.009 A 
ATOM     70  C   UNL A   1      39.736  26.306  28.726  1.00  0.00     0.009 A 
ATOM     71  C   UNL A   1      41.080  26.876  26.348  1.00  0.00     0.001 A 
ATOM     72  C   UNL A   1      39.750  25.372  27.689  1.00  0.00     0.001 A 
ATOM     73  C   UNL A   1      40.413  25.661  26.497  1.00  0.00     0.000 A 
ENDBRANCH  49  68
BRANCH  61  74
ATOM     74  C   UNL A   1      44.390  28.496  34.218  1.00  0.00    -0.014 A 
ATOM     75  C   UNL A   1      44.204  27.416  35.094  1.00  0.00     0.009 A 
ATOM     76  C   UNL A   1      45.694  28.839  33.828  1.00  0.00     0.009 A 
ATOM     77  C   UNL A   1      45.304  26.719  35.598  1.00  0.00     0.001 A 
ATOM     78  C   UNL A   1      46.790  28.121  34.308  1.00  0.00     0.001 A 
ATOM     79  C   UNL A   1      46.594  27.068  35.200  1.00  0.00     0.000 A 
ENDBRANCH  61  74
ENDBRANCH  35  36
ENDBRANCH  27  30
ENDBRANCH  25  26
ENDBRANCH  24  25
ENDBRANCH   1  24
TORSDOF 14
ENDMDL
MODEL 3
REMARK VINA RESULT:     -10.5      2.855      7.209
REMARK SMILES C[C@@H]1[C@@H](C(=O)NCCCCNC(=O)c2ccc(-c3c4nc(c(-c5ccccc5)c5ccc([nH]5)c(-c5ccccc5)c5nc(c(-c6ccccc6)c6ccc3[nH]6)C=C5)C=C4)cc2)CCN1C(=O)CN1C(=O)CNC1=O
REMARK SMILES IDX 8 1 7 2 6 3 4 4 5 5 3 7 1 8 2 9 64 10 62 11 63 12 65 13
REMARK SMILES IDX 66 14 67 15 68 16 69 17 73 18 70 19 71 20 72 21 74 22 9 24
REMARK SMILES IDX 10 25 11 26 12 27 13 29 14 30 15 31 61 32 16 33 60 34 17 35
REMARK SMILES IDX 18 36 19 37 54 38 20 39 59 40 53 41 55 42 21 43 58 44 52 45
REMARK SMILES IDX 51 46 22 48 44 49 29 50 43 51 30 52 33 53 42 54 56 55 31 56
REMARK SMILES IDX 32 57 41 59 57 60 34 61 23 62 24 63 28 64 25 65 27 66 26 67
REMARK SMILES IDX 45 68 46 69 50 70 47 71 49 72 48 73 35 74 36 75 40 76 37 77
REMARK SMILES IDX 39 78 38 79
REMARK H PARENT 6 6 72 23 11 28 55 47 33 58
REMARK Flexibility Score: inf
ROOT
ATOM      1  C   UNL A   1      31.740  30.098  26.128  1.00  0.00     0.023 C 
ENDROOT
BRANCH   1   2
ATOM      2  C   UNL A   1      32.232  29.189  27.249  1.00  0.00     0.116 C 
BRANCH   2   3
ATOM      3  N   UNL A   1      31.421  28.000  27.389  1.00  0.00    -0.356 N 
ATOM      4  C   UNL A   1      31.315  26.917  26.573  1.00  0.00     0.225 C 
ATOM      5  O   UNL A   1      30.300  26.228  26.713  1.00  0.00    -0.275 OA
ATOM      6  H   UNL A   1      30.861  27.970  28.198  1.00  0.00     0.163 HD
BRANCH   4   7
ATOM      7  C   UNL A   1      32.293  26.681  25.419  1.00  0.00     0.102 C 
ATOM      8  C   UNL A   1      32.052  25.910  23.015  1.00  0.00     0.032 C 
ATOM      9  C   UNL A   1      31.755  25.572  24.477  1.00  0.00     0.094 C 
ATOM     10  N   UNL A   1      32.465  24.350  24.899  1.00  0.00    -0.338 N 
ATOM     11  C   UNL A   1      33.700  26.164  25.743  1.00  0.00     0.037 C 
ATOM     12  C   UNL A   1      33.558  24.657  25.791  1.00  0.00     0.121 C 
BRANCH  10  13
ATOM     13  C   UNL A   1      32.056  23.028  24.794  1.00  0.00     0.243 C 
ATOM     14  O   UNL A   1      31.057  22.608  25.384  1.00  0.00    -0.273 OA
BRANCH  13  15
ATOM     15  C   UNL A   1      32.834  22.122  23.851  1.00  0.00     0.230 C 
BRANCH  15  16
ATOM     16  N   UNL A   1      33.674  21.131  24.491  1.00  0.00    -0.253 N 
ATOM     17  C   UNL A   1      35.029  21.283  24.589  1.00  0.00     0.250 C 
ATOM     18  C   UNL A   1      33.327  19.844  24.781  1.00  0.00     0.325 C 
ATOM     19  O   UNL A   1      35.664  22.305  24.368  1.00  0.00    -0.272 OA
ATOM     20  C   UNL A   1      35.647  19.947  24.964  1.00  0.00     0.218 C 
ATOM     21  N   UNL A   1      34.476  19.129  25.033  1.00  0.00    -0.329 N 
ATOM     22  O   UNL A   1      32.217  19.355  24.843  1.00  0.00    -0.248 OA
ATOM     23  H   UNL A   1      34.490  18.167  25.238  1.00  0.00     0.165 HD
ENDBRANCH  15  16
ENDBRANCH  13  15
ENDBRANCH  10  13
ENDBRANCH   4   7
ENDBRANCH   2   3
ENDBRANCH   1   2
BRANCH   1  24
ATOM     24  C   UNL A   1      31.572  31.572  26.503  1.00  0.00     0.023 C 
BRANCH  24  25
ATOM     25  C   UNL A   1      32.774  32.218  27.184  1.00  0.00     0.116 C 
BRANCH  25  26
ATOM     26  N   UNL A   1      32.523  33.591  27.597  1.00  0.00    -0.352 N 
ATOM     27  C   UNL A   1      33.211  34.391  28.477  1.00  0.00     0.251 C 
ATOM     28  H   UNL A   1      31.737  34.013  27.181  1.00  0.00     0.163 HD
ATOM     29  O   UNL A   1      32.746  35.480  28.804  1.00  0.00    -0.269 OA
BRANCH  27  30
ATOM     30  C   UNL A   1      34.493  33.938  29.055  1.00  0.00     0.039 A 
ATOM     31  C   UNL A   1      34.473  33.144  30.206  1.00  0.00     0.014 A 
ATOM     32  C   UNL A   1      35.712  34.293  28.474  1.00  0.00     0.014 A 
ATOM     33  C   UNL A   1      35.669  32.646  30.728  1.00  0.00     0.010 A 
ATOM     34  C   UNL A   1      36.894  33.727  28.942  1.00  0.00     0.010 A 
ATOM     35  C   UNL A   1      36.887  32.901  30.077  1.00  0.00    -0.014 A 
BRANCH  35  36
ATOM     36  C   UNL A   1      38.165  32.325  30.568  1.00  0.00     0.031 A 
ATOM     37  C   UNL A   1      38.686  31.039  29.988  1.00  0.00     0.074 A 
ATOM     38  C   UNL A   1      38.825  32.920  31.581  1.00  0.00     0.049 A 
ATOM     39  N   UNL A   1      39.737  30.341  30.334  1.00  0.00    -0.248 NA
ATOM     40  C   UNL A   1      37.903  30.442  28.892  1.00  0.00     0.031 C 
ATOM     41  C   UNL A   1      38.412  34.151  32.259  1.00  0.00     0.029 A 
ATOM     42  N   UNL A   1      39.983  32.560  32.224  1.00  0.00    -0.354 N 
ATOM     43  C   UNL A   1      39.729  29.216  29.517  1.00  0.00     0.074 A 
ATOM     44  C   UNL A   1      38.541  29.298  28.697  1.00  0.00     0.031 C 
ATOM     45  C   UNL A   1      39.318  34.459  33.201  1.00  0.00     0.029 A 
ATOM     46  C   UNL A   1      40.350  33.428  33.225  1.00  0.00     0.049 A 
ATOM     47  H   UNL A   1      40.502  31.757  31.992  1.00  0.00     0.167 HD
ATOM     48  C   UNL A   1      40.638  28.215  29.440  1.00  0.00     0.031 A 
ATOM     49  C   UNL A   1      41.399  33.397  34.068  1.00  0.00     0.031 A 
ATOM     50  C   UNL A   1      41.828  28.137  30.245  1.00  0.00     0.049 A 
ATOM     51  C   UNL A   1      42.389  32.270  33.971  1.00  0.00     0.074 A 
ATOM     52  C   UNL A   1      42.836  27.190  30.206  1.00  0.00     0.029 A 
ATOM     53  N   UNL A   1      42.167  29.045  31.237  1.00  0.00    -0.354 N 
ATOM     54  N   UNL A   1      42.399  31.247  33.152  1.00  0.00    -0.248 NA
ATOM     55  C   UNL A   1      43.521  32.303  34.908  1.00  0.00     0.031 C 
ATOM     56  C   UNL A   1      43.763  27.498  31.207  1.00  0.00     0.029 A 
ATOM     57  C   UNL A   1      43.362  28.669  31.830  1.00  0.00     0.049 A 
ATOM     58  H   UNL A   1      41.639  29.837  31.484  1.00  0.00     0.167 HD
ATOM     59  C   UNL A   1      43.553  30.534  33.451  1.00  0.00     0.074 A 
ATOM     60  C   UNL A   1      44.223  31.248  34.517  1.00  0.00     0.031 C 
ATOM     61  C   UNL A   1      44.020  29.392  32.888  1.00  0.00     0.031 A 
BRANCH  48  62
ATOM     62  C   UNL A   1      40.370  27.116  28.448  1.00  0.00    -0.014 A 
ATOM     63  C   UNL A   1      39.589  26.000  28.792  1.00  0.00     0.009 A 
ATOM     64  C   UNL A   1      40.887  27.207  27.147  1.00  0.00     0.009 A 
ATOM     65  C   UNL A   1      39.371  24.977  27.867  1.00  0.00     0.001 A 
ATOM     66  C   UNL A   1      40.639  26.198  26.214  1.00  0.00     0.001 A 
ATOM     67  C   UNL A   1      39.892  25.079  26.578  1.00  0.00     0.000 A 
ENDBRANCH  48  62
BRANCH  49  68
ATOM     68  C   UNL A   1      41.584  34.483  35.067  1.00  0.00    -0.014 A 
ATOM     69  C   UNL A   1      41.056  34.353  36.361  1.00  0.00     0.009 A 
ATOM     70  C   UNL A   1      42.279  35.655  34.733  1.00  0.00     0.009 A 
ATOM     71  C   UNL A   1      41.197  35.385  37.291  1.00  0.00     0.001 A 
ATOM     72  C   UNL A   1      42.444  36.673  35.674  1.00  0.00     0.001 A 
ATOM     73  C   UNL A   1      41.895  36.542  36.948  1.00  0.00     0.000 A 
ENDBRANCH  49  68
BRANCH  61  74
ATOM     74  C   UNL A   1      45.340  28.871  33.380  1.00  0.00    -0.014 A 
ATOM     75  C   UNL A   1      46.553  29.289  32.812  1.00  0.00     0.009 A 
ATOM     76  C   UNL A   1      45.367  27.974  34.461  1.00  0.00     0.009 A 
ATOM     77  C   UNL A   1      47.765  28.791  33.293  1.00  0.00     0.001 A 
ATOM     78  C   UNL A   1      46.582  27.502  34.959  1.00  0.00     0.001 A 
ATOM     79  C   UNL A   1      47.779  27.903  34.369  1.00  0.00     0.000 A 
ENDBRANCH  61  74
ENDBRANCH  35  36
ENDBRANCH  27  30
ENDBRANCH  25  26
ENDBRANCH  24  25
ENDBRANCH   1  24
TORSDOF 14
ENDMDL
