MODEL 1
REMARK VINA RESULT:     -11.2      0.000      0.000
REMARK SMILES Cc1nc(C(=O)N[C@H](CCC(N)=O)C(=O)NCCCCNC(=O)c2ccc(-c3c4nc(c(-c5ccccc5)c5ccc([nH]5)c(-c5ccccc5)c5nc(c(-c6ccccc6)c6ccc3[nH]6)C=C5)C=C4)cc2)ccc1C#N
REMARK SMILES IDX 18 1 17 2 16 3 14 4 15 5 8 7 7 8 5 9 6 10 4 12 1 13 2 14
REMARK SMILES IDX 3 15 74 16 73 17 72 18 75 19 76 20 9 21 10 22 11 23 12 24
REMARK SMILES IDX 13 25 19 28 20 29 21 30 22 31 23 33 24 34 25 35 71 36 26 37
REMARK SMILES IDX 70 38 27 39 28 40 29 41 64 42 30 43 69 44 63 45 65 46 31 47
REMARK SMILES IDX 68 48 62 49 61 50 32 52 54 53 39 54 53 55 40 56 43 57 52 58
REMARK SMILES IDX 66 59 41 60 42 61 51 63 67 64 44 65 33 66 34 67 38 68 35 69
REMARK SMILES IDX 37 70 36 71 55 72 56 73 60 74 57 75 59 76 58 77 45 78 46 79
REMARK SMILES IDX 50 80 47 81 49 82 48 83
REMARK H PARENT 16 6 7 11 12 26 12 27 21 32 65 51 43 62
REMARK Flexibility Score: inf
ROOT
ATOM      1  C   UNL A   1      36.979  22.155  24.355  1.00  0.00     0.023 C 
ENDROOT
BRANCH   1   2
ATOM      2  C   UNL A   1      36.077  23.031  25.201  1.00  0.00     0.116 C 
BRANCH   2   3
ATOM      3  N   UNL A   1      35.578  22.262  26.325  1.00  0.00    -0.354 N 
ATOM      4  C   UNL A   1      34.306  22.061  26.782  1.00  0.00     0.242 C 
ATOM      5  O   UNL A   1      34.235  21.671  27.956  1.00  0.00    -0.273 OA
ATOM      6  H   UNL A   1      36.276  21.804  26.847  1.00  0.00     0.163 HD
BRANCH   4   7
ATOM      7  C   UNL A   1      32.997  22.163  25.919  1.00  0.00     0.172 C 
BRANCH   7   8
ATOM      8  N   UNL A   1      31.656  22.202  26.531  1.00  0.00    -0.339 N 
ATOM      9  C   UNL A   1      30.669  23.157  26.658  1.00  0.00     0.270 C 
ATOM     10  O   UNL A   1      29.669  22.839  27.307  1.00  0.00    -0.267 OA
ATOM     11  H   UNL A   1      31.406  21.344  26.946  1.00  0.00     0.164 HD
BRANCH   9  12
ATOM     12  C   UNL A   1      30.690  24.499  25.973  1.00  0.00     0.128 A 
ATOM     13  C   UNL A   1      31.756  27.806  27.130  1.00  0.00     0.068 C 
ATOM     14  C   UNL A   1      31.320  26.755  26.145  1.00  0.00     0.056 A 
ATOM     15  N   UNL A   1      30.888  25.604  26.730  1.00  0.00    -0.247 NA
ATOM     16  C   UNL A   1      31.521  26.843  24.770  1.00  0.00     0.073 A 
ATOM     17  C   UNL A   1      31.209  25.726  23.983  1.00  0.00     0.024 A 
ATOM     18  C   UNL A   1      30.791  24.537  24.589  1.00  0.00     0.035 A 
BRANCH  16  19
ATOM     19  C   UNL A   1      32.141  27.986  24.168  1.00  0.00     0.101 C 
ATOM     20  N   UNL A   1      32.599  28.937  23.694  1.00  0.00    -0.192 NA
ENDBRANCH  16  19
ENDBRANCH   9  12
ENDBRANCH   7   8
BRANCH   7  21
ATOM     21  C   UNL A   1      33.042  21.260  24.657  1.00  0.00     0.045 C 
BRANCH  21  22
ATOM     22  C   UNL A   1      33.739  19.914  24.821  1.00  0.00     0.102 C 
BRANCH  22  23
ATOM     23  C   UNL A   1      32.794  18.846  25.301  1.00  0.00     0.217 C 
ATOM     24  N   UNL A   1      32.899  18.544  26.628  1.00  0.00    -0.370 N 
ATOM     25  O   UNL A   1      31.991  18.283  24.570  1.00  0.00    -0.275 OA
ATOM     26  H   UNL A   1      33.556  19.016  27.191  1.00  0.00     0.159 HD
ATOM     27  H   UNL A   1      32.318  17.855  27.023  1.00  0.00     0.159 HD
ENDBRANCH  22  23
ENDBRANCH  21  22
ENDBRANCH   7  21
ENDBRANCH   4   7
ENDBRANCH   2   3
ENDBRANCH   1   2
BRANCH   1  28
ATOM     28  C   UNL A   1      37.519  20.864  24.935  1.00  0.00     0.023 C 
BRANCH  28  29
ATOM     29  C   UNL A   1      38.790  21.077  25.727  1.00  0.00     0.116 C 
BRANCH  29  30
ATOM     30  N   UNL A   1      39.704  19.929  25.698  1.00  0.00    -0.352 N 
ATOM     31  C   UNL A   1      41.044  19.888  26.017  1.00  0.00     0.251 C 
ATOM     32  H   UNL A   1      39.308  19.075  25.413  1.00  0.00     0.163 HD
ATOM     33  O   UNL A   1      41.702  18.869  25.846  1.00  0.00    -0.269 OA
BRANCH  31  34
ATOM     34  C   UNL A   1      41.659  21.116  26.549  1.00  0.00     0.039 A 
ATOM     35  C   UNL A   1      42.099  22.115  25.680  1.00  0.00     0.014 A 
ATOM     36  C   UNL A   1      41.666  21.310  27.932  1.00  0.00     0.014 A 
ATOM     37  C   UNL A   1      42.474  23.352  26.205  1.00  0.00     0.010 A 
ATOM     38  C   UNL A   1      41.893  22.574  28.434  1.00  0.00     0.010 A 
ATOM     39  C   UNL A   1      42.338  23.592  27.581  1.00  0.00    -0.014 A 
BRANCH  39  40
ATOM     40  C   UNL A   1      42.773  24.849  28.218  1.00  0.00     0.031 A 
ATOM     41  C   UNL A   1      41.738  25.919  28.429  1.00  0.00     0.074 A 
ATOM     42  C   UNL A   1      44.068  25.066  28.500  1.00  0.00     0.049 A 
ATOM     43  N   UNL A   1      41.900  27.159  28.800  1.00  0.00    -0.248 NA
ATOM     44  C   UNL A   1      40.336  25.553  28.141  1.00  0.00     0.031 C 
ATOM     45  C   UNL A   1      45.155  24.103  28.315  1.00  0.00     0.029 A 
ATOM     46  N   UNL A   1      44.690  26.184  28.992  1.00  0.00    -0.354 N 
ATOM     47  C   UNL A   1      40.631  27.719  28.768  1.00  0.00     0.074 A 
ATOM     48  C   UNL A   1      39.720  26.716  28.277  1.00  0.00     0.031 C 
ATOM     49  C   UNL A   1      46.308  24.664  28.717  1.00  0.00     0.029 A 
ATOM     50  C   UNL A   1      46.047  26.038  29.141  1.00  0.00     0.049 A 
ATOM     51  H   UNL A   1      44.209  27.012  29.218  1.00  0.00     0.167 HD
ATOM     52  C   UNL A   1      40.254  28.957  29.153  1.00  0.00     0.031 A 
ATOM     53  C   UNL A   1      46.971  26.919  29.566  1.00  0.00     0.031 A 
ATOM     54  C   UNL A   1      41.160  29.934  29.677  1.00  0.00     0.049 A 
ATOM     55  C   UNL A   1      46.532  28.300  29.963  1.00  0.00     0.074 A 
ATOM     56  C   UNL A   1      40.873  31.202  30.146  1.00  0.00     0.029 A 
ATOM     57  N   UNL A   1      42.526  29.747  29.814  1.00  0.00    -0.354 N 
ATOM     58  N   UNL A   1      45.323  28.810  29.965  1.00  0.00    -0.248 NA
ATOM     59  C   UNL A   1      47.577  29.226  30.419  1.00  0.00     0.031 C 
ATOM     60  C   UNL A   1      42.075  31.804  30.516  1.00  0.00     0.029 A 
ATOM     61  C   UNL A   1      43.102  30.889  30.333  1.00  0.00     0.049 A 
ATOM     62  H   UNL A   1      43.012  28.924  29.577  1.00  0.00     0.167 HD
ATOM     63  C   UNL A   1      45.459  30.109  30.434  1.00  0.00     0.074 A 
ATOM     64  C   UNL A   1      46.865  30.303  30.724  1.00  0.00     0.031 C 
ATOM     65  C   UNL A   1      44.505  31.057  30.606  1.00  0.00     0.031 A 
BRANCH  52  66
ATOM     66  C   UNL A   1      38.801  29.312  29.051  1.00  0.00    -0.014 A 
ATOM     67  C   UNL A   1      38.246  29.723  27.829  1.00  0.00     0.009 A 
ATOM     68  C   UNL A   1      37.962  29.147  30.163  1.00  0.00     0.009 A 
ATOM     69  C   UNL A   1      36.875  29.959  27.722  1.00  0.00     0.001 A 
ATOM     70  C   UNL A   1      36.589  29.359  30.046  1.00  0.00     0.001 A 
ATOM     71  C   UNL A   1      36.047  29.764  28.826  1.00  0.00     0.000 A 
ENDBRANCH  52  66
BRANCH  53  72
ATOM     72  C   UNL A   1      48.391  26.494  29.670  1.00  0.00    -0.014 A 
ATOM     73  C   UNL A   1      49.278  26.744  28.614  1.00  0.00     0.009 A 
ATOM     74  C   UNL A   1      48.881  25.901  30.844  1.00  0.00     0.009 A 
ATOM     75  C   UNL A   1      50.631  26.414  28.733  1.00  0.00     0.001 A 
ATOM     76  C   UNL A   1      50.238  25.593  30.969  1.00  0.00     0.001 A 
ATOM     77  C   UNL A   1      51.110  25.849  29.913  1.00  0.00     0.000 A 
ENDBRANCH  53  72
BRANCH  65  78
ATOM     78  C   UNL A   1      44.939  32.396  31.129  1.00  0.00    -0.014 A 
ATOM     79  C   UNL A   1      44.980  32.646  32.508  1.00  0.00     0.009 A 
ATOM     80  C   UNL A   1      45.419  33.370  30.239  1.00  0.00     0.009 A 
ATOM     81  C   UNL A   1      45.481  33.858  32.986  1.00  0.00     0.001 A 
ATOM     82  C   UNL A   1      45.947  34.567  30.723  1.00  0.00     0.001 A 
ATOM     83  C   UNL A   1      45.972  34.812  32.094  1.00  0.00     0.000 A 
ENDBRANCH  65  78
ENDBRANCH  39  40
ENDBRANCH  31  34
ENDBRANCH  29  30
ENDBRANCH  28  29
ENDBRANCH   1  28
TORSDOF 17
ENDMDL
MODEL 2
REMARK VINA RESULT:     -11.2      3.587      8.815
REMARK SMILES Cc1nc(C(=O)N[C@H](CCC(N)=O)C(=O)NCCCCNC(=O)c2ccc(-c3c4nc(c(-c5ccccc5)c5ccc([nH]5)c(-c5ccccc5)c5nc(c(-c6ccccc6)c6ccc3[nH]6)C=C5)C=C4)cc2)ccc1C#N
REMARK SMILES IDX 18 1 17 2 16 3 14 4 15 5 8 7 7 8 5 9 6 10 4 12 1 13 2 14
REMARK SMILES IDX 3 15 74 16 73 17 72 18 75 19 76 20 9 21 10 22 11 23 12 24
REMARK SMILES IDX 13 25 19 28 20 29 21 30 22 31 23 33 24 34 25 35 71 36 26 37
REMARK SMILES IDX 70 38 27 39 28 40 29 41 64 42 30 43 69 44 63 45 65 46 31 47
REMARK SMILES IDX 68 48 62 49 61 50 32 52 54 53 39 54 53 55 40 56 43 57 52 58
REMARK SMILES IDX 66 59 41 60 42 61 51 63 67 64 44 65 33 66 34 67 38 68 35 69
REMARK SMILES IDX 37 70 36 71 55 72 56 73 60 74 57 75 59 76 58 77 45 78 46 79
REMARK SMILES IDX 50 80 47 81 49 82 48 83
REMARK H PARENT 16 6 7 11 12 26 12 27 21 32 65 51 43 62
REMARK Flexibility Score: inf
ROOT
ATOM      1  C   UNL A   1      32.142  29.140  26.981  1.00  0.00     0.023 C 
ENDROOT
BRANCH   1   2
ATOM      2  C   UNL A   1      33.138  28.333  26.172  1.00  0.00     0.116 C 
BRANCH   2   3
ATOM      3  N   UNL A   1      33.375  28.996  24.904  1.00  0.00    -0.354 N 
ATOM      4  C   UNL A   1      33.263  28.544  23.619  1.00  0.00     0.242 C 
ATOM      5  O   UNL A   1      33.882  29.214  22.780  1.00  0.00    -0.273 OA
ATOM      6  H   UNL A   1      33.666  29.934  24.982  1.00  0.00     0.163 HD
BRANCH   4   7
ATOM      7  C   UNL A   1      32.342  27.363  23.142  1.00  0.00     0.172 C 
BRANCH   7   8
ATOM      8  N   UNL A   1      32.469  26.764  21.801  1.00  0.00    -0.339 N 
ATOM      9  C   UNL A   1      32.854  25.531  21.316  1.00  0.00     0.270 C 
ATOM     10  O   UNL A   1      32.894  25.405  20.089  1.00  0.00    -0.267 OA
ATOM     11  H   UNL A   1      32.221  27.391  21.082  1.00  0.00     0.164 HD
BRANCH   9  12
ATOM     12  C   UNL A   1      33.114  24.322  22.177  1.00  0.00     0.128 A 
ATOM     13  C   UNL A   1      36.154  23.117  23.826  1.00  0.00     0.068 C 
ATOM     14  C   UNL A   1      34.685  23.186  23.502  1.00  0.00     0.056 A 
ATOM     15  N   UNL A   1      34.399  23.981  22.435  1.00  0.00    -0.247 NA
ATOM     16  C   UNL A   1      33.682  22.670  24.317  1.00  0.00     0.073 A 
ATOM     17  C   UNL A   1      32.349  22.940  23.977  1.00  0.00     0.024 A 
ATOM     18  C   UNL A   1      32.058  23.778  22.896  1.00  0.00     0.035 A 
BRANCH  16  19
ATOM     19  C   UNL A   1      33.978  21.984  25.540  1.00  0.00     0.101 C 
ATOM     20  N   UNL A   1      34.166  21.432  26.539  1.00  0.00    -0.192 NA
ENDBRANCH  16  19
ENDBRANCH   9  12
ENDBRANCH   7   8
BRANCH   7  21
ATOM     21  C   UNL A   1      30.860  27.556  23.563  1.00  0.00     0.045 C 
BRANCH  21  22
ATOM     22  C   UNL A   1      30.349  28.991  23.580  1.00  0.00     0.102 C 
BRANCH  22  23
ATOM     23  C   UNL A   1      29.943  29.460  22.209  1.00  0.00     0.217 C 
ATOM     24  N   UNL A   1      30.924  30.099  21.509  1.00  0.00    -0.370 N 
ATOM     25  O   UNL A   1      28.823  29.289  21.747  1.00  0.00    -0.275 OA
ATOM     26  H   UNL A   1      31.816  30.221  21.909  1.00  0.00     0.159 HD
ATOM     27  H   UNL A   1      30.741  30.439  20.604  1.00  0.00     0.159 HD
ENDBRANCH  22  23
ENDBRANCH  21  22
ENDBRANCH   7  21
ENDBRANCH   4   7
ENDBRANCH   2   3
ENDBRANCH   1   2
BRANCH   1  28
ATOM     28  C   UNL A   1      31.909  30.597  26.636  1.00  0.00     0.023 C 
BRANCH  28  29
ATOM     29  C   UNL A   1      32.993  31.497  27.185  1.00  0.00     0.116 C 
BRANCH  29  30
ATOM     30  N   UNL A   1      32.531  32.852  27.504  1.00  0.00    -0.352 N 
ATOM     31  C   UNL A   1      33.119  33.792  28.322  1.00  0.00     0.251 C 
ATOM     32  H   UNL A   1      31.689  33.128  27.076  1.00  0.00     0.163 HD
ATOM     33  O   UNL A   1      32.557  34.852  28.571  1.00  0.00    -0.269 OA
BRANCH  31  34
ATOM     34  C   UNL A   1      34.434  33.468  28.903  1.00  0.00     0.039 A 
ATOM     35  C   UNL A   1      34.518  32.743  30.093  1.00  0.00     0.014 A 
ATOM     36  C   UNL A   1      35.580  33.783  28.170  1.00  0.00     0.014 A 
ATOM     37  C   UNL A   1      35.759  32.261  30.506  1.00  0.00     0.010 A 
ATOM     38  C   UNL A   1      36.777  33.184  28.499  1.00  0.00     0.010 A 
ATOM     39  C   UNL A   1      36.885  32.453  29.690  1.00  0.00    -0.014 A 
BRANCH  39  40
ATOM     40  C   UNL A   1      38.240  32.031  30.088  1.00  0.00     0.031 A 
ATOM     41  C   UNL A   1      38.739  30.709  29.576  1.00  0.00     0.074 A 
ATOM     42  C   UNL A   1      38.958  32.755  30.963  1.00  0.00     0.049 A 
ATOM     43  N   UNL A   1      39.806  30.041  29.918  1.00  0.00    -0.248 NA
ATOM     44  C   UNL A   1      37.896  30.024  28.574  1.00  0.00     0.031 C 
ATOM     45  C   UNL A   1      38.559  34.041  31.536  1.00  0.00     0.029 A 
ATOM     46  N   UNL A   1      40.176  32.496  31.535  1.00  0.00    -0.354 N 
ATOM     47  C   UNL A   1      39.749  28.861  29.193  1.00  0.00     0.074 A 
ATOM     48  C   UNL A   1      38.515  28.862  28.446  1.00  0.00     0.031 C 
ATOM     49  C   UNL A   1      39.531  34.473  32.358  1.00  0.00     0.029 A 
ATOM     50  C   UNL A   1      40.595  33.472  32.404  1.00  0.00     0.049 A 
ATOM     51  H   UNL A   1      40.702  31.687  31.339  1.00  0.00     0.167 HD
ATOM     52  C   UNL A   1      40.668  27.875  29.127  1.00  0.00     0.031 A 
ATOM     53  C   UNL A   1      41.710  33.544  33.154  1.00  0.00     0.031 A 
ATOM     54  C   UNL A   1      41.910  27.900  29.841  1.00  0.00     0.049 A 
ATOM     55  C   UNL A   1      42.706  32.421  33.086  1.00  0.00     0.074 A 
ATOM     56  C   UNL A   1      42.936  26.975  29.804  1.00  0.00     0.029 A 
ATOM     57  N   UNL A   1      42.297  28.907  30.710  1.00  0.00    -0.354 N 
ATOM     58  N   UNL A   1      42.662  31.324  32.367  1.00  0.00    -0.248 NA
ATOM     59  C   UNL A   1      43.906  32.544  33.925  1.00  0.00     0.031 C 
ATOM     60  C   UNL A   1      43.923  27.396  30.695  1.00  0.00     0.029 A 
ATOM     61  C   UNL A   1      43.537  28.612  31.240  1.00  0.00     0.049 A 
ATOM     62  H   UNL A   1      41.768  29.711  30.917  1.00  0.00     0.167 HD
ATOM     63  C   UNL A   1      43.830  30.633  32.655  1.00  0.00     0.074 A 
ATOM     64  C   UNL A   1      44.573  31.444  33.600  1.00  0.00     0.031 C 
ATOM     65  C   UNL A   1      44.250  29.434  32.183  1.00  0.00     0.031 A 
BRANCH  52  66
ATOM     66  C   UNL A   1      40.382  26.706  28.233  1.00  0.00    -0.014 A 
ATOM     67  C   UNL A   1      39.552  25.658  28.663  1.00  0.00     0.009 A 
ATOM     68  C   UNL A   1      40.872  26.695  26.919  1.00  0.00     0.009 A 
ATOM     69  C   UNL A   1      39.216  24.623  27.791  1.00  0.00     0.001 A 
ATOM     70  C   UNL A   1      40.512  25.672  26.042  1.00  0.00     0.001 A 
ATOM     71  C   UNL A   1      39.684  24.638  26.478  1.00  0.00     0.000 A 
ENDBRANCH  52  66
BRANCH  53  72
ATOM     72  C   UNL A   1      41.946  34.744  33.997  1.00  0.00    -0.014 A 
ATOM     73  C   UNL A   1      41.530  34.754  35.337  1.00  0.00     0.009 A 
ATOM     74  C   UNL A   1      42.644  35.852  33.494  1.00  0.00     0.009 A 
ATOM     75  C   UNL A   1      41.813  35.849  36.157  1.00  0.00     0.001 A 
ATOM     76  C   UNL A   1      42.946  36.935  34.323  1.00  0.00     0.001 A 
ATOM     77  C   UNL A   1      42.529  36.933  35.653  1.00  0.00     0.000 A 
ENDBRANCH  53  72
BRANCH  65  78
ATOM     78  C   UNL A   1      45.569  28.913  32.674  1.00  0.00    -0.014 A 
ATOM     79  C   UNL A   1      46.762  29.255  32.022  1.00  0.00     0.009 A 
ATOM     80  C   UNL A   1      45.626  28.171  33.865  1.00  0.00     0.009 A 
ATOM     81  C   UNL A   1      47.989  28.849  32.546  1.00  0.00     0.001 A 
ATOM     82  C   UNL A   1      46.857  27.794  34.402  1.00  0.00     0.001 A 
ATOM     83  C   UNL A   1      48.036  28.128  33.740  1.00  0.00     0.000 A 
ENDBRANCH  65  78
ENDBRANCH  39  40
ENDBRANCH  31  34
ENDBRANCH  29  30
ENDBRANCH  28  29
ENDBRANCH   1  28
TORSDOF 17
ENDMDL
MODEL 3
REMARK VINA RESULT:     -11.0      1.715      2.350
REMARK SMILES Cc1nc(C(=O)N[C@H](CCC(N)=O)C(=O)NCCCCNC(=O)c2ccc(-c3c4nc(c(-c5ccccc5)c5ccc([nH]5)c(-c5ccccc5)c5nc(c(-c6ccccc6)c6ccc3[nH]6)C=C5)C=C4)cc2)ccc1C#N
REMARK SMILES IDX 18 1 17 2 16 3 14 4 15 5 8 7 7 8 5 9 6 10 4 12 1 13 2 14
REMARK SMILES IDX 3 15 74 16 73 17 72 18 75 19 76 20 9 21 10 22 11 23 12 24
REMARK SMILES IDX 13 25 19 28 20 29 21 30 22 31 23 33 24 34 25 35 71 36 26 37
REMARK SMILES IDX 70 38 27 39 28 40 29 41 64 42 30 43 69 44 63 45 65 46 31 47
REMARK SMILES IDX 68 48 62 49 61 50 32 52 54 53 39 54 53 55 40 56 43 57 52 58
REMARK SMILES IDX 66 59 41 60 42 61 51 63 67 64 44 65 33 66 34 67 38 68 35 69
REMARK SMILES IDX 37 70 36 71 55 72 56 73 60 74 57 75 59 76 58 77 45 78 46 79
REMARK SMILES IDX 50 80 47 81 49 82 48 83
REMARK H PARENT 16 6 7 11 12 26 12 27 21 32 65 51 43 62
REMARK Flexibility Score: inf
ROOT
ATOM      1  C   UNL A   1      36.480  21.131  24.647  1.00  0.00     0.023 C 
ENDROOT
BRANCH   1   2
ATOM      2  C   UNL A   1      35.280  21.250  25.565  1.00  0.00     0.116 C 
BRANCH   2   3
ATOM      3  N   UNL A   1      34.179  20.481  25.017  1.00  0.00    -0.354 N 
ATOM      4  C   UNL A   1      32.827  20.666  25.098  1.00  0.00     0.242 C 
ATOM      5  O   UNL A   1      32.153  19.656  24.850  1.00  0.00    -0.273 OA
ATOM      6  H   UNL A   1      34.453  19.691  24.498  1.00  0.00     0.163 HD
BRANCH   4   7
ATOM      7  C   UNL A   1      32.104  22.039  25.346  1.00  0.00     0.172 C 
BRANCH   7   8
ATOM      8  N   UNL A   1      31.005  22.180  26.319  1.00  0.00    -0.339 N 
ATOM      9  C   UNL A   1      30.318  23.244  26.865  1.00  0.00     0.270 C 
ATOM     10  O   UNL A   1      29.471  22.977  27.722  1.00  0.00    -0.267 OA
ATOM     11  H   UNL A   1      30.688  21.312  26.659  1.00  0.00     0.164 HD
BRANCH   9  12
ATOM     12  C   UNL A   1      30.458  24.673  26.407  1.00  0.00     0.128 A 
ATOM     13  C   UNL A   1      33.339  26.933  26.326  1.00  0.00     0.068 C 
ATOM     14  C   UNL A   1      31.943  26.453  26.031  1.00  0.00     0.056 A 
ATOM     15  N   UNL A   1      31.584  25.347  26.739  1.00  0.00    -0.247 NA
ATOM     16  C   UNL A   1      31.153  26.943  24.995  1.00  0.00     0.073 A 
ATOM     17  C   UNL A   1      29.935  26.301  24.732  1.00  0.00     0.024 A 
ATOM     18  C   UNL A   1      29.581  25.151  25.442  1.00  0.00     0.035 A 
BRANCH  16  19
ATOM     19  C   UNL A   1      31.605  27.994  24.131  1.00  0.00     0.101 C 
ATOM     20  N   UNL A   1      31.955  28.812  23.392  1.00  0.00    -0.192 NA
ENDBRANCH  16  19
ENDBRANCH   9  12
ENDBRANCH   7   8
BRANCH   7  21
ATOM     21  C   UNL A   1      31.828  22.814  24.030  1.00  0.00     0.045 C 
BRANCH  21  22
ATOM     22  C   UNL A   1      32.890  23.825  23.612  1.00  0.00     0.102 C 
BRANCH  22  23
ATOM     23  C   UNL A   1      33.671  23.356  22.414  1.00  0.00     0.217 C 
ATOM     24  N   UNL A   1      32.909  22.970  21.349  1.00  0.00    -0.370 N 
ATOM     25  O   UNL A   1      34.894  23.318  22.383  1.00  0.00    -0.275 OA
ATOM     26  H   UNL A   1      31.927  23.014  21.405  1.00  0.00     0.159 HD
ATOM     27  H   UNL A   1      33.342  22.649  20.525  1.00  0.00     0.159 HD
ENDBRANCH  22  23
ENDBRANCH  21  22
ENDBRANCH   7  21
ENDBRANCH   4   7
ENDBRANCH   2   3
ENDBRANCH   1   2
BRANCH   1  28
ATOM     28  C   UNL A   1      37.446  19.979  24.831  1.00  0.00     0.023 C 
BRANCH  28  29
ATOM     29  C   UNL A   1      38.581  20.325  25.770  1.00  0.00     0.116 C 
BRANCH  29  30
ATOM     30  N   UNL A   1      39.675  19.348  25.761  1.00  0.00    -0.352 N 
ATOM     31  C   UNL A   1      41.006  19.543  26.062  1.00  0.00     0.251 C 
ATOM     32  H   UNL A   1      39.427  18.431  25.504  1.00  0.00     0.163 HD
ATOM     33  O   UNL A   1      41.825  18.646  25.910  1.00  0.00    -0.269 OA
BRANCH  31  34
ATOM     34  C   UNL A   1      41.409  20.873  26.552  1.00  0.00     0.039 A 
ATOM     35  C   UNL A   1      41.713  21.064  27.900  1.00  0.00     0.014 A 
ATOM     36  C   UNL A   1      41.606  21.892  25.618  1.00  0.00     0.014 A 
ATOM     37  C   UNL A   1      42.298  22.266  28.299  1.00  0.00     0.010 A 
ATOM     38  C   UNL A   1      42.317  23.015  25.985  1.00  0.00     0.010 A 
ATOM     39  C   UNL A   1      42.632  23.228  27.334  1.00  0.00    -0.014 A 
BRANCH  39  40
ATOM     40  C   UNL A   1      43.192  24.547  27.684  1.00  0.00     0.031 A 
ATOM     41  C   UNL A   1      42.235  25.614  28.135  1.00  0.00     0.074 A 
ATOM     42  C   UNL A   1      44.497  24.811  27.502  1.00  0.00     0.049 A 
ATOM     43  N   UNL A   1      42.450  26.887  28.325  1.00  0.00    -0.248 NA
ATOM     44  C   UNL A   1      40.835  25.200  28.357  1.00  0.00     0.031 C 
ATOM     45  C   UNL A   1      45.507  23.854  27.050  1.00  0.00     0.029 A 
ATOM     46  N   UNL A   1      45.192  25.981  27.665  1.00  0.00    -0.354 N 
ATOM     47  C   UNL A   1      41.216  27.420  28.668  1.00  0.00     0.074 A 
ATOM     48  C   UNL A   1      40.242  26.359  28.592  1.00  0.00     0.031 C 
ATOM     49  C   UNL A   1      46.701  24.470  26.999  1.00  0.00     0.029 A 
ATOM     50  C   UNL A   1      46.528  25.873  27.369  1.00  0.00     0.049 A 
ATOM     51  H   UNL A   1      44.774  26.819  27.968  1.00  0.00     0.167 HD
ATOM     52  C   UNL A   1      40.928  28.682  29.051  1.00  0.00     0.031 A 
ATOM     53  C   UNL A   1      47.498  26.806  27.390  1.00  0.00     0.031 A 
ATOM     54  C   UNL A   1      41.909  29.720  29.162  1.00  0.00     0.049 A 
ATOM     55  C   UNL A   1      47.148  28.211  27.792  1.00  0.00     0.074 A 
ATOM     56  C   UNL A   1      41.731  31.021  29.592  1.00  0.00     0.029 A 
ATOM     57  N   UNL A   1      43.251  29.569  28.855  1.00  0.00    -0.354 N 
ATOM     58  N   UNL A   1      45.984  28.698  28.151  1.00  0.00    -0.248 NA
ATOM     59  C   UNL A   1      48.241  29.193  27.797  1.00  0.00     0.031 C 
ATOM     60  C   UNL A   1      42.959  31.676  29.492  1.00  0.00     0.029 A 
ATOM     61  C   UNL A   1      43.911  30.765  29.057  1.00  0.00     0.049 A 
ATOM     62  H   UNL A   1      43.671  28.736  28.540  1.00  0.00     0.167 HD
ATOM     63  C   UNL A   1      46.205  30.038  28.438  1.00  0.00     0.074 A 
ATOM     64  C   UNL A   1      47.618  30.282  28.230  1.00  0.00     0.031 C 
ATOM     65  C   UNL A   1      45.317  30.982  28.835  1.00  0.00     0.031 A 
BRANCH  52  66
ATOM     66  C   UNL A   1      39.507  29.001  29.406  1.00  0.00    -0.014 A 
ATOM     67  C   UNL A   1      38.602  29.435  28.424  1.00  0.00     0.009 A 
ATOM     68  C   UNL A   1      39.047  28.780  30.712  1.00  0.00     0.009 A 
ATOM     69  C   UNL A   1      37.259  29.638  28.745  1.00  0.00     0.001 A 
ATOM     70  C   UNL A   1      37.699  28.959  31.023  1.00  0.00     0.001 A 
ATOM     71  C   UNL A   1      36.807  29.387  30.039  1.00  0.00     0.000 A 
ENDBRANCH  52  66
BRANCH  53  72
ATOM     72  C   UNL A   1      48.892  26.416  27.054  1.00  0.00    -0.014 A 
ATOM     73  C   UNL A   1      49.750  25.942  28.057  1.00  0.00     0.009 A 
ATOM     74  C   UNL A   1      49.349  26.449  25.728  1.00  0.00     0.009 A 
ATOM     75  C   UNL A   1      51.038  25.504  27.737  1.00  0.00     0.001 A 
ATOM     76  C   UNL A   1      50.628  25.989  25.408  1.00  0.00     0.001 A 
ATOM     77  C   UNL A   1      51.471  25.518  26.413  1.00  0.00     0.000 A 
ENDBRANCH  53  72
BRANCH  65  78
ATOM     78  C   UNL A   1      45.834  32.371  29.071  1.00  0.00    -0.014 A 
ATOM     79  C   UNL A   1      45.796  33.332  28.051  1.00  0.00     0.009 A 
ATOM     80  C   UNL A   1      46.254  32.750  30.356  1.00  0.00     0.009 A 
ATOM     81  C   UNL A   1      46.185  34.646  28.310  1.00  0.00     0.001 A 
ATOM     82  C   UNL A   1      46.613  34.072  30.619  1.00  0.00     0.001 A 
ATOM     83  C   UNL A   1      46.583  35.017  29.595  1.00  0.00     0.000 A 
ENDBRANCH  65  78
ENDBRANCH  39  40
ENDBRANCH  31  34
ENDBRANCH  29  30
ENDBRANCH  28  29
ENDBRANCH   1  28
TORSDOF 17
ENDMDL
