MODEL 1
REMARK VINA RESULT:     -10.5      0.000      0.000
REMARK SMILES C[C@@H](C(=O)NCCCCNC(=O)c1ccc(-c2c3nc(c(-c4ccccc4)c4ccc([nH]4)c(-c4ccccc4)c4nc(c(-c5ccccc5)c5ccc2[nH]5)C=C4)C=C3)cc1)c1ccc(C[C@@H]2CCC[C@@H]2O)cc1F
REMARK SMILES IDX 6 1 5 2 3 3 4 4 2 6 1 7 61 8 62 9 73 10 63 11 72 12 74 13
REMARK SMILES IDX 64 14 65 15 66 16 67 17 70 18 68 19 69 20 71 21 7 23 8 24
REMARK SMILES IDX 9 25 10 26 11 27 12 29 13 30 14 31 60 32 15 33 59 34 16 35
REMARK SMILES IDX 17 36 18 37 53 38 19 39 58 40 52 41 54 42 20 43 57 44 51 45
REMARK SMILES IDX 50 46 21 48 43 49 28 50 42 51 29 52 32 53 41 54 55 55 30 56
REMARK SMILES IDX 31 57 40 59 56 60 33 61 22 62 23 63 27 64 24 65 26 66 25 67
REMARK SMILES IDX 44 68 45 69 49 70 46 71 48 72 47 73 34 74 35 75 39 76 36 77
REMARK SMILES IDX 38 78 37 79
REMARK H PARENT 5 5 71 22 10 28 54 47 32 58
REMARK Flexibility Score: inf
ROOT
ATOM      1  C   UNL A   1      34.353  29.182  27.360  1.00  0.00     0.116 C 
ENDROOT
BRANCH   1   2
ATOM      2  N   UNL A   1      33.109  28.727  27.942  1.00  0.00    -0.356 N 
ATOM      3  C   UNL A   1      32.053  28.091  27.353  1.00  0.00     0.227 C 
ATOM      4  O   UNL A   1      31.025  27.988  28.027  1.00  0.00    -0.274 OA
ATOM      5  H   UNL A   1      33.009  28.901  28.906  1.00  0.00     0.163 HD
BRANCH   3   6
ATOM      6  C   UNL A   1      32.187  27.530  25.921  1.00  0.00     0.108 C 
ATOM      7  C   UNL A   1      30.857  27.634  25.163  1.00  0.00     0.023 C 
BRANCH   6   8
ATOM      8  C   UNL A   1      32.737  26.106  25.939  1.00  0.00    -0.000 A 
ATOM      9  C   UNL A   1      32.048  25.035  26.523  1.00  0.00     0.008 A 
ATOM     10  C   UNL A   1      34.001  25.847  25.396  1.00  0.00     0.127 A 
ATOM     11  C   UNL A   1      32.616  23.764  26.583  1.00  0.00     0.004 A 
ATOM     12  C   UNL A   1      34.594  24.588  25.493  1.00  0.00     0.043 A 
ATOM     13  F   UNL A   1      34.678  26.834  24.789  1.00  0.00    -0.207 F 
ATOM     14  C   UNL A   1      33.917  23.538  26.126  1.00  0.00    -0.045 A 
BRANCH  14  15
ATOM     15  C   UNL A   1      34.586  22.206  26.352  1.00  0.00     0.041 C 
BRANCH  15  16
ATOM     16  C   UNL A   1      34.469  21.144  25.230  1.00  0.00     0.022 C 
ATOM     17  C   UNL A   1      34.117  21.680  23.836  1.00  0.00     0.007 C 
ATOM     18  C   UNL A   1      33.426  20.040  25.429  1.00  0.00     0.117 C 
ATOM     19  C   UNL A   1      32.617  21.442  23.635  1.00  0.00     0.003 C 
ATOM     20  C   UNL A   1      32.148  20.588  24.808  1.00  0.00     0.032 C 
BRANCH  18  21
ATOM     21  O   UNL A   1      33.266  19.666  26.781  1.00  0.00    -0.393 OA
ATOM     22  H   UNL A   1      33.111  18.709  26.835  1.00  0.00     0.210 HD
ENDBRANCH  18  21
ENDBRANCH  15  16
ENDBRANCH  14  15
ENDBRANCH   6   8
ENDBRANCH   3   6
ENDBRANCH   1   2
BRANCH   1  23
ATOM     23  C   UNL A   1      34.554  30.678  27.622  1.00  0.00     0.023 C 
BRANCH  23  24
ATOM     24  C   UNL A   1      33.261  31.495  27.666  1.00  0.00     0.023 C 
BRANCH  24  25
ATOM     25  C   UNL A   1      33.368  32.894  27.075  1.00  0.00     0.116 C 
BRANCH  25  26
ATOM     26  N   UNL A   1      32.841  33.921  27.959  1.00  0.00    -0.352 N 
ATOM     27  C   UNL A   1      33.340  34.370  29.155  1.00  0.00     0.251 C 
ATOM     28  H   UNL A   1      32.011  34.355  27.656  1.00  0.00     0.163 HD
ATOM     29  O   UNL A   1      32.687  35.151  29.843  1.00  0.00    -0.269 OA
BRANCH  27  30
ATOM     30  C   UNL A   1      34.651  33.883  29.632  1.00  0.00     0.039 A 
ATOM     31  C   UNL A   1      34.690  33.039  30.744  1.00  0.00     0.014 A 
ATOM     32  C   UNL A   1      35.834  34.242  28.979  1.00  0.00     0.014 A 
ATOM     33  C   UNL A   1      35.910  32.509  31.164  1.00  0.00     0.010 A 
ATOM     34  C   UNL A   1      37.036  33.647  29.348  1.00  0.00     0.010 A 
ATOM     35  C   UNL A   1      37.088  32.780  30.448  1.00  0.00    -0.014 A 
BRANCH  35  36
ATOM     36  C   UNL A   1      38.378  32.162  30.843  1.00  0.00     0.031 A 
ATOM     37  C   UNL A   1      38.826  30.871  30.213  1.00  0.00     0.074 A 
ATOM     38  C   UNL A   1      39.131  32.744  31.797  1.00  0.00     0.049 A 
ATOM     39  N   UNL A   1      39.915  30.178  30.438  1.00  0.00    -0.248 NA
ATOM     40  C   UNL A   1      37.925  30.268  29.217  1.00  0.00     0.031 C 
ATOM     41  C   UNL A   1      38.788  33.972  32.517  1.00  0.00     0.029 A 
ATOM     42  N   UNL A   1      40.344  32.379  32.324  1.00  0.00    -0.354 N 
ATOM     43  C   UNL A   1      39.827  29.062  29.615  1.00  0.00     0.074 A 
ATOM     44  C   UNL A   1      38.552  29.135  28.936  1.00  0.00     0.031 C 
ATOM     45  C   UNL A   1      39.783  34.278  33.365  1.00  0.00     0.029 A 
ATOM     46  C   UNL A   1      40.814  33.249  33.280  1.00  0.00     0.049 A 
ATOM     47  H   UNL A   1      40.833  31.572  32.044  1.00  0.00     0.167 HD
ATOM     48  C   UNL A   1      40.737  28.079  29.418  1.00  0.00     0.031 A 
ATOM     49  C   UNL A   1      41.944  33.218  34.008  1.00  0.00     0.031 A 
ATOM     50  C   UNL A   1      42.004  28.001  30.096  1.00  0.00     0.049 A 
ATOM     51  C   UNL A   1      42.924  32.097  33.793  1.00  0.00     0.074 A 
ATOM     52  C   UNL A   1      43.008  27.062  29.943  1.00  0.00     0.029 A 
ATOM     53  N   UNL A   1      42.439  28.899  31.059  1.00  0.00    -0.354 N 
ATOM     54  N   UNL A   1      42.857  31.087  32.959  1.00  0.00    -0.248 NA
ATOM     55  C   UNL A   1      44.146  32.124  34.609  1.00  0.00     0.031 C 
ATOM     56  C   UNL A   1      44.030  27.361  30.851  1.00  0.00     0.029 A 
ATOM     57  C   UNL A   1      43.689  28.524  31.522  1.00  0.00     0.049 A 
ATOM     58  H   UNL A   1      41.934  29.686  31.367  1.00  0.00     0.167 HD
ATOM     59  C   UNL A   1      44.039  30.377  33.129  1.00  0.00     0.074 A 
ATOM     60  C   UNL A   1      44.812  31.085  34.127  1.00  0.00     0.031 C 
ATOM     61  C   UNL A   1      44.447  29.240  32.516  1.00  0.00     0.031 A 
BRANCH  48  62
ATOM     62  C   UNL A   1      40.391  27.006  28.421  1.00  0.00    -0.014 A 
ATOM     63  C   UNL A   1      40.858  27.069  27.098  1.00  0.00     0.009 A 
ATOM     64  C   UNL A   1      39.620  25.902  28.816  1.00  0.00     0.009 A 
ATOM     65  C   UNL A   1      40.529  26.068  26.182  1.00  0.00     0.001 A 
ATOM     66  C   UNL A   1      39.320  24.886  27.905  1.00  0.00     0.001 A 
ATOM     67  C   UNL A   1      39.765  24.976  26.588  1.00  0.00     0.000 A 
ENDBRANCH  48  62
BRANCH  49  68
ATOM     68  C   UNL A   1      42.225  34.285  35.007  1.00  0.00    -0.014 A 
ATOM     69  C   UNL A   1      41.786  34.158  36.334  1.00  0.00     0.009 A 
ATOM     70  C   UNL A   1      42.911  35.450  34.629  1.00  0.00     0.009 A 
ATOM     71  C   UNL A   1      41.991  35.192  37.251  1.00  0.00     0.001 A 
ATOM     72  C   UNL A   1      43.146  36.468  35.557  1.00  0.00     0.001 A 
ATOM     73  C   UNL A   1      42.673  36.344  36.862  1.00  0.00     0.000 A 
ENDBRANCH  49  68
BRANCH  61  74
ATOM     74  C   UNL A   1      45.810  28.716  32.878  1.00  0.00    -0.014 A 
ATOM     75  C   UNL A   1      45.988  27.790  33.917  1.00  0.00     0.009 A 
ATOM     76  C   UNL A   1      46.931  29.143  32.149  1.00  0.00     0.009 A 
ATOM     77  C   UNL A   1      47.266  27.335  34.246  1.00  0.00     0.001 A 
ATOM     78  C   UNL A   1      48.204  28.660  32.457  1.00  0.00     0.001 A 
ATOM     79  C   UNL A   1      48.371  27.766  33.513  1.00  0.00     0.000 A 
ENDBRANCH  61  74
ENDBRANCH  35  36
ENDBRANCH  27  30
ENDBRANCH  25  26
ENDBRANCH  24  25
ENDBRANCH  23  24
ENDBRANCH   1  23
TORSDOF 15
ENDMDL
MODEL 2
REMARK VINA RESULT:     -10.4      0.837      6.106
REMARK SMILES C[C@@H](C(=O)NCCCCNC(=O)c1ccc(-c2c3nc(c(-c4ccccc4)c4ccc([nH]4)c(-c4ccccc4)c4nc(c(-c5ccccc5)c5ccc2[nH]5)C=C4)C=C3)cc1)c1ccc(C[C@@H]2CCC[C@@H]2O)cc1F
REMARK SMILES IDX 6 1 5 2 3 3 4 4 2 6 1 7 61 8 62 9 73 10 63 11 72 12 74 13
REMARK SMILES IDX 64 14 65 15 66 16 67 17 70 18 68 19 69 20 71 21 7 23 8 24
REMARK SMILES IDX 9 25 10 26 11 27 12 29 13 30 14 31 60 32 15 33 59 34 16 35
REMARK SMILES IDX 17 36 18 37 53 38 19 39 58 40 52 41 54 42 20 43 57 44 51 45
REMARK SMILES IDX 50 46 21 48 43 49 28 50 42 51 29 52 32 53 41 54 55 55 30 56
REMARK SMILES IDX 31 57 40 59 56 60 33 61 22 62 23 63 27 64 24 65 26 66 25 67
REMARK SMILES IDX 44 68 45 69 49 70 46 71 48 72 47 73 34 74 35 75 39 76 36 77
REMARK SMILES IDX 38 78 37 79
REMARK H PARENT 5 5 71 22 10 28 54 47 32 58
REMARK Flexibility Score: inf
ROOT
ATOM      1  C   UNL A   1      34.326  29.506  27.219  1.00  0.00     0.116 C 
ENDROOT
BRANCH   1   2
ATOM      2  N   UNL A   1      33.135  28.906  27.780  1.00  0.00    -0.356 N 
ATOM      3  C   UNL A   1      32.101  28.271  27.152  1.00  0.00     0.227 C 
ATOM      4  O   UNL A   1      31.106  28.024  27.838  1.00  0.00    -0.274 OA
ATOM      5  H   UNL A   1      33.058  28.964  28.760  1.00  0.00     0.163 HD
BRANCH   3   6
ATOM      6  C   UNL A   1      32.219  27.884  25.662  1.00  0.00     0.108 C 
ATOM      7  C   UNL A   1      30.951  28.270  24.891  1.00  0.00     0.023 C 
BRANCH   6   8
ATOM      8  C   UNL A   1      32.568  26.406  25.506  1.00  0.00    -0.000 A 
ATOM      9  C   UNL A   1      32.202  25.437  26.449  1.00  0.00     0.008 A 
ATOM     10  C   UNL A   1      33.325  25.987  24.405  1.00  0.00     0.127 A 
ATOM     11  C   UNL A   1      32.602  24.110  26.306  1.00  0.00     0.004 A 
ATOM     12  C   UNL A   1      33.766  24.670  24.279  1.00  0.00     0.043 A 
ATOM     13  F   UNL A   1      33.662  26.873  23.454  1.00  0.00    -0.207 F 
ATOM     14  C   UNL A   1      33.438  23.722  25.256  1.00  0.00    -0.045 A 
BRANCH  14  15
ATOM     15  C   UNL A   1      34.005  22.325  25.206  1.00  0.00     0.041 C 
BRANCH  15  16
ATOM     16  C   UNL A   1      35.328  22.060  25.967  1.00  0.00     0.022 C 
ATOM     17  C   UNL A   1      36.322  23.228  26.005  1.00  0.00     0.007 C 
ATOM     18  C   UNL A   1      36.198  20.906  25.460  1.00  0.00     0.117 C 
ATOM     19  C   UNL A   1      37.379  22.947  24.931  1.00  0.00     0.003 C 
ATOM     20  C   UNL A   1      37.120  21.533  24.423  1.00  0.00     0.032 C 
BRANCH  18  21
ATOM     21  O   UNL A   1      35.444  19.827  24.948  1.00  0.00    -0.393 OA
ATOM     22  H   UNL A   1      34.503  20.063  24.947  1.00  0.00     0.210 HD
ENDBRANCH  18  21
ENDBRANCH  15  16
ENDBRANCH  14  15
ENDBRANCH   6   8
ENDBRANCH   3   6
ENDBRANCH   1   2
BRANCH   1  23
ATOM     23  C   UNL A   1      34.462  30.961  27.676  1.00  0.00     0.023 C 
BRANCH  23  24
ATOM     24  C   UNL A   1      33.140  31.727  27.761  1.00  0.00     0.023 C 
BRANCH  24  25
ATOM     25  C   UNL A   1      33.179  33.136  27.188  1.00  0.00     0.116 C 
BRANCH  25  26
ATOM     26  N   UNL A   1      32.703  34.141  28.127  1.00  0.00    -0.352 N 
ATOM     27  C   UNL A   1      33.259  34.542  29.314  1.00  0.00     0.251 C 
ATOM     28  H   UNL A   1      31.868  34.595  27.874  1.00  0.00     0.163 HD
ATOM     29  O   UNL A   1      32.646  35.309  30.054  1.00  0.00    -0.269 OA
BRANCH  27  30
ATOM     30  C   UNL A   1      34.582  34.023  29.719  1.00  0.00     0.039 A 
ATOM     31  C   UNL A   1      34.658  33.165  30.818  1.00  0.00     0.014 A 
ATOM     32  C   UNL A   1      35.737  34.366  29.012  1.00  0.00     0.014 A 
ATOM     33  C   UNL A   1      35.886  32.604  31.170  1.00  0.00     0.010 A 
ATOM     34  C   UNL A   1      36.943  33.743  29.313  1.00  0.00     0.010 A 
ATOM     35  C   UNL A   1      37.032  32.861  30.399  1.00  0.00    -0.014 A 
BRANCH  35  36
ATOM     36  C   UNL A   1      38.328  32.211  30.722  1.00  0.00     0.031 A 
ATOM     37  C   UNL A   1      39.278  32.853  31.696  1.00  0.00     0.074 A 
ATOM     38  C   UNL A   1      38.664  31.060  30.110  1.00  0.00     0.049 A 
ATOM     39  N   UNL A   1      40.455  32.440  32.094  1.00  0.00    -0.248 NA
ATOM     40  C   UNL A   1      38.862  34.138  32.285  1.00  0.00     0.031 C 
ATOM     41  C   UNL A   1      37.852  30.359  29.113  1.00  0.00     0.029 A 
ATOM     42  N   UNL A   1      39.782  30.274  30.239  1.00  0.00    -0.354 N 
ATOM     43  C   UNL A   1      40.918  33.411  32.973  1.00  0.00     0.074 A 
ATOM     44  C   UNL A   1      39.927  34.464  33.002  1.00  0.00     0.031 C 
ATOM     45  C   UNL A   1      38.481  29.230  28.748  1.00  0.00     0.029 A 
ATOM     46  C   UNL A   1      39.757  29.147  29.451  1.00  0.00     0.049 A 
ATOM     47  H   UNL A   1      40.530  30.494  30.839  1.00  0.00     0.167 HD
ATOM     48  C   UNL A   1      42.051  33.414  33.715  1.00  0.00     0.031 A 
ATOM     49  C   UNL A   1      40.661  28.161  29.309  1.00  0.00     0.031 A 
ATOM     50  C   UNL A   1      43.041  32.370  33.684  1.00  0.00     0.049 A 
ATOM     51  C   UNL A   1      41.927  28.205  30.120  1.00  0.00     0.074 A 
ATOM     52  C   UNL A   1      44.208  32.266  34.420  1.00  0.00     0.029 A 
ATOM     53  N   UNL A   1      42.979  31.249  32.871  1.00  0.00    -0.354 N 
ATOM     54  N   UNL A   1      42.316  29.096  31.001  1.00  0.00    -0.248 NA
ATOM     55  C   UNL A   1      42.870  27.094  29.930  1.00  0.00     0.031 C 
ATOM     56  C   UNL A   1      44.879  31.108  34.015  1.00  0.00     0.029 A 
ATOM     57  C   UNL A   1      44.098  30.458  33.073  1.00  0.00     0.049 A 
ATOM     58  H   UNL A   1      42.249  31.046  32.242  1.00  0.00     0.167 HD
ATOM     59  C   UNL A   1      43.533  28.638  31.489  1.00  0.00     0.074 A 
ATOM     60  C   UNL A   1      43.804  27.380  30.826  1.00  0.00     0.031 C 
ATOM     61  C   UNL A   1      44.353  29.208  32.405  1.00  0.00     0.031 A 
BRANCH  48  62
ATOM     62  C   UNL A   1      42.277  34.589  34.627  1.00  0.00    -0.014 A 
ATOM     63  C   UNL A   1      41.840  34.564  35.962  1.00  0.00     0.009 A 
ATOM     64  C   UNL A   1      42.963  35.720  34.160  1.00  0.00     0.009 A 
ATOM     65  C   UNL A   1      42.055  35.661  36.798  1.00  0.00     0.001 A 
ATOM     66  C   UNL A   1      43.204  36.803  35.009  1.00  0.00     0.001 A 
ATOM     67  C   UNL A   1      42.741  36.776  36.323  1.00  0.00     0.000 A 
ENDBRANCH  48  62
BRANCH  49  68
ATOM     68  C   UNL A   1      40.407  27.037  28.367  1.00  0.00    -0.014 A 
ATOM     69  C   UNL A   1      40.894  27.080  27.051  1.00  0.00     0.009 A 
ATOM     70  C   UNL A   1      39.649  25.927  28.772  1.00  0.00     0.009 A 
ATOM     71  C   UNL A   1      40.594  26.056  26.150  1.00  0.00     0.001 A 
ATOM     72  C   UNL A   1      39.381  24.887  27.880  1.00  0.00     0.001 A 
ATOM     73  C   UNL A   1      39.841  24.959  26.566  1.00  0.00     0.000 A 
ENDBRANCH  49  68
BRANCH  61  74
ATOM     74  C   UNL A   1      45.601  28.452  32.772  1.00  0.00    -0.014 A 
ATOM     75  C   UNL A   1      46.813  28.665  32.097  1.00  0.00     0.009 A 
ATOM     76  C   UNL A   1      45.565  27.529  33.828  1.00  0.00     0.009 A 
ATOM     77  C   UNL A   1      47.952  27.935  32.444  1.00  0.00     0.001 A 
ATOM     78  C   UNL A   1      46.713  26.826  34.197  1.00  0.00     0.001 A 
ATOM     79  C   UNL A   1      47.903  27.022  33.496  1.00  0.00     0.000 A 
ENDBRANCH  61  74
ENDBRANCH  35  36
ENDBRANCH  27  30
ENDBRANCH  25  26
ENDBRANCH  24  25
ENDBRANCH  23  24
ENDBRANCH   1  23
TORSDOF 15
ENDMDL
MODEL 3
REMARK VINA RESULT:     -10.3      3.581      8.953
REMARK SMILES C[C@@H](C(=O)NCCCCNC(=O)c1ccc(-c2c3nc(c(-c4ccccc4)c4ccc([nH]4)c(-c4ccccc4)c4nc(c(-c5ccccc5)c5ccc2[nH]5)C=C4)C=C3)cc1)c1ccc(C[C@@H]2CCC[C@@H]2O)cc1F
REMARK SMILES IDX 6 1 5 2 3 3 4 4 2 6 1 7 61 8 62 9 73 10 63 11 72 12 74 13
REMARK SMILES IDX 64 14 65 15 66 16 67 17 70 18 68 19 69 20 71 21 7 23 8 24
REMARK SMILES IDX 9 25 10 26 11 27 12 29 13 30 14 31 60 32 15 33 59 34 16 35
REMARK SMILES IDX 17 36 18 37 53 38 19 39 58 40 52 41 54 42 20 43 57 44 51 45
REMARK SMILES IDX 50 46 21 48 43 49 28 50 42 51 29 52 32 53 41 54 55 55 30 56
REMARK SMILES IDX 31 57 40 59 56 60 33 61 22 62 23 63 27 64 24 65 26 66 25 67
REMARK SMILES IDX 44 68 45 69 49 70 46 71 48 72 47 73 34 74 35 75 39 76 36 77
REMARK SMILES IDX 38 78 37 79
REMARK H PARENT 5 5 71 22 10 28 54 47 32 58
REMARK Flexibility Score: inf
ROOT
ATOM      1  C   UNL A   1      37.945  23.604  26.093  1.00  0.00     0.116 C 
ENDROOT
BRANCH   1   2
ATOM      2  N   UNL A   1      37.623  23.523  24.686  1.00  0.00    -0.356 N 
ATOM      3  C   UNL A   1      36.543  22.954  24.071  1.00  0.00     0.227 C 
ATOM      4  O   UNL A   1      36.602  22.843  22.844  1.00  0.00    -0.274 OA
ATOM      5  H   UNL A   1      38.279  23.939  24.080  1.00  0.00     0.163 HD
BRANCH   3   6
ATOM      6  C   UNL A   1      35.325  22.503  24.905  1.00  0.00     0.108 C 
ATOM      7  C   UNL A   1      34.937  21.056  24.575  1.00  0.00     0.023 C 
BRANCH   6   8
ATOM      8  C   UNL A   1      34.156  23.472  24.737  1.00  0.00    -0.000 A 
ATOM      9  C   UNL A   1      33.655  23.844  23.482  1.00  0.00     0.008 A 
ATOM     10  C   UNL A   1      33.578  24.060  25.868  1.00  0.00     0.127 A 
ATOM     11  C   UNL A   1      32.635  24.786  23.369  1.00  0.00     0.004 A 
ATOM     12  C   UNL A   1      32.588  25.036  25.759  1.00  0.00     0.043 A 
ATOM     13  F   UNL A   1      33.998  23.701  27.092  1.00  0.00    -0.207 F 
ATOM     14  C   UNL A   1      32.132  25.438  24.497  1.00  0.00    -0.045 A 
BRANCH  14  15
ATOM     15  C   UNL A   1      31.154  26.577  24.350  1.00  0.00     0.041 C 
BRANCH  15  16
ATOM     16  C   UNL A   1      31.693  27.920  23.797  1.00  0.00     0.022 C 
ATOM     17  C   UNL A   1      31.366  29.165  24.632  1.00  0.00     0.007 C 
ATOM     18  C   UNL A   1      31.225  28.330  22.398  1.00  0.00     0.117 C 
ATOM     19  C   UNL A   1      30.176  29.853  23.954  1.00  0.00     0.003 C 
ATOM     20  C   UNL A   1      29.952  29.133  22.628  1.00  0.00     0.032 C 
BRANCH  18  21
ATOM     21  O   UNL A   1      31.035  27.230  21.533  1.00  0.00    -0.393 OA
ATOM     22  H   UNL A   1      31.893  26.947  21.179  1.00  0.00     0.210 HD
ENDBRANCH  18  21
ENDBRANCH  15  16
ENDBRANCH  14  15
ENDBRANCH   6   8
ENDBRANCH   3   6
ENDBRANCH   1   2
BRANCH   1  23
ATOM     23  C   UNL A   1      39.087  22.645  26.440  1.00  0.00     0.023 C 
BRANCH  23  24
ATOM     24  C   UNL A   1      39.093  21.345  25.633  1.00  0.00     0.023 C 
BRANCH  24  25
ATOM     25  C   UNL A   1      39.456  20.099  26.428  1.00  0.00     0.116 C 
BRANCH  25  26
ATOM     26  N   UNL A   1      40.622  19.411  25.897  1.00  0.00    -0.352 N 
ATOM     27  C   UNL A   1      41.917  19.851  25.808  1.00  0.00     0.251 C 
ATOM     28  H   UNL A   1      40.458  18.502  25.556  1.00  0.00     0.163 HD
ATOM     29  O   UNL A   1      42.754  19.188  25.199  1.00  0.00    -0.269 OA
BRANCH  27  30
ATOM     30  C   UNL A   1      42.296  21.144  26.415  1.00  0.00     0.039 A 
ATOM     31  C   UNL A   1      42.662  22.198  25.576  1.00  0.00     0.014 A 
ATOM     32  C   UNL A   1      42.277  21.321  27.801  1.00  0.00     0.014 A 
ATOM     33  C   UNL A   1      42.950  23.447  26.125  1.00  0.00     0.010 A 
ATOM     34  C   UNL A   1      42.484  22.587  28.340  1.00  0.00     0.010 A 
ATOM     35  C   UNL A   1      42.830  23.662  27.509  1.00  0.00    -0.014 A 
BRANCH  35  36
ATOM     36  C   UNL A   1      43.063  25.006  28.094  1.00  0.00     0.031 A 
ATOM     37  C   UNL A   1      44.444  25.417  28.528  1.00  0.00     0.074 A 
ATOM     38  C   UNL A   1      42.023  25.844  28.269  1.00  0.00     0.049 A 
ATOM     39  N   UNL A   1      44.838  26.543  29.067  1.00  0.00    -0.248 NA
ATOM     40  C   UNL A   1      45.520  24.426  28.353  1.00  0.00     0.031 C 
ATOM     41  C   UNL A   1      40.629  25.550  27.932  1.00  0.00     0.029 A 
ATOM     42  N   UNL A   1      41.980  27.120  28.773  1.00  0.00    -0.354 N 
ATOM     43  C   UNL A   1      46.200  26.395  29.296  1.00  0.00     0.074 A 
ATOM     44  C   UNL A   1      46.553  25.050  28.899  1.00  0.00     0.031 C 
ATOM     45  C   UNL A   1      39.873  26.626  28.205  1.00  0.00     0.029 A 
ATOM     46  C   UNL A   1      40.720  27.669  28.774  1.00  0.00     0.049 A 
ATOM     47  H   UNL A   1      42.776  27.597  29.103  1.00  0.00     0.167 HD
ATOM     48  C   UNL A   1      47.086  27.305  29.766  1.00  0.00     0.031 A 
ATOM     49  C   UNL A   1      40.294  28.876  29.190  1.00  0.00     0.031 A 
ATOM     50  C   UNL A   1      46.737  28.642  30.167  1.00  0.00     0.049 A 
ATOM     51  C   UNL A   1      41.293  29.857  29.738  1.00  0.00     0.074 A 
ATOM     52  C   UNL A   1      47.567  29.649  30.627  1.00  0.00     0.029 A 
ATOM     53  N   UNL A   1      45.450  29.157  30.155  1.00  0.00    -0.354 N 
ATOM     54  N   UNL A   1      42.591  29.725  29.882  1.00  0.00    -0.248 NA
ATOM     55  C   UNL A   1      40.770  31.162  30.165  1.00  0.00     0.031 C 
ATOM     56  C   UNL A   1      46.775  30.758  30.944  1.00  0.00     0.029 A 
ATOM     57  C   UNL A   1      45.461  30.462  30.620  1.00  0.00     0.049 A 
ATOM     58  H   UNL A   1      44.648  28.668  29.862  1.00  0.00     0.167 HD
ATOM     59  C   UNL A   1      43.041  30.938  30.387  1.00  0.00     0.074 A 
ATOM     60  C   UNL A   1      41.882  31.799  30.501  1.00  0.00     0.031 C 
ATOM     61  C   UNL A   1      44.300  31.306  30.727  1.00  0.00     0.031 A 
BRANCH  48  62
ATOM     62  C   UNL A   1      48.525  26.878  29.870  1.00  0.00    -0.014 A 
ATOM     63  C   UNL A   1      49.428  27.116  28.820  1.00  0.00     0.009 A 
ATOM     64  C   UNL A   1      48.995  26.265  31.041  1.00  0.00     0.009 A 
ATOM     65  C   UNL A   1      50.761  26.715  28.926  1.00  0.00     0.001 A 
ATOM     66  C   UNL A   1      50.337  25.894  31.157  1.00  0.00     0.001 A 
ATOM     67  C   UNL A   1      51.215  26.110  30.096  1.00  0.00     0.000 A 
ENDBRANCH  48  62
BRANCH  49  68
ATOM     68  C   UNL A   1      38.853  29.237  29.099  1.00  0.00    -0.014 A 
ATOM     69  C   UNL A   1      38.004  29.080  30.205  1.00  0.00     0.009 A 
ATOM     70  C   UNL A   1      38.314  29.716  27.894  1.00  0.00     0.009 A 
ATOM     71  C   UNL A   1      36.638  29.355  30.095  1.00  0.00     0.001 A 
ATOM     72  C   UNL A   1      36.956  30.023  27.797  1.00  0.00     0.001 A 
ATOM     73  C   UNL A   1      36.116  29.829  28.893  1.00  0.00     0.000 A 
ENDBRANCH  49  68
BRANCH  61  74
ATOM     74  C   UNL A   1      44.493  32.716  31.215  1.00  0.00    -0.014 A 
ATOM     75  C   UNL A   1      44.428  33.036  32.579  1.00  0.00     0.009 A 
ATOM     76  C   UNL A   1      44.769  33.737  30.291  1.00  0.00     0.009 A 
ATOM     77  C   UNL A   1      44.592  34.357  33.004  1.00  0.00     0.001 A 
ATOM     78  C   UNL A   1      44.967  35.049  30.720  1.00  0.00     0.001 A 
ATOM     79  C   UNL A   1      44.866  35.360  32.075  1.00  0.00     0.000 A 
ENDBRANCH  61  74
ENDBRANCH  35  36
ENDBRANCH  27  30
ENDBRANCH  25  26
ENDBRANCH  24  25
ENDBRANCH  23  24
ENDBRANCH   1  23
TORSDOF 15
ENDMDL
