MODEL 1
REMARK VINA RESULT:      -9.7      0.000      0.000
REMARK SMILES CCCC[C@@](CC)(C[C@H]1CCOC1)C(=O)NCCCCNC(=O)c1ccc(-c2c3nc(c(-c4ccccc4)c4ccc([nH]4)c(-c4ccccc4)c4nc(c(-c5ccccc5)c5ccc2[nH]5)C=C4)C=C3)cc1
REMARK SMILES IDX 18 1 17 2 16 3 14 4 15 5 5 7 4 8 3 9 2 10 1 11 6 12 7 13
REMARK SMILES IDX 8 14 9 15 10 16 13 17 11 18 12 19 19 20 20 21 21 22 22 23
REMARK SMILES IDX 23 25 24 26 25 27 71 28 26 29 70 30 27 31 28 32 29 33 64 34
REMARK SMILES IDX 30 35 69 36 63 37 65 38 31 39 68 40 62 41 61 42 32 44 54 45
REMARK SMILES IDX 39 46 53 47 40 48 43 49 52 50 66 51 41 52 42 53 51 55 67 56
REMARK SMILES IDX 44 57 33 58 34 59 38 60 35 61 37 62 36 63 55 64 56 65 60 66
REMARK SMILES IDX 57 67 59 68 58 69 45 70 46 71 50 72 47 73 49 74 48 75
REMARK H PARENT 16 6 21 24 65 43 43 54
REMARK Flexibility Score: inf
ROOT
ATOM      1  C   UNL A   1      36.364  20.142  24.967  1.00  0.00     0.023 C 
ENDROOT
BRANCH   1   2
ATOM      2  C   UNL A   1      36.310  21.459  25.742  1.00  0.00     0.116 C 
BRANCH   2   3
ATOM      3  N   UNL A   1      35.210  21.473  26.690  1.00  0.00    -0.356 N 
ATOM      4  C   UNL A   1      34.012  22.116  26.725  1.00  0.00     0.226 C 
ATOM      5  O   UNL A   1      33.451  22.078  27.821  1.00  0.00    -0.274 OA
ATOM      6  H   UNL A   1      35.364  20.897  27.473  1.00  0.00     0.163 HD
BRANCH   4   7
ATOM      7  C   UNL A   1      33.420  22.864  25.508  1.00  0.00     0.049 C 
BRANCH   7   8
ATOM      8  C   UNL A   1      33.177  21.928  24.267  1.00  0.00     0.017 C 
BRANCH   8   9
ATOM      9  C   UNL A   1      32.285  20.676  24.372  1.00  0.00     0.001 C 
BRANCH   9  10
ATOM     10  C   UNL A   1      32.965  19.307  24.296  1.00  0.00    -0.003 C 
ATOM     11  C   UNL A   1      32.325  18.340  23.308  1.00  0.00     0.004 C 
ENDBRANCH   9  10
ENDBRANCH   8   9
ENDBRANCH   7   8
BRANCH   7  12
ATOM     12  C   UNL A   1      34.450  23.979  25.123  1.00  0.00     0.013 C 
ATOM     13  C   UNL A   1      34.861  24.068  23.662  1.00  0.00     0.005 C 
ENDBRANCH   7  12
BRANCH   7  14
ATOM     14  C   UNL A   1      32.009  23.434  25.905  1.00  0.00     0.023 C 
BRANCH  14  15
ATOM     15  C   UNL A   1      31.470  24.656  25.118  1.00  0.00     0.018 C 
ATOM     16  C   UNL A   1      30.668  24.421  23.854  1.00  0.00     0.034 C 
ATOM     17  C   UNL A   1      30.481  25.487  25.931  1.00  0.00     0.163 C 
ATOM     18  C   UNL A   1      29.927  25.728  23.682  1.00  0.00     0.160 C 
ATOM     19  O   UNL A   1      29.699  26.247  24.997  1.00  0.00    -0.381 OA
ENDBRANCH  14  15
ENDBRANCH   7  14
ENDBRANCH   4   7
ENDBRANCH   2   3
ENDBRANCH   1   2
BRANCH   1  20
ATOM     20  C   UNL A   1      37.775  19.625  24.693  1.00  0.00     0.023 C 
BRANCH  20  21
ATOM     21  C   UNL A   1      38.824  20.100  25.686  1.00  0.00     0.116 C 
BRANCH  21  22
ATOM     22  N   UNL A   1      40.001  19.248  25.707  1.00  0.00    -0.352 N 
ATOM     23  C   UNL A   1      41.293  19.569  26.031  1.00  0.00     0.251 C 
ATOM     24  H   UNL A   1      39.850  18.309  25.451  1.00  0.00     0.163 HD
ATOM     25  O   UNL A   1      42.196  18.754  25.854  1.00  0.00    -0.269 OA
BRANCH  23  26
ATOM     26  C   UNL A   1      41.595  20.906  26.573  1.00  0.00     0.039 A 
ATOM     27  C   UNL A   1      41.499  21.112  27.950  1.00  0.00     0.014 A 
ATOM     28  C   UNL A   1      41.970  21.953  25.725  1.00  0.00     0.014 A 
ATOM     29  C   UNL A   1      41.807  22.363  28.480  1.00  0.00     0.010 A 
ATOM     30  C   UNL A   1      42.369  23.168  26.265  1.00  0.00     0.010 A 
ATOM     31  C   UNL A   1      42.258  23.397  27.644  1.00  0.00    -0.014 A 
BRANCH  31  32
ATOM     32  C   UNL A   1      42.556  24.743  28.188  1.00  0.00     0.031 A 
ATOM     33  C   UNL A   1      43.967  25.098  28.571  1.00  0.00     0.074 A 
ATOM     34  C   UNL A   1      41.560  25.632  28.364  1.00  0.00     0.049 A 
ATOM     35  N   UNL A   1      44.434  26.221  29.056  1.00  0.00    -0.248 NA
ATOM     36  C   UNL A   1      44.985  24.045  28.416  1.00  0.00     0.031 C 
ATOM     37  C   UNL A   1      40.145  25.393  28.066  1.00  0.00     0.029 A 
ATOM     38  N   UNL A   1      41.590  26.922  28.828  1.00  0.00    -0.354 N 
ATOM     39  C   UNL A   1      45.787  25.997  29.284  1.00  0.00     0.074 A 
ATOM     40  C   UNL A   1      46.054  24.618  28.944  1.00  0.00     0.031 C 
ATOM     41  C   UNL A   1      39.452  26.516  28.309  1.00  0.00     0.029 A 
ATOM     42  C   UNL A   1      40.362  27.537  28.816  1.00  0.00     0.049 A 
ATOM     43  H   UNL A   1      42.412  27.363  29.140  1.00  0.00     0.167 HD
ATOM     44  C   UNL A   1      46.731  26.868  29.713  1.00  0.00     0.031 A 
ATOM     45  C   UNL A   1      40.014  28.790  29.166  1.00  0.00     0.031 A 
ATOM     46  C   UNL A   1      46.466  28.244  30.035  1.00  0.00     0.049 A 
ATOM     47  C   UNL A   1      41.081  29.738  29.645  1.00  0.00     0.074 A 
ATOM     48  C   UNL A   1      47.359  29.228  30.421  1.00  0.00     0.029 A 
ATOM     49  N   UNL A   1      45.209  28.829  30.013  1.00  0.00    -0.354 N 
ATOM     50  N   UNL A   1      42.369  29.536  29.781  1.00  0.00    -0.248 NA
ATOM     51  C   UNL A   1      40.642  31.094  29.998  1.00  0.00     0.031 C 
ATOM     52  C   UNL A   1      46.634  30.392  30.690  1.00  0.00     0.029 A 
ATOM     53  C   UNL A   1      45.299  30.154  30.402  1.00  0.00     0.049 A 
ATOM     54  H   UNL A   1      44.375  28.369  29.759  1.00  0.00     0.167 HD
ATOM     55  C   UNL A   1      42.901  30.752  30.192  1.00  0.00     0.074 A 
ATOM     56  C   UNL A   1      41.795  31.686  30.272  1.00  0.00     0.031 C 
ATOM     57  C   UNL A   1      44.189  31.071  30.471  1.00  0.00     0.031 A 
BRANCH  44  58
ATOM     58  C   UNL A   1      48.133  26.345  29.873  1.00  0.00    -0.014 A 
ATOM     59  C   UNL A   1      48.569  25.767  31.077  1.00  0.00     0.009 A 
ATOM     60  C   UNL A   1      49.030  26.421  28.796  1.00  0.00     0.009 A 
ATOM     61  C   UNL A   1      49.886  25.323  31.215  1.00  0.00     0.001 A 
ATOM     62  C   UNL A   1      50.335  25.943  28.924  1.00  0.00     0.001 A 
ATOM     63  C   UNL A   1      50.766  25.407  30.136  1.00  0.00     0.000 A 
ENDBRANCH  44  58
BRANCH  45  64
ATOM     64  C   UNL A   1      38.604  29.239  29.035  1.00  0.00    -0.014 A 
ATOM     65  C   UNL A   1      37.735  29.185  30.137  1.00  0.00     0.009 A 
ATOM     66  C   UNL A   1      38.112  29.713  27.809  1.00  0.00     0.009 A 
ATOM     67  C   UNL A   1      36.397  29.563  30.005  1.00  0.00     0.001 A 
ATOM     68  C   UNL A   1      36.782  30.119  27.688  1.00  0.00     0.001 A 
ATOM     69  C   UNL A   1      35.923  30.034  28.782  1.00  0.00     0.000 A 
ENDBRANCH  45  64
BRANCH  57  70
ATOM     70  C   UNL A   1      44.481  32.503  30.825  1.00  0.00    -0.014 A 
ATOM     71  C   UNL A   1      44.482  32.952  32.154  1.00  0.00     0.009 A 
ATOM     72  C   UNL A   1      44.788  33.414  29.801  1.00  0.00     0.009 A 
ATOM     73  C   UNL A   1      44.736  34.294  32.446  1.00  0.00     0.001 A 
ATOM     74  C   UNL A   1      45.078  34.746  30.098  1.00  0.00     0.001 A 
ATOM     75  C   UNL A   1      45.038  35.188  31.420  1.00  0.00     0.000 A 
ENDBRANCH  57  70
ENDBRANCH  31  32
ENDBRANCH  23  26
ENDBRANCH  21  22
ENDBRANCH  20  21
ENDBRANCH   1  20
TORSDOF 17
ENDMDL
MODEL 2
REMARK VINA RESULT:      -9.5      3.595      8.967
REMARK SMILES CCCC[C@@](CC)(C[C@H]1CCOC1)C(=O)NCCCCNC(=O)c1ccc(-c2c3nc(c(-c4ccccc4)c4ccc([nH]4)c(-c4ccccc4)c4nc(c(-c5ccccc5)c5ccc2[nH]5)C=C4)C=C3)cc1
REMARK SMILES IDX 18 1 17 2 16 3 14 4 15 5 5 7 4 8 3 9 2 10 1 11 6 12 7 13
REMARK SMILES IDX 8 14 9 15 10 16 13 17 11 18 12 19 19 20 20 21 21 22 22 23
REMARK SMILES IDX 23 25 24 26 25 27 71 28 26 29 70 30 27 31 28 32 29 33 64 34
REMARK SMILES IDX 30 35 69 36 63 37 65 38 31 39 68 40 62 41 61 42 32 44 54 45
REMARK SMILES IDX 39 46 53 47 40 48 43 49 52 50 66 51 41 52 42 53 51 55 67 56
REMARK SMILES IDX 44 57 33 58 34 59 38 60 35 61 37 62 36 63 55 64 56 65 60 66
REMARK SMILES IDX 57 67 59 68 58 69 45 70 46 71 50 72 47 73 49 74 48 75
REMARK H PARENT 16 6 21 24 65 43 43 54
REMARK Flexibility Score: inf
ROOT
ATOM      1  C   UNL A   1      34.248  31.238  27.774  1.00  0.00     0.023 C 
ENDROOT
BRANCH   1   2
ATOM      2  C   UNL A   1      34.105  29.853  27.142  1.00  0.00     0.116 C 
BRANCH   2   3
ATOM      3  N   UNL A   1      33.002  29.112  27.728  1.00  0.00    -0.356 N 
ATOM      4  C   UNL A   1      32.140  28.177  27.246  1.00  0.00     0.226 C 
ATOM      5  O   UNL A   1      31.170  27.963  27.973  1.00  0.00    -0.274 OA
ATOM      6  H   UNL A   1      32.845  29.333  28.674  1.00  0.00     0.163 HD
BRANCH   4   7
ATOM      7  C   UNL A   1      32.338  27.469  25.884  1.00  0.00     0.049 C 
BRANCH   7   8
ATOM      8  C   UNL A   1      32.614  28.471  24.703  1.00  0.00     0.017 C 
BRANCH   8   9
ATOM      9  C   UNL A   1      33.895  28.371  23.852  1.00  0.00     0.001 C 
BRANCH   9  10
ATOM     10  C   UNL A   1      33.736  28.133  22.349  1.00  0.00    -0.003 C 
ATOM     11  C   UNL A   1      33.333  26.712  21.975  1.00  0.00     0.004 C 
ENDBRANCH   9  10
ENDBRANCH   8   9
ENDBRANCH   7   8
BRANCH   7  12
ATOM     12  C   UNL A   1      31.018  26.678  25.595  1.00  0.00     0.013 C 
ATOM     13  C   UNL A   1      30.325  26.948  24.269  1.00  0.00     0.005 C 
ENDBRANCH   7  12
BRANCH   7  14
ATOM     14  C   UNL A   1      33.607  26.546  25.976  1.00  0.00     0.023 C 
BRANCH  14  15
ATOM     15  C   UNL A   1      33.527  25.133  25.343  1.00  0.00     0.018 C 
ATOM     16  C   UNL A   1      34.729  24.594  24.594  1.00  0.00     0.034 C 
ATOM     17  C   UNL A   1      33.324  24.035  26.384  1.00  0.00     0.163 C 
ATOM     18  C   UNL A   1      34.473  23.103  24.585  1.00  0.00     0.160 C 
ATOM     19  O   UNL A   1      33.755  22.802  25.786  1.00  0.00    -0.381 OA
ENDBRANCH  14  15
ENDBRANCH   7  14
ENDBRANCH   4   7
ENDBRANCH   2   3
ENDBRANCH   1   2
BRANCH   1  20
ATOM     20  C   UNL A   1      32.950  32.039  27.849  1.00  0.00     0.023 C 
BRANCH  20  21
ATOM     21  C   UNL A   1      33.055  33.458  27.315  1.00  0.00     0.116 C 
BRANCH  21  22
ATOM     22  N   UNL A   1      32.748  34.460  28.323  1.00  0.00    -0.352 N 
ATOM     23  C   UNL A   1      33.410  34.740  29.489  1.00  0.00     0.251 C 
ATOM     24  H   UNL A   1      31.953  35.012  28.144  1.00  0.00     0.163 HD
ATOM     25  O   UNL A   1      32.926  35.527  30.300  1.00  0.00    -0.269 OA
BRANCH  23  26
ATOM     26  C   UNL A   1      34.694  34.075  29.775  1.00  0.00     0.039 A 
ATOM     27  C   UNL A   1      35.803  34.388  28.987  1.00  0.00     0.014 A 
ATOM     28  C   UNL A   1      34.803  33.146  30.814  1.00  0.00     0.014 A 
ATOM     29  C   UNL A   1      37.030  33.787  29.260  1.00  0.00     0.010 A 
ATOM     30  C   UNL A   1      36.045  32.624  31.145  1.00  0.00     0.010 A 
ATOM     31  C   UNL A   1      37.164  32.911  30.351  1.00  0.00    -0.014 A 
BRANCH  31  32
ATOM     32  C   UNL A   1      38.454  32.238  30.633  1.00  0.00     0.031 A 
ATOM     33  C   UNL A   1      39.419  32.853  31.610  1.00  0.00     0.074 A 
ATOM     34  C   UNL A   1      38.769  31.096  29.995  1.00  0.00     0.049 A 
ATOM     35  N   UNL A   1      40.592  32.419  31.999  1.00  0.00    -0.248 NA
ATOM     36  C   UNL A   1      39.030  34.141  32.210  1.00  0.00     0.031 C 
ATOM     37  C   UNL A   1      37.935  30.421  28.997  1.00  0.00     0.029 A 
ATOM     38  N   UNL A   1      39.877  30.294  30.099  1.00  0.00    -0.354 N 
ATOM     39  C   UNL A   1      41.083  33.389  32.864  1.00  0.00     0.074 A 
ATOM     40  C   UNL A   1      40.115  34.461  32.897  1.00  0.00     0.031 C 
ATOM     41  C   UNL A   1      38.539  29.284  28.618  1.00  0.00     0.029 A 
ATOM     42  C   UNL A   1      39.817  29.170  29.313  1.00  0.00     0.049 A 
ATOM     43  H   UNL A   1      40.643  30.506  30.680  1.00  0.00     0.167 HD
ATOM     44  C   UNL A   1      42.227  33.379  33.589  1.00  0.00     0.031 A 
ATOM     45  C   UNL A   1      40.692  28.155  29.177  1.00  0.00     0.031 A 
ATOM     46  C   UNL A   1      43.182  32.303  33.567  1.00  0.00     0.049 A 
ATOM     47  C   UNL A   1      41.958  28.170  29.990  1.00  0.00     0.074 A 
ATOM     48  C   UNL A   1      44.342  32.164  34.307  1.00  0.00     0.029 A 
ATOM     49  N   UNL A   1      43.085  31.183  32.756  1.00  0.00    -0.354 N 
ATOM     50  N   UNL A   1      42.374  29.055  30.863  1.00  0.00    -0.248 NA
ATOM     51  C   UNL A   1      42.866  27.028  29.809  1.00  0.00     0.031 C 
ATOM     52  C   UNL A   1      44.979  30.988  33.900  1.00  0.00     0.029 A 
ATOM     53  C   UNL A   1      44.178  30.359  32.959  1.00  0.00     0.049 A 
ATOM     54  H   UNL A   1      42.348  31.001  32.127  1.00  0.00     0.167 HD
ATOM     55  C   UNL A   1      43.567  28.556  31.368  1.00  0.00     0.074 A 
ATOM     56  C   UNL A   1      43.802  27.286  30.711  1.00  0.00     0.031 C 
ATOM     57  C   UNL A   1      44.393  29.095  32.300  1.00  0.00     0.031 A 
BRANCH  44  58
ATOM     58  C   UNL A   1      42.510  34.579  34.451  1.00  0.00    -0.014 A 
ATOM     59  C   UNL A   1      42.125  34.622  35.802  1.00  0.00     0.009 A 
ATOM     60  C   UNL A   1      43.184  35.683  33.906  1.00  0.00     0.009 A 
ATOM     61  C   UNL A   1      42.364  35.762  36.572  1.00  0.00     0.001 A 
ATOM     62  C   UNL A   1      43.455  36.807  34.689  1.00  0.00     0.001 A 
ATOM     63  C   UNL A   1      43.033  36.851  36.016  1.00  0.00     0.000 A 
ENDBRANCH  44  58
BRANCH  45  64
ATOM     64  C   UNL A   1      40.384  27.018  28.272  1.00  0.00    -0.014 A 
ATOM     65  C   UNL A   1      39.570  25.961  28.710  1.00  0.00     0.009 A 
ATOM     66  C   UNL A   1      40.909  26.973  26.971  1.00  0.00     0.009 A 
ATOM     67  C   UNL A   1      39.316  24.868  27.878  1.00  0.00     0.001 A 
ATOM     68  C   UNL A   1      40.628  25.894  26.131  1.00  0.00     0.001 A 
ATOM     69  C   UNL A   1      39.842  24.838  26.588  1.00  0.00     0.000 A 
ENDBRANCH  45  64
BRANCH  57  70
ATOM     70  C   UNL A   1      45.591  28.284  32.709  1.00  0.00    -0.014 A 
ATOM     71  C   UNL A   1      45.535  27.363  33.766  1.00  0.00     0.009 A 
ATOM     72  C   UNL A   1      46.794  28.428  31.998  1.00  0.00     0.009 A 
ATOM     73  C   UNL A   1      46.673  26.641  34.134  1.00  0.00     0.001 A 
ATOM     74  C   UNL A   1      47.918  27.679  32.343  1.00  0.00     0.001 A 
ATOM     75  C   UNL A   1      47.861  26.796  33.420  1.00  0.00     0.000 A 
ENDBRANCH  57  70
ENDBRANCH  31  32
ENDBRANCH  23  26
ENDBRANCH  21  22
ENDBRANCH  20  21
ENDBRANCH   1  20
TORSDOF 17
ENDMDL
MODEL 3
REMARK VINA RESULT:      -9.4      1.476      6.216
REMARK SMILES CCCC[C@@](CC)(C[C@H]1CCOC1)C(=O)NCCCCNC(=O)c1ccc(-c2c3nc(c(-c4ccccc4)c4ccc([nH]4)c(-c4ccccc4)c4nc(c(-c5ccccc5)c5ccc2[nH]5)C=C4)C=C3)cc1
REMARK SMILES IDX 18 1 17 2 16 3 14 4 15 5 5 7 4 8 3 9 2 10 1 11 6 12 7 13
REMARK SMILES IDX 8 14 9 15 10 16 13 17 11 18 12 19 19 20 20 21 21 22 22 23
REMARK SMILES IDX 23 25 24 26 25 27 71 28 26 29 70 30 27 31 28 32 29 33 64 34
REMARK SMILES IDX 30 35 69 36 63 37 65 38 31 39 68 40 62 41 61 42 32 44 54 45
REMARK SMILES IDX 39 46 53 47 40 48 43 49 52 50 66 51 41 52 42 53 51 55 67 56
REMARK SMILES IDX 44 57 33 58 34 59 38 60 35 61 37 62 36 63 55 64 56 65 60 66
REMARK SMILES IDX 57 67 59 68 58 69 45 70 46 71 50 72 47 73 49 74 48 75
REMARK H PARENT 16 6 21 24 65 43 43 54
REMARK Flexibility Score: inf
ROOT
ATOM      1  C   UNL A   1      36.668  19.938  24.998  1.00  0.00     0.023 C 
ENDROOT
BRANCH   1   2
ATOM      2  C   UNL A   1      36.468  21.373  25.485  1.00  0.00     0.116 C 
BRANCH   2   3
ATOM      3  N   UNL A   1      35.423  21.452  26.490  1.00  0.00    -0.356 N 
ATOM      4  C   UNL A   1      34.179  22.003  26.506  1.00  0.00     0.226 C 
ATOM      5  O   UNL A   1      33.682  22.094  27.629  1.00  0.00    -0.274 OA
ATOM      6  H   UNL A   1      35.665  21.017  27.338  1.00  0.00     0.163 HD
BRANCH   4   7
ATOM      7  C   UNL A   1      33.463  22.508  25.231  1.00  0.00     0.049 C 
BRANCH   7   8
ATOM      8  C   UNL A   1      33.181  21.365  24.188  1.00  0.00     0.017 C 
BRANCH   8   9
ATOM      9  C   UNL A   1      32.427  20.083  24.591  1.00  0.00     0.001 C 
BRANCH   9  10
ATOM     10  C   UNL A   1      33.239  18.794  24.737  1.00  0.00    -0.003 C 
ATOM     11  C   UNL A   1      33.196  17.880  23.518  1.00  0.00     0.004 C 
ENDBRANCH   9  10
ENDBRANCH   8   9
ENDBRANCH   7   8
BRANCH   7  12
ATOM     12  C   UNL A   1      34.403  23.581  24.585  1.00  0.00     0.013 C 
ATOM     13  C   UNL A   1      34.766  24.787  25.437  1.00  0.00     0.005 C 
ENDBRANCH   7  12
BRANCH   7  14
ATOM     14  C   UNL A   1      32.056  23.082  25.638  1.00  0.00     0.023 C 
BRANCH  14  15
ATOM     15  C   UNL A   1      31.529  24.324  24.876  1.00  0.00     0.018 C 
ATOM     16  C   UNL A   1      30.667  24.122  23.647  1.00  0.00     0.034 C 
ATOM     17  C   UNL A   1      30.606  25.189  25.732  1.00  0.00     0.163 C 
ATOM     18  C   UNL A   1      29.967  25.456  23.509  1.00  0.00     0.160 C 
ATOM     19  O   UNL A   1      29.814  25.979  24.833  1.00  0.00    -0.381 OA
ENDBRANCH  14  15
ENDBRANCH   7  14
ENDBRANCH   4   7
ENDBRANCH   2   3
ENDBRANCH   1   2
BRANCH   1  20
ATOM     20  C   UNL A   1      38.116  19.573  24.675  1.00  0.00     0.023 C 
BRANCH  20  21
ATOM     21  C   UNL A   1      39.118  19.961  25.751  1.00  0.00     0.116 C 
BRANCH  21  22
ATOM     22  N   UNL A   1      40.190  18.990  25.894  1.00  0.00    -0.352 N 
ATOM     23  C   UNL A   1      41.523  19.205  26.124  1.00  0.00     0.251 C 
ATOM     24  H   UNL A   1      39.921  18.047  25.813  1.00  0.00     0.163 HD
ATOM     25  O   UNL A   1      42.318  18.269  26.073  1.00  0.00    -0.269 OA
BRANCH  23  26
ATOM     26  C   UNL A   1      42.001  20.570  26.412  1.00  0.00     0.039 A 
ATOM     27  C   UNL A   1      42.186  20.952  27.742  1.00  0.00     0.014 A 
ATOM     28  C   UNL A   1      42.263  21.469  25.374  1.00  0.00     0.014 A 
ATOM     29  C   UNL A   1      42.661  22.230  28.029  1.00  0.00     0.010 A 
ATOM     30  C   UNL A   1      42.828  22.705  25.658  1.00  0.00     0.010 A 
ATOM     31  C   UNL A   1      43.000  23.111  26.989  1.00  0.00    -0.014 A 
BRANCH  31  32
ATOM     32  C   UNL A   1      43.474  24.485  27.279  1.00  0.00     0.031 A 
ATOM     33  C   UNL A   1      42.493  25.535  27.724  1.00  0.00     0.074 A 
ATOM     34  C   UNL A   1      44.774  24.795  27.116  1.00  0.00     0.049 A 
ATOM     35  N   UNL A   1      42.708  26.789  28.032  1.00  0.00    -0.248 NA
ATOM     36  C   UNL A   1      41.078  25.134  27.806  1.00  0.00     0.031 C 
ATOM     37  C   UNL A   1      45.816  23.874  26.653  1.00  0.00     0.029 A 
ATOM     38  N   UNL A   1      45.442  25.972  27.332  1.00  0.00    -0.354 N 
ATOM     39  C   UNL A   1      41.458  27.325  28.320  1.00  0.00     0.074 A 
ATOM     40  C   UNL A   1      40.485  26.282  28.090  1.00  0.00     0.031 C 
ATOM     41  C   UNL A   1      46.999  24.509  26.667  1.00  0.00     0.029 A 
ATOM     42  C   UNL A   1      46.793  25.888  27.099  1.00  0.00     0.049 A 
ATOM     43  H   UNL A   1      44.996  26.800  27.625  1.00  0.00     0.167 HD
ATOM     44  C   UNL A   1      41.148  28.567  28.761  1.00  0.00     0.031 A 
ATOM     45  C   UNL A   1      47.759  26.817  27.231  1.00  0.00     0.031 A 
ATOM     46  C   UNL A   1      42.120  29.598  29.004  1.00  0.00     0.049 A 
ATOM     47  C   UNL A   1      47.387  28.192  27.718  1.00  0.00     0.074 A 
ATOM     48  C   UNL A   1      41.921  30.871  29.509  1.00  0.00     0.029 A 
ATOM     49  N   UNL A   1      43.478  29.474  28.754  1.00  0.00    -0.354 N 
ATOM     50  N   UNL A   1      46.212  28.661  28.061  1.00  0.00    -0.248 NA
ATOM     51  C   UNL A   1      48.486  29.157  27.855  1.00  0.00     0.031 C 
ATOM     52  C   UNL A   1      43.149  31.537  29.508  1.00  0.00     0.029 A 
ATOM     53  C   UNL A   1      44.126  30.655  29.071  1.00  0.00     0.049 A 
ATOM     54  H   UNL A   1      43.917  28.665  28.402  1.00  0.00     0.167 HD
ATOM     55  C   UNL A   1      46.437  29.961  28.496  1.00  0.00     0.074 A 
ATOM     56  C   UNL A   1      47.862  30.200  28.383  1.00  0.00     0.031 C 
ATOM     57  C   UNL A   1      45.546  30.874  28.957  1.00  0.00     0.031 A 
BRANCH  44  58
ATOM     58  C   UNL A   1      39.693  28.876  28.990  1.00  0.00    -0.014 A 
ATOM     59  C   UNL A   1      38.881  29.394  27.967  1.00  0.00     0.009 A 
ATOM     60  C   UNL A   1      39.121  28.634  30.249  1.00  0.00     0.009 A 
ATOM     61  C   UNL A   1      37.543  29.708  28.214  1.00  0.00     0.001 A 
ATOM     62  C   UNL A   1      37.774  28.915  30.483  1.00  0.00     0.001 A 
ATOM     63  C   UNL A   1      36.990  29.464  29.470  1.00  0.00     0.000 A 
ENDBRANCH  44  58
BRANCH  45  64
ATOM     64  C   UNL A   1      49.175  26.471  26.942  1.00  0.00    -0.014 A 
ATOM     65  C   UNL A   1      49.712  26.684  25.663  1.00  0.00     0.009 A 
ATOM     66  C   UNL A   1      49.995  25.915  27.937  1.00  0.00     0.009 A 
ATOM     67  C   UNL A   1      51.029  26.318  25.376  1.00  0.00     0.001 A 
ATOM     68  C   UNL A   1      51.320  25.579  27.656  1.00  0.00     0.001 A 
ATOM     69  C   UNL A   1      51.833  25.770  26.374  1.00  0.00     0.000 A 
ENDBRANCH  45  64
BRANCH  57  70
ATOM     70  C   UNL A   1      46.095  32.190  29.433  1.00  0.00    -0.014 A 
ATOM     71  C   UNL A   1      46.519  32.380  30.757  1.00  0.00     0.009 A 
ATOM     72  C   UNL A   1      46.213  33.254  28.524  1.00  0.00     0.009 A 
ATOM     73  C   UNL A   1      47.003  33.623  31.172  1.00  0.00     0.001 A 
ATOM     74  C   UNL A   1      46.732  34.483  28.931  1.00  0.00     0.001 A 
ATOM     75  C   UNL A   1      47.114  34.670  30.259  1.00  0.00     0.000 A 
ENDBRANCH  57  70
ENDBRANCH  31  32
ENDBRANCH  23  26
ENDBRANCH  21  22
ENDBRANCH  20  21
ENDBRANCH   1  20
TORSDOF 17
ENDMDL
