MODEL 1
REMARK VINA RESULT:     -13.4      0.000      0.000
REMARK SMILES O=C(NCCCCNC(=O)c1ccn(-c2cc(-c3ccncc3)nc(-c3ccccc3F)n2)n1)c1ccc(-c2c3nc(c(-c4ccccc4)c4ccc([nH]4)c(-c4ccccc4)c4nc(c(-c5ccccc5)c5ccc2[nH]5)C=C4)C=C3)cc1
REMARK SMILES IDX 5 1 4 2 3 3 1 4 2 5 35 7 36 8 82 9 37 10 81 11 38 12 39 13
REMARK SMILES IDX 40 14 75 15 41 16 80 17 74 18 76 19 42 20 79 21 73 22 72 23
REMARK SMILES IDX 43 25 65 26 50 27 64 28 51 29 54 30 63 31 77 32 52 33 53 34
REMARK SMILES IDX 62 36 78 37 55 38 44 39 45 40 49 41 46 42 48 43 47 44 66 45
REMARK SMILES IDX 67 46 71 47 68 48 70 49 69 50 56 51 57 52 61 53 58 54 60 55
REMARK SMILES IDX 59 56 6 57 7 58 8 59 9 60 10 62 11 63 12 64 34 65 13 66
REMARK SMILES IDX 14 67 15 68 16 69 33 70 17 71 25 72 24 73 18 74 19 75 23 76
REMARK SMILES IDX 20 77 22 78 21 79 26 80 27 81 31 82 28 83 30 84 32 85 29 86
REMARK H PARENT 3 6 76 24 54 35 8 61
REMARK Flexibility Score: inf
ROOT
ATOM      1  C   UNL A   1      36.928  21.389  24.563  1.00  0.00     0.023 C 
ENDROOT
BRANCH   1   2
ATOM      2  C   UNL A   1      37.626  22.050  25.751  1.00  0.00     0.116 C 
BRANCH   2   3
ATOM      3  N   UNL A   1      39.052  21.801  25.808  1.00  0.00    -0.352 N 
ATOM      4  O   UNL A   1      41.191  21.789  26.318  1.00  0.00    -0.269 OA
ATOM      5  C   UNL A   1      40.126  22.410  26.392  1.00  0.00     0.251 C 
ATOM      6  H   UNL A   1      39.310  20.998  25.300  1.00  0.00     0.163 HD
BRANCH   5   7
ATOM      7  C   UNL A   1      40.131  23.749  27.050  1.00  0.00     0.039 A 
ATOM      8  C   UNL A   1      39.125  24.710  26.979  1.00  0.00     0.014 A 
ATOM      9  C   UNL A   1      41.294  24.056  27.787  1.00  0.00     0.014 A 
ATOM     10  C   UNL A   1      39.301  25.962  27.577  1.00  0.00     0.010 A 
ATOM     11  C   UNL A   1      41.475  25.302  28.385  1.00  0.00     0.010 A 
ATOM     12  C   UNL A   1      40.487  26.270  28.254  1.00  0.00    -0.014 A 
BRANCH  12  13
ATOM     13  C   UNL A   1      40.600  27.569  28.919  1.00  0.00     0.031 A 
ATOM     14  C   UNL A   1      41.569  28.521  28.299  1.00  0.00     0.074 A 
ATOM     15  C   UNL A   1      39.813  27.990  29.931  1.00  0.00     0.049 A 
ATOM     16  N   UNL A   1      42.628  29.040  28.829  1.00  0.00    -0.248 NA
ATOM     17  C   UNL A   1      41.363  28.885  26.889  1.00  0.00     0.031 C 
ATOM     18  C   UNL A   1      38.614  27.353  30.482  1.00  0.00     0.029 A 
ATOM     19  N   UNL A   1      39.885  29.161  30.630  1.00  0.00    -0.354 N 
ATOM     20  C   UNL A   1      43.156  29.910  27.875  1.00  0.00     0.074 A 
ATOM     21  C   UNL A   1      42.394  29.703  26.669  1.00  0.00     0.031 C 
ATOM     22  C   UNL A   1      37.956  28.239  31.267  1.00  0.00     0.029 A 
ATOM     23  C   UNL A   1      38.760  29.445  31.393  1.00  0.00     0.049 A 
ATOM     24  H   UNL A   1      40.669  29.755  30.597  1.00  0.00     0.167 HD
ATOM     25  C   UNL A   1      44.077  30.863  28.186  1.00  0.00     0.031 A 
ATOM     26  C   UNL A   1      38.490  30.602  32.048  1.00  0.00     0.031 A 
ATOM     27  C   UNL A   1      44.710  30.619  29.452  1.00  0.00     0.049 A 
ATOM     28  C   UNL A   1      39.764  31.331  32.227  1.00  0.00     0.074 A 
ATOM     29  C   UNL A   1      45.497  29.608  29.969  1.00  0.00     0.029 A 
ATOM     30  N   UNL A   1      44.273  31.341  30.535  1.00  0.00    -0.354 N 
ATOM     31  N   UNL A   1      40.718  30.932  33.016  1.00  0.00    -0.248 NA
ATOM     32  C   UNL A   1      40.150  32.304  31.219  1.00  0.00     0.031 C 
ATOM     33  C   UNL A   1      45.074  29.475  31.323  1.00  0.00     0.029 A 
ATOM     34  C   UNL A   1      44.102  30.448  31.561  1.00  0.00     0.049 A 
ATOM     35  H   UNL A   1      44.115  32.312  30.569  1.00  0.00     0.167 HD
ATOM     36  C   UNL A   1      41.886  31.252  32.343  1.00  0.00     0.074 A 
ATOM     37  C   UNL A   1      41.477  32.187  31.298  1.00  0.00     0.031 C 
ATOM     38  C   UNL A   1      43.025  30.520  32.521  1.00  0.00     0.031 A 
BRANCH  25  39
ATOM     39  C   UNL A   1      44.162  32.204  27.503  1.00  0.00    -0.014 A 
ATOM     40  C   UNL A   1      43.695  33.348  28.176  1.00  0.00     0.009 A 
ATOM     41  C   UNL A   1      44.422  32.340  26.126  1.00  0.00     0.009 A 
ATOM     42  C   UNL A   1      43.444  34.545  27.492  1.00  0.00     0.001 A 
ATOM     43  C   UNL A   1      44.209  33.543  25.448  1.00  0.00     0.001 A 
ATOM     44  C   UNL A   1      43.695  34.639  26.126  1.00  0.00     0.000 A 
ENDBRANCH  25  39
BRANCH  26  45
ATOM     45  C   UNL A   1      37.189  31.255  32.304  1.00  0.00    -0.014 A 
ATOM     46  C   UNL A   1      36.965  31.987  33.481  1.00  0.00     0.009 A 
ATOM     47  C   UNL A   1      36.266  31.405  31.253  1.00  0.00     0.009 A 
ATOM     48  C   UNL A   1      35.881  32.869  33.586  1.00  0.00     0.001 A 
ATOM     49  C   UNL A   1      35.182  32.283  31.358  1.00  0.00     0.001 A 
ATOM     50  C   UNL A   1      34.999  33.028  32.519  1.00  0.00     0.000 A 
ENDBRANCH  26  45
BRANCH  38  51
ATOM     51  C   UNL A   1      43.048  29.503  33.636  1.00  0.00    -0.014 A 
ATOM     52  C   UNL A   1      43.403  29.823  34.958  1.00  0.00     0.009 A 
ATOM     53  C   UNL A   1      42.546  28.219  33.376  1.00  0.00     0.009 A 
ATOM     54  C   UNL A   1      43.286  28.876  35.982  1.00  0.00     0.001 A 
ATOM     55  C   UNL A   1      42.408  27.281  34.402  1.00  0.00     0.001 A 
ATOM     56  C   UNL A   1      42.781  27.608  35.703  1.00  0.00     0.000 A 
ENDBRANCH  38  51
ENDBRANCH  12  13
ENDBRANCH   5   7
ENDBRANCH   2   3
ENDBRANCH   1   2
BRANCH   1  57
ATOM     57  C   UNL A   1      35.497  21.878  24.284  1.00  0.00     0.023 C 
BRANCH  57  58
ATOM     58  C   UNL A   1      34.372  20.920  24.685  1.00  0.00     0.116 C 
BRANCH  58  59
ATOM     59  N   UNL A   1      34.094  20.986  26.106  1.00  0.00    -0.351 N 
ATOM     60  C   UNL A   1      33.352  21.915  26.797  1.00  0.00     0.271 C 
ATOM     61  H   UNL A   1      34.490  20.268  26.651  1.00  0.00     0.163 HD
ATOM     62  O   UNL A   1      33.389  21.893  28.026  1.00  0.00    -0.267 OA
BRANCH  60  63
ATOM     63  C   UNL A   1      32.501  22.853  26.056  1.00  0.00     0.150 A 
ATOM     64  C   UNL A   1      31.189  22.615  25.569  1.00  0.00     0.056 A 
ATOM     65  N   UNL A   1      32.879  24.122  25.816  1.00  0.00    -0.161 NA
ATOM     66  C   UNL A   1      30.724  23.846  25.178  1.00  0.00     0.118 A 
ATOM     67  N   UNL A   1      31.747  24.742  25.392  1.00  0.00    -0.222 N 
BRANCH  67  68
ATOM     68  C   UNL A   1      31.675  26.154  25.229  1.00  0.00     0.158 A 
ATOM     69  C   UNL A   1      30.880  26.659  24.220  1.00  0.00     0.078 A 
ATOM     70  N   UNL A   1      32.388  26.934  26.073  1.00  0.00    -0.209 NA
ATOM     71  C   UNL A   1      30.804  28.034  24.142  1.00  0.00     0.077 A 
ATOM     72  C   UNL A   1      32.320  28.258  25.851  1.00  0.00     0.165 A 
ATOM     73  N   UNL A   1      31.549  28.844  24.919  1.00  0.00    -0.228 NA
BRANCH  71  74
ATOM     74  C   UNL A   1      29.861  28.709  23.249  1.00  0.00     0.003 A 
ATOM     75  C   UNL A   1      28.507  28.350  23.233  1.00  0.00     0.030 A 
ATOM     76  C   UNL A   1      30.273  29.751  22.411  1.00  0.00     0.030 A 
ATOM     77  C   UNL A   1      27.643  29.028  22.389  1.00  0.00     0.111 A 
ATOM     78  C   UNL A   1      29.335  30.361  21.595  1.00  0.00     0.111 A 
ATOM     79  N   UNL A   1      28.029  30.019  21.561  1.00  0.00    -0.265 NA
ENDBRANCH  71  74
BRANCH  72  80
ATOM     80  C   UNL A   1      33.247  29.116  26.576  1.00  0.00     0.055 A 
ATOM     81  C   UNL A   1      34.559  28.689  26.853  1.00  0.00     0.015 A 
ATOM     82  C   UNL A   1      32.879  30.402  26.981  1.00  0.00     0.134 A 
ATOM     83  C   UNL A   1      35.469  29.532  27.500  1.00  0.00     0.001 A 
ATOM     84  C   UNL A   1      33.778  31.245  27.634  1.00  0.00     0.040 A 
ATOM     85  F   UNL A   1      31.634  30.851  26.759  1.00  0.00    -0.206 F 
ATOM     86  C   UNL A   1      35.079  30.812  27.890  1.00  0.00     0.003 A 
ENDBRANCH  72  80
ENDBRANCH  67  68
ENDBRANCH  60  63
ENDBRANCH  58  59
ENDBRANCH  57  58
ENDBRANCH   1  57
TORSDOF 14
ENDMDL
MODEL 2
REMARK VINA RESULT:     -13.4      2.989      8.445
REMARK SMILES O=C(NCCCCNC(=O)c1ccn(-c2cc(-c3ccncc3)nc(-c3ccccc3F)n2)n1)c1ccc(-c2c3nc(c(-c4ccccc4)c4ccc([nH]4)c(-c4ccccc4)c4nc(c(-c5ccccc5)c5ccc2[nH]5)C=C4)C=C3)cc1
REMARK SMILES IDX 5 1 4 2 3 3 1 4 2 5 35 7 36 8 82 9 37 10 81 11 38 12 39 13
REMARK SMILES IDX 40 14 75 15 41 16 80 17 74 18 76 19 42 20 79 21 73 22 72 23
REMARK SMILES IDX 43 25 65 26 50 27 64 28 51 29 54 30 63 31 77 32 52 33 53 34
REMARK SMILES IDX 62 36 78 37 55 38 44 39 45 40 49 41 46 42 48 43 47 44 66 45
REMARK SMILES IDX 67 46 71 47 68 48 70 49 69 50 56 51 57 52 61 53 58 54 60 55
REMARK SMILES IDX 59 56 6 57 7 58 8 59 9 60 10 62 11 63 12 64 34 65 13 66
REMARK SMILES IDX 14 67 15 68 16 69 33 70 17 71 25 72 24 73 18 74 19 75 23 76
REMARK SMILES IDX 20 77 22 78 21 79 26 80 27 81 31 82 28 83 30 84 32 85 29 86
REMARK H PARENT 3 6 76 24 54 35 8 61
REMARK Flexibility Score: inf
ROOT
ATOM      1  C   UNL A   1      31.980  30.220  26.485  1.00  0.00     0.023 C 
ENDROOT
BRANCH   1   2
ATOM      2  C   UNL A   1      33.109  30.217  27.514  1.00  0.00     0.116 C 
BRANCH   2   3
ATOM      3  N   UNL A   1      33.738  31.508  27.700  1.00  0.00    -0.352 N 
ATOM      4  O   UNL A   1      35.157  33.182  27.850  1.00  0.00    -0.269 OA
ATOM      5  C   UNL A   1      35.019  31.955  27.867  1.00  0.00     0.251 C 
ATOM      6  H   UNL A   1      33.083  32.243  27.709  1.00  0.00     0.163 HD
BRANCH   5   7
ATOM      7  C   UNL A   1      36.223  31.110  28.112  1.00  0.00     0.039 A 
ATOM      8  C   UNL A   1      36.352  29.751  27.830  1.00  0.00     0.014 A 
ATOM      9  C   UNL A   1      37.313  31.771  28.715  1.00  0.00     0.014 A 
ATOM     10  C   UNL A   1      37.514  29.062  28.194  1.00  0.00     0.010 A 
ATOM     11  C   UNL A   1      38.473  31.090  29.080  1.00  0.00     0.010 A 
ATOM     12  C   UNL A   1      38.562  29.723  28.845  1.00  0.00    -0.014 A 
BRANCH  12  13
ATOM     13  C   UNL A   1      39.784  28.975  29.148  1.00  0.00     0.031 A 
ATOM     14  C   UNL A   1      40.098  28.830  30.600  1.00  0.00     0.074 A 
ATOM     15  C   UNL A   1      40.534  28.321  28.238  1.00  0.00     0.049 A 
ATOM     16  N   UNL A   1      41.139  29.255  31.238  1.00  0.00    -0.248 NA
ATOM     17  C   UNL A   1      39.092  28.184  31.457  1.00  0.00     0.031 C 
ATOM     18  C   UNL A   1      40.246  28.074  26.823  1.00  0.00     0.029 A 
ATOM     19  N   UNL A   1      41.705  27.644  28.433  1.00  0.00    -0.354 N 
ATOM     20  C   UNL A   1      40.998  28.815  32.554  1.00  0.00     0.074 A 
ATOM     21  C   UNL A   1      39.678  28.244  32.654  1.00  0.00     0.031 C 
ATOM     22  C   UNL A   1      41.094  27.129  26.351  1.00  0.00     0.029 A 
ATOM     23  C   UNL A   1      42.074  26.819  27.379  1.00  0.00     0.049 A 
ATOM     24  H   UNL A   1      42.243  27.735  29.253  1.00  0.00     0.167 HD
ATOM     25  C   UNL A   1      42.037  28.797  33.434  1.00  0.00     0.031 A 
ATOM     26  C   UNL A   1      43.087  25.916  27.368  1.00  0.00     0.031 A 
ATOM     27  C   UNL A   1      43.134  29.617  33.000  1.00  0.00     0.049 A 
ATOM     28  C   UNL A   1      44.027  26.274  28.451  1.00  0.00     0.074 A 
ATOM     29  C   UNL A   1      43.301  30.963  32.742  1.00  0.00     0.029 A 
ATOM     30  N   UNL A   1      44.211  28.991  32.424  1.00  0.00    -0.354 N 
ATOM     31  N   UNL A   1      44.775  27.338  28.435  1.00  0.00    -0.248 NA
ATOM     32  C   UNL A   1      43.847  25.654  29.753  1.00  0.00     0.031 C 
ATOM     33  C   UNL A   1      44.168  31.012  31.612  1.00  0.00     0.029 A 
ATOM     34  C   UNL A   1      44.518  29.699  31.291  1.00  0.00     0.049 A 
ATOM     35  H   UNL A   1      44.674  28.190  32.759  1.00  0.00     0.167 HD
ATOM     36  C   UNL A   1      44.796  27.772  29.751  1.00  0.00     0.074 A 
ATOM     37  C   UNL A   1      44.299  26.641  30.531  1.00  0.00     0.031 C 
ATOM     38  C   UNL A   1      44.953  29.094  30.054  1.00  0.00     0.031 A 
BRANCH  25  39
ATOM     39  C   UNL A   1      42.199  27.767  34.522  1.00  0.00    -0.014 A 
ATOM     40  C   UNL A   1      42.599  26.462  34.179  1.00  0.00     0.009 A 
ATOM     41  C   UNL A   1      41.704  27.956  35.826  1.00  0.00     0.009 A 
ATOM     42  C   UNL A   1      42.452  25.395  35.074  1.00  0.00     0.001 A 
ATOM     43  C   UNL A   1      41.592  26.900  36.735  1.00  0.00     0.001 A 
ATOM     44  C   UNL A   1      41.941  25.614  36.350  1.00  0.00     0.000 A 
ENDBRANCH  25  39
BRANCH  26  45
ATOM     45  C   UNL A   1      43.179  24.618  26.667  1.00  0.00    -0.014 A 
ATOM     46  C   UNL A   1      43.098  24.544  25.267  1.00  0.00     0.009 A 
ATOM     47  C   UNL A   1      43.645  23.485  27.357  1.00  0.00     0.009 A 
ATOM     48  C   UNL A   1      43.508  23.392  24.581  1.00  0.00     0.001 A 
ATOM     49  C   UNL A   1      44.053  22.334  26.674  1.00  0.00     0.001 A 
ATOM     50  C   UNL A   1      43.999  22.294  25.284  1.00  0.00     0.000 A 
ENDBRANCH  26  45
BRANCH  38  51
ATOM     51  C   UNL A   1      45.334  30.037  28.939  1.00  0.00    -0.014 A 
ATOM     52  C   UNL A   1      44.409  30.530  28.002  1.00  0.00     0.009 A 
ATOM     53  C   UNL A   1      46.634  30.565  28.929  1.00  0.00     0.009 A 
ATOM     54  C   UNL A   1      44.783  31.500  27.066  1.00  0.00     0.001 A 
ATOM     55  C   UNL A   1      47.001  31.551  28.011  1.00  0.00     0.001 A 
ATOM     56  C   UNL A   1      46.078  32.015  27.077  1.00  0.00     0.000 A 
ENDBRANCH  38  51
ENDBRANCH  12  13
ENDBRANCH   5   7
ENDBRANCH   2   3
ENDBRANCH   1   2
BRANCH   1  57
ATOM     57  C   UNL A   1      31.706  28.869  25.802  1.00  0.00     0.023 C 
BRANCH  57  58
ATOM     58  C   UNL A   1      31.306  28.935  24.325  1.00  0.00     0.116 C 
BRANCH  58  59
ATOM     59  N   UNL A   1      32.461  29.090  23.464  1.00  0.00    -0.351 N 
ATOM     60  C   UNL A   1      33.390  28.148  23.089  1.00  0.00     0.271 C 
ATOM     61  H   UNL A   1      32.599  29.992  23.096  1.00  0.00     0.163 HD
ATOM     62  O   UNL A   1      34.397  28.527  22.495  1.00  0.00    -0.267 OA
BRANCH  60  63
ATOM     63  C   UNL A   1      33.122  26.728  23.351  1.00  0.00     0.150 A 
ATOM     64  C   UNL A   1      32.051  25.952  22.837  1.00  0.00     0.056 A 
ATOM     65  N   UNL A   1      33.955  25.970  24.088  1.00  0.00    -0.161 NA
ATOM     66  C   UNL A   1      32.367  24.654  23.154  1.00  0.00     0.118 A 
ATOM     67  N   UNL A   1      33.549  24.694  23.859  1.00  0.00    -0.222 N 
BRANCH  67  68
ATOM     68  C   UNL A   1      34.305  23.572  24.297  1.00  0.00     0.158 A 
ATOM     69  C   UNL A   1      33.697  22.333  24.304  1.00  0.00     0.078 A 
ATOM     70  N   UNL A   1      35.587  23.772  24.682  1.00  0.00    -0.209 NA
ATOM     71  C   UNL A   1      34.492  21.272  24.685  1.00  0.00     0.077 A 
ATOM     72  C   UNL A   1      36.244  22.687  25.127  1.00  0.00     0.165 A 
ATOM     73  N   UNL A   1      35.749  21.438  25.139  1.00  0.00    -0.228 NA
BRANCH  71  74
ATOM     74  C   UNL A   1      34.043  19.883  24.564  1.00  0.00     0.003 A 
ATOM     75  C   UNL A   1      32.694  19.584  24.333  1.00  0.00     0.030 A 
ATOM     76  C   UNL A   1      34.947  18.819  24.642  1.00  0.00     0.030 A 
ATOM     77  C   UNL A   1      32.313  18.259  24.203  1.00  0.00     0.111 A 
ATOM     78  C   UNL A   1      34.468  17.526  24.509  1.00  0.00     0.111 A 
ATOM     79  N   UNL A   1      33.169  17.221  24.297  1.00  0.00    -0.265 NA
ENDBRANCH  71  74
BRANCH  72  80
ATOM     80  C   UNL A   1      37.535  22.892  25.769  1.00  0.00     0.055 A 
ATOM     81  C   UNL A   1      37.816  24.087  26.458  1.00  0.00     0.015 A 
ATOM     82  C   UNL A   1      38.517  21.898  25.758  1.00  0.00     0.134 A 
ATOM     83  C   UNL A   1      39.034  24.265  27.123  1.00  0.00     0.001 A 
ATOM     84  C   UNL A   1      39.737  22.072  26.411  1.00  0.00     0.040 A 
ATOM     85  F   UNL A   1      38.308  20.748  25.099  1.00  0.00    -0.206 F 
ATOM     86  C   UNL A   1      39.994  23.256  27.101  1.00  0.00     0.003 A 
ENDBRANCH  72  80
ENDBRANCH  67  68
ENDBRANCH  60  63
ENDBRANCH  58  59
ENDBRANCH  57  58
ENDBRANCH   1  57
TORSDOF 14
ENDMDL
MODEL 3
REMARK VINA RESULT:     -13.1      3.041      8.773
REMARK SMILES O=C(NCCCCNC(=O)c1ccn(-c2cc(-c3ccncc3)nc(-c3ccccc3F)n2)n1)c1ccc(-c2c3nc(c(-c4ccccc4)c4ccc([nH]4)c(-c4ccccc4)c4nc(c(-c5ccccc5)c5ccc2[nH]5)C=C4)C=C3)cc1
REMARK SMILES IDX 5 1 4 2 3 3 1 4 2 5 35 7 36 8 82 9 37 10 81 11 38 12 39 13
REMARK SMILES IDX 40 14 75 15 41 16 80 17 74 18 76 19 42 20 79 21 73 22 72 23
REMARK SMILES IDX 43 25 65 26 50 27 64 28 51 29 54 30 63 31 77 32 52 33 53 34
REMARK SMILES IDX 62 36 78 37 55 38 44 39 45 40 49 41 46 42 48 43 47 44 66 45
REMARK SMILES IDX 67 46 71 47 68 48 70 49 69 50 56 51 57 52 61 53 58 54 60 55
REMARK SMILES IDX 59 56 6 57 7 58 8 59 9 60 10 62 11 63 12 64 34 65 13 66
REMARK SMILES IDX 14 67 15 68 16 69 33 70 17 71 25 72 24 73 18 74 19 75 23 76
REMARK SMILES IDX 20 77 22 78 21 79 26 80 27 81 31 82 28 83 30 84 32 85 29 86
REMARK H PARENT 3 6 76 24 54 35 8 61
REMARK Flexibility Score: inf
ROOT
ATOM      1  C   UNL A   1      31.969  29.094  26.366  1.00  0.00     0.023 C 
ENDROOT
BRANCH   1   2
ATOM      2  C   UNL A   1      33.380  29.654  26.540  1.00  0.00     0.116 C 
BRANCH   2   3
ATOM      3  N   UNL A   1      33.430  30.909  27.259  1.00  0.00    -0.352 N 
ATOM      4  O   UNL A   1      34.059  32.744  28.297  1.00  0.00    -0.269 OA
ATOM      5  C   UNL A   1      34.390  31.611  27.932  1.00  0.00     0.251 C 
ATOM      6  H   UNL A   1      32.559  31.369  27.266  1.00  0.00     0.163 HD
BRANCH   5   7
ATOM      7  C   UNL A   1      35.749  31.119  28.298  1.00  0.00     0.039 A 
ATOM      8  C   UNL A   1      36.790  31.879  28.829  1.00  0.00     0.014 A 
ATOM      9  C   UNL A   1      35.986  29.752  28.045  1.00  0.00     0.014 A 
ATOM     10  C   UNL A   1      38.046  31.303  29.045  1.00  0.00     0.010 A 
ATOM     11  C   UNL A   1      37.235  29.172  28.258  1.00  0.00     0.010 A 
ATOM     12  C   UNL A   1      38.278  29.958  28.732  1.00  0.00    -0.014 A 
BRANCH  12  13
ATOM     13  C   UNL A   1      39.590  29.383  29.036  1.00  0.00     0.031 A 
ATOM     14  C   UNL A   1      39.828  29.066  30.476  1.00  0.00     0.074 A 
ATOM     15  C   UNL A   1      40.502  29.011  28.115  1.00  0.00     0.049 A 
ATOM     16  N   UNL A   1      40.734  29.551  31.260  1.00  0.00    -0.248 NA
ATOM     17  C   UNL A   1      38.897  28.137  31.135  1.00  0.00     0.031 C 
ATOM     18  C   UNL A   1      40.355  28.943  26.659  1.00  0.00     0.029 A 
ATOM     19  N   UNL A   1      41.758  28.512  28.318  1.00  0.00    -0.354 N 
ATOM     20  C   UNL A   1      40.586  28.894  32.481  1.00  0.00     0.074 A 
ATOM     21  C   UNL A   1      39.383  28.106  32.377  1.00  0.00     0.031 C 
ATOM     22  C   UNL A   1      41.386  28.236  26.137  1.00  0.00     0.029 A 
ATOM     23  C   UNL A   1      42.335  27.933  27.196  1.00  0.00     0.049 A 
ATOM     24  H   UNL A   1      42.216  28.561  29.188  1.00  0.00     0.167 HD
ATOM     25  C   UNL A   1      41.552  28.909  33.441  1.00  0.00     0.031 A 
ATOM     26  C   UNL A   1      43.489  27.222  27.149  1.00  0.00     0.031 A 
ATOM     27  C   UNL A   1      42.513  29.956  33.232  1.00  0.00     0.049 A 
ATOM     28  C   UNL A   1      44.279  27.555  28.354  1.00  0.00     0.074 A 
ATOM     29  C   UNL A   1      42.457  31.334  33.184  1.00  0.00     0.029 A 
ATOM     30  N   UNL A   1      43.719  29.613  32.673  1.00  0.00    -0.354 N 
ATOM     31  N   UNL A   1      44.827  28.717  28.558  1.00  0.00    -0.248 NA
ATOM     32  C   UNL A   1      44.125  26.719  29.532  1.00  0.00     0.031 C 
ATOM     33  C   UNL A   1      43.375  31.700  32.157  1.00  0.00     0.029 A 
ATOM     34  C   UNL A   1      43.971  30.529  31.686  1.00  0.00     0.049 A 
ATOM     35  H   UNL A   1      44.293  28.856  32.932  1.00  0.00     0.167 HD
ATOM     36  C   UNL A   1      44.685  28.938  29.919  1.00  0.00     0.074 A 
ATOM     37  C   UNL A   1      44.344  27.633  30.481  1.00  0.00     0.031 C 
ATOM     38  C   UNL A   1      44.587  30.204  30.420  1.00  0.00     0.031 A 
BRANCH  25  39
ATOM     39  C   UNL A   1      41.820  27.763  34.382  1.00  0.00    -0.014 A 
ATOM     40  C   UNL A   1      41.654  27.958  35.766  1.00  0.00     0.009 A 
ATOM     41  C   UNL A   1      42.495  26.594  33.983  1.00  0.00     0.009 A 
ATOM     42  C   UNL A   1      42.191  27.061  36.699  1.00  0.00     0.001 A 
ATOM     43  C   UNL A   1      42.997  25.677  34.911  1.00  0.00     0.001 A 
ATOM     44  C   UNL A   1      42.868  25.924  36.270  1.00  0.00     0.000 A 
ENDBRANCH  25  39
BRANCH  26  45
ATOM     45  C   UNL A   1      43.855  26.082  26.282  1.00  0.00    -0.014 A 
ATOM     46  C   UNL A   1      45.085  26.053  25.605  1.00  0.00     0.009 A 
ATOM     47  C   UNL A   1      43.119  24.886  26.356  1.00  0.00     0.009 A 
ATOM     48  C   UNL A   1      45.579  24.860  25.058  1.00  0.00     0.001 A 
ATOM     49  C   UNL A   1      43.610  23.696  25.810  1.00  0.00     0.001 A 
ATOM     50  C   UNL A   1      44.849  23.679  25.174  1.00  0.00     0.000 A 
ENDBRANCH  26  45
BRANCH  38  51
ATOM     51  C   UNL A   1      44.868  31.359  29.491  1.00  0.00    -0.014 A 
ATOM     52  C   UNL A   1      46.120  31.995  29.416  1.00  0.00     0.009 A 
ATOM     53  C   UNL A   1      43.887  31.714  28.554  1.00  0.00     0.009 A 
ATOM     54  C   UNL A   1      46.370  32.976  28.450  1.00  0.00     0.001 A 
ATOM     55  C   UNL A   1      44.144  32.676  27.575  1.00  0.00     0.001 A 
ATOM     56  C   UNL A   1      45.383  33.310  27.525  1.00  0.00     0.000 A 
ENDBRANCH  38  51
ENDBRANCH  12  13
ENDBRANCH   5   7
ENDBRANCH   2   3
ENDBRANCH   1   2
BRANCH   1  57
ATOM     57  C   UNL A   1      31.334  29.322  24.984  1.00  0.00     0.023 C 
BRANCH  57  58
ATOM     58  C   UNL A   1      31.512  28.188  23.971  1.00  0.00     0.116 C 
BRANCH  58  59
ATOM     59  N   UNL A   1      32.515  28.510  22.977  1.00  0.00    -0.351 N 
ATOM     60  C   UNL A   1      33.442  27.683  22.387  1.00  0.00     0.271 C 
ATOM     61  H   UNL A   1      32.537  29.450  22.683  1.00  0.00     0.163 HD
ATOM     62  O   UNL A   1      34.324  28.193  21.699  1.00  0.00    -0.267 OA
BRANCH  60  63
ATOM     63  C   UNL A   1      33.314  26.229  22.544  1.00  0.00     0.150 A 
ATOM     64  C   UNL A   1      32.614  25.336  21.690  1.00  0.00     0.056 A 
ATOM     65  N   UNL A   1      33.941  25.561  23.528  1.00  0.00    -0.161 NA
ATOM     66  C   UNL A   1      32.989  24.081  22.103  1.00  0.00     0.118 A 
ATOM     67  N   UNL A   1      33.833  24.252  23.177  1.00  0.00    -0.222 N 
BRANCH  67  68
ATOM     68  C   UNL A   1      34.548  23.227  23.856  1.00  0.00     0.158 A 
ATOM     69  C   UNL A   1      35.813  23.512  24.329  1.00  0.00     0.078 A 
ATOM     70  N   UNL A   1      33.952  22.022  24.008  1.00  0.00    -0.209 NA
ATOM     71  C   UNL A   1      36.438  22.500  25.028  1.00  0.00     0.077 A 
ATOM     72  C   UNL A   1      34.685  21.075  24.620  1.00  0.00     0.165 A 
ATOM     73  N   UNL A   1      35.907  21.267  25.144  1.00  0.00    -0.228 NA
BRANCH  71  74
ATOM     74  C   UNL A   1      37.696  22.715  25.745  1.00  0.00     0.003 A 
ATOM     75  C   UNL A   1      38.650  21.692  25.841  1.00  0.00     0.030 A 
ATOM     76  C   UNL A   1      37.999  23.950  26.326  1.00  0.00     0.030 A 
ATOM     77  C   UNL A   1      39.836  21.942  26.510  1.00  0.00     0.111 A 
ATOM     78  C   UNL A   1      39.209  24.100  26.984  1.00  0.00     0.111 A 
ATOM     79  N   UNL A   1      40.133  23.121  27.093  1.00  0.00    -0.265 NA
ENDBRANCH  71  74
BRANCH  72  80
ATOM     80  C   UNL A   1      34.183  19.709  24.596  1.00  0.00     0.055 A 
ATOM     81  C   UNL A   1      32.802  19.448  24.526  1.00  0.00     0.015 A 
ATOM     82  C   UNL A   1      35.054  18.616  24.601  1.00  0.00     0.134 A 
ATOM     83  C   UNL A   1      32.319  18.137  24.447  1.00  0.00     0.001 A 
ATOM     84  C   UNL A   1      34.580  17.306  24.531  1.00  0.00     0.040 A 
ATOM     85  F   UNL A   1      36.380  18.808  24.687  1.00  0.00    -0.206 F 
ATOM     86  C   UNL A   1      33.210  17.065  24.448  1.00  0.00     0.003 A 
ENDBRANCH  72  80
ENDBRANCH  67  68
ENDBRANCH  60  63
ENDBRANCH  58  59
ENDBRANCH  57  58
ENDBRANCH   1  57
TORSDOF 14
ENDMDL
