MODEL 1
REMARK VINA RESULT:     -10.5      0.000      0.000
REMARK SMILES C[C@H](Sc1ccc(N)c(Cl)c1)C(=O)NCCCCNC(=O)c1ccc(-c2c3nc(c(-c4ccccc4)c4ccc([nH]4)c(-c4ccccc4)c4nc(c(-c5ccccc5)c5ccc2[nH]5)C=C4)C=C3)cc1
REMARK SMILES IDX 16 1 15 2 14 3 12 4 13 5 2 7 1 8 3 9 4 10 5 11 11 12 6 13
REMARK SMILES IDX 9 14 7 15 10 16 8 17 17 20 18 21 19 22 20 23 21 25 22 26
REMARK SMILES IDX 23 27 69 28 24 29 68 30 25 31 26 32 27 33 62 34 28 35 67 36
REMARK SMILES IDX 61 37 63 38 29 39 66 40 60 41 59 42 30 44 52 45 37 46 51 47
REMARK SMILES IDX 38 48 41 49 50 50 64 51 39 52 40 53 49 55 65 56 42 57 31 58
REMARK SMILES IDX 32 59 36 60 33 61 35 62 34 63 53 64 54 65 58 66 55 67 57 68
REMARK SMILES IDX 56 69 43 70 44 71 48 72 45 73 47 74 46 75
REMARK H PARENT 14 6 8 18 8 19 19 24 63 43 41 54
REMARK Flexibility Score: inf
ROOT
ATOM      1  C   UNL A   1      31.846  27.708  27.246  1.00  0.00     0.023 C 
ENDROOT
BRANCH   1   2
ATOM      2  C   UNL A   1      31.397  26.642  26.250  1.00  0.00     0.116 C 
BRANCH   2   3
ATOM      3  N   UNL A   1      31.189  25.379  26.920  1.00  0.00    -0.355 N 
ATOM      4  C   UNL A   1      31.183  24.100  26.457  1.00  0.00     0.233 C 
ATOM      5  O   UNL A   1      30.760  23.249  27.248  1.00  0.00    -0.274 OA
ATOM      6  H   UNL A   1      31.022  25.457  27.886  1.00  0.00     0.163 HD
BRANCH   4   7
ATOM      7  C   UNL A   1      31.720  23.674  25.086  1.00  0.00     0.137 C 
ATOM      8  C   UNL A   1      30.852  24.031  23.891  1.00  0.00     0.030 C 
BRANCH   7   9
ATOM      9  S   UNL A   1      32.619  22.064  25.093  1.00  0.00    -0.113 SA
BRANCH   9  10
ATOM     10  C   UNL A   1      34.356  22.385  25.296  1.00  0.00     0.010 A 
ATOM     11  C   UNL A   1      34.888  23.601  25.723  1.00  0.00     0.017 A 
ATOM     12  C   UNL A   1      35.236  21.312  25.103  1.00  0.00     0.037 A 
ATOM     13  C   UNL A   1      36.277  23.791  25.798  1.00  0.00     0.028 A 
ATOM     14  C   UNL A   1      36.620  21.493  25.212  1.00  0.00     0.065 A 
ATOM     15  C   UNL A   1      37.162  22.758  25.485  1.00  0.00     0.050 A 
ATOM     16  Cl  UNL A   1      37.653  20.141  24.897  1.00  0.00    -0.082 Cl
BRANCH  15  17
ATOM     17  N   UNL A   1      38.531  22.985  25.548  1.00  0.00    -0.398 N 
ATOM     18  H   UNL A   1      39.084  22.891  24.739  1.00  0.00     0.156 HD
ATOM     19  H   UNL A   1      38.950  23.240  26.403  1.00  0.00     0.156 HD
ENDBRANCH  15  17
ENDBRANCH   9  10
ENDBRANCH   7   9
ENDBRANCH   4   7
ENDBRANCH   2   3
ENDBRANCH   1   2
BRANCH   1  20
ATOM     20  C   UNL A   1      32.187  29.064  26.641  1.00  0.00     0.023 C 
BRANCH  20  21
ATOM     21  C   UNL A   1      33.593  29.567  26.944  1.00  0.00     0.116 C 
BRANCH  21  22
ATOM     22  N   UNL A   1      33.653  30.749  27.796  1.00  0.00    -0.352 N 
ATOM     23  C   UNL A   1      34.699  31.178  28.583  1.00  0.00     0.251 C 
ATOM     24  H   UNL A   1      32.844  31.311  27.811  1.00  0.00     0.163 HD
ATOM     25  O   UNL A   1      34.600  32.197  29.260  1.00  0.00    -0.269 OA
BRANCH  23  26
ATOM     26  C   UNL A   1      35.920  30.347  28.642  1.00  0.00     0.039 A 
ATOM     27  C   UNL A   1      36.797  30.356  27.555  1.00  0.00     0.014 A 
ATOM     28  C   UNL A   1      36.257  29.674  29.819  1.00  0.00     0.014 A 
ATOM     29  C   UNL A   1      38.061  29.778  27.688  1.00  0.00     0.010 A 
ATOM     30  C   UNL A   1      37.544  29.172  29.975  1.00  0.00     0.010 A 
ATOM     31  C   UNL A   1      38.465  29.236  28.917  1.00  0.00    -0.014 A 
BRANCH  31  32
ATOM     32  C   UNL A   1      39.853  28.755  29.141  1.00  0.00     0.031 A 
ATOM     33  C   UNL A   1      40.889  29.684  29.711  1.00  0.00     0.074 A 
ATOM     34  C   UNL A   1      40.209  27.520  28.736  1.00  0.00     0.049 A 
ATOM     35  N   UNL A   1      42.174  29.494  29.864  1.00  0.00    -0.248 NA
ATOM     36  C   UNL A   1      40.421  31.015  30.130  1.00  0.00     0.031 C 
ATOM     37  C   UNL A   1      39.319  26.536  28.116  1.00  0.00     0.029 A 
ATOM     38  N   UNL A   1      41.428  26.886  28.772  1.00  0.00    -0.354 N 
ATOM     39  C   UNL A   1      42.672  30.690  30.363  1.00  0.00     0.074 A 
ATOM     40  C   UNL A   1      41.560  31.611  30.448  1.00  0.00     0.031 C 
ATOM     41  C   UNL A   1      40.014  25.416  27.855  1.00  0.00     0.029 A 
ATOM     42  C   UNL A   1      41.404  25.615  28.253  1.00  0.00     0.049 A 
ATOM     43  H   UNL A   1      42.241  27.304  29.137  1.00  0.00     0.167 HD
ATOM     44  C   UNL A   1      43.939  30.994  30.734  1.00  0.00     0.031 A 
ATOM     45  C   UNL A   1      42.390  24.710  28.108  1.00  0.00     0.031 A 
ATOM     46  C   UNL A   1      45.042  30.073  30.681  1.00  0.00     0.049 A 
ATOM     47  C   UNL A   1      43.781  25.056  28.559  1.00  0.00     0.074 A 
ATOM     48  C   UNL A   1      46.348  30.266  31.096  1.00  0.00     0.029 A 
ATOM     49  N   UNL A   1      44.964  28.779  30.190  1.00  0.00    -0.354 N 
ATOM     50  N   UNL A   1      44.224  26.174  29.082  1.00  0.00    -0.248 NA
ATOM     51  C   UNL A   1      44.804  24.012  28.408  1.00  0.00     0.031 C 
ATOM     52  C   UNL A   1      47.068  29.097  30.828  1.00  0.00     0.029 A 
ATOM     53  C   UNL A   1      46.201  28.165  30.283  1.00  0.00     0.049 A 
ATOM     54  H   UNL A   1      44.150  28.359  29.830  1.00  0.00     0.167 HD
ATOM     55  C   UNL A   1      45.570  25.960  29.342  1.00  0.00     0.074 A 
ATOM     56  C   UNL A   1      45.869  24.604  28.933  1.00  0.00     0.031 C 
ATOM     57  C   UNL A   1      46.478  26.813  29.874  1.00  0.00     0.031 A 
BRANCH  44  58
ATOM     58  C   UNL A   1      44.191  32.388  31.229  1.00  0.00    -0.014 A 
ATOM     59  C   UNL A   1      44.542  33.420  30.344  1.00  0.00     0.009 A 
ATOM     60  C   UNL A   1      44.069  32.677  32.597  1.00  0.00     0.009 A 
ATOM     61  C   UNL A   1      44.807  34.704  30.824  1.00  0.00     0.001 A 
ATOM     62  C   UNL A   1      44.308  33.968  33.071  1.00  0.00     0.001 A 
ATOM     63  C   UNL A   1      44.687  34.977  32.187  1.00  0.00     0.000 A 
ENDBRANCH  44  58
BRANCH  45  64
ATOM     64  C   UNL A   1      42.095  23.373  27.533  1.00  0.00    -0.014 A 
ATOM     65  C   UNL A   1      42.418  23.092  26.197  1.00  0.00     0.009 A 
ATOM     66  C   UNL A   1      41.488  22.375  28.310  1.00  0.00     0.009 A 
ATOM     67  C   UNL A   1      42.120  21.844  25.644  1.00  0.00     0.001 A 
ATOM     68  C   UNL A   1      41.212  21.121  27.761  1.00  0.00     0.001 A 
ATOM     69  C   UNL A   1      41.522  20.859  26.427  1.00  0.00     0.000 A 
ENDBRANCH  45  64
BRANCH  57  70
ATOM     70  C   UNL A   1      47.872  26.293  30.074  1.00  0.00    -0.014 A 
ATOM     71  C   UNL A   1      48.285  25.785  31.315  1.00  0.00     0.009 A 
ATOM     72  C   UNL A   1      48.767  26.271  28.994  1.00  0.00     0.009 A 
ATOM     73  C   UNL A   1      49.580  25.291  31.476  1.00  0.00     0.001 A 
ATOM     74  C   UNL A   1      50.053  25.755  29.152  1.00  0.00     0.001 A 
ATOM     75  C   UNL A   1      50.461  25.271  30.395  1.00  0.00     0.000 A 
ENDBRANCH  57  70
ENDBRANCH  31  32
ENDBRANCH  23  26
ENDBRANCH  21  22
ENDBRANCH  20  21
ENDBRANCH   1  20
TORSDOF 14
ENDMDL
MODEL 2
REMARK VINA RESULT:     -10.4      3.961      6.626
REMARK SMILES C[C@H](Sc1ccc(N)c(Cl)c1)C(=O)NCCCCNC(=O)c1ccc(-c2c3nc(c(-c4ccccc4)c4ccc([nH]4)c(-c4ccccc4)c4nc(c(-c5ccccc5)c5ccc2[nH]5)C=C4)C=C3)cc1
REMARK SMILES IDX 16 1 15 2 14 3 12 4 13 5 2 7 1 8 3 9 4 10 5 11 11 12 6 13
REMARK SMILES IDX 9 14 7 15 10 16 8 17 17 20 18 21 19 22 20 23 21 25 22 26
REMARK SMILES IDX 23 27 69 28 24 29 68 30 25 31 26 32 27 33 62 34 28 35 67 36
REMARK SMILES IDX 61 37 63 38 29 39 66 40 60 41 59 42 30 44 52 45 37 46 51 47
REMARK SMILES IDX 38 48 41 49 50 50 64 51 39 52 40 53 49 55 65 56 42 57 31 58
REMARK SMILES IDX 32 59 36 60 33 61 35 62 34 63 53 64 54 65 58 66 55 67 57 68
REMARK SMILES IDX 56 69 43 70 44 71 48 72 45 73 47 74 46 75
REMARK H PARENT 14 6 8 18 8 19 19 24 63 43 41 54
REMARK Flexibility Score: inf
ROOT
ATOM      1  C   UNL A   1      33.930  35.002  29.100  1.00  0.00     0.023 C 
ENDROOT
BRANCH   1   2
ATOM      2  C   UNL A   1      32.924  36.150  29.097  1.00  0.00     0.116 C 
BRANCH   2   3
ATOM      3  N   UNL A   1      33.328  37.179  30.027  1.00  0.00    -0.355 N 
ATOM      4  C   UNL A   1      33.258  37.252  31.383  1.00  0.00     0.233 C 
ATOM      5  O   UNL A   1      33.493  38.365  31.870  1.00  0.00    -0.274 OA
ATOM      6  H   UNL A   1      33.727  37.972  29.602  1.00  0.00     0.163 HD
BRANCH   4   7
ATOM      7  C   UNL A   1      32.984  36.055  32.299  1.00  0.00     0.137 C 
ATOM      8  C   UNL A   1      31.523  35.770  32.604  1.00  0.00     0.030 C 
BRANCH   7   9
ATOM      9  S   UNL A   1      34.240  35.818  33.629  1.00  0.00    -0.113 SA
BRANCH   9  10
ATOM     10  C   UNL A   1      35.046  34.254  33.377  1.00  0.00     0.010 A 
ATOM     11  C   UNL A   1      34.799  33.405  32.298  1.00  0.00     0.017 A 
ATOM     12  C   UNL A   1      36.061  33.900  34.275  1.00  0.00     0.037 A 
ATOM     13  C   UNL A   1      35.435  32.158  32.204  1.00  0.00     0.028 A 
ATOM     14  C   UNL A   1      36.720  32.670  34.162  1.00  0.00     0.065 A 
ATOM     15  C   UNL A   1      36.359  31.747  33.167  1.00  0.00     0.050 A 
ATOM     16  Cl  UNL A   1      37.920  32.268  35.342  1.00  0.00    -0.082 Cl
BRANCH  15  17
ATOM     17  N   UNL A   1      36.954  30.497  33.058  1.00  0.00    -0.398 N 
ATOM     18  H   UNL A   1      37.736  30.373  32.472  1.00  0.00     0.156 HD
ATOM     19  H   UNL A   1      36.596  29.734  33.568  1.00  0.00     0.156 HD
ENDBRANCH  15  17
ENDBRANCH   9  10
ENDBRANCH   7   9
ENDBRANCH   4   7
ENDBRANCH   2   3
ENDBRANCH   1   2
BRANCH   1  20
ATOM     20  C   UNL A   1      33.515  33.770  28.305  1.00  0.00     0.023 C 
BRANCH  20  21
ATOM     21  C   UNL A   1      34.436  32.565  28.460  1.00  0.00     0.116 C 
BRANCH  21  22
ATOM     22  N   UNL A   1      33.888  31.305  27.972  1.00  0.00    -0.352 N 
ATOM     23  C   UNL A   1      34.511  30.079  27.896  1.00  0.00     0.251 C 
ATOM     24  H   UNL A   1      32.955  31.334  27.657  1.00  0.00     0.163 HD
ATOM     25  O   UNL A   1      33.921  29.100  27.451  1.00  0.00    -0.269 OA
BRANCH  23  26
ATOM     26  C   UNL A   1      35.929  29.986  28.306  1.00  0.00     0.039 A 
ATOM     27  C   UNL A   1      36.232  29.551  29.598  1.00  0.00     0.014 A 
ATOM     28  C   UNL A   1      36.946  30.197  27.372  1.00  0.00     0.014 A 
ATOM     29  C   UNL A   1      37.550  29.225  29.922  1.00  0.00     0.010 A 
ATOM     30  C   UNL A   1      38.243  29.795  27.672  1.00  0.00     0.010 A 
ATOM     31  C   UNL A   1      38.555  29.287  28.943  1.00  0.00    -0.014 A 
BRANCH  31  32
ATOM     32  C   UNL A   1      39.933  28.800  29.206  1.00  0.00     0.031 A 
ATOM     33  C   UNL A   1      40.947  29.713  29.837  1.00  0.00     0.074 A 
ATOM     34  C   UNL A   1      40.304  27.575  28.783  1.00  0.00     0.049 A 
ATOM     35  N   UNL A   1      42.226  29.518  30.034  1.00  0.00    -0.248 NA
ATOM     36  C   UNL A   1      40.464  31.033  30.272  1.00  0.00     0.031 C 
ATOM     37  C   UNL A   1      39.438  26.608  28.106  1.00  0.00     0.029 A 
ATOM     38  N   UNL A   1      41.521  26.939  28.849  1.00  0.00    -0.354 N 
ATOM     39  C   UNL A   1      42.705  30.701  30.580  1.00  0.00     0.074 A 
ATOM     40  C   UNL A   1      41.590  31.620  30.647  1.00  0.00     0.031 C 
ATOM     41  C   UNL A   1      40.142  25.494  27.843  1.00  0.00     0.029 A 
ATOM     42  C   UNL A   1      41.516  25.681  28.297  1.00  0.00     0.049 A 
ATOM     43  H   UNL A   1      42.319  27.347  29.254  1.00  0.00     0.167 HD
ATOM     44  C   UNL A   1      43.957  30.994  31.006  1.00  0.00     0.031 A 
ATOM     45  C   UNL A   1      42.507  24.780  28.166  1.00  0.00     0.031 A 
ATOM     46  C   UNL A   1      45.062  30.073  30.971  1.00  0.00     0.049 A 
ATOM     47  C   UNL A   1      43.880  25.113  28.678  1.00  0.00     0.074 A 
ATOM     48  C   UNL A   1      46.351  30.255  31.439  1.00  0.00     0.029 A 
ATOM     49  N   UNL A   1      45.001  28.793  30.444  1.00  0.00    -0.354 N 
ATOM     50  N   UNL A   1      44.303  26.217  29.244  1.00  0.00    -0.248 NA
ATOM     51  C   UNL A   1      44.908  24.072  28.538  1.00  0.00     0.031 C 
ATOM     52  C   UNL A   1      47.081  29.092  31.168  1.00  0.00     0.029 A 
ATOM     53  C   UNL A   1      46.234  28.175  30.568  1.00  0.00     0.049 A 
ATOM     54  H   UNL A   1      44.201  28.383  30.044  1.00  0.00     0.167 HD
ATOM     55  C   UNL A   1      45.639  25.995  29.549  1.00  0.00     0.074 A 
ATOM     56  C   UNL A   1      45.953  24.650  29.117  1.00  0.00     0.031 C 
ATOM     57  C   UNL A   1      46.526  26.834  30.135  1.00  0.00     0.031 A 
BRANCH  44  58
ATOM     58  C   UNL A   1      44.191  32.375  31.545  1.00  0.00    -0.014 A 
ATOM     59  C   UNL A   1      44.016  32.661  32.908  1.00  0.00     0.009 A 
ATOM     60  C   UNL A   1      44.597  33.404  30.680  1.00  0.00     0.009 A 
ATOM     61  C   UNL A   1      44.202  33.959  33.388  1.00  0.00     0.001 A 
ATOM     62  C   UNL A   1      44.809  34.694  31.168  1.00  0.00     0.001 A 
ATOM     63  C   UNL A   1      44.601  34.973  32.518  1.00  0.00     0.000 A 
ENDBRANCH  44  58
BRANCH  45  64
ATOM     64  C   UNL A   1      42.233  23.458  27.547  1.00  0.00    -0.014 A 
ATOM     65  C   UNL A   1      41.643  22.433  28.302  1.00  0.00     0.009 A 
ATOM     66  C   UNL A   1      42.559  23.213  26.205  1.00  0.00     0.009 A 
ATOM     67  C   UNL A   1      41.405  21.180  27.731  1.00  0.00     0.001 A 
ATOM     68  C   UNL A   1      42.300  21.966  25.630  1.00  0.00     0.001 A 
ATOM     69  C   UNL A   1      41.730  20.950  26.395  1.00  0.00     0.000 A 
ENDBRANCH  45  64
BRANCH  57  70
ATOM     70  C   UNL A   1      47.911  26.307  30.374  1.00  0.00    -0.014 A 
ATOM     71  C   UNL A   1      48.892  26.367  29.372  1.00  0.00     0.009 A 
ATOM     72  C   UNL A   1      48.249  25.784  31.631  1.00  0.00     0.009 A 
ATOM     73  C   UNL A   1      50.179  25.887  29.619  1.00  0.00     0.001 A 
ATOM     74  C   UNL A   1      49.543  25.325  31.882  1.00  0.00     0.001 A 
ATOM     75  C   UNL A   1      50.505  25.371  30.873  1.00  0.00     0.000 A 
ENDBRANCH  57  70
ENDBRANCH  31  32
ENDBRANCH  23  26
ENDBRANCH  21  22
ENDBRANCH  20  21
ENDBRANCH   1  20
TORSDOF 14
ENDMDL
MODEL 3
REMARK VINA RESULT:     -10.4      3.410      5.188
REMARK SMILES C[C@H](Sc1ccc(N)c(Cl)c1)C(=O)NCCCCNC(=O)c1ccc(-c2c3nc(c(-c4ccccc4)c4ccc([nH]4)c(-c4ccccc4)c4nc(c(-c5ccccc5)c5ccc2[nH]5)C=C4)C=C3)cc1
REMARK SMILES IDX 16 1 15 2 14 3 12 4 13 5 2 7 1 8 3 9 4 10 5 11 11 12 6 13
REMARK SMILES IDX 9 14 7 15 10 16 8 17 17 20 18 21 19 22 20 23 21 25 22 26
REMARK SMILES IDX 23 27 69 28 24 29 68 30 25 31 26 32 27 33 62 34 28 35 67 36
REMARK SMILES IDX 61 37 63 38 29 39 66 40 60 41 59 42 30 44 52 45 37 46 51 47
REMARK SMILES IDX 38 48 41 49 50 50 64 51 39 52 40 53 49 55 65 56 42 57 31 58
REMARK SMILES IDX 32 59 36 60 33 61 35 62 34 63 53 64 54 65 58 66 55 67 57 68
REMARK SMILES IDX 56 69 43 70 44 71 48 72 45 73 47 74 46 75
REMARK H PARENT 14 6 8 18 8 19 19 24 63 43 41 54
REMARK Flexibility Score: inf
ROOT
ATOM      1  C   UNL A   1      32.409  29.384  27.187  1.00  0.00     0.023 C 
ENDROOT
BRANCH   1   2
ATOM      2  C   UNL A   1      33.814  28.960  26.770  1.00  0.00     0.116 C 
BRANCH   2   3
ATOM      3  N   UNL A   1      33.968  29.056  25.337  1.00  0.00    -0.355 N 
ATOM      4  C   UNL A   1      33.875  28.123  24.353  1.00  0.00     0.233 C 
ATOM      5  O   UNL A   1      34.274  28.482  23.238  1.00  0.00    -0.274 OA
ATOM      6  H   UNL A   1      34.178  29.962  25.014  1.00  0.00     0.163 HD
BRANCH   4   7
ATOM      7  C   UNL A   1      33.257  26.733  24.536  1.00  0.00     0.137 C 
ATOM      8  C   UNL A   1      34.084  25.737  25.331  1.00  0.00     0.030 C 
BRANCH   7   9
ATOM      9  S   UNL A   1      32.290  26.137  23.082  1.00  0.00    -0.113 SA
BRANCH   9  10
ATOM     10  C   UNL A   1      30.651  26.821  23.171  1.00  0.00     0.010 A 
ATOM     11  C   UNL A   1      29.590  26.235  23.861  1.00  0.00     0.017 A 
ATOM     12  C   UNL A   1      30.445  28.077  22.587  1.00  0.00     0.037 A 
ATOM     13  C   UNL A   1      28.310  26.809  23.832  1.00  0.00     0.028 A 
ATOM     14  C   UNL A   1      29.174  28.666  22.587  1.00  0.00     0.065 A 
ATOM     15  C   UNL A   1      28.071  28.000  23.143  1.00  0.00     0.050 A 
ATOM     16  Cl  UNL A   1      28.974  30.189  21.790  1.00  0.00    -0.082 Cl
BRANCH  15  17
ATOM     17  N   UNL A   1      26.787  28.531  23.114  1.00  0.00    -0.398 N 
ATOM     18  H   UNL A   1      26.640  29.476  23.347  1.00  0.00     0.156 HD
ATOM     19  H   UNL A   1      26.025  27.962  22.861  1.00  0.00     0.156 HD
ENDBRANCH  15  17
ENDBRANCH   9  10
ENDBRANCH   7   9
ENDBRANCH   4   7
ENDBRANCH   2   3
ENDBRANCH   1   2
BRANCH   1  20
ATOM     20  C   UNL A   1      32.041  30.828  26.868  1.00  0.00     0.023 C 
BRANCH  20  21
ATOM     21  C   UNL A   1      33.102  31.858  27.241  1.00  0.00     0.116 C 
BRANCH  21  22
ATOM     22  N   UNL A   1      32.581  33.167  27.620  1.00  0.00    -0.352 N 
ATOM     23  C   UNL A   1      33.170  34.116  28.425  1.00  0.00     0.251 C 
ATOM     24  H   UNL A   1      31.697  33.401  27.254  1.00  0.00     0.163 HD
ATOM     25  O   UNL A   1      32.603  35.178  28.664  1.00  0.00    -0.269 OA
BRANCH  23  26
ATOM     26  C   UNL A   1      34.474  33.799  29.045  1.00  0.00     0.039 A 
ATOM     27  C   UNL A   1      34.496  33.085  30.246  1.00  0.00     0.014 A 
ATOM     28  C   UNL A   1      35.663  34.089  28.372  1.00  0.00     0.014 A 
ATOM     29  C   UNL A   1      35.705  32.568  30.716  1.00  0.00     0.010 A 
ATOM     30  C   UNL A   1      36.851  33.505  28.799  1.00  0.00     0.010 A 
ATOM     31  C   UNL A   1      36.880  32.724  29.964  1.00  0.00    -0.014 A 
BRANCH  31  32
ATOM     32  C   UNL A   1      38.149  32.056  30.352  1.00  0.00     0.031 A 
ATOM     33  C   UNL A   1      39.113  32.748  31.276  1.00  0.00     0.074 A 
ATOM     34  C   UNL A   1      38.486  30.876  29.793  1.00  0.00     0.049 A 
ATOM     35  N   UNL A   1      40.319  32.389  31.632  1.00  0.00    -0.248 NA
ATOM     36  C   UNL A   1      38.672  34.031  31.845  1.00  0.00     0.031 C 
ATOM     37  C   UNL A   1      37.671  30.123  28.837  1.00  0.00     0.029 A 
ATOM     38  N   UNL A   1      39.617  30.111  29.938  1.00  0.00    -0.354 N 
ATOM     39  C   UNL A   1      40.794  33.416  32.436  1.00  0.00     0.074 A 
ATOM     40  C   UNL A   1      39.763  34.430  32.483  1.00  0.00     0.031 C 
ATOM     41  C   UNL A   1      38.315  28.992  28.504  1.00  0.00     0.029 A 
ATOM     42  C   UNL A   1      39.603  28.959  29.190  1.00  0.00     0.049 A 
ATOM     43  H   UNL A   1      40.366  30.364  30.524  1.00  0.00     0.167 HD
ATOM     44  C   UNL A   1      41.975  33.504  33.093  1.00  0.00     0.031 A 
ATOM     45  C   UNL A   1      40.525  27.987  29.065  1.00  0.00     0.031 A 
ATOM     46  C   UNL A   1      42.990  32.485  33.076  1.00  0.00     0.049 A 
ATOM     47  C   UNL A   1      41.813  28.087  29.830  1.00  0.00     0.074 A 
ATOM     48  C   UNL A   1      44.192  32.454  33.761  1.00  0.00     0.029 A 
ATOM     49  N   UNL A   1      42.916  31.314  32.340  1.00  0.00    -0.354 N 
ATOM     50  N   UNL A   1      42.224  29.040  30.632  1.00  0.00    -0.248 NA
ATOM     51  C   UNL A   1      42.762  26.975  29.679  1.00  0.00     0.031 C 
ATOM     52  C   UNL A   1      44.859  31.273  33.415  1.00  0.00     0.029 A 
ATOM     53  C   UNL A   1      44.055  30.555  32.547  1.00  0.00     0.049 A 
ATOM     54  H   UNL A   1      42.165  31.058  31.757  1.00  0.00     0.167 HD
ATOM     55  C   UNL A   1      43.465  28.632  31.098  1.00  0.00     0.074 A 
ATOM     56  C   UNL A   1      43.737  27.342  30.501  1.00  0.00     0.031 C 
ATOM     57  C   UNL A   1      44.306  29.271  31.947  1.00  0.00     0.031 A 
BRANCH  44  58
ATOM     58  C   UNL A   1      42.225  34.754  33.885  1.00  0.00    -0.014 A 
ATOM     59  C   UNL A   1      41.884  34.833  35.244  1.00  0.00     0.009 A 
ATOM     60  C   UNL A   1      42.817  35.867  33.267  1.00  0.00     0.009 A 
ATOM     61  C   UNL A   1      42.090  36.014  35.958  1.00  0.00     0.001 A 
ATOM     62  C   UNL A   1      43.048  37.038  33.991  1.00  0.00     0.001 A 
ATOM     63  C   UNL A   1      42.674  37.115  35.331  1.00  0.00     0.000 A 
ENDBRANCH  44  58
BRANCH  45  64
ATOM     64  C   UNL A   1      40.253  26.811  28.198  1.00  0.00    -0.014 A 
ATOM     65  C   UNL A   1      40.777  26.756  26.898  1.00  0.00     0.009 A 
ATOM     66  C   UNL A   1      39.470  25.743  28.661  1.00  0.00     0.009 A 
ATOM     67  C   UNL A   1      40.504  25.664  26.070  1.00  0.00     0.001 A 
ATOM     68  C   UNL A   1      39.218  24.642  27.839  1.00  0.00     0.001 A 
ATOM     69  C   UNL A   1      39.729  24.607  26.543  1.00  0.00     0.000 A 
ENDBRANCH  45  64
BRANCH  57  70
ATOM     70  C   UNL A   1      45.582  28.568  32.305  1.00  0.00    -0.014 A 
ATOM     71  C   UNL A   1      46.732  28.702  31.511  1.00  0.00     0.009 A 
ATOM     72  C   UNL A   1      45.646  27.796  33.474  1.00  0.00     0.009 A 
ATOM     73  C   UNL A   1      47.914  28.054  31.870  1.00  0.00     0.001 A 
ATOM     74  C   UNL A   1      46.835  27.167  33.842  1.00  0.00     0.001 A 
ATOM     75  C   UNL A   1      47.967  27.291  33.036  1.00  0.00     0.000 A 
ENDBRANCH  57  70
ENDBRANCH  31  32
ENDBRANCH  23  26
ENDBRANCH  21  22
ENDBRANCH  20  21
ENDBRANCH   1  20
TORSDOF 14
ENDMDL
