MODEL 1
REMARK VINA RESULT:     -12.1      0.000      0.000
REMARK SMILES CC1(C)NC(=O)N(CCC(=O)N2CCC[C@H]2C(=O)NCCCCNC(=O)c2ccc(-c3c4nc(c(-c5ccccc5)c5ccc([nH]5)c(-c5ccccc5)c5nc(c(-c6ccccc6)c6ccc3[nH]6)C=C5)C=C4)cc2)C1=O
REMARK SMILES IDX 20 1 19 2 17 3 18 4 16 6 12 7 13 8 14 9 15 10 10 11 11 12
REMARK SMILES IDX 9 13 8 14 7 15 1 16 2 17 3 18 4 19 75 20 5 21 76 23 6 24
REMARK SMILES IDX 21 25 22 26 23 27 24 28 25 29 26 31 27 32 28 33 74 34 29 35
REMARK SMILES IDX 73 36 30 37 31 38 32 39 67 40 33 41 72 42 66 43 68 44 34 45
REMARK SMILES IDX 71 46 65 47 64 48 35 50 57 51 42 52 56 53 43 54 46 55 55 56
REMARK SMILES IDX 69 57 44 58 45 59 54 61 70 62 47 63 36 64 37 65 41 66 38 67
REMARK SMILES IDX 40 68 39 69 58 70 59 71 63 72 60 73 62 74 61 75 48 76 49 77
REMARK SMILES IDX 53 78 50 79 52 80 51 81
REMARK H PARENT 19 5 4 22 24 30 68 49 46 60
REMARK Flexibility Score: inf
ROOT
ATOM      1  C   UNL A   1      33.048  30.005  26.489  1.00  0.00     0.116 C 
ENDROOT
BRANCH   1   2
ATOM      2  N   UNL A   1      32.683  29.088  27.532  1.00  0.00    -0.354 N 
ATOM      3  C   UNL A   1      31.952  27.969  27.345  1.00  0.00     0.242 C 
ATOM      4  O   UNL A   1      31.013  27.819  28.128  1.00  0.00    -0.273 OA
ATOM      5  H   UNL A   1      32.989  29.288  28.446  1.00  0.00     0.163 HD
BRANCH   3   6
ATOM      6  C   UNL A   1      32.260  26.966  26.230  1.00  0.00     0.174 C 
ATOM      7  N   UNL A   1      31.574  27.157  24.975  1.00  0.00    -0.331 N 
ATOM      8  C   UNL A   1      32.522  27.510  23.936  1.00  0.00     0.120 C 
ATOM      9  C   UNL A   1      33.878  27.006  24.413  1.00  0.00     0.024 C 
ATOM     10  C   UNL A   1      33.729  26.712  25.902  1.00  0.00     0.037 C 
BRANCH   7  11
ATOM     11  C   UNL A   1      30.273  26.792  24.686  1.00  0.00     0.225 C 
ATOM     12  O   UNL A   1      29.633  26.086  25.473  1.00  0.00    -0.275 OA
BRANCH  11  13
ATOM     13  C   UNL A   1      29.650  27.138  23.329  1.00  0.00     0.122 C 
BRANCH  13  14
ATOM     14  C   UNL A   1      28.470  28.122  23.256  1.00  0.00     0.140 C 
BRANCH  14  15
ATOM     15  N   UNL A   1      28.751  29.469  22.764  1.00  0.00    -0.262 N 
ATOM     16  C   UNL A   1      28.967  32.952  23.066  1.00  0.00     0.045 C 
ATOM     17  C   UNL A   1      28.596  31.771  22.184  1.00  0.00     0.115 C 
ATOM     18  C   UNL A   1      27.676  32.228  21.050  1.00  0.00     0.045 C 
ATOM     19  N   UNL A   1      29.782  31.121  21.675  1.00  0.00    -0.324 N 
ATOM     20  C   UNL A   1      28.002  30.597  23.007  1.00  0.00     0.255 C 
ATOM     21  C   UNL A   1      29.877  29.802  22.067  1.00  0.00     0.325 C 
ATOM     22  H   UNL A   1      30.450  31.570  21.110  1.00  0.00     0.166 HD
ATOM     23  O   UNL A   1      27.040  30.683  23.759  1.00  0.00    -0.272 OA
ATOM     24  O   UNL A   1      30.799  29.078  21.758  1.00  0.00    -0.248 OA
ENDBRANCH  14  15
ENDBRANCH  13  14
ENDBRANCH  11  13
ENDBRANCH   7  11
ENDBRANCH   3   6
ENDBRANCH   1   2
BRANCH   1  25
ATOM     25  C   UNL A   1      31.799  30.688  25.930  1.00  0.00     0.023 C 
BRANCH  25  26
ATOM     26  C   UNL A   1      31.448  32.022  26.598  1.00  0.00     0.023 C 
BRANCH  26  27
ATOM     27  C   UNL A   1      32.614  32.727  27.278  1.00  0.00     0.116 C 
BRANCH  27  28
ATOM     28  N   UNL A   1      32.294  34.092  27.667  1.00  0.00    -0.352 N 
ATOM     29  C   UNL A   1      32.966  34.912  28.531  1.00  0.00     0.251 C 
ATOM     30  H   UNL A   1      31.487  34.476  27.253  1.00  0.00     0.163 HD
ATOM     31  O   UNL A   1      32.540  36.027  28.803  1.00  0.00    -0.269 OA
BRANCH  29  32
ATOM     32  C   UNL A   1      34.184  34.394  29.163  1.00  0.00     0.039 A 
ATOM     33  C   UNL A   1      34.051  33.665  30.344  1.00  0.00     0.014 A 
ATOM     34  C   UNL A   1      35.423  34.551  28.536  1.00  0.00     0.014 A 
ATOM     35  C   UNL A   1      35.171  33.048  30.886  1.00  0.00     0.010 A 
ATOM     36  C   UNL A   1      36.526  33.877  29.042  1.00  0.00     0.010 A 
ATOM     37  C   UNL A   1      36.408  33.128  30.224  1.00  0.00    -0.014 A 
BRANCH  37  38
ATOM     38  C   UNL A   1      37.597  32.442  30.772  1.00  0.00     0.031 A 
ATOM     39  C   UNL A   1      38.241  32.961  32.023  1.00  0.00     0.074 A 
ATOM     40  C   UNL A   1      38.110  31.384  30.118  1.00  0.00     0.049 A 
ATOM     41  N   UNL A   1      39.299  32.517  32.649  1.00  0.00    -0.248 NA
ATOM     42  C   UNL A   1      37.631  34.152  32.640  1.00  0.00     0.031 C 
ATOM     43  C   UNL A   1      37.586  30.819  28.872  1.00  0.00     0.029 A 
ATOM     44  N   UNL A   1      39.188  30.593  30.415  1.00  0.00    -0.354 N 
ATOM     45  C   UNL A   1      39.487  33.378  33.721  1.00  0.00     0.074 A 
ATOM     46  C   UNL A   1      38.471  34.403  33.631  1.00  0.00     0.031 C 
ATOM     47  C   UNL A   1      38.324  29.751  28.530  1.00  0.00     0.029 A 
ATOM     48  C   UNL A   1      39.393  29.580  29.509  1.00  0.00     0.049 A 
ATOM     49  H   UNL A   1      39.762  30.735  31.202  1.00  0.00     0.167 HD
ATOM     50  C   UNL A   1      40.411  33.308  34.708  1.00  0.00     0.031 A 
ATOM     51  C   UNL A   1      40.339  28.625  29.474  1.00  0.00     0.031 A 
ATOM     52  C   UNL A   1      41.413  32.281  34.794  1.00  0.00     0.049 A 
ATOM     53  C   UNL A   1      41.366  28.580  30.571  1.00  0.00     0.074 A 
ATOM     54  C   UNL A   1      42.365  32.086  35.778  1.00  0.00     0.029 A 
ATOM     55  N   UNL A   1      41.591  31.276  33.855  1.00  0.00    -0.354 N 
ATOM     56  N   UNL A   1      41.490  29.360  31.618  1.00  0.00    -0.248 NA
ATOM     57  C   UNL A   1      42.374  27.516  30.488  1.00  0.00     0.031 C 
ATOM     58  C   UNL A   1      43.154  30.992  35.408  1.00  0.00     0.029 A 
ATOM     59  C   UNL A   1      42.655  30.472  34.223  1.00  0.00     0.049 A 
ATOM     60  H   UNL A   1      41.043  31.153  33.047  1.00  0.00     0.167 HD
ATOM     61  C   UNL A   1      42.574  28.866  32.331  1.00  0.00     0.074 A 
ATOM     62  C   UNL A   1      43.059  27.709  31.606  1.00  0.00     0.031 C 
ATOM     63  C   UNL A   1      43.120  29.328  33.483  1.00  0.00     0.031 A 
BRANCH  50  64
ATOM     64  C   UNL A   1      40.378  34.379  35.762  1.00  0.00    -0.014 A 
ATOM     65  C   UNL A   1      41.101  35.574  35.608  1.00  0.00     0.009 A 
ATOM     66  C   UNL A   1      39.598  34.202  36.914  1.00  0.00     0.009 A 
ATOM     67  C   UNL A   1      41.075  36.551  36.605  1.00  0.00     0.001 A 
ATOM     68  C   UNL A   1      39.549  35.193  37.896  1.00  0.00     0.001 A 
ATOM     69  C   UNL A   1      40.295  36.362  37.744  1.00  0.00     0.000 A 
ENDBRANCH  50  64
BRANCH  51  70
ATOM     70  C   UNL A   1      40.350  27.624  28.375  1.00  0.00    -0.014 A 
ATOM     71  C   UNL A   1      39.650  26.415  28.509  1.00  0.00     0.009 A 
ATOM     72  C   UNL A   1      41.057  27.871  27.189  1.00  0.00     0.009 A 
ATOM     73  C   UNL A   1      39.684  25.462  27.488  1.00  0.00     0.001 A 
ATOM     74  C   UNL A   1      41.066  26.929  26.159  1.00  0.00     0.001 A 
ATOM     75  C   UNL A   1      40.387  25.722  26.313  1.00  0.00     0.000 A 
ENDBRANCH  51  70
BRANCH  63  76
ATOM     76  C   UNL A   1      44.285  28.561  34.042  1.00  0.00    -0.014 A 
ATOM     77  C   UNL A   1      44.093  27.466  34.897  1.00  0.00     0.009 A 
ATOM     78  C   UNL A   1      45.591  28.917  33.669  1.00  0.00     0.009 A 
ATOM     79  C   UNL A   1      45.191  26.761  35.396  1.00  0.00     0.001 A 
ATOM     80  C   UNL A   1      46.683  28.191  34.144  1.00  0.00     0.001 A 
ATOM     81  C   UNL A   1      46.483  27.120  35.014  1.00  0.00     0.000 A 
ENDBRANCH  63  76
ENDBRANCH  37  38
ENDBRANCH  29  32
ENDBRANCH  27  28
ENDBRANCH  26  27
ENDBRANCH  25  26
ENDBRANCH   1  25
TORSDOF 15
ENDMDL
MODEL 2
REMARK VINA RESULT:     -12.0      6.449     10.676
REMARK SMILES CC1(C)NC(=O)N(CCC(=O)N2CCC[C@H]2C(=O)NCCCCNC(=O)c2ccc(-c3c4nc(c(-c5ccccc5)c5ccc([nH]5)c(-c5ccccc5)c5nc(c(-c6ccccc6)c6ccc3[nH]6)C=C5)C=C4)cc2)C1=O
REMARK SMILES IDX 20 1 19 2 17 3 18 4 16 6 12 7 13 8 14 9 15 10 10 11 11 12
REMARK SMILES IDX 9 13 8 14 7 15 1 16 2 17 3 18 4 19 75 20 5 21 76 23 6 24
REMARK SMILES IDX 21 25 22 26 23 27 24 28 25 29 26 31 27 32 28 33 74 34 29 35
REMARK SMILES IDX 73 36 30 37 31 38 32 39 67 40 33 41 72 42 66 43 68 44 34 45
REMARK SMILES IDX 71 46 65 47 64 48 35 50 57 51 42 52 56 53 43 54 46 55 55 56
REMARK SMILES IDX 69 57 44 58 45 59 54 61 70 62 47 63 36 64 37 65 41 66 38 67
REMARK SMILES IDX 40 68 39 69 58 70 59 71 63 72 60 73 62 74 61 75 48 76 49 77
REMARK SMILES IDX 53 78 50 79 52 80 51 81
REMARK H PARENT 19 5 4 22 24 30 68 49 46 60
REMARK Flexibility Score: inf
ROOT
ATOM      1  C   UNL A   1      37.024  22.339  25.644  1.00  0.00     0.116 C 
ENDROOT
BRANCH   1   2
ATOM      2  N   UNL A   1      37.129  23.048  24.399  1.00  0.00    -0.354 N 
ATOM      3  C   UNL A   1      36.111  23.222  23.531  1.00  0.00     0.242 C 
ATOM      4  O   UNL A   1      36.369  22.953  22.358  1.00  0.00    -0.273 OA
ATOM      5  H   UNL A   1      38.003  23.435  24.164  1.00  0.00     0.163 HD
BRANCH   3   6
ATOM      6  C   UNL A   1      34.728  23.707  23.977  1.00  0.00     0.174 C 
ATOM      7  N   UNL A   1      33.748  22.691  24.276  1.00  0.00    -0.331 N 
ATOM      8  C   UNL A   1      33.419  22.715  25.689  1.00  0.00     0.120 C 
ATOM      9  C   UNL A   1      33.783  24.109  26.183  1.00  0.00     0.024 C 
ATOM     10  C   UNL A   1      34.675  24.727  25.111  1.00  0.00     0.037 C 
BRANCH   7  11
ATOM     11  C   UNL A   1      32.995  21.980  23.361  1.00  0.00     0.225 C 
ATOM     12  O   UNL A   1      32.874  22.388  22.200  1.00  0.00    -0.275 OA
BRANCH  11  13
ATOM     13  C   UNL A   1      32.189  20.753  23.800  1.00  0.00     0.122 C 
BRANCH  13  14
ATOM     14  C   UNL A   1      32.528  19.367  23.227  1.00  0.00     0.140 C 
BRANCH  14  15
ATOM     15  N   UNL A   1      32.939  18.332  24.174  1.00  0.00    -0.262 N 
ATOM     16  C   UNL A   1      35.073  15.828  25.377  1.00  0.00     0.045 C 
ATOM     17  C   UNL A   1      33.638  16.286  25.165  1.00  0.00     0.115 C 
ATOM     18  C   UNL A   1      32.688  15.089  25.236  1.00  0.00     0.045 C 
ATOM     19  N   UNL A   1      33.280  17.305  26.125  1.00  0.00    -0.324 N 
ATOM     20  C   UNL A   1      33.479  17.107  23.858  1.00  0.00     0.255 C 
ATOM     21  C   UNL A   1      32.928  18.498  25.529  1.00  0.00     0.325 C 
ATOM     22  H   UNL A   1      33.287  17.164  27.098  1.00  0.00     0.166 HD
ATOM     23  O   UNL A   1      33.805  16.722  22.743  1.00  0.00    -0.272 OA
ATOM     24  O   UNL A   1      32.603  19.486  26.153  1.00  0.00    -0.248 OA
ENDBRANCH  14  15
ENDBRANCH  13  14
ENDBRANCH  11  13
ENDBRANCH   7  11
ENDBRANCH   3   6
ENDBRANCH   1   2
BRANCH   1  25
ATOM     25  C   UNL A   1      36.713  20.866  25.384  1.00  0.00     0.023 C 
BRANCH  25  26
ATOM     26  C   UNL A   1      37.928  20.014  25.000  1.00  0.00     0.023 C 
BRANCH  26  27
ATOM     27  C   UNL A   1      39.206  20.336  25.764  1.00  0.00     0.116 C 
BRANCH  27  28
ATOM     28  N   UNL A   1      40.120  19.207  25.829  1.00  0.00    -0.352 N 
ATOM     29  C   UNL A   1      41.456  19.207  26.125  1.00  0.00     0.251 C 
ATOM     30  H   UNL A   1      39.726  18.325  25.635  1.00  0.00     0.163 HD
ATOM     31  O   UNL A   1      42.111  18.174  26.086  1.00  0.00    -0.269 OA
BRANCH  29  32
ATOM     32  C   UNL A   1      42.091  20.493  26.437  1.00  0.00     0.039 A 
ATOM     33  C   UNL A   1      42.565  21.263  25.376  1.00  0.00     0.014 A 
ATOM     34  C   UNL A   1      42.123  20.960  27.753  1.00  0.00     0.014 A 
ATOM     35  C   UNL A   1      43.043  22.543  25.634  1.00  0.00     0.010 A 
ATOM     36  C   UNL A   1      42.536  22.262  27.997  1.00  0.00     0.010 A 
ATOM     37  C   UNL A   1      43.007  23.058  26.940  1.00  0.00    -0.014 A 
BRANCH  37  38
ATOM     38  C   UNL A   1      43.476  24.432  27.218  1.00  0.00     0.031 A 
ATOM     39  C   UNL A   1      42.494  25.474  27.663  1.00  0.00     0.074 A 
ATOM     40  C   UNL A   1      44.773  24.738  27.030  1.00  0.00     0.049 A 
ATOM     41  N   UNL A   1      42.700  26.736  27.935  1.00  0.00    -0.248 NA
ATOM     42  C   UNL A   1      41.090  25.050  27.797  1.00  0.00     0.031 C 
ATOM     43  C   UNL A   1      45.807  23.811  26.563  1.00  0.00     0.029 A 
ATOM     44  N   UNL A   1      45.442  25.920  27.211  1.00  0.00    -0.354 N 
ATOM     45  C   UNL A   1      41.455  27.257  28.258  1.00  0.00     0.074 A 
ATOM     46  C   UNL A   1      40.490  26.192  28.095  1.00  0.00     0.031 C 
ATOM     47  C   UNL A   1      46.986  24.451  26.527  1.00  0.00     0.029 A 
ATOM     48  C   UNL A   1      46.785  25.839  26.931  1.00  0.00     0.049 A 
ATOM     49  H   UNL A   1      45.004  26.748  27.514  1.00  0.00     0.167 HD
ATOM     50  C   UNL A   1      41.145  28.506  28.677  1.00  0.00     0.031 A 
ATOM     51  C   UNL A   1      47.743  26.782  26.992  1.00  0.00     0.031 A 
ATOM     52  C   UNL A   1      42.112  29.556  28.844  1.00  0.00     0.049 A 
ATOM     53  C   UNL A   1      47.369  28.167  27.442  1.00  0.00     0.074 A 
ATOM     54  C   UNL A   1      41.915  30.843  29.311  1.00  0.00     0.029 A 
ATOM     55  N   UNL A   1      43.462  29.437  28.546  1.00  0.00    -0.354 N 
ATOM     56  N   UNL A   1      46.198  28.628  27.812  1.00  0.00    -0.248 NA
ATOM     57  C   UNL A   1      48.452  29.157  27.494  1.00  0.00     0.031 C 
ATOM     58  C   UNL A   1      43.137  31.520  29.247  1.00  0.00     0.029 A 
ATOM     59  C   UNL A   1      44.105  30.636  28.794  1.00  0.00     0.049 A 
ATOM     60  H   UNL A   1      43.896  28.622  28.207  1.00  0.00     0.167 HD
ATOM     61  C   UNL A   1      46.408  29.954  28.165  1.00  0.00     0.074 A 
ATOM     62  C   UNL A   1      47.821  30.216  27.982  1.00  0.00     0.031 C 
ATOM     63  C   UNL A   1      45.512  30.873  28.602  1.00  0.00     0.031 A 
BRANCH  50  64
ATOM     64  C   UNL A   1      39.700  28.796  28.972  1.00  0.00    -0.014 A 
ATOM     65  C   UNL A   1      38.849  29.327  27.988  1.00  0.00     0.009 A 
ATOM     66  C   UNL A   1      39.177  28.517  30.243  1.00  0.00     0.009 A 
ATOM     67  C   UNL A   1      37.514  29.609  28.284  1.00  0.00     0.001 A 
ATOM     68  C   UNL A   1      37.835  28.771  30.528  1.00  0.00     0.001 A 
ATOM     69  C   UNL A   1      37.007  29.325  29.551  1.00  0.00     0.000 A 
ENDBRANCH  50  64
BRANCH  51  70
ATOM     70  C   UNL A   1      49.146  26.445  26.637  1.00  0.00    -0.014 A 
ATOM     71  C   UNL A   1      49.624  26.674  25.337  1.00  0.00     0.009 A 
ATOM     72  C   UNL A   1      50.013  25.894  27.591  1.00  0.00     0.009 A 
ATOM     73  C   UNL A   1      50.934  26.330  24.995  1.00  0.00     0.001 A 
ATOM     74  C   UNL A   1      51.330  25.578  27.254  1.00  0.00     0.001 A 
ATOM     75  C   UNL A   1      51.787  25.787  25.955  1.00  0.00     0.000 A 
ENDBRANCH  51  70
BRANCH  63  76
ATOM     76  C   UNL A   1      46.043  32.237  28.937  1.00  0.00    -0.014 A 
ATOM     77  C   UNL A   1      46.543  32.531  30.215  1.00  0.00     0.009 A 
ATOM     78  C   UNL A   1      46.081  33.229  27.945  1.00  0.00     0.009 A 
ATOM     79  C   UNL A   1      47.041  33.803  30.501  1.00  0.00     0.001 A 
ATOM     80  C   UNL A   1      46.609  34.489  28.225  1.00  0.00     0.001 A 
ATOM     81  C   UNL A   1      47.080  34.778  29.505  1.00  0.00     0.000 A 
ENDBRANCH  63  76
ENDBRANCH  37  38
ENDBRANCH  29  32
ENDBRANCH  27  28
ENDBRANCH  26  27
ENDBRANCH  25  26
ENDBRANCH   1  25
TORSDOF 15
ENDMDL
MODEL 3
REMARK VINA RESULT:     -11.8      6.199     10.919
REMARK SMILES CC1(C)NC(=O)N(CCC(=O)N2CCC[C@H]2C(=O)NCCCCNC(=O)c2ccc(-c3c4nc(c(-c5ccccc5)c5ccc([nH]5)c(-c5ccccc5)c5nc(c(-c6ccccc6)c6ccc3[nH]6)C=C5)C=C4)cc2)C1=O
REMARK SMILES IDX 20 1 19 2 17 3 18 4 16 6 12 7 13 8 14 9 15 10 10 11 11 12
REMARK SMILES IDX 9 13 8 14 7 15 1 16 2 17 3 18 4 19 75 20 5 21 76 23 6 24
REMARK SMILES IDX 21 25 22 26 23 27 24 28 25 29 26 31 27 32 28 33 74 34 29 35
REMARK SMILES IDX 73 36 30 37 31 38 32 39 67 40 33 41 72 42 66 43 68 44 34 45
REMARK SMILES IDX 71 46 65 47 64 48 35 50 57 51 42 52 56 53 43 54 46 55 55 56
REMARK SMILES IDX 69 57 44 58 45 59 54 61 70 62 47 63 36 64 37 65 41 66 38 67
REMARK SMILES IDX 40 68 39 69 58 70 59 71 63 72 60 73 62 74 61 75 48 76 49 77
REMARK SMILES IDX 53 78 50 79 52 80 51 81
REMARK H PARENT 19 5 4 22 24 30 68 49 46 60
REMARK Flexibility Score: inf
ROOT
ATOM      1  C   UNL A   1      37.099  22.083  25.846  1.00  0.00     0.116 C 
ENDROOT
BRANCH   1   2
ATOM      2  N   UNL A   1      35.793  21.823  26.385  1.00  0.00    -0.354 N 
ATOM      3  C   UNL A   1      34.805  22.738  26.470  1.00  0.00     0.242 C 
ATOM      4  O   UNL A   1      34.250  22.811  27.567  1.00  0.00    -0.273 OA
ATOM      5  H   UNL A   1      35.606  20.914  26.714  1.00  0.00     0.163 HD
BRANCH   3   6
ATOM      6  C   UNL A   1      34.413  23.632  25.290  1.00  0.00     0.174 C 
ATOM      7  N   UNL A   1      33.043  23.556  24.844  1.00  0.00    -0.331 N 
ATOM      8  C   UNL A   1      32.366  24.815  25.092  1.00  0.00     0.120 C 
ATOM      9  C   UNL A   1      33.461  25.869  25.195  1.00  0.00     0.024 C 
ATOM     10  C   UNL A   1      34.771  25.113  25.384  1.00  0.00     0.037 C 
BRANCH   7  11
ATOM     11  C   UNL A   1      32.495  22.576  24.039  1.00  0.00     0.225 C 
ATOM     12  O   UNL A   1      31.544  22.839  23.293  1.00  0.00    -0.275 OA
BRANCH  11  13
ATOM     13  C   UNL A   1      32.963  21.121  24.153  1.00  0.00     0.122 C 
BRANCH  13  14
ATOM     14  C   UNL A   1      32.062  19.983  23.646  1.00  0.00     0.140 C 
BRANCH  14  15
ATOM     15  N   UNL A   1      32.542  18.615  23.830  1.00  0.00    -0.262 N 
ATOM     16  C   UNL A   1      32.593  15.475  25.383  1.00  0.00     0.045 C 
ATOM     17  C   UNL A   1      33.402  16.598  24.752  1.00  0.00     0.115 C 
ATOM     18  C   UNL A   1      34.865  16.501  25.188  1.00  0.00     0.045 C 
ATOM     19  N   UNL A   1      33.275  16.573  23.313  1.00  0.00    -0.324 N 
ATOM     20  C   UNL A   1      32.778  17.990  25.033  1.00  0.00     0.255 C 
ATOM     21  C   UNL A   1      32.727  17.732  22.805  1.00  0.00     0.325 C 
ATOM     22  H   UNL A   1      33.550  15.810  22.754  1.00  0.00     0.166 HD
ATOM     23  O   UNL A   1      32.524  18.434  26.145  1.00  0.00    -0.272 OA
ATOM     24  O   UNL A   1      32.525  17.914  21.624  1.00  0.00    -0.248 OA
ENDBRANCH  14  15
ENDBRANCH  13  14
ENDBRANCH  11  13
ENDBRANCH   7  11
ENDBRANCH   3   6
ENDBRANCH   1   2
BRANCH   1  25
ATOM     25  C   UNL A   1      37.349  21.198  24.626  1.00  0.00     0.023 C 
BRANCH  25  26
ATOM     26  C   UNL A   1      38.170  19.935  24.910  1.00  0.00     0.023 C 
BRANCH  26  27
ATOM     27  C   UNL A   1      39.279  20.107  25.940  1.00  0.00     0.116 C 
BRANCH  27  28
ATOM     28  N   UNL A   1      40.295  19.070  25.849  1.00  0.00    -0.352 N 
ATOM     29  C   UNL A   1      41.644  19.180  26.045  1.00  0.00     0.251 C 
ATOM     30  H   UNL A   1      39.969  18.171  25.616  1.00  0.00     0.163 HD
ATOM     31  O   UNL A   1      42.386  18.221  25.877  1.00  0.00    -0.269 OA
BRANCH  29  32
ATOM     32  C   UNL A   1      42.182  20.496  26.409  1.00  0.00     0.039 A 
ATOM     33  C   UNL A   1      42.502  21.380  25.381  1.00  0.00     0.014 A 
ATOM     34  C   UNL A   1      42.271  20.872  27.752  1.00  0.00     0.014 A 
ATOM     35  C   UNL A   1      42.881  22.678  25.701  1.00  0.00     0.010 A 
ATOM     36  C   UNL A   1      42.582  22.187  28.065  1.00  0.00     0.010 A 
ATOM     37  C   UNL A   1      42.897  23.096  27.042  1.00  0.00    -0.014 A 
BRANCH  37  38
ATOM     38  C   UNL A   1      43.260  24.486  27.390  1.00  0.00     0.031 A 
ATOM     39  C   UNL A   1      44.697  24.913  27.331  1.00  0.00     0.074 A 
ATOM     40  C   UNL A   1      42.301  25.339  27.794  1.00  0.00     0.049 A 
ATOM     41  N   UNL A   1      45.222  26.075  27.617  1.00  0.00    -0.248 NA
ATOM     42  C   UNL A   1      45.677  23.893  26.920  1.00  0.00     0.031 C 
ATOM     43  C   UNL A   1      40.878  25.017  27.924  1.00  0.00     0.029 A 
ATOM     44  N   UNL A   1      42.381  26.654  28.167  1.00  0.00    -0.354 N 
ATOM     45  C   UNL A   1      46.589  25.923  27.434  1.00  0.00     0.074 A 
ATOM     46  C   UNL A   1      46.820  24.543  27.067  1.00  0.00     0.031 C 
ATOM     47  C   UNL A   1      40.214  26.116  28.315  1.00  0.00     0.029 A 
ATOM     48  C   UNL A   1      41.167  27.206  28.499  1.00  0.00     0.049 A 
ATOM     49  H   UNL A   1      43.227  27.158  28.194  1.00  0.00     0.167 HD
ATOM     50  C   UNL A   1      47.564  26.856  27.538  1.00  0.00     0.031 A 
ATOM     51  C   UNL A   1      40.862  28.451  28.908  1.00  0.00     0.031 A 
ATOM     52  C   UNL A   1      47.324  28.227  27.896  1.00  0.00     0.049 A 
ATOM     53  C   UNL A   1      41.966  29.463  29.035  1.00  0.00     0.074 A 
ATOM     54  C   UNL A   1      48.231  29.267  27.981  1.00  0.00     0.029 A 
ATOM     55  N   UNL A   1      46.081  28.746  28.230  1.00  0.00    -0.354 N 
ATOM     56  N   UNL A   1      43.247  29.324  28.791  1.00  0.00    -0.248 NA
ATOM     57  C   UNL A   1      41.579  30.808  29.482  1.00  0.00     0.031 C 
ATOM     58  C   UNL A   1      47.546  30.406  28.418  1.00  0.00     0.029 A 
ATOM     59  C   UNL A   1      46.203  30.087  28.547  1.00  0.00     0.049 A 
ATOM     60  H   UNL A   1      45.240  28.237  28.239  1.00  0.00     0.167 HD
ATOM     61  C   UNL A   1      43.815  30.568  29.030  1.00  0.00     0.074 A 
ATOM     62  C   UNL A   1      42.736  31.452  29.420  1.00  0.00     0.031 C 
ATOM     63  C   UNL A   1      45.114  30.946  28.935  1.00  0.00     0.031 A 
BRANCH  50  64
ATOM     64  C   UNL A   1      48.975  26.412  27.270  1.00  0.00    -0.014 A 
ATOM     65  C   UNL A   1      49.503  26.413  25.968  1.00  0.00     0.009 A 
ATOM     66  C   UNL A   1      49.794  26.008  28.334  1.00  0.00     0.009 A 
ATOM     67  C   UNL A   1      50.809  25.980  25.734  1.00  0.00     0.001 A 
ATOM     68  C   UNL A   1      51.110  25.605  28.102  1.00  0.00     0.001 A 
ATOM     69  C   UNL A   1      51.613  25.582  26.801  1.00  0.00     0.000 A 
ENDBRANCH  50  64
BRANCH  51  70
ATOM     70  C   UNL A   1      39.453  28.813  29.209  1.00  0.00    -0.014 A 
ATOM     71  C   UNL A   1      38.935  28.640  30.502  1.00  0.00     0.009 A 
ATOM     72  C   UNL A   1      38.618  29.333  28.209  1.00  0.00     0.009 A 
ATOM     73  C   UNL A   1      37.602  28.954  30.779  1.00  0.00     0.001 A 
ATOM     74  C   UNL A   1      37.295  29.672  28.494  1.00  0.00     0.001 A 
ATOM     75  C   UNL A   1      36.785  29.473  29.776  1.00  0.00     0.000 A 
ENDBRANCH  51  70
BRANCH  63  76
ATOM     76  C   UNL A   1      45.430  32.384  29.232  1.00  0.00    -0.014 A 
ATOM     77  C   UNL A   1      45.340  33.369  28.237  1.00  0.00     0.009 A 
ATOM     78  C   UNL A   1      45.779  32.760  30.538  1.00  0.00     0.009 A 
ATOM     79  C   UNL A   1      45.628  34.702  28.539  1.00  0.00     0.001 A 
ATOM     80  C   UNL A   1      46.035  34.097  30.843  1.00  0.00     0.001 A 
ATOM     81  C   UNL A   1      45.969  35.065  29.841  1.00  0.00     0.000 A 
ENDBRANCH  63  76
ENDBRANCH  37  38
ENDBRANCH  29  32
ENDBRANCH  27  28
ENDBRANCH  26  27
ENDBRANCH  25  26
ENDBRANCH   1  25
TORSDOF 15
ENDMDL
