MODEL 1
REMARK VINA RESULT:     -10.0      0.000      0.000
REMARK SMILES CC[C@H](C(=O)NCCCCNC(=O)c1ccc(-c2c3nc(c(-c4ccccc4)c4ccc([nH]4)c(-c4ccccc4)c4nc(c(-c5ccccc5)c5ccc2[nH]5)C=C4)C=C3)cc1)[N@H+](C)[C@H]1CC[C@H]([NH3+])CC1
REMARK SMILES IDX 8 1 7 2 6 3 4 4 5 5 3 7 2 8 1 9 62 10 63 11 64 13 65 14
REMARK SMILES IDX 70 15 66 16 69 17 67 18 68 19 9 23 10 24 11 25 12 26 13 28
REMARK SMILES IDX 14 29 15 30 61 31 16 32 60 33 17 34 18 35 19 36 54 37 20 38
REMARK SMILES IDX 59 39 53 40 55 41 21 42 58 43 52 44 51 45 22 47 44 48 29 49
REMARK SMILES IDX 43 50 30 51 33 52 42 53 56 54 31 55 32 56 41 58 57 59 34 60
REMARK SMILES IDX 23 61 24 62 28 63 25 64 27 65 26 66 45 67 46 68 50 69 47 70
REMARK SMILES IDX 49 71 48 72 35 73 36 74 40 75 37 76 39 77 38 78
REMARK H PARENT 6 6 62 12 68 20 68 21 68 22 11 27 55 46 33 57
REMARK Flexibility Score: inf
ROOT
ATOM      1  C   UNL A   1      35.287  23.844  24.684  1.00  0.00     0.023 C 
ENDROOT
BRANCH   1   2
ATOM      2  C   UNL A   1      34.300  22.713  24.956  1.00  0.00     0.116 C 
BRANCH   2   3
ATOM      3  N   UNL A   1      33.705  22.769  26.276  1.00  0.00    -0.351 N 
ATOM      4  C   UNL A   1      32.551  23.399  26.671  1.00  0.00     0.278 C 
ATOM      5  O   UNL A   1      32.076  23.018  27.740  1.00  0.00    -0.268 OA
ATOM      6  H   UNL A   1      34.194  22.291  26.984  1.00  0.00     0.163 HD
BRANCH   4   7
ATOM      7  C   UNL A   1      31.950  24.497  25.748  1.00  0.00     0.273 C 
BRANCH   7   8
ATOM      8  C   UNL A   1      30.993  23.855  24.701  1.00  0.00     0.072 C 
ATOM      9  C   UNL A   1      31.351  24.088  23.237  1.00  0.00     0.011 C 
ENDBRANCH   7   8
BRANCH   7  10
ATOM     10  N   UNL A   1      31.247  25.652  26.409  1.00  0.00    -0.325 N 
ATOM     11  C   UNL A   1      29.848  25.697  25.950  1.00  0.00     0.333 C 
ATOM     12  H   UNL A   1      31.300  25.451  27.408  1.00  0.00     0.348 HD
BRANCH  10  13
ATOM     13  C   UNL A   1      31.900  26.979  26.356  1.00  0.00     0.184 C 
ATOM     14  C   UNL A   1      33.437  26.871  26.183  1.00  0.00     0.071 C 
ATOM     15  C   UNL A   1      31.590  27.926  27.534  1.00  0.00     0.071 C 
ATOM     16  C   UNL A   1      34.065  28.245  25.942  1.00  0.00     0.071 C 
ATOM     17  C   UNL A   1      32.211  29.308  27.302  1.00  0.00     0.071 C 
ATOM     18  C   UNL A   1      33.725  29.217  27.077  1.00  0.00     0.181 C 
BRANCH  18  19
ATOM     19  N   UNL A   1      34.262  30.547  26.789  1.00  0.00    -0.355 N 
ATOM     20  H   UNL A   1      33.516  31.145  26.434  1.00  0.00     0.344 HD
ATOM     21  H   UNL A   1      35.000  30.472  26.089  1.00  0.00     0.344 HD
ATOM     22  H   UNL A   1      34.645  30.951  27.644  1.00  0.00     0.344 HD
ENDBRANCH  18  19
ENDBRANCH  10  13
ENDBRANCH   7  10
ENDBRANCH   4   7
ENDBRANCH   2   3
ENDBRANCH   1   2
BRANCH   1  23
ATOM     23  C   UNL A   1      36.768  23.466  24.726  1.00  0.00     0.023 C 
BRANCH  23  24
ATOM     24  C   UNL A   1      37.253  22.807  26.014  1.00  0.00     0.116 C 
BRANCH  24  25
ATOM     25  N   UNL A   1      38.600  22.271  25.909  1.00  0.00    -0.352 N 
ATOM     26  C   UNL A   1      39.813  22.860  26.186  1.00  0.00     0.251 C 
ATOM     27  H   UNL A   1      38.654  21.343  25.589  1.00  0.00     0.163 HD
ATOM     28  O   UNL A   1      40.853  22.284  25.901  1.00  0.00    -0.269 OA
BRANCH  26  29
ATOM     29  C   UNL A   1      39.864  24.211  26.791  1.00  0.00     0.039 A 
ATOM     30  C   UNL A   1      39.334  24.390  28.071  1.00  0.00     0.014 A 
ATOM     31  C   UNL A   1      40.439  25.290  26.114  1.00  0.00     0.014 A 
ATOM     32  C   UNL A   1      39.474  25.624  28.713  1.00  0.00     0.010 A 
ATOM     33  C   UNL A   1      40.643  26.495  26.781  1.00  0.00     0.010 A 
ATOM     34  C   UNL A   1      40.180  26.668  28.094  1.00  0.00    -0.014 A 
BRANCH  34  35
ATOM     35  C   UNL A   1      40.499  27.920  28.832  1.00  0.00     0.031 A 
ATOM     36  C   UNL A   1      41.798  28.070  29.571  1.00  0.00     0.074 A 
ATOM     37  C   UNL A   1      39.574  28.899  28.895  1.00  0.00     0.049 A 
ATOM     38  N   UNL A   1      42.215  29.067  30.310  1.00  0.00    -0.248 NA
ATOM     39  C   UNL A   1      42.746  26.948  29.485  1.00  0.00     0.031 C 
ATOM     40  C   UNL A   1      38.256  28.862  28.257  1.00  0.00     0.029 A 
ATOM     41  N   UNL A   1      39.598  30.114  29.534  1.00  0.00    -0.354 N 
ATOM     42  C   UNL A   1      43.464  28.690  30.786  1.00  0.00     0.074 A 
ATOM     43  C   UNL A   1      43.718  27.354  30.290  1.00  0.00     0.031 C 
ATOM     44  C   UNL A   1      37.610  30.010  28.514  1.00  0.00     0.029 A 
ATOM     45  C   UNL A   1      38.445  30.844  29.372  1.00  0.00     0.049 A 
ATOM     46  H   UNL A   1      40.368  30.432  30.059  1.00  0.00     0.167 HD
ATOM     47  C   UNL A   1      44.328  29.397  31.553  1.00  0.00     0.031 A 
ATOM     48  C   UNL A   1      38.090  32.045  29.868  1.00  0.00     0.031 A 
ATOM     49  C   UNL A   1      44.076  30.725  32.052  1.00  0.00     0.049 A 
ATOM     50  C   UNL A   1      39.052  32.790  30.748  1.00  0.00     0.074 A 
ATOM     51  C   UNL A   1      44.915  31.542  32.789  1.00  0.00     0.029 A 
ATOM     52  N   UNL A   1      42.892  31.423  31.875  1.00  0.00    -0.354 N 
ATOM     53  N   UNL A   1      40.261  32.451  31.124  1.00  0.00    -0.248 NA
ATOM     54  C   UNL A   1      38.602  34.090  31.268  1.00  0.00     0.031 C 
ATOM     55  C   UNL A   1      44.217  32.710  33.111  1.00  0.00     0.029 A 
ATOM     56  C   UNL A   1      42.966  32.647  32.520  1.00  0.00     0.049 A 
ATOM     57  H   UNL A   1      42.114  31.099  31.366  1.00  0.00     0.167 HD
ATOM     58  C   UNL A   1      40.723  33.502  31.906  1.00  0.00     0.074 A 
ATOM     59  C   UNL A   1      39.674  34.499  31.930  1.00  0.00     0.031 C 
ATOM     60  C   UNL A   1      41.910  33.628  32.547  1.00  0.00     0.031 A 
BRANCH  47  61
ATOM     61  C   UNL A   1      45.633  28.740  31.913  1.00  0.00    -0.014 A 
ATOM     62  C   UNL A   1      45.758  27.955  33.071  1.00  0.00     0.009 A 
ATOM     63  C   UNL A   1      46.741  28.871  31.061  1.00  0.00     0.009 A 
ATOM     64  C   UNL A   1      46.975  27.345  33.385  1.00  0.00     0.001 A 
ATOM     65  C   UNL A   1      47.947  28.235  31.362  1.00  0.00     0.001 A 
ATOM     66  C   UNL A   1      48.066  27.482  32.528  1.00  0.00     0.000 A 
ENDBRANCH  47  61
BRANCH  48  67
ATOM     67  C   UNL A   1      36.758  32.620  29.544  1.00  0.00    -0.014 A 
ATOM     68  C   UNL A   1      35.670  32.433  30.409  1.00  0.00     0.009 A 
ATOM     69  C   UNL A   1      36.565  33.353  28.361  1.00  0.00     0.009 A 
ATOM     70  C   UNL A   1      34.412  32.944  30.086  1.00  0.00     0.001 A 
ATOM     71  C   UNL A   1      35.312  33.890  28.057  1.00  0.00     0.001 A 
ATOM     72  C   UNL A   1      34.235  33.677  28.913  1.00  0.00     0.000 A 
ENDBRANCH  48  67
BRANCH  60  73
ATOM     73  C   UNL A   1      42.145  34.899  33.315  1.00  0.00    -0.014 A 
ATOM     74  C   UNL A   1      41.611  35.082  34.601  1.00  0.00     0.009 A 
ATOM     75  C   UNL A   1      42.937  35.915  32.756  1.00  0.00     0.009 A 
ATOM     76  C   UNL A   1      41.839  36.272  35.296  1.00  0.00     0.001 A 
ATOM     77  C   UNL A   1      43.188  37.088  33.467  1.00  0.00     0.001 A 
ATOM     78  C   UNL A   1      42.631  37.271  34.731  1.00  0.00     0.000 A 
ENDBRANCH  60  73
ENDBRANCH  34  35
ENDBRANCH  26  29
ENDBRANCH  24  25
ENDBRANCH  23  24
ENDBRANCH   1  23
TORSDOF 15
ENDMDL
MODEL 2
REMARK VINA RESULT:      -9.9      2.382      7.745
REMARK SMILES CC[C@H](C(=O)NCCCCNC(=O)c1ccc(-c2c3nc(c(-c4ccccc4)c4ccc([nH]4)c(-c4ccccc4)c4nc(c(-c5ccccc5)c5ccc2[nH]5)C=C4)C=C3)cc1)[N@H+](C)[C@H]1CC[C@H]([NH3+])CC1
REMARK SMILES IDX 8 1 7 2 6 3 4 4 5 5 3 7 2 8 1 9 62 10 63 11 64 13 65 14
REMARK SMILES IDX 70 15 66 16 69 17 67 18 68 19 9 23 10 24 11 25 12 26 13 28
REMARK SMILES IDX 14 29 15 30 61 31 16 32 60 33 17 34 18 35 19 36 54 37 20 38
REMARK SMILES IDX 59 39 53 40 55 41 21 42 58 43 52 44 51 45 22 47 44 48 29 49
REMARK SMILES IDX 43 50 30 51 33 52 42 53 56 54 31 55 32 56 41 58 57 59 34 60
REMARK SMILES IDX 23 61 24 62 28 63 25 64 27 65 26 66 45 67 46 68 50 69 47 70
REMARK SMILES IDX 49 71 48 72 35 73 36 74 40 75 37 76 39 77 38 78
REMARK H PARENT 6 6 62 12 68 20 68 21 68 22 11 27 55 46 33 57
REMARK Flexibility Score: inf
ROOT
ATOM      1  C   UNL A   1      31.779  30.171  26.455  1.00  0.00     0.023 C 
ENDROOT
BRANCH   1   2
ATOM      2  C   UNL A   1      33.109  29.664  25.906  1.00  0.00     0.116 C 
BRANCH   2   3
ATOM      3  N   UNL A   1      33.167  29.642  24.459  1.00  0.00    -0.351 N 
ATOM      4  C   UNL A   1      32.800  28.634  23.601  1.00  0.00     0.278 C 
ATOM      5  O   UNL A   1      32.612  28.972  22.432  1.00  0.00    -0.268 OA
ATOM      6  H   UNL A   1      33.515  30.459  24.033  1.00  0.00     0.163 HD
BRANCH   4   7
ATOM      7  C   UNL A   1      32.641  27.195  24.169  1.00  0.00     0.273 C 
BRANCH   7   8
ATOM      8  C   UNL A   1      31.165  26.945  24.595  1.00  0.00     0.072 C 
ATOM      9  C   UNL A   1      30.947  26.540  26.048  1.00  0.00     0.011 C 
ENDBRANCH   7   8
BRANCH   7  10
ATOM     10  N   UNL A   1      33.101  26.052  23.305  1.00  0.00    -0.325 N 
ATOM     11  C   UNL A   1      31.935  25.451  22.634  1.00  0.00     0.333 C 
ATOM     12  H   UNL A   1      33.736  26.477  22.629  1.00  0.00     0.348 HD
BRANCH  10  13
ATOM     13  C   UNL A   1      33.984  25.035  23.919  1.00  0.00     0.184 C 
ATOM     14  C   UNL A   1      33.382  23.609  23.836  1.00  0.00     0.071 C 
ATOM     15  C   UNL A   1      34.420  25.315  25.371  1.00  0.00     0.071 C 
ATOM     16  C   UNL A   1      34.388  22.555  24.304  1.00  0.00     0.071 C 
ATOM     17  C   UNL A   1      35.432  24.269  25.851  1.00  0.00     0.071 C 
ATOM     18  C   UNL A   1      34.874  22.846  25.728  1.00  0.00     0.181 C 
BRANCH  18  19
ATOM     19  N   UNL A   1      35.897  21.879  26.127  1.00  0.00    -0.355 N 
ATOM     20  H   UNL A   1      35.962  21.143  25.424  1.00  0.00     0.344 HD
ATOM     21  H   UNL A   1      35.644  21.469  27.026  1.00  0.00     0.344 HD
ATOM     22  H   UNL A   1      36.797  22.351  26.211  1.00  0.00     0.344 HD
ENDBRANCH  18  19
ENDBRANCH  10  13
ENDBRANCH   7  10
ENDBRANCH   4   7
ENDBRANCH   2   3
ENDBRANCH   1   2
BRANCH   1  23
ATOM     23  C   UNL A   1      31.648  31.688  26.602  1.00  0.00     0.023 C 
BRANCH  23  24
ATOM     24  C   UNL A   1      32.829  32.399  27.256  1.00  0.00     0.116 C 
BRANCH  24  25
ATOM     25  N   UNL A   1      32.520  33.758  27.668  1.00  0.00    -0.352 N 
ATOM     26  C   UNL A   1      33.154  34.576  28.576  1.00  0.00     0.251 C 
ATOM     27  H   UNL A   1      31.734  34.156  27.231  1.00  0.00     0.163 HD
ATOM     28  O   UNL A   1      32.654  35.647  28.888  1.00  0.00    -0.269 OA
BRANCH  26  29
ATOM     29  C   UNL A   1      34.419  34.142  29.211  1.00  0.00     0.039 A 
ATOM     30  C   UNL A   1      34.360  33.511  30.457  1.00  0.00     0.014 A 
ATOM     31  C   UNL A   1      35.652  34.339  28.584  1.00  0.00     0.014 A 
ATOM     32  C   UNL A   1      35.524  32.987  31.024  1.00  0.00     0.010 A 
ATOM     33  C   UNL A   1      36.799  33.752  29.114  1.00  0.00     0.010 A 
ATOM     34  C   UNL A   1      36.743  33.052  30.329  1.00  0.00    -0.014 A 
BRANCH  34  35
ATOM     35  C   UNL A   1      37.949  32.340  30.829  1.00  0.00     0.031 A 
ATOM     36  C   UNL A   1      38.773  32.911  31.949  1.00  0.00     0.074 A 
ATOM     37  C   UNL A   1      38.345  31.207  30.216  1.00  0.00     0.049 A 
ATOM     38  N   UNL A   1      39.883  32.453  32.471  1.00  0.00    -0.248 NA
ATOM     39  C   UNL A   1      38.300  34.169  32.549  1.00  0.00     0.031 C 
ATOM     40  C   UNL A   1      37.658  30.568  29.090  1.00  0.00     0.029 A 
ATOM     41  N   UNL A   1      39.426  30.393  30.448  1.00  0.00    -0.354 N 
ATOM     42  C   UNL A   1      40.247  33.368  33.450  1.00  0.00     0.074 A 
ATOM     43  C   UNL A   1      39.265  34.432  33.418  1.00  0.00     0.031 C 
ATOM     44  C   UNL A   1      38.319  29.451  28.748  1.00  0.00     0.029 A 
ATOM     45  C   UNL A   1      39.498  29.317  29.596  1.00  0.00     0.049 A 
ATOM     46  H   UNL A   1      40.086  30.564  31.158  1.00  0.00     0.167 HD
ATOM     47  C   UNL A   1      41.294  33.322  34.308  1.00  0.00     0.031 A 
ATOM     48  C   UNL A   1      40.417  28.338  29.495  1.00  0.00     0.031 A 
ATOM     49  C   UNL A   1      42.275  32.267  34.338  1.00  0.00     0.049 A 
ATOM     50  C   UNL A   1      41.590  28.331  30.434  1.00  0.00     0.074 A 
ATOM     51  C   UNL A   1      43.338  32.105  35.208  1.00  0.00     0.029 A 
ATOM     52  N   UNL A   1      42.319  31.203  33.451  1.00  0.00    -0.354 N 
ATOM     53  N   UNL A   1      41.877  29.164  31.405  1.00  0.00    -0.248 NA
ATOM     54  C   UNL A   1      42.565  27.243  30.266  1.00  0.00     0.031 C 
ATOM     55  C   UNL A   1      44.063  30.977  34.810  1.00  0.00     0.029 A 
ATOM     56  C   UNL A   1      43.413  30.401  33.731  1.00  0.00     0.049 A 
ATOM     57  H   UNL A   1      41.669  31.041  32.729  1.00  0.00     0.167 HD
ATOM     58  C   UNL A   1      43.050  28.690  31.975  1.00  0.00     0.074 A 
ATOM     59  C   UNL A   1      43.409  27.485  31.258  1.00  0.00     0.031 C 
ATOM     60  C   UNL A   1      43.767  29.209  33.002  1.00  0.00     0.031 A 
BRANCH  47  61
ATOM     61  C   UNL A   1      41.443  34.457  35.284  1.00  0.00    -0.014 A 
ATOM     62  C   UNL A   1      42.216  35.587  34.975  1.00  0.00     0.009 A 
ATOM     63  C   UNL A   1      40.764  34.415  36.512  1.00  0.00     0.009 A 
ATOM     64  C   UNL A   1      42.335  36.635  35.890  1.00  0.00     0.001 A 
ATOM     65  C   UNL A   1      40.860  35.479  37.412  1.00  0.00     0.001 A 
ATOM     66  C   UNL A   1      41.654  36.582  37.105  1.00  0.00     0.000 A 
ENDBRANCH  47  61
BRANCH  48  67
ATOM     67  C   UNL A   1      40.267  27.278  28.463  1.00  0.00    -0.014 A 
ATOM     68  C   UNL A   1      40.853  27.426  27.198  1.00  0.00     0.009 A 
ATOM     69  C   UNL A   1      39.527  26.116  28.737  1.00  0.00     0.009 A 
ATOM     70  C   UNL A   1      40.681  26.445  26.219  1.00  0.00     0.001 A 
ATOM     71  C   UNL A   1      39.384  25.122  27.765  1.00  0.00     0.001 A 
ATOM     72  C   UNL A   1      39.952  25.292  26.504  1.00  0.00     0.000 A 
ENDBRANCH  48  67
BRANCH  60  73
ATOM     73  C   UNL A   1      45.003  28.464  33.422  1.00  0.00    -0.014 A 
ATOM     74  C   UNL A   1      46.260  28.771  32.878  1.00  0.00     0.009 A 
ATOM     75  C   UNL A   1      44.913  27.460  34.400  1.00  0.00     0.009 A 
ATOM     76  C   UNL A   1      47.396  28.065  33.280  1.00  0.00     0.001 A 
ATOM     77  C   UNL A   1      46.054  26.778  34.823  1.00  0.00     0.001 A 
ATOM     78  C   UNL A   1      47.293  27.073  34.256  1.00  0.00     0.000 A 
ENDBRANCH  60  73
ENDBRANCH  34  35
ENDBRANCH  26  29
ENDBRANCH  24  25
ENDBRANCH  23  24
ENDBRANCH   1  23
TORSDOF 15
ENDMDL
MODEL 3
REMARK VINA RESULT:      -9.9      2.912      7.793
REMARK SMILES CC[C@H](C(=O)NCCCCNC(=O)c1ccc(-c2c3nc(c(-c4ccccc4)c4ccc([nH]4)c(-c4ccccc4)c4nc(c(-c5ccccc5)c5ccc2[nH]5)C=C4)C=C3)cc1)[N@H+](C)[C@H]1CC[C@H]([NH3+])CC1
REMARK SMILES IDX 8 1 7 2 6 3 4 4 5 5 3 7 2 8 1 9 62 10 63 11 64 13 65 14
REMARK SMILES IDX 70 15 66 16 69 17 67 18 68 19 9 23 10 24 11 25 12 26 13 28
REMARK SMILES IDX 14 29 15 30 61 31 16 32 60 33 17 34 18 35 19 36 54 37 20 38
REMARK SMILES IDX 59 39 53 40 55 41 21 42 58 43 52 44 51 45 22 47 44 48 29 49
REMARK SMILES IDX 43 50 30 51 33 52 42 53 56 54 31 55 32 56 41 58 57 59 34 60
REMARK SMILES IDX 23 61 24 62 28 63 25 64 27 65 26 66 45 67 46 68 50 69 47 70
REMARK SMILES IDX 49 71 48 72 35 73 36 74 40 75 37 76 39 77 38 78
REMARK H PARENT 6 6 62 12 68 20 68 21 68 22 11 27 55 46 33 57
REMARK Flexibility Score: inf
ROOT
ATOM      1  C   UNL A   1      37.019  22.138  23.977  1.00  0.00     0.023 C 
ENDROOT
BRANCH   1   2
ATOM      2  C   UNL A   1      36.373  23.206  24.855  1.00  0.00     0.116 C 
BRANCH   2   3
ATOM      3  N   UNL A   1      35.319  23.942  24.189  1.00  0.00    -0.351 N 
ATOM      4  C   UNL A   1      33.972  23.942  24.455  1.00  0.00     0.278 C 
ATOM      5  O   UNL A   1      33.339  24.894  23.999  1.00  0.00    -0.268 OA
ATOM      6  H   UNL A   1      35.607  24.522  23.446  1.00  0.00     0.163 HD
BRANCH   4   7
ATOM      7  C   UNL A   1      33.382  22.780  25.302  1.00  0.00     0.273 C 
BRANCH   7   8
ATOM      8  C   UNL A   1      33.178  23.238  26.776  1.00  0.00     0.072 C 
ATOM      9  C   UNL A   1      34.015  22.513  27.824  1.00  0.00     0.011 C 
ENDBRANCH   7   8
BRANCH   7  10
ATOM     10  N   UNL A   1      32.113  22.136  24.811  1.00  0.00    -0.325 N 
ATOM     11  C   UNL A   1      30.998  22.526  25.692  1.00  0.00     0.333 C 
ATOM     12  H   UNL A   1      31.983  22.504  23.869  1.00  0.00     0.348 HD
BRANCH  10  13
ATOM     13  C   UNL A   1      32.137  20.680  24.544  1.00  0.00     0.184 C 
ATOM     14  C   UNL A   1      33.204  19.945  25.394  1.00  0.00     0.071 C 
ATOM     15  C   UNL A   1      32.301  20.274  23.065  1.00  0.00     0.071 C 
ATOM     16  C   UNL A   1      33.083  18.427  25.242  1.00  0.00     0.071 C 
ATOM     17  C   UNL A   1      32.178  18.755  22.899  1.00  0.00     0.071 C 
ATOM     18  C   UNL A   1      33.191  18.007  23.772  1.00  0.00     0.181 C 
BRANCH  18  19
ATOM     19  N   UNL A   1      32.990  16.564  23.636  1.00  0.00    -0.355 N 
ATOM     20  H   UNL A   1      32.092  16.306  24.044  1.00  0.00     0.344 HD
ATOM     21  H   UNL A   1      33.738  16.070  24.122  1.00  0.00     0.344 HD
ATOM     22  H   UNL A   1      33.001  16.311  22.648  1.00  0.00     0.344 HD
ENDBRANCH  18  19
ENDBRANCH  10  13
ENDBRANCH   7  10
ENDBRANCH   4   7
ENDBRANCH   2   3
ENDBRANCH   1   2
BRANCH   1  23
ATOM     23  C   UNL A   1      37.417  20.841  24.681  1.00  0.00     0.023 C 
BRANCH  23  24
ATOM     24  C   UNL A   1      38.521  20.962  25.728  1.00  0.00     0.116 C 
BRANCH  24  25
ATOM     25  N   UNL A   1      39.487  19.878  25.668  1.00  0.00    -0.352 N 
ATOM     26  C   UNL A   1      40.828  19.866  25.981  1.00  0.00     0.251 C 
ATOM     27  H   UNL A   1      39.127  19.018  25.354  1.00  0.00     0.163 HD
ATOM     28  O   UNL A   1      41.506  18.879  25.730  1.00  0.00    -0.269 OA
BRANCH  26  29
ATOM     29  C   UNL A   1      41.463  21.061  26.581  1.00  0.00     0.039 A 
ATOM     30  C   UNL A   1      42.048  22.004  25.732  1.00  0.00     0.014 A 
ATOM     31  C   UNL A   1      41.470  21.264  27.963  1.00  0.00     0.014 A 
ATOM     32  C   UNL A   1      42.549  23.196  26.261  1.00  0.00     0.010 A 
ATOM     33  C   UNL A   1      41.902  22.483  28.481  1.00  0.00     0.010 A 
ATOM     34  C   UNL A   1      42.427  23.469  27.633  1.00  0.00    -0.014 A 
BRANCH  34  35
ATOM     35  C   UNL A   1      42.784  24.804  28.183  1.00  0.00     0.031 A 
ATOM     36  C   UNL A   1      41.735  25.861  28.384  1.00  0.00     0.074 A 
ATOM     37  C   UNL A   1      44.078  25.088  28.433  1.00  0.00     0.049 A 
ATOM     38  N   UNL A   1      41.877  27.094  28.800  1.00  0.00    -0.248 NA
ATOM     39  C   UNL A   1      40.348  25.492  28.059  1.00  0.00     0.031 C 
ATOM     40  C   UNL A   1      45.200  24.166  28.242  1.00  0.00     0.029 A 
ATOM     41  N   UNL A   1      44.671  26.237  28.895  1.00  0.00    -0.354 N 
ATOM     42  C   UNL A   1      40.605  27.651  28.776  1.00  0.00     0.074 A 
ATOM     43  C   UNL A   1      39.711  26.637  28.261  1.00  0.00     0.031 C 
ATOM     44  C   UNL A   1      46.338  24.775  28.608  1.00  0.00     0.029 A 
ATOM     45  C   UNL A   1      46.036  26.143  29.014  1.00  0.00     0.049 A 
ATOM     46  H   UNL A   1      44.164  27.051  29.120  1.00  0.00     0.167 HD
ATOM     47  C   UNL A   1      40.214  28.889  29.162  1.00  0.00     0.031 A 
ATOM     48  C   UNL A   1      46.949  27.058  29.394  1.00  0.00     0.031 A 
ATOM     49  C   UNL A   1      41.103  29.903  29.670  1.00  0.00     0.049 A 
ATOM     50  C   UNL A   1      46.492  28.436  29.779  1.00  0.00     0.074 A 
ATOM     51  C   UNL A   1      40.790  31.167  30.138  1.00  0.00     0.029 A 
ATOM     52  N   UNL A   1      42.480  29.771  29.763  1.00  0.00    -0.354 N 
ATOM     53  N   UNL A   1      45.275  28.921  29.824  1.00  0.00    -0.248 NA
ATOM     54  C   UNL A   1      47.537  29.392  30.174  1.00  0.00     0.031 C 
ATOM     55  C   UNL A   1      41.983  31.823  30.457  1.00  0.00     0.029 A 
ATOM     56  C   UNL A   1      43.034  30.945  30.248  1.00  0.00     0.049 A 
ATOM     57  H   UNL A   1      42.989  28.964  29.521  1.00  0.00     0.167 HD
ATOM     58  C   UNL A   1      45.406  30.230  30.270  1.00  0.00     0.074 A 
ATOM     59  C   UNL A   1      46.816  30.455  30.504  1.00  0.00     0.031 C 
ATOM     60  C   UNL A   1      44.441  31.162  30.466  1.00  0.00     0.031 A 
BRANCH  47  61
ATOM     61  C   UNL A   1      38.753  29.226  29.037  1.00  0.00    -0.014 A 
ATOM     62  C   UNL A   1      37.876  29.078  30.124  1.00  0.00     0.009 A 
ATOM     63  C   UNL A   1      38.255  29.739  27.829  1.00  0.00     0.009 A 
ATOM     64  C   UNL A   1      36.524  29.404  29.992  1.00  0.00     0.001 A 
ATOM     65  C   UNL A   1      36.909  30.092  27.710  1.00  0.00     0.001 A 
ATOM     66  C   UNL A   1      36.043  29.915  28.787  1.00  0.00     0.000 A 
ENDBRANCH  47  61
BRANCH  48  67
ATOM     67  C   UNL A   1      48.392  26.700  29.430  1.00  0.00    -0.014 A 
ATOM     68  C   UNL A   1      48.968  26.175  30.596  1.00  0.00     0.009 A 
ATOM     69  C   UNL A   1      49.202  26.891  28.299  1.00  0.00     0.009 A 
ATOM     70  C   UNL A   1      50.331  25.873  30.637  1.00  0.00     0.001 A 
ATOM     71  C   UNL A   1      50.559  26.558  28.334  1.00  0.00     0.001 A 
ATOM     72  C   UNL A   1      51.124  26.060  29.506  1.00  0.00     0.000 A 
ENDBRANCH  48  67
BRANCH  60  73
ATOM     73  C   UNL A   1      44.880  32.506  30.977  1.00  0.00    -0.014 A 
ATOM     74  C   UNL A   1      45.201  33.551  30.096  1.00  0.00     0.009 A 
ATOM     75  C   UNL A   1      44.943  32.739  32.360  1.00  0.00     0.009 A 
ATOM     76  C   UNL A   1      45.608  34.791  30.591  1.00  0.00     0.001 A 
ATOM     77  C   UNL A   1      45.320  33.990  32.851  1.00  0.00     0.001 A 
ATOM     78  C   UNL A   1      45.662  35.011  31.967  1.00  0.00     0.000 A 
ENDBRANCH  60  73
ENDBRANCH  34  35
ENDBRANCH  26  29
ENDBRANCH  24  25
ENDBRANCH  23  24
ENDBRANCH   1  23
TORSDOF 15
ENDMDL
