MODEL 1
REMARK VINA RESULT:     -10.3      0.000      0.000
REMARK SMILES CCNC(=O)NC(=O)[C@@H](C)[NH2+][C@](C)(CC)C(=O)NCCCCNC(=O)c1ccc(-c2c3nc(c(-c4ccccc4)c4ccc([nH]4)c(-c4ccccc4)c4nc(c(-c5ccccc5)c5ccc2[nH]5)C=C4)C=C3)cc1
REMARK SMILES IDX 19 1 18 2 16 3 17 4 12 6 13 7 11 8 9 11 10 12 7 13 3 14 4 15
REMARK SMILES IDX 5 17 6 18 8 20 2 21 1 22 14 23 15 24 20 25 21 26 22 27 23 28
REMARK SMILES IDX 24 29 25 31 26 32 27 33 73 34 28 35 72 36 29 37 30 38 31 39
REMARK SMILES IDX 66 40 32 41 71 42 65 43 67 44 33 45 70 46 64 47 63 48 34 50
REMARK SMILES IDX 56 51 41 52 55 53 42 54 45 55 54 56 68 57 43 58 44 59 53 61
REMARK SMILES IDX 69 62 46 63 35 64 36 65 40 66 37 67 39 68 38 69 57 70 58 71
REMARK SMILES IDX 62 72 59 73 61 74 60 75 47 76 48 77 52 78 49 79 51 80 50 81
REMARK H PARENT 18 5 11 9 11 10 3 16 6 19 23 30 67 49 45 60
REMARK Flexibility Score: inf
ROOT
ATOM      1  C   UNL A   1      32.905  29.508  25.962  1.00  0.00     0.116 C 
ENDROOT
BRANCH   1   2
ATOM      2  N   UNL A   1      33.675  29.375  24.736  1.00  0.00    -0.351 N 
ATOM      3  C   UNL A   1      33.796  28.337  23.852  1.00  0.00     0.281 C 
ATOM      4  O   UNL A   1      34.328  28.615  22.770  1.00  0.00    -0.268 OA
ATOM      5  H   UNL A   1      34.202  30.173  24.499  1.00  0.00     0.163 HD
BRANCH   3   6
ATOM      6  C   UNL A   1      33.281  26.883  24.165  1.00  0.00     0.173 C 
ATOM      7  C   UNL A   1      33.712  25.949  23.006  1.00  0.00     0.090 C 
BRANCH   6   8
ATOM      8  N   UNL A   1      31.802  26.965  24.404  1.00  0.00    -0.324 N 
ATOM      9  H   UNL A   1      31.672  27.567  25.217  1.00  0.00     0.347 HD
ATOM     10  H   UNL A   1      31.446  27.288  23.503  1.00  0.00     0.347 HD
BRANCH   8  11
ATOM     11  C   UNL A   1      31.003  25.746  24.651  1.00  0.00     0.270 C 
ATOM     12  C   UNL A   1      29.765  25.393  23.817  1.00  0.00     0.086 C 
BRANCH  11  13
ATOM     13  C   UNL A   1      30.624  25.648  26.145  1.00  0.00     0.285 C 
ATOM     14  N   UNL A   1      30.708  22.265  26.019  1.00  0.00    -0.338 N 
ATOM     15  C   UNL A   1      30.100  23.123  26.847  1.00  0.00     0.321 C 
ATOM     16  H   UNL A   1      30.468  21.319  26.149  1.00  0.00     0.165 HD
ATOM     17  O   UNL A   1      29.375  22.646  27.725  1.00  0.00    -0.248 OA
ATOM     18  N   UNL A   1      30.255  24.489  26.826  1.00  0.00    -0.273 N 
ATOM     19  H   UNL A   1      29.969  24.794  27.717  1.00  0.00     0.175 HD
ATOM     20  O   UNL A   1      30.647  26.683  26.831  1.00  0.00    -0.268 OA
BRANCH  14  21
ATOM     21  C   UNL A   1      31.651  22.510  24.973  1.00  0.00     0.114 C 
ATOM     22  C   UNL A   1      33.031  21.932  25.184  1.00  0.00     0.027 C 
ENDBRANCH  14  21
ENDBRANCH  11  13
ENDBRANCH   8  11
ENDBRANCH   6   8
BRANCH   6  23
ATOM     23  C   UNL A   1      33.983  26.317  25.444  1.00  0.00     0.075 C 
ATOM     24  C   UNL A   1      34.831  25.064  25.220  1.00  0.00     0.011 C 
ENDBRANCH   6  23
ENDBRANCH   3   6
ENDBRANCH   1   2
BRANCH   1  25
ATOM     25  C   UNL A   1      31.546  30.167  25.727  1.00  0.00     0.023 C 
BRANCH  25  26
ATOM     26  C   UNL A   1      31.362  31.537  26.386  1.00  0.00     0.023 C 
BRANCH  26  27
ATOM     27  C   UNL A   1      32.612  32.128  27.036  1.00  0.00     0.116 C 
BRANCH  27  28
ATOM     28  N   UNL A   1      32.434  33.511  27.449  1.00  0.00    -0.352 N 
ATOM     29  C   UNL A   1      33.152  34.275  28.333  1.00  0.00     0.251 C 
ATOM     30  H   UNL A   1      31.675  33.973  27.027  1.00  0.00     0.163 HD
ATOM     31  O   UNL A   1      32.708  35.373  28.683  1.00  0.00    -0.269 OA
BRANCH  29  32
ATOM     32  C   UNL A   1      34.435  33.800  28.897  1.00  0.00     0.039 A 
ATOM     33  C   UNL A   1      34.406  33.037  30.068  1.00  0.00     0.014 A 
ATOM     34  C   UNL A   1      35.663  34.126  28.313  1.00  0.00     0.014 A 
ATOM     35  C   UNL A   1      35.596  32.548  30.611  1.00  0.00     0.010 A 
ATOM     36  C   UNL A   1      36.844  33.571  28.811  1.00  0.00     0.010 A 
ATOM     37  C   UNL A   1      36.825  32.775  29.965  1.00  0.00    -0.014 A 
BRANCH  37  38
ATOM     38  C   UNL A   1      38.068  32.140  30.478  1.00  0.00     0.031 A 
ATOM     39  C   UNL A   1      38.593  30.858  29.891  1.00  0.00     0.074 A 
ATOM     40  C   UNL A   1      38.724  32.721  31.503  1.00  0.00     0.049 A 
ATOM     41  N   UNL A   1      39.704  30.221  30.167  1.00  0.00    -0.248 NA
ATOM     42  C   UNL A   1      37.755  30.192  28.883  1.00  0.00     0.031 C 
ATOM     43  C   UNL A   1      38.294  33.934  32.201  1.00  0.00     0.029 A 
ATOM     44  N   UNL A   1      39.900  32.381  32.122  1.00  0.00    -0.354 N 
ATOM     45  C   UNL A   1      39.696  29.079  29.375  1.00  0.00     0.074 A 
ATOM     46  C   UNL A   1      38.445  29.085  28.648  1.00  0.00     0.031 C 
ATOM     47  C   UNL A   1      39.224  34.272  33.108  1.00  0.00     0.029 A 
ATOM     48  C   UNL A   1      40.293  33.280  33.084  1.00  0.00     0.049 A 
ATOM     49  H   UNL A   1      40.413  31.570  31.899  1.00  0.00     0.167 HD
ATOM     50  C   UNL A   1      40.649  28.123  29.249  1.00  0.00     0.031 A 
ATOM     51  C   UNL A   1      41.398  33.314  33.853  1.00  0.00     0.031 A 
ATOM     52  C   UNL A   1      41.893  28.113  29.976  1.00  0.00     0.049 A 
ATOM     53  C   UNL A   1      42.437  32.241  33.695  1.00  0.00     0.074 A 
ATOM     54  C   UNL A   1      42.948  27.224  29.868  1.00  0.00     0.029 A 
ATOM     55  N   UNL A   1      42.242  29.028  30.957  1.00  0.00    -0.354 N 
ATOM     56  N   UNL A   1      42.457  31.221  32.871  1.00  0.00    -0.248 NA
ATOM     57  C   UNL A   1      43.616  32.338  34.566  1.00  0.00     0.031 C 
ATOM     58  C   UNL A   1      43.908  27.562  30.829  1.00  0.00     0.029 A 
ATOM     59  C   UNL A   1      43.482  28.705  31.487  1.00  0.00     0.049 A 
ATOM     60  H   UNL A   1      41.692  29.795  31.237  1.00  0.00     0.167 HD
ATOM     61  C   UNL A   1      43.663  30.572  33.104  1.00  0.00     0.074 A 
ATOM     62  C   UNL A   1      44.355  31.329  34.128  1.00  0.00     0.031 C 
ATOM     63  C   UNL A   1      44.154  29.450  32.522  1.00  0.00     0.031 A 
BRANCH  50  64
ATOM     64  C   UNL A   1      40.369  26.988  28.297  1.00  0.00    -0.014 A 
ATOM     65  C   UNL A   1      40.859  26.997  26.981  1.00  0.00     0.009 A 
ATOM     66  C   UNL A   1      39.629  25.878  28.734  1.00  0.00     0.009 A 
ATOM     67  C   UNL A   1      40.573  25.941  26.111  1.00  0.00     0.001 A 
ATOM     68  C   UNL A   1      39.374  24.809  27.874  1.00  0.00     0.001 A 
ATOM     69  C   UNL A   1      39.836  24.846  26.559  1.00  0.00     0.000 A 
ENDBRANCH  50  64
BRANCH  51  70
ATOM     70  C   UNL A   1      41.603  34.431  34.812  1.00  0.00    -0.014 A 
ATOM     71  C   UNL A   1      41.148  34.322  36.136  1.00  0.00     0.009 A 
ATOM     72  C   UNL A   1      42.247  35.611  34.411  1.00  0.00     0.009 A 
ATOM     73  C   UNL A   1      41.309  35.383  37.029  1.00  0.00     0.001 A 
ATOM     74  C   UNL A   1      42.437  36.658  35.317  1.00  0.00     0.001 A 
ATOM     75  C   UNL A   1      41.958  36.547  36.621  1.00  0.00     0.000 A 
ENDBRANCH  51  70
BRANCH  63  76
ATOM     76  C   UNL A   1      45.520  28.997  32.963  1.00  0.00    -0.014 A 
ATOM     77  C   UNL A   1      46.686  29.453  32.327  1.00  0.00     0.009 A 
ATOM     78  C   UNL A   1      45.642  28.093  34.029  1.00  0.00     0.009 A 
ATOM     79  C   UNL A   1      47.939  28.966  32.710  1.00  0.00     0.001 A 
ATOM     80  C   UNL A   1      46.896  27.636  34.435  1.00  0.00     0.001 A 
ATOM     81  C   UNL A   1      48.042  28.060  33.764  1.00  0.00     0.000 A 
ENDBRANCH  63  76
ENDBRANCH  37  38
ENDBRANCH  29  32
ENDBRANCH  27  28
ENDBRANCH  26  27
ENDBRANCH  25  26
ENDBRANCH   1  25
TORSDOF 16
ENDMDL
MODEL 2
REMARK VINA RESULT:     -10.3      3.766      8.718
REMARK SMILES CCNC(=O)NC(=O)[C@@H](C)[NH2+][C@](C)(CC)C(=O)NCCCCNC(=O)c1ccc(-c2c3nc(c(-c4ccccc4)c4ccc([nH]4)c(-c4ccccc4)c4nc(c(-c5ccccc5)c5ccc2[nH]5)C=C4)C=C3)cc1
REMARK SMILES IDX 19 1 18 2 16 3 17 4 12 6 13 7 11 8 9 11 10 12 7 13 3 14 4 15
REMARK SMILES IDX 5 17 6 18 8 20 2 21 1 22 14 23 15 24 20 25 21 26 22 27 23 28
REMARK SMILES IDX 24 29 25 31 26 32 27 33 73 34 28 35 72 36 29 37 30 38 31 39
REMARK SMILES IDX 66 40 32 41 71 42 65 43 67 44 33 45 70 46 64 47 63 48 34 50
REMARK SMILES IDX 56 51 41 52 55 53 42 54 45 55 54 56 68 57 43 58 44 59 53 61
REMARK SMILES IDX 69 62 46 63 35 64 36 65 40 66 37 67 39 68 38 69 57 70 58 71
REMARK SMILES IDX 62 72 59 73 61 74 60 75 47 76 48 77 52 78 49 79 51 80 50 81
REMARK H PARENT 18 5 11 9 11 10 3 16 6 19 23 30 67 49 45 60
REMARK Flexibility Score: inf
ROOT
ATOM      1  C   UNL A   1      36.248  22.055  25.717  1.00  0.00     0.116 C 
ENDROOT
BRANCH   1   2
ATOM      2  N   UNL A   1      35.344  22.064  26.855  1.00  0.00    -0.351 N 
ATOM      3  C   UNL A   1      34.104  22.621  27.021  1.00  0.00     0.281 C 
ATOM      4  O   UNL A   1      33.477  22.244  28.019  1.00  0.00    -0.268 OA
ATOM      5  H   UNL A   1      35.682  21.584  27.646  1.00  0.00     0.163 HD
BRANCH   3   6
ATOM      6  C   UNL A   1      33.491  23.660  26.010  1.00  0.00     0.173 C 
ATOM      7  C   UNL A   1      32.268  24.334  26.682  1.00  0.00     0.090 C 
BRANCH   6   8
ATOM      8  N   UNL A   1      33.199  22.933  24.731  1.00  0.00    -0.324 N 
ATOM      9  H   UNL A   1      34.099  22.628  24.359  1.00  0.00     0.347 HD
ATOM     10  H   UNL A   1      32.532  22.219  25.025  1.00  0.00     0.347 HD
BRANCH   8  11
ATOM     11  C   UNL A   1      32.490  23.603  23.621  1.00  0.00     0.270 C 
ATOM     12  C   UNL A   1      31.097  23.163  23.153  1.00  0.00     0.086 C 
BRANCH  11  13
ATOM     13  C   UNL A   1      33.407  23.704  22.382  1.00  0.00     0.285 C 
ATOM     14  N   UNL A   1      31.746  26.444  21.285  1.00  0.00    -0.338 N 
ATOM     15  C   UNL A   1      32.509  25.540  20.660  1.00  0.00     0.321 C 
ATOM     16  H   UNL A   1      31.289  27.085  20.694  1.00  0.00     0.165 HD
ATOM     17  O   UNL A   1      32.624  25.646  19.435  1.00  0.00    -0.248 OA
ATOM     18  N   UNL A   1      33.209  24.531  21.277  1.00  0.00    -0.273 N 
ATOM     19  H   UNL A   1      33.901  24.265  20.630  1.00  0.00     0.175 HD
ATOM     20  O   UNL A   1      34.427  22.998  22.342  1.00  0.00    -0.268 OA
BRANCH  14  21
ATOM     21  C   UNL A   1      31.491  26.622  22.681  1.00  0.00     0.114 C 
ATOM     22  C   UNL A   1      30.303  27.490  23.027  1.00  0.00     0.027 C 
ENDBRANCH  14  21
ENDBRANCH  11  13
ENDBRANCH   8  11
ENDBRANCH   6   8
BRANCH   6  23
ATOM     23  C   UNL A   1      34.507  24.817  25.731  1.00  0.00     0.075 C 
ATOM     24  C   UNL A   1      33.903  26.221  25.707  1.00  0.00     0.011 C 
ENDBRANCH   6  23
ENDBRANCH   3   6
ENDBRANCH   1   2
BRANCH   1  25
ATOM     25  C   UNL A   1      36.117  20.783  24.880  1.00  0.00     0.023 C 
BRANCH  25  26
ATOM     26  C   UNL A   1      37.346  19.871  24.880  1.00  0.00     0.023 C 
BRANCH  26  27
ATOM     27  C   UNL A   1      38.584  20.435  25.575  1.00  0.00     0.116 C 
BRANCH  27  28
ATOM     28  N   UNL A   1      39.688  19.490  25.619  1.00  0.00    -0.352 N 
ATOM     29  C   UNL A   1      41.001  19.670  25.973  1.00  0.00     0.251 C 
ATOM     30  H   UNL A   1      39.456  18.572  25.350  1.00  0.00     0.163 HD
ATOM     31  O   UNL A   1      41.816  18.770  25.750  1.00  0.00    -0.269 OA
BRANCH  29  32
ATOM     32  C   UNL A   1      41.465  20.931  26.591  1.00  0.00     0.039 A 
ATOM     33  C   UNL A   1      42.006  21.920  25.764  1.00  0.00     0.014 A 
ATOM     34  C   UNL A   1      41.412  21.139  27.973  1.00  0.00     0.014 A 
ATOM     35  C   UNL A   1      42.428  23.133  26.310  1.00  0.00     0.010 A 
ATOM     36  C   UNL A   1      41.760  22.382  28.508  1.00  0.00     0.010 A 
ATOM     37  C   UNL A   1      42.270  23.394  27.684  1.00  0.00    -0.014 A 
BRANCH  37  38
ATOM     38  C   UNL A   1      42.600  24.736  28.233  1.00  0.00     0.031 A 
ATOM     39  C   UNL A   1      44.015  25.117  28.574  1.00  0.00     0.074 A 
ATOM     40  C   UNL A   1      41.604  25.619  28.443  1.00  0.00     0.049 A 
ATOM     41  N   UNL A   1      44.481  26.272  28.980  1.00  0.00    -0.248 NA
ATOM     42  C   UNL A   1      45.035  24.063  28.468  1.00  0.00     0.031 C 
ATOM     43  C   UNL A   1      40.182  25.360  28.209  1.00  0.00     0.029 A 
ATOM     44  N   UNL A   1      41.635  26.919  28.882  1.00  0.00    -0.354 N 
ATOM     45  C   UNL A   1      45.843  26.083  29.185  1.00  0.00     0.074 A 
ATOM     46  C   UNL A   1      46.117  24.689  28.909  1.00  0.00     0.031 C 
ATOM     47  C   UNL A   1      39.485  26.482  28.446  1.00  0.00     0.029 A 
ATOM     48  C   UNL A   1      40.403  27.527  28.886  1.00  0.00     0.049 A 
ATOM     49  H   UNL A   1      42.462  27.372  29.168  1.00  0.00     0.167 HD
ATOM     50  C   UNL A   1      46.783  26.989  29.551  1.00  0.00     0.031 A 
ATOM     51  C   UNL A   1      40.050  28.789  29.193  1.00  0.00     0.031 A 
ATOM     52  C   UNL A   1      46.511  28.376  29.832  1.00  0.00     0.049 A 
ATOM     53  C   UNL A   1      41.111  29.772  29.599  1.00  0.00     0.074 A 
ATOM     54  C   UNL A   1      47.406  29.384  30.145  1.00  0.00     0.029 A 
ATOM     55  N   UNL A   1      45.247  28.946  29.847  1.00  0.00    -0.354 N 
ATOM     56  N   UNL A   1      42.407  29.601  29.693  1.00  0.00    -0.248 NA
ATOM     57  C   UNL A   1      40.655  31.131  29.922  1.00  0.00     0.031 C 
ATOM     58  C   UNL A   1      46.678  30.549  30.414  1.00  0.00     0.029 A 
ATOM     59  C   UNL A   1      45.335  30.284  30.199  1.00  0.00     0.049 A 
ATOM     60  H   UNL A   1      44.410  28.472  29.638  1.00  0.00     0.167 HD
ATOM     61  C   UNL A   1      42.925  30.837  30.059  1.00  0.00     0.074 A 
ATOM     62  C   UNL A   1      41.805  31.752  30.143  1.00  0.00     0.031 C 
ATOM     63  C   UNL A   1      44.213  31.183  30.302  1.00  0.00     0.031 A 
BRANCH  50  64
ATOM     64  C   UNL A   1      48.200  26.497  29.691  1.00  0.00    -0.014 A 
ATOM     65  C   UNL A   1      49.118  26.590  28.632  1.00  0.00     0.009 A 
ATOM     66  C   UNL A   1      48.634  25.958  30.913  1.00  0.00     0.009 A 
ATOM     67  C   UNL A   1      50.423  26.113  28.780  1.00  0.00     0.001 A 
ATOM     68  C   UNL A   1      49.948  25.513  31.069  1.00  0.00     0.001 A 
ATOM     69  C   UNL A   1      50.838  25.580  29.998  1.00  0.00     0.000 A 
ENDBRANCH  50  64
BRANCH  51  70
ATOM     70  C   UNL A   1      38.628  29.211  29.085  1.00  0.00    -0.014 A 
ATOM     71  C   UNL A   1      38.124  29.705  27.871  1.00  0.00     0.009 A 
ATOM     72  C   UNL A   1      37.770  29.127  30.192  1.00  0.00     0.009 A 
ATOM     73  C   UNL A   1      36.798  30.133  27.777  1.00  0.00     0.001 A 
ATOM     74  C   UNL A   1      36.435  29.525  30.086  1.00  0.00     0.001 A 
ATOM     75  C   UNL A   1      35.954  30.038  28.882  1.00  0.00     0.000 A 
ENDBRANCH  51  70
BRANCH  63  76
ATOM     76  C   UNL A   1      44.475  32.624  30.653  1.00  0.00    -0.014 A 
ATOM     77  C   UNL A   1      44.732  33.586  29.662  1.00  0.00     0.009 A 
ATOM     78  C   UNL A   1      44.473  33.023  31.998  1.00  0.00     0.009 A 
ATOM     79  C   UNL A   1      45.040  34.902  30.017  1.00  0.00     0.001 A 
ATOM     80  C   UNL A   1      44.743  34.346  32.348  1.00  0.00     0.001 A 
ATOM     81  C   UNL A   1      45.043  35.281  31.358  1.00  0.00     0.000 A 
ENDBRANCH  63  76
ENDBRANCH  37  38
ENDBRANCH  29  32
ENDBRANCH  27  28
ENDBRANCH  26  27
ENDBRANCH  25  26
ENDBRANCH   1  25
TORSDOF 16
ENDMDL
MODEL 3
REMARK VINA RESULT:     -10.2      0.758      6.018
REMARK SMILES CCNC(=O)NC(=O)[C@@H](C)[NH2+][C@](C)(CC)C(=O)NCCCCNC(=O)c1ccc(-c2c3nc(c(-c4ccccc4)c4ccc([nH]4)c(-c4ccccc4)c4nc(c(-c5ccccc5)c5ccc2[nH]5)C=C4)C=C3)cc1
REMARK SMILES IDX 19 1 18 2 16 3 17 4 12 6 13 7 11 8 9 11 10 12 7 13 3 14 4 15
REMARK SMILES IDX 5 17 6 18 8 20 2 21 1 22 14 23 15 24 20 25 21 26 22 27 23 28
REMARK SMILES IDX 24 29 25 31 26 32 27 33 73 34 28 35 72 36 29 37 30 38 31 39
REMARK SMILES IDX 66 40 32 41 71 42 65 43 67 44 33 45 70 46 64 47 63 48 34 50
REMARK SMILES IDX 56 51 41 52 55 53 42 54 45 55 54 56 68 57 43 58 44 59 53 61
REMARK SMILES IDX 69 62 46 63 35 64 36 65 40 66 37 67 39 68 38 69 57 70 58 71
REMARK SMILES IDX 62 72 59 73 61 74 60 75 47 76 48 77 52 78 49 79 51 80 50 81
REMARK H PARENT 18 5 11 9 11 10 3 16 6 19 23 30 67 49 45 60
REMARK Flexibility Score: inf
ROOT
ATOM      1  C   UNL A   1      31.240  29.313  24.110  1.00  0.00     0.116 C 
ENDROOT
BRANCH   1   2
ATOM      2  N   UNL A   1      32.445  29.229  23.302  1.00  0.00    -0.351 N 
ATOM      3  C   UNL A   1      33.214  28.157  22.934  1.00  0.00     0.281 C 
ATOM      4  O   UNL A   1      34.036  28.373  22.033  1.00  0.00    -0.268 OA
ATOM      5  H   UNL A   1      32.765  30.095  22.958  1.00  0.00     0.163 HD
BRANCH   3   6
ATOM      6  C   UNL A   1      33.066  26.733  23.587  1.00  0.00     0.173 C 
ATOM      7  C   UNL A   1      33.890  25.722  22.751  1.00  0.00     0.090 C 
BRANCH   6   8
ATOM      8  N   UNL A   1      31.600  26.431  23.693  1.00  0.00    -0.324 N 
ATOM      9  H   UNL A   1      31.201  27.143  24.306  1.00  0.00     0.347 HD
ATOM     10  H   UNL A   1      31.303  26.414  22.717  1.00  0.00     0.347 HD
BRANCH   8  11
ATOM     11  C   UNL A   1      31.128  25.126  24.200  1.00  0.00     0.270 C 
ATOM     12  C   UNL A   1      30.351  24.137  23.323  1.00  0.00     0.086 C 
BRANCH  11  13
ATOM     13  C   UNL A   1      30.350  25.315  25.522  1.00  0.00     0.285 C 
ATOM     14  N   UNL A   1      31.169  22.188  26.533  1.00  0.00    -0.338 N 
ATOM     15  C   UNL A   1      30.178  23.019  26.879  1.00  0.00     0.321 C 
ATOM     16  H   UNL A   1      31.103  21.280  26.910  1.00  0.00     0.165 HD
ATOM     17  O   UNL A   1      29.340  22.598  27.683  1.00  0.00    -0.248 OA
ATOM     18  N   UNL A   1      30.045  24.316  26.446  1.00  0.00    -0.273 N 
ATOM     19  H   UNL A   1      29.450  24.747  27.101  1.00  0.00     0.175 HD
ATOM     20  O   UNL A   1      29.952  26.453  25.817  1.00  0.00    -0.268 OA
BRANCH  14  21
ATOM     21  C   UNL A   1      32.309  22.414  25.700  1.00  0.00     0.114 C 
ATOM     22  C   UNL A   1      33.326  21.299  25.660  1.00  0.00     0.027 C 
ENDBRANCH  14  21
ENDBRANCH  11  13
ENDBRANCH   8  11
ENDBRANCH   6   8
BRANCH   6  23
ATOM     23  C   UNL A   1      33.704  26.717  25.015  1.00  0.00     0.075 C 
ATOM     24  C   UNL A   1      34.472  25.444  25.370  1.00  0.00     0.011 C 
ENDBRANCH   6  23
ENDBRANCH   3   6
ENDBRANCH   1   2
BRANCH   1  25
ATOM     25  C   UNL A   1      31.545  29.580  25.584  1.00  0.00     0.023 C 
BRANCH  25  26
ATOM     26  C   UNL A   1      31.372  31.033  26.035  1.00  0.00     0.023 C 
BRANCH  26  27
ATOM     27  C   UNL A   1      32.492  31.587  26.914  1.00  0.00     0.116 C 
BRANCH  27  28
ATOM     28  N   UNL A   1      32.267  32.967  27.311  1.00  0.00    -0.352 N 
ATOM     29  C   UNL A   1      33.005  33.792  28.121  1.00  0.00     0.251 C 
ATOM     30  H   UNL A   1      31.453  33.376  26.939  1.00  0.00     0.163 HD
ATOM     31  O   UNL A   1      32.527  34.871  28.482  1.00  0.00    -0.269 OA
BRANCH  29  32
ATOM     32  C   UNL A   1      34.352  33.402  28.594  1.00  0.00     0.039 A 
ATOM     33  C   UNL A   1      34.452  32.611  29.742  1.00  0.00     0.014 A 
ATOM     34  C   UNL A   1      35.514  33.835  27.949  1.00  0.00     0.014 A 
ATOM     35  C   UNL A   1      35.706  32.201  30.199  1.00  0.00     0.010 A 
ATOM     36  C   UNL A   1      36.762  33.360  28.360  1.00  0.00     0.010 A 
ATOM     37  C   UNL A   1      36.873  32.537  29.489  1.00  0.00    -0.014 A 
BRANCH  37  38
ATOM     38  C   UNL A   1      38.189  31.986  29.909  1.00  0.00     0.031 A 
ATOM     39  C   UNL A   1      39.053  32.702  30.911  1.00  0.00     0.074 A 
ATOM     40  C   UNL A   1      38.618  30.830  29.366  1.00  0.00     0.049 A 
ATOM     41  N   UNL A   1      40.185  32.316  31.447  1.00  0.00    -0.248 NA
ATOM     42  C   UNL A   1      38.604  34.031  31.353  1.00  0.00     0.031 C 
ATOM     43  C   UNL A   1      37.905  30.062  28.342  1.00  0.00     0.029 A 
ATOM     44  N   UNL A   1      39.747  30.089  29.610  1.00  0.00    -0.354 N 
ATOM     45  C   UNL A   1      40.587  33.353  32.280  1.00  0.00     0.074 A 
ATOM     46  C   UNL A   1      39.604  34.407  32.138  1.00  0.00     0.031 C 
ATOM     47  C   UNL A   1      38.581  28.929  28.093  1.00  0.00     0.029 A 
ATOM     48  C   UNL A   1      39.791  28.908  28.907  1.00  0.00     0.049 A 
ATOM     49  H   UNL A   1      40.457  30.375  30.229  1.00  0.00     0.167 HD
ATOM     50  C   UNL A   1      41.663  33.418  33.102  1.00  0.00     0.031 A 
ATOM     51  C   UNL A   1      40.695  27.911  28.925  1.00  0.00     0.031 A 
ATOM     52  C   UNL A   1      42.645  32.373  33.240  1.00  0.00     0.049 A 
ATOM     53  C   UNL A   1      41.880  28.009  29.842  1.00  0.00     0.074 A 
ATOM     54  C   UNL A   1      43.732  32.318  34.094  1.00  0.00     0.029 A 
ATOM     55  N   UNL A   1      42.667  31.205  32.493  1.00  0.00    -0.354 N 
ATOM     56  N   UNL A   1      42.193  28.955  30.695  1.00  0.00    -0.248 NA
ATOM     57  C   UNL A   1      42.828  26.887  29.809  1.00  0.00     0.031 C 
ATOM     58  C   UNL A   1      44.450  31.148  33.820  1.00  0.00     0.029 A 
ATOM     59  C   UNL A   1      43.768  30.439  32.843  1.00  0.00     0.049 A 
ATOM     60  H   UNL A   1      41.999  30.955  31.815  1.00  0.00     0.167 HD
ATOM     61  C   UNL A   1      43.357  28.529  31.321  1.00  0.00     0.074 A 
ATOM     62  C   UNL A   1      43.678  27.229  30.766  1.00  0.00     0.031 C 
ATOM     63  C   UNL A   1      44.094  29.156  32.271  1.00  0.00     0.031 A 
BRANCH  50  64
ATOM     64  C   UNL A   1      41.846  34.680  33.904  1.00  0.00    -0.014 A 
ATOM     65  C   UNL A   1      41.306  34.815  35.193  1.00  0.00     0.009 A 
ATOM     66  C   UNL A   1      42.597  35.741  33.373  1.00  0.00     0.009 A 
ATOM     67  C   UNL A   1      41.475  36.001  35.913  1.00  0.00     0.001 A 
ATOM     68  C   UNL A   1      42.794  36.912  34.108  1.00  0.00     0.001 A 
ATOM     69  C   UNL A   1      42.222  37.046  35.372  1.00  0.00     0.000 A 
ENDBRANCH  50  64
BRANCH  51  70
ATOM     70  C   UNL A   1      40.492  26.708  28.076  1.00  0.00    -0.014 A 
ATOM     71  C   UNL A   1      39.722  25.630  28.543  1.00  0.00     0.009 A 
ATOM     72  C   UNL A   1      41.068  26.626  26.799  1.00  0.00     0.009 A 
ATOM     73  C   UNL A   1      39.558  24.485  27.761  1.00  0.00     0.001 A 
ATOM     74  C   UNL A   1      40.874  25.493  26.005  1.00  0.00     0.001 A 
ATOM     75  C   UNL A   1      40.129  24.420  26.492  1.00  0.00     0.000 A 
ENDBRANCH  51  70
BRANCH  63  76
ATOM     76  C   UNL A   1      45.304  28.424  32.787  1.00  0.00    -0.014 A 
ATOM     77  C   UNL A   1      46.568  28.589  32.199  1.00  0.00     0.009 A 
ATOM     78  C   UNL A   1      45.173  27.548  33.875  1.00  0.00     0.009 A 
ATOM     79  C   UNL A   1      47.662  27.846  32.652  1.00  0.00     0.001 A 
ATOM     80  C   UNL A   1      46.275  26.836  34.351  1.00  0.00     0.001 A 
ATOM     81  C   UNL A   1      47.515  26.973  33.728  1.00  0.00     0.000 A 
ENDBRANCH  63  76
ENDBRANCH  37  38
ENDBRANCH  29  32
ENDBRANCH  27  28
ENDBRANCH  26  27
ENDBRANCH  25  26
ENDBRANCH   1  25
TORSDOF 16
ENDMDL
