MODEL 1
REMARK VINA RESULT:     -10.9      0.000      0.000
REMARK SMILES CC(C)(C)OC(=O)N1CC2(C[C@@H](C(=O)NCCCCNC(=O)c3ccc(-c4c5nc(c(-c6ccccc6)c6ccc([nH]6)c(-c6ccccc6)c6nc(c(-c7ccccc7)c7ccc4[nH]7)C=C6)C=C5)cc3)CO2)C1
REMARK SMILES IDX 17 1 16 2 15 3 13 4 14 5 12 7 6 8 7 9 8 10 9 11 73 12 10 13
REMARK SMILES IDX 11 14 72 15 71 16 5 17 2 18 1 19 3 20 4 21 18 22 19 23 20 24
REMARK SMILES IDX 21 25 22 27 23 28 24 29 70 30 25 31 69 32 26 33 27 34 28 35
REMARK SMILES IDX 63 36 29 37 68 38 62 39 64 40 30 41 67 42 61 43 60 44 31 46
REMARK SMILES IDX 53 47 38 48 52 49 39 50 42 51 51 52 65 53 40 54 41 55 50 57
REMARK SMILES IDX 66 58 43 59 32 60 33 61 37 62 34 63 36 64 35 65 54 66 55 67
REMARK SMILES IDX 59 68 56 69 58 70 57 71 44 72 45 73 49 74 46 75 48 76 47 77
REMARK H PARENT 15 6 20 26 64 45 42 56
REMARK Flexibility Score: inf
ROOT
ATOM      1  C   UNL A   1      32.098  29.541  25.505  1.00  0.00     0.023 C 
ENDROOT
BRANCH   1   2
ATOM      2  C   UNL A   1      31.790  29.313  24.036  1.00  0.00     0.116 C 
BRANCH   2   3
ATOM      3  N   UNL A   1      32.924  28.933  23.237  1.00  0.00    -0.356 N 
ATOM      4  C   UNL A   1      33.051  27.922  22.335  1.00  0.00     0.225 C 
ATOM      5  O   UNL A   1      34.109  27.883  21.696  1.00  0.00    -0.275 OA
ATOM      6  H   UNL A   1      33.728  29.487  23.360  1.00  0.00     0.163 HD
BRANCH   4   7
ATOM      7  C   UNL A   1      31.992  26.838  22.109  1.00  0.00     0.107 C 
ATOM      8  C   UNL A   1      32.735  21.968  23.589  1.00  0.00     0.410 C 
ATOM      9  O   UNL A   1      32.366  21.193  22.711  1.00  0.00    -0.224 OA
ATOM     10  N   UNL A   1      31.899  22.901  24.169  1.00  0.00    -0.302 N 
ATOM     11  C   UNL A   1      30.773  23.558  23.479  1.00  0.00     0.160 C 
ATOM     12  C   UNL A   1      32.315  24.186  24.726  1.00  0.00     0.160 C 
ATOM     13  C   UNL A   1      31.786  24.755  23.351  1.00  0.00     0.104 C 
ATOM     14  C   UNL A   1      31.333  26.212  23.348  1.00  0.00     0.055 C 
ATOM     15  O   UNL A   1      32.698  24.620  22.214  1.00  0.00    -0.370 OA
ATOM     16  C   UNL A   1      32.534  25.689  21.288  1.00  0.00     0.174 C 
BRANCH   8  17
ATOM     17  O   UNL A   1      34.010  22.089  24.047  1.00  0.00    -0.444 OA
BRANCH  17  18
ATOM     18  C   UNL A   1      34.562  21.190  25.049  1.00  0.00     0.106 C 
ATOM     19  C   UNL A   1      36.072  21.155  24.753  1.00  0.00     0.056 C 
ATOM     20  C   UNL A   1      33.983  19.778  24.873  1.00  0.00     0.056 C 
ATOM     21  C   UNL A   1      34.364  21.677  26.486  1.00  0.00     0.056 C 
ENDBRANCH  17  18
ENDBRANCH   8  17
ENDBRANCH   4   7
ENDBRANCH   2   3
ENDBRANCH   1   2
BRANCH   1  22
ATOM     22  C   UNL A   1      33.365  28.858  25.998  1.00  0.00     0.023 C 
BRANCH  22  23
ATOM     23  C   UNL A   1      33.607  28.985  27.497  1.00  0.00     0.116 C 
BRANCH  23  24
ATOM     24  N   UNL A   1      33.698  30.364  27.964  1.00  0.00    -0.352 N 
ATOM     25  C   UNL A   1      34.771  30.998  28.548  1.00  0.00     0.251 C 
ATOM     26  H   UNL A   1      32.889  30.911  27.845  1.00  0.00     0.163 HD
ATOM     27  O   UNL A   1      34.662  32.129  29.006  1.00  0.00    -0.269 OA
BRANCH  25  28
ATOM     28  C   UNL A   1      36.050  30.270  28.648  1.00  0.00     0.039 A 
ATOM     29  C   UNL A   1      36.923  30.271  27.559  1.00  0.00     0.014 A 
ATOM     30  C   UNL A   1      36.415  29.665  29.853  1.00  0.00     0.014 A 
ATOM     31  C   UNL A   1      38.202  29.734  27.709  1.00  0.00     0.010 A 
ATOM     32  C   UNL A   1      37.719  29.224  30.029  1.00  0.00     0.010 A 
ATOM     33  C   UNL A   1      38.625  29.250  28.958  1.00  0.00    -0.014 A 
BRANCH  33  34
ATOM     34  C   UNL A   1      40.011  28.768  29.174  1.00  0.00     0.031 A 
ATOM     35  C   UNL A   1      41.049  29.697  29.740  1.00  0.00     0.074 A 
ATOM     36  C   UNL A   1      40.357  27.529  28.776  1.00  0.00     0.049 A 
ATOM     37  N   UNL A   1      42.326  29.487  29.936  1.00  0.00    -0.248 NA
ATOM     38  C   UNL A   1      40.601  31.054  30.097  1.00  0.00     0.031 C 
ATOM     39  C   UNL A   1      39.459  26.555  28.151  1.00  0.00     0.029 A 
ATOM     40  N   UNL A   1      41.565  26.881  28.827  1.00  0.00    -0.354 N 
ATOM     41  C   UNL A   1      42.834  30.689  30.412  1.00  0.00     0.074 A 
ATOM     42  C   UNL A   1      41.745  31.638  30.418  1.00  0.00     0.031 C 
ATOM     43  C   UNL A   1      40.140  25.426  27.900  1.00  0.00     0.029 A 
ATOM     44  C   UNL A   1      41.530  25.609  28.306  1.00  0.00     0.049 A 
ATOM     45  H   UNL A   1      42.380  27.287  29.201  1.00  0.00     0.167 HD
ATOM     46  C   UNL A   1      44.092  30.973  30.826  1.00  0.00     0.031 A 
ATOM     47  C   UNL A   1      42.508  24.696  28.163  1.00  0.00     0.031 A 
ATOM     48  C   UNL A   1      45.170  30.022  30.830  1.00  0.00     0.049 A 
ATOM     49  C   UNL A   1      43.893  25.025  28.642  1.00  0.00     0.074 A 
ATOM     50  C   UNL A   1      46.459  30.182  31.307  1.00  0.00     0.029 A 
ATOM     51  N   UNL A   1      45.086  28.733  30.325  1.00  0.00    -0.354 N 
ATOM     52  N   UNL A   1      44.337  26.135  29.182  1.00  0.00    -0.248 NA
ATOM     53  C   UNL A   1      44.909  23.972  28.508  1.00  0.00     0.031 C 
ATOM     54  C   UNL A   1      47.173  29.012  31.031  1.00  0.00     0.029 A 
ATOM     55  C   UNL A   1      46.310  28.099  30.445  1.00  0.00     0.049 A 
ATOM     56  H   UNL A   1      44.276  28.330  29.938  1.00  0.00     0.167 HD
ATOM     57  C   UNL A   1      45.677  25.907  29.471  1.00  0.00     0.074 A 
ATOM     58  C   UNL A   1      45.966  24.546  29.065  1.00  0.00     0.031 C 
ATOM     59  C   UNL A   1      46.585  26.747  30.025  1.00  0.00     0.031 A 
BRANCH  46  60
ATOM     60  C   UNL A   1      44.363  32.379  31.289  1.00  0.00    -0.014 A 
ATOM     61  C   UNL A   1      44.789  33.377  30.398  1.00  0.00     0.009 A 
ATOM     62  C   UNL A   1      44.181  32.712  32.640  1.00  0.00     0.009 A 
ATOM     63  C   UNL A   1      45.077  34.664  30.858  1.00  0.00     0.001 A 
ATOM     64  C   UNL A   1      44.435  34.008  33.092  1.00  0.00     0.001 A 
ATOM     65  C   UNL A   1      44.897  34.978  32.204  1.00  0.00     0.000 A 
ENDBRANCH  46  60
BRANCH  47  66
ATOM     66  C   UNL A   1      42.203  23.378  27.547  1.00  0.00    -0.014 A 
ATOM     67  C   UNL A   1      42.516  23.127  26.202  1.00  0.00     0.009 A 
ATOM     68  C   UNL A   1      41.615  22.355  28.307  1.00  0.00     0.009 A 
ATOM     69  C   UNL A   1      42.228  21.886  25.627  1.00  0.00     0.001 A 
ATOM     70  C   UNL A   1      41.356  21.107  27.739  1.00  0.00     0.001 A 
ATOM     71  C   UNL A   1      41.655  20.876  26.398  1.00  0.00     0.000 A 
ENDBRANCH  47  66
BRANCH  59  72
ATOM     72  C   UNL A   1      47.972  26.212  30.247  1.00  0.00    -0.014 A 
ATOM     73  C   UNL A   1      48.932  26.223  29.224  1.00  0.00     0.009 A 
ATOM     74  C   UNL A   1      48.335  25.732  31.516  1.00  0.00     0.009 A 
ATOM     75  C   UNL A   1      50.218  25.731  29.459  1.00  0.00     0.001 A 
ATOM     76  C   UNL A   1      49.630  25.272  31.756  1.00  0.00     0.001 A 
ATOM     77  C   UNL A   1      50.567  25.262  30.725  1.00  0.00     0.000 A 
ENDBRANCH  59  72
ENDBRANCH  33  34
ENDBRANCH  25  28
ENDBRANCH  23  24
ENDBRANCH  22  23
ENDBRANCH   1  22
TORSDOF 13
ENDMDL
MODEL 2
REMARK VINA RESULT:     -10.9      1.961      7.614
REMARK SMILES CC(C)(C)OC(=O)N1CC2(C[C@@H](C(=O)NCCCCNC(=O)c3ccc(-c4c5nc(c(-c6ccccc6)c6ccc([nH]6)c(-c6ccccc6)c6nc(c(-c7ccccc7)c7ccc4[nH]7)C=C6)C=C5)cc3)CO2)C1
REMARK SMILES IDX 17 1 16 2 15 3 13 4 14 5 12 7 6 8 7 9 8 10 9 11 73 12 10 13
REMARK SMILES IDX 11 14 72 15 71 16 5 17 2 18 1 19 3 20 4 21 18 22 19 23 20 24
REMARK SMILES IDX 21 25 22 27 23 28 24 29 70 30 25 31 69 32 26 33 27 34 28 35
REMARK SMILES IDX 63 36 29 37 68 38 62 39 64 40 30 41 67 42 61 43 60 44 31 46
REMARK SMILES IDX 53 47 38 48 52 49 39 50 42 51 51 52 65 53 40 54 41 55 50 57
REMARK SMILES IDX 66 58 43 59 32 60 33 61 37 62 34 63 36 64 35 65 54 66 55 67
REMARK SMILES IDX 59 68 56 69 58 70 57 71 44 72 45 73 49 74 46 75 48 76 47 77
REMARK H PARENT 15 6 20 26 64 45 42 56
REMARK Flexibility Score: inf
ROOT
ATOM      1  C   UNL A   1      36.522  19.935  24.996  1.00  0.00     0.023 C 
ENDROOT
BRANCH   1   2
ATOM      2  C   UNL A   1      35.104  20.479  25.009  1.00  0.00     0.116 C 
BRANCH   2   3
ATOM      3  N   UNL A   1      34.681  21.023  26.271  1.00  0.00    -0.356 N 
ATOM      4  C   UNL A   1      33.504  21.615  26.612  1.00  0.00     0.225 C 
ATOM      5  O   UNL A   1      33.353  21.896  27.806  1.00  0.00    -0.275 OA
ATOM      6  H   UNL A   1      35.342  20.957  26.998  1.00  0.00     0.163 HD
BRANCH   4   7
ATOM      7  C   UNL A   1      32.405  21.976  25.607  1.00  0.00     0.107 C 
ATOM      8  C   UNL A   1      31.283  26.860  24.449  1.00  0.00     0.410 C 
ATOM      9  O   UNL A   1      30.067  27.023  24.416  1.00  0.00    -0.224 OA
ATOM     10  N   UNL A   1      31.941  25.942  23.655  1.00  0.00    -0.302 N 
ATOM     11  C   UNL A   1      31.362  24.664  23.198  1.00  0.00     0.160 C 
ATOM     12  C   UNL A   1      33.187  25.260  23.999  1.00  0.00     0.160 C 
ATOM     13  C   UNL A   1      32.226  24.062  24.367  1.00  0.00     0.104 C 
ATOM     14  C   UNL A   1      32.829  22.663  24.299  1.00  0.00     0.055 C 
ATOM     15  O   UNL A   1      31.573  24.151  25.673  1.00  0.00    -0.370 OA
ATOM     16  C   UNL A   1      31.346  22.859  26.229  1.00  0.00     0.174 C 
BRANCH   8  17
ATOM     17  O   UNL A   1      32.136  27.473  25.314  1.00  0.00    -0.444 OA
BRANCH  17  18
ATOM     18  C   UNL A   1      32.663  28.807  25.068  1.00  0.00     0.106 C 
ATOM     19  C   UNL A   1      33.852  28.942  26.035  1.00  0.00     0.056 C 
ATOM     20  C   UNL A   1      31.608  29.867  25.418  1.00  0.00     0.056 C 
ATOM     21  C   UNL A   1      33.177  29.011  23.641  1.00  0.00     0.056 C 
ENDBRANCH  17  18
ENDBRANCH   8  17
ENDBRANCH   4   7
ENDBRANCH   2   3
ENDBRANCH   1   2
BRANCH   1  22
ATOM     22  C   UNL A   1      37.596  20.976  24.718  1.00  0.00     0.023 C 
BRANCH  22  23
ATOM     23  C   UNL A   1      38.713  21.019  25.753  1.00  0.00     0.116 C 
BRANCH  23  24
ATOM     24  N   UNL A   1      39.590  19.854  25.721  1.00  0.00    -0.352 N 
ATOM     25  C   UNL A   1      40.927  19.783  26.039  1.00  0.00     0.251 C 
ATOM     26  H   UNL A   1      39.171  19.009  25.438  1.00  0.00     0.163 HD
ATOM     27  O   UNL A   1      41.567  18.757  25.846  1.00  0.00    -0.269 OA
BRANCH  25  28
ATOM     28  C   UNL A   1      41.587  20.985  26.583  1.00  0.00     0.039 A 
ATOM     29  C   UNL A   1      42.135  21.921  25.704  1.00  0.00     0.014 A 
ATOM     30  C   UNL A   1      41.581  21.220  27.961  1.00  0.00     0.014 A 
ATOM     31  C   UNL A   1      42.603  23.136  26.205  1.00  0.00     0.010 A 
ATOM     32  C   UNL A   1      41.954  22.467  28.442  1.00  0.00     0.010 A 
ATOM     33  C   UNL A   1      42.472  23.437  27.571  1.00  0.00    -0.014 A 
BRANCH  33  34
ATOM     34  C   UNL A   1      42.867  24.758  28.114  1.00  0.00     0.031 A 
ATOM     35  C   UNL A   1      41.822  25.811  28.359  1.00  0.00     0.074 A 
ATOM     36  C   UNL A   1      44.170  25.043  28.300  1.00  0.00     0.049 A 
ATOM     37  N   UNL A   1      41.973  27.047  28.762  1.00  0.00    -0.248 NA
ATOM     38  C   UNL A   1      40.426  25.438  28.078  1.00  0.00     0.031 C 
ATOM     39  C   UNL A   1      45.285  24.130  28.035  1.00  0.00     0.029 A 
ATOM     40  N   UNL A   1      44.778  26.190  28.744  1.00  0.00    -0.354 N 
ATOM     41  C   UNL A   1      40.700  27.602  28.756  1.00  0.00     0.074 A 
ATOM     42  C   UNL A   1      39.799  26.591  28.254  1.00  0.00     0.031 C 
ATOM     43  C   UNL A   1      46.438  24.744  28.345  1.00  0.00     0.029 A 
ATOM     44  C   UNL A   1      46.150  26.103  28.789  1.00  0.00     0.049 A 
ATOM     45  H   UNL A   1      44.281  26.998  29.004  1.00  0.00     0.167 HD
ATOM     46  C   UNL A   1      40.313  28.838  29.151  1.00  0.00     0.031 A 
ATOM     47  C   UNL A   1      47.072  27.019  29.141  1.00  0.00     0.031 A 
ATOM     48  C   UNL A   1      41.211  29.836  29.662  1.00  0.00     0.049 A 
ATOM     49  C   UNL A   1      46.619  28.379  29.590  1.00  0.00     0.074 A 
ATOM     50  C   UNL A   1      40.910  31.088  30.169  1.00  0.00     0.029 A 
ATOM     51  N   UNL A   1      42.590  29.699  29.724  1.00  0.00    -0.354 N 
ATOM     52  N   UNL A   1      45.401  28.858  29.673  1.00  0.00    -0.248 NA
ATOM     53  C   UNL A   1      47.667  29.320  30.011  1.00  0.00     0.031 C 
ATOM     54  C   UNL A   1      42.112  31.733  30.477  1.00  0.00     0.029 A 
ATOM     55  C   UNL A   1      43.157  30.858  30.226  1.00  0.00     0.049 A 
ATOM     56  H   UNL A   1      43.090  28.897  29.451  1.00  0.00     0.167 HD
ATOM     57  C   UNL A   1      45.532  30.146  30.174  1.00  0.00     0.074 A 
ATOM     58  C   UNL A   1      46.948  30.366  30.396  1.00  0.00     0.031 C 
ATOM     59  C   UNL A   1      44.569  31.065  30.430  1.00  0.00     0.031 A 
BRANCH  46  60
ATOM     60  C   UNL A   1      38.851  29.174  29.025  1.00  0.00    -0.014 A 
ATOM     61  C   UNL A   1      38.313  29.674  27.827  1.00  0.00     0.009 A 
ATOM     62  C   UNL A   1      37.996  28.977  30.119  1.00  0.00     0.009 A 
ATOM     63  C   UNL A   1      36.963  30.021  27.746  1.00  0.00     0.001 A 
ATOM     64  C   UNL A   1      36.638  29.290  30.025  1.00  0.00     0.001 A 
ATOM     65  C   UNL A   1      36.126  29.825  28.844  1.00  0.00     0.000 A 
ENDBRANCH  46  60
BRANCH  47  66
ATOM     66  C   UNL A   1      48.515  26.668  29.089  1.00  0.00    -0.014 A 
ATOM     67  C   UNL A   1      49.281  26.954  27.948  1.00  0.00     0.009 A 
ATOM     68  C   UNL A   1      49.142  26.066  30.191  1.00  0.00     0.009 A 
ATOM     69  C   UNL A   1      50.638  26.624  27.905  1.00  0.00     0.001 A 
ATOM     70  C   UNL A   1      50.504  25.764  30.157  1.00  0.00     0.001 A 
ATOM     71  C   UNL A   1      51.250  26.036  29.011  1.00  0.00     0.000 A 
ENDBRANCH  47  66
BRANCH  59  72
ATOM     72  C   UNL A   1      45.009  32.383  31.002  1.00  0.00    -0.014 A 
ATOM     73  C   UNL A   1      45.145  32.571  32.386  1.00  0.00     0.009 A 
ATOM     74  C   UNL A   1      45.335  33.440  30.137  1.00  0.00     0.009 A 
ATOM     75  C   UNL A   1      45.566  33.802  32.892  1.00  0.00     0.001 A 
ATOM     76  C   UNL A   1      45.787  34.658  30.645  1.00  0.00     0.001 A 
ATOM     77  C   UNL A   1      45.893  34.842  32.021  1.00  0.00     0.000 A 
ENDBRANCH  59  72
ENDBRANCH  33  34
ENDBRANCH  25  28
ENDBRANCH  23  24
ENDBRANCH  22  23
ENDBRANCH   1  22
TORSDOF 13
ENDMDL
MODEL 3
REMARK VINA RESULT:     -10.9      3.398      4.910
REMARK SMILES CC(C)(C)OC(=O)N1CC2(C[C@@H](C(=O)NCCCCNC(=O)c3ccc(-c4c5nc(c(-c6ccccc6)c6ccc([nH]6)c(-c6ccccc6)c6nc(c(-c7ccccc7)c7ccc4[nH]7)C=C6)C=C5)cc3)CO2)C1
REMARK SMILES IDX 17 1 16 2 15 3 13 4 14 5 12 7 6 8 7 9 8 10 9 11 73 12 10 13
REMARK SMILES IDX 11 14 72 15 71 16 5 17 2 18 1 19 3 20 4 21 18 22 19 23 20 24
REMARK SMILES IDX 21 25 22 27 23 28 24 29 70 30 25 31 69 32 26 33 27 34 28 35
REMARK SMILES IDX 63 36 29 37 68 38 62 39 64 40 30 41 67 42 61 43 60 44 31 46
REMARK SMILES IDX 53 47 38 48 52 49 39 50 42 51 51 52 65 53 40 54 41 55 50 57
REMARK SMILES IDX 66 58 43 59 32 60 33 61 37 62 34 63 36 64 35 65 54 66 55 67
REMARK SMILES IDX 59 68 56 69 58 70 57 71 44 72 45 73 49 74 46 75 48 76 47 77
REMARK H PARENT 15 6 20 26 64 45 42 56
REMARK Flexibility Score: inf
ROOT
ATOM      1  C   UNL A   1      31.911  30.448  26.691  1.00  0.00     0.023 C 
ENDROOT
BRANCH   1   2
ATOM      2  C   UNL A   1      31.780  29.804  25.322  1.00  0.00     0.116 C 
BRANCH   2   3
ATOM      3  N   UNL A   1      33.019  29.647  24.611  1.00  0.00    -0.356 N 
ATOM      4  C   UNL A   1      33.391  28.697  23.711  1.00  0.00     0.225 C 
ATOM      5  O   UNL A   1      34.484  28.858  23.157  1.00  0.00    -0.275 OA
ATOM      6  H   UNL A   1      33.702  30.330  24.803  1.00  0.00     0.163 HD
BRANCH   4   7
ATOM      7  C   UNL A   1      32.560  27.450  23.390  1.00  0.00     0.107 C 
ATOM      8  C   UNL A   1      34.063  22.743  24.823  1.00  0.00     0.410 C 
ATOM      9  O   UNL A   1      33.896  21.944  23.907  1.00  0.00    -0.224 OA
ATOM     10  N   UNL A   1      33.038  23.495  25.362  1.00  0.00    -0.302 N 
ATOM     11  C   UNL A   1      31.860  23.964  24.608  1.00  0.00     0.160 C 
ATOM     12  C   UNL A   1      33.181  24.815  25.971  1.00  0.00     0.160 C 
ATOM     13  C   UNL A   1      32.649  25.325  24.574  1.00  0.00     0.104 C 
ATOM     14  C   UNL A   1      31.944  26.677  24.569  1.00  0.00     0.055 C 
ATOM     15  O   UNL A   1      33.643  25.389  23.502  1.00  0.00    -0.370 OA
ATOM     16  C   UNL A   1      33.351  26.441  22.587  1.00  0.00     0.174 C 
BRANCH   8  17
ATOM     17  O   UNL A   1      35.264  23.074  25.372  1.00  0.00    -0.444 OA
BRANCH  17  18
ATOM     18  C   UNL A   1      36.524  22.609  24.815  1.00  0.00     0.106 C 
ATOM     19  C   UNL A   1      37.604  23.394  25.579  1.00  0.00     0.056 C 
ATOM     20  C   UNL A   1      36.609  22.963  23.322  1.00  0.00     0.056 C 
ATOM     21  C   UNL A   1      36.775  21.114  25.027  1.00  0.00     0.056 C 
ENDBRANCH  17  18
ENDBRANCH   8  17
ENDBRANCH   4   7
ENDBRANCH   2   3
ENDBRANCH   1   2
BRANCH   1  22
ATOM     22  C   UNL A   1      31.676  31.951  26.705  1.00  0.00     0.023 C 
BRANCH  22  23
ATOM     23  C   UNL A   1      32.814  32.760  27.315  1.00  0.00     0.116 C 
BRANCH  23  24
ATOM     24  N   UNL A   1      32.449  34.132  27.650  1.00  0.00    -0.352 N 
ATOM     25  C   UNL A   1      33.012  34.958  28.596  1.00  0.00     0.251 C 
ATOM     26  H   UNL A   1      31.705  34.516  27.132  1.00  0.00     0.163 HD
ATOM     27  O   UNL A   1      32.517  36.049  28.854  1.00  0.00    -0.269 OA
BRANCH  25  28
ATOM     28  C   UNL A   1      34.205  34.486  29.324  1.00  0.00     0.039 A 
ATOM     29  C   UNL A   1      34.046  33.852  30.557  1.00  0.00     0.014 A 
ATOM     30  C   UNL A   1      35.468  34.599  28.737  1.00  0.00     0.014 A 
ATOM     31  C   UNL A   1      35.151  33.253  31.163  1.00  0.00     0.010 A 
ATOM     32  C   UNL A   1      36.542  33.917  29.293  1.00  0.00     0.010 A 
ATOM     33  C   UNL A   1      36.396  33.240  30.513  1.00  0.00    -0.014 A 
BRANCH  33  34
ATOM     34  C   UNL A   1      37.561  32.524  31.085  1.00  0.00     0.031 A 
ATOM     35  C   UNL A   1      38.196  33.017  32.355  1.00  0.00     0.074 A 
ATOM     36  C   UNL A   1      38.104  31.488  30.415  1.00  0.00     0.049 A 
ATOM     37  N   UNL A   1      39.260  32.572  32.974  1.00  0.00    -0.248 NA
ATOM     38  C   UNL A   1      37.575  34.189  32.995  1.00  0.00     0.031 C 
ATOM     39  C   UNL A   1      37.623  30.957  29.138  1.00  0.00     0.029 A 
ATOM     40  N   UNL A   1      39.191  30.706  30.712  1.00  0.00    -0.354 N 
ATOM     41  C   UNL A   1      39.449  33.424  34.055  1.00  0.00     0.074 A 
ATOM     42  C   UNL A   1      38.428  34.444  33.975  1.00  0.00     0.031 C 
ATOM     43  C   UNL A   1      38.395  29.921  28.774  1.00  0.00     0.029 A 
ATOM     44  C   UNL A   1      39.449  29.741  29.767  1.00  0.00     0.049 A 
ATOM     45  H   UNL A   1      39.735  30.824  31.523  1.00  0.00     0.167 HD
ATOM     46  C   UNL A   1      40.377  33.352  35.038  1.00  0.00     0.031 A 
ATOM     47  C   UNL A   1      40.429  28.821  29.703  1.00  0.00     0.031 A 
ATOM     48  C   UNL A   1      41.382  32.328  35.121  1.00  0.00     0.049 A 
ATOM     49  C   UNL A   1      41.440  28.749  30.812  1.00  0.00     0.074 A 
ATOM     50  C   UNL A   1      42.316  32.116  36.120  1.00  0.00     0.029 A 
ATOM     51  N   UNL A   1      41.590  31.348  34.161  1.00  0.00    -0.354 N 
ATOM     52  N   UNL A   1      41.547  29.502  31.881  1.00  0.00    -0.248 NA
ATOM     53  C   UNL A   1      42.456  27.692  30.714  1.00  0.00     0.031 C 
ATOM     54  C   UNL A   1      43.130  31.047  35.733  1.00  0.00     0.029 A 
ATOM     55  C   UNL A   1      42.661  30.551  34.527  1.00  0.00     0.049 A 
ATOM     56  H   UNL A   1      41.056  31.238  33.342  1.00  0.00     0.167 HD
ATOM     57  C   UNL A   1      42.627  28.996  32.594  1.00  0.00     0.074 A 
ATOM     58  C   UNL A   1      43.128  27.861  31.845  1.00  0.00     0.031 C 
ATOM     59  C   UNL A   1      43.155  29.431  33.764  1.00  0.00     0.031 A 
BRANCH  46  60
ATOM     60  C   UNL A   1      40.350  34.429  36.090  1.00  0.00    -0.014 A 
ATOM     61  C   UNL A   1      41.135  35.588  35.975  1.00  0.00     0.009 A 
ATOM     62  C   UNL A   1      39.517  34.285  37.209  1.00  0.00     0.009 A 
ATOM     63  C   UNL A   1      41.127  36.552  36.985  1.00  0.00     0.001 A 
ATOM     64  C   UNL A   1      39.483  35.267  38.200  1.00  0.00     0.001 A 
ATOM     65  C   UNL A   1      40.299  36.392  38.095  1.00  0.00     0.000 A 
ENDBRANCH  46  60
BRANCH  47  66
ATOM     66  C   UNL A   1      40.490  27.888  28.548  1.00  0.00    -0.014 A 
ATOM     67  C   UNL A   1      39.828  26.651  28.591  1.00  0.00     0.009 A 
ATOM     68  C   UNL A   1      41.192  28.239  27.384  1.00  0.00     0.009 A 
ATOM     69  C   UNL A   1      39.886  25.778  27.502  1.00  0.00     0.001 A 
ATOM     70  C   UNL A   1      41.225  27.378  26.286  1.00  0.00     0.001 A 
ATOM     71  C   UNL A   1      40.578  26.144  26.349  1.00  0.00     0.000 A 
ENDBRANCH  47  66
BRANCH  59  72
ATOM     72  C   UNL A   1      44.321  28.664  34.321  1.00  0.00    -0.014 A 
ATOM     73  C   UNL A   1      45.643  29.028  34.028  1.00  0.00     0.009 A 
ATOM     74  C   UNL A   1      44.090  27.585  35.190  1.00  0.00     0.009 A 
ATOM     75  C   UNL A   1      46.710  28.306  34.567  1.00  0.00     0.001 A 
ATOM     76  C   UNL A   1      45.158  26.886  35.753  1.00  0.00     0.001 A 
ATOM     77  C   UNL A   1      46.467  27.240  35.433  1.00  0.00     0.000 A 
ENDBRANCH  59  72
ENDBRANCH  33  34
ENDBRANCH  25  28
ENDBRANCH  23  24
ENDBRANCH  22  23
ENDBRANCH   1  22
TORSDOF 13
ENDMDL
