MODEL 1
REMARK VINA RESULT:     -11.2      0.000      0.000
REMARK SMILES O=C(CN1C(=O)/C(=C2/Sc3ccccc3N2CCCS(=O)(=O)[O-])SC1=S)NCCCCNC(=O)c1ccc(-c2c3nc(c(-c4ccccc4)c4ccc([nH]4)c(-c4ccccc4)c4nc(c(-c5ccccc5)c5ccc2[nH]5)C=C4)C=C3)cc1
REMARK SMILES IDX 28 1 27 2 1 3 2 4 3 6 4 7 5 8 25 9 6 10 7 11 24 12 26 13
REMARK SMILES IDX 8 14 9 15 16 16 10 17 15 18 11 19 14 20 12 21 13 22 17 23
REMARK SMILES IDX 18 24 19 25 20 26 21 27 22 28 23 29 29 30 30 31 31 32 32 33
REMARK SMILES IDX 33 34 34 36 35 37 36 38 82 39 37 40 81 41 38 42 39 43 40 44
REMARK SMILES IDX 75 45 41 46 80 47 74 48 76 49 42 50 79 51 73 52 72 53 43 55
REMARK SMILES IDX 65 56 50 57 64 58 51 59 54 60 63 61 77 62 52 63 53 64 62 66
REMARK SMILES IDX 78 67 55 68 44 69 45 70 49 71 46 72 48 73 47 74 66 75 67 76
REMARK SMILES IDX 71 77 68 78 70 79 69 80 56 81 57 82 61 83 58 84 60 85 59 86
REMARK H PARENT 27 5 32 35 76 54 54 65
REMARK Flexibility Score: inf
ROOT
ATOM      1  C   UNL A   1      38.566  21.375  25.650  1.00  0.00     0.116 C 
ENDROOT
BRANCH   1   2
ATOM      2  N   UNL A   1      37.641  22.343  26.248  1.00  0.00    -0.355 N 
ATOM      3  O   UNL A   1      36.086  22.216  24.554  1.00  0.00    -0.273 OA
ATOM      4  C   UNL A   1      36.419  22.667  25.650  1.00  0.00     0.240 C 
ATOM      5  H   UNL A   1      37.887  22.777  27.096  1.00  0.00     0.163 HD
BRANCH   4   6
ATOM      6  C   UNL A   1      35.487  23.619  26.452  1.00  0.00     0.227 C 
BRANCH   6   7
ATOM      7  N   UNL A   1      34.087  23.691  25.952  1.00  0.00    -0.283 N 
ATOM      8  C   UNL A   1      33.760  24.602  24.970  1.00  0.00     0.269 C 
ATOM      9  C   UNL A   1      33.140  22.701  26.089  1.00  0.00     0.148 C 
ATOM     10  O   UNL A   1      34.589  25.078  24.200  1.00  0.00    -0.268 OA
ATOM     11  C   UNL A   1      32.282  24.708  24.767  1.00  0.00     0.111 C 
ATOM     12  S   UNL A   1      31.670  23.138  25.203  1.00  0.00    -0.052 SA
ATOM     13  S   UNL A   1      33.285  21.230  26.862  1.00  0.00    -0.052 S 
ATOM     14  C   UNL A   1      31.541  25.800  24.433  1.00  0.00     0.100 C 
ATOM     15  S   UNL A   1      29.769  25.571  24.046  1.00  0.00    -0.068 SA
ATOM     16  N   UNL A   1      31.893  27.166  24.336  1.00  0.00    -0.334 N 
ATOM     17  C   UNL A   1      29.596  27.330  23.785  1.00  0.00     0.037 A 
ATOM     18  C   UNL A   1      30.780  28.013  24.087  1.00  0.00     0.056 A 
ATOM     19  C   UNL A   1      28.478  28.006  23.314  1.00  0.00     0.017 A 
ATOM     20  C   UNL A   1      30.786  29.409  24.078  1.00  0.00     0.027 A 
ATOM     21  C   UNL A   1      28.519  29.403  23.231  1.00  0.00     0.001 A 
ATOM     22  C   UNL A   1      29.654  30.103  23.648  1.00  0.00     0.002 A 
BRANCH  16  23
ATOM     23  C   UNL A   1      33.165  27.734  23.927  1.00  0.00     0.124 C 
BRANCH  23  24
ATOM     24  C   UNL A   1      33.235  27.966  22.426  1.00  0.00     0.037 C 
BRANCH  24  25
ATOM     25  C   UNL A   1      33.829  26.812  21.667  1.00  0.00     0.124 C 
BRANCH  25  26
ATOM     26  S   UNL A   1      32.687  25.655  20.909  1.00  0.00     0.095 S 
ATOM     27  O   UNL A   1      32.995  24.331  21.391  1.00  0.00    -0.243 OA
ATOM     28  O   UNL A   1      31.346  26.204  20.973  1.00  0.00    -0.243 OA
ATOM     29  O   UNL A   1      33.060  25.677  19.348  1.00  0.00    -0.748 OA
ENDBRANCH  25  26
ENDBRANCH  24  25
ENDBRANCH  23  24
ENDBRANCH  16  23
ENDBRANCH   6   7
ENDBRANCH   4   6
ENDBRANCH   1   2
BRANCH   1  30
ATOM     30  C   UNL A   1      39.960  21.205  26.296  1.00  0.00     0.023 C 
BRANCH  30  31
ATOM     31  C   UNL A   1      40.501  22.309  27.224  1.00  0.00     0.023 C 
BRANCH  31  32
ATOM     32  C   UNL A   1      41.725  23.078  26.724  1.00  0.00     0.116 C 
BRANCH  32  33
ATOM     33  N   UNL A   1      41.509  24.156  25.776  1.00  0.00    -0.352 N 
ATOM     34  C   UNL A   1      41.548  25.527  25.947  1.00  0.00     0.251 C 
ATOM     35  H   UNL A   1      41.301  23.862  24.859  1.00  0.00     0.163 HD
ATOM     36  O   UNL A   1      41.578  26.247  24.950  1.00  0.00    -0.269 OA
BRANCH  34  37
ATOM     37  C   UNL A   1      41.419  26.170  27.283  1.00  0.00     0.039 A 
ATOM     38  C   UNL A   1      40.359  25.949  28.162  1.00  0.00     0.014 A 
ATOM     39  C   UNL A   1      42.439  27.054  27.664  1.00  0.00     0.014 A 
ATOM     40  C   UNL A   1      40.207  26.760  29.295  1.00  0.00     0.010 A 
ATOM     41  C   UNL A   1      42.325  27.812  28.835  1.00  0.00     0.010 A 
ATOM     42  C   UNL A   1      41.166  27.734  29.620  1.00  0.00    -0.014 A 
BRANCH  42  43
ATOM     43  C   UNL A   1      40.935  28.708  30.726  1.00  0.00     0.031 A 
ATOM     44  C   UNL A   1      39.820  29.725  30.623  1.00  0.00     0.074 A 
ATOM     45  C   UNL A   1      41.700  28.687  31.835  1.00  0.00     0.049 A 
ATOM     46  N   UNL A   1      39.470  30.659  31.474  1.00  0.00    -0.248 NA
ATOM     47  C   UNL A   1      38.992  29.690  29.406  1.00  0.00     0.031 C 
ATOM     48  C   UNL A   1      42.798  27.754  32.081  1.00  0.00     0.029 A 
ATOM     49  N   UNL A   1      41.662  29.466  32.968  1.00  0.00    -0.354 N 
ATOM     50  C   UNL A   1      38.401  31.330  30.888  1.00  0.00     0.074 A 
ATOM     51  C   UNL A   1      38.179  30.721  29.595  1.00  0.00     0.031 C 
ATOM     52  C   UNL A   1      43.304  27.989  33.303  1.00  0.00     0.029 A 
ATOM     53  C   UNL A   1      42.608  29.126  33.903  1.00  0.00     0.049 A 
ATOM     54  H   UNL A   1      41.016  30.199  33.096  1.00  0.00     0.167 HD
ATOM     55  C   UNL A   1      37.661  32.350  31.384  1.00  0.00     0.031 A 
ATOM     56  C   UNL A   1      42.900  29.666  35.105  1.00  0.00     0.031 A 
ATOM     57  C   UNL A   1      37.864  32.950  32.677  1.00  0.00     0.049 A 
ATOM     58  C   UNL A   1      42.100  30.834  35.613  1.00  0.00     0.074 A 
ATOM     59  C   UNL A   1      37.128  33.959  33.276  1.00  0.00     0.029 A 
ATOM     60  N   UNL A   1      38.869  32.605  33.565  1.00  0.00    -0.354 N 
ATOM     61  N   UNL A   1      41.073  31.432  35.060  1.00  0.00    -0.248 NA
ATOM     62  C   UNL A   1      42.494  31.399  36.913  1.00  0.00     0.031 C 
ATOM     63  C   UNL A   1      37.734  34.277  34.492  1.00  0.00     0.029 A 
ATOM     64  C   UNL A   1      38.794  33.409  34.692  1.00  0.00     0.049 A 
ATOM     65  H   UNL A   1      39.536  31.896  33.419  1.00  0.00     0.167 HD
ATOM     66  C   UNL A   1      40.686  32.428  35.948  1.00  0.00     0.074 A 
ATOM     67  C   UNL A   1      41.576  32.343  37.087  1.00  0.00     0.031 C 
ATOM     68  C   UNL A   1      39.681  33.328  35.825  1.00  0.00     0.031 A 
BRANCH  55  69
ATOM     69  C   UNL A   1      36.549  32.907  30.534  1.00  0.00    -0.014 A 
ATOM     70  C   UNL A   1      35.274  32.317  30.583  1.00  0.00     0.009 A 
ATOM     71  C   UNL A   1      36.785  33.929  29.601  1.00  0.00     0.009 A 
ATOM     72  C   UNL A   1      34.267  32.725  29.706  1.00  0.00     0.001 A 
ATOM     73  C   UNL A   1      35.765  34.356  28.747  1.00  0.00     0.001 A 
ATOM     74  C   UNL A   1      34.512  33.745  28.791  1.00  0.00     0.000 A 
ENDBRANCH  55  69
BRANCH  56  75
ATOM     75  C   UNL A   1      44.003  29.080  35.913  1.00  0.00    -0.014 A 
ATOM     76  C   UNL A   1      43.745  28.052  36.837  1.00  0.00     0.009 A 
ATOM     77  C   UNL A   1      45.306  29.588  35.815  1.00  0.00     0.009 A 
ATOM     78  C   UNL A   1      44.758  27.575  37.671  1.00  0.00     0.001 A 
ATOM     79  C   UNL A   1      46.326  29.084  36.627  1.00  0.00     0.001 A 
ATOM     80  C   UNL A   1      46.048  28.089  37.564  1.00  0.00     0.000 A 
ENDBRANCH  56  75
BRANCH  68  81
ATOM     81  C   UNL A   1      39.454  34.306  36.946  1.00  0.00    -0.014 A 
ATOM     82  C   UNL A   1      40.055  35.576  36.895  1.00  0.00     0.009 A 
ATOM     83  C   UNL A   1      38.757  33.934  38.107  1.00  0.00     0.009 A 
ATOM     84  C   UNL A   1      39.985  36.442  37.988  1.00  0.00     0.001 A 
ATOM     85  C   UNL A   1      38.661  34.816  39.186  1.00  0.00     0.001 A 
ATOM     86  C   UNL A   1      39.285  36.061  39.131  1.00  0.00     0.000 A 
ENDBRANCH  68  81
ENDBRANCH  42  43
ENDBRANCH  34  37
ENDBRANCH  32  33
ENDBRANCH  31  32
ENDBRANCH  30  31
ENDBRANCH   1  30
TORSDOF 16
ENDMDL
MODEL 2
REMARK VINA RESULT:     -11.0      4.276      7.399
REMARK SMILES O=C(CN1C(=O)/C(=C2/Sc3ccccc3N2CCCS(=O)(=O)[O-])SC1=S)NCCCCNC(=O)c1ccc(-c2c3nc(c(-c4ccccc4)c4ccc([nH]4)c(-c4ccccc4)c4nc(c(-c5ccccc5)c5ccc2[nH]5)C=C4)C=C3)cc1
REMARK SMILES IDX 28 1 27 2 1 3 2 4 3 6 4 7 5 8 25 9 6 10 7 11 24 12 26 13
REMARK SMILES IDX 8 14 9 15 16 16 10 17 15 18 11 19 14 20 12 21 13 22 17 23
REMARK SMILES IDX 18 24 19 25 20 26 21 27 22 28 23 29 29 30 30 31 31 32 32 33
REMARK SMILES IDX 33 34 34 36 35 37 36 38 82 39 37 40 81 41 38 42 39 43 40 44
REMARK SMILES IDX 75 45 41 46 80 47 74 48 76 49 42 50 79 51 73 52 72 53 43 55
REMARK SMILES IDX 65 56 50 57 64 58 51 59 54 60 63 61 77 62 52 63 53 64 62 66
REMARK SMILES IDX 78 67 55 68 44 69 45 70 49 71 46 72 48 73 47 74 66 75 67 76
REMARK SMILES IDX 71 77 68 78 70 79 69 80 56 81 57 82 61 83 58 84 60 85 59 86
REMARK H PARENT 27 5 32 35 76 54 54 65
REMARK Flexibility Score: inf
ROOT
ATOM      1  C   UNL A   1      38.312  24.069  26.317  1.00  0.00     0.116 C 
ENDROOT
BRANCH   1   2
ATOM      2  N   UNL A   1      37.560  23.729  25.105  1.00  0.00    -0.355 N 
ATOM      3  O   UNL A   1      35.504  23.695  26.140  1.00  0.00    -0.273 OA
ATOM      4  C   UNL A   1      36.168  23.603  25.108  1.00  0.00     0.240 C 
ATOM      5  H   UNL A   1      38.051  23.586  24.264  1.00  0.00     0.163 HD
BRANCH   4   6
ATOM      6  C   UNL A   1      35.492  23.353  23.729  1.00  0.00     0.227 C 
BRANCH   6   7
ATOM      7  N   UNL A   1      34.012  23.508  23.722  1.00  0.00    -0.283 N 
ATOM      8  C   UNL A   1      33.435  24.504  22.963  1.00  0.00     0.269 C 
ATOM      9  C   UNL A   1      33.107  22.540  24.097  1.00  0.00     0.148 C 
ATOM     10  O   UNL A   1      33.994  25.014  21.996  1.00  0.00    -0.268 OA
ATOM     11  C   UNL A   1      31.979  24.671  23.263  1.00  0.00     0.111 C 
ATOM     12  S   UNL A   1      31.456  23.091  23.772  1.00  0.00    -0.052 SA
ATOM     13  S   UNL A   1      33.414  21.008  24.682  1.00  0.00    -0.052 S 
ATOM     14  C   UNL A   1      31.231  25.808  23.263  1.00  0.00     0.100 C 
ATOM     15  S   UNL A   1      29.420  25.666  23.464  1.00  0.00    -0.068 SA
ATOM     16  N   UNL A   1      31.607  27.167  23.145  1.00  0.00    -0.334 N 
ATOM     17  C   UNL A   1      29.269  27.444  23.390  1.00  0.00     0.037 A 
ATOM     18  C   UNL A   1      30.523  28.064  23.331  1.00  0.00     0.056 A 
ATOM     19  C   UNL A   1      28.098  28.191  23.357  1.00  0.00     0.017 A 
ATOM     20  C   UNL A   1      30.602  29.457  23.412  1.00  0.00     0.027 A 
ATOM     21  C   UNL A   1      28.187  29.588  23.356  1.00  0.00     0.001 A 
ATOM     22  C   UNL A   1      29.433  30.217  23.423  1.00  0.00     0.002 A 
BRANCH  16  23
ATOM     23  C   UNL A   1      32.707  27.726  22.380  1.00  0.00     0.124 C 
BRANCH  23  24
ATOM     24  C   UNL A   1      33.934  27.984  23.241  1.00  0.00     0.037 C 
BRANCH  24  25
ATOM     25  C   UNL A   1      33.637  28.767  24.490  1.00  0.00     0.124 C 
BRANCH  25  26
ATOM     26  S   UNL A   1      33.569  27.855  26.033  1.00  0.00     0.095 S 
ATOM     27  O   UNL A   1      33.883  26.474  25.759  1.00  0.00    -0.243 OA
ATOM     28  O   UNL A   1      34.259  28.612  27.060  1.00  0.00    -0.243 OA
ATOM     29  O   UNL A   1      32.024  27.900  26.466  1.00  0.00    -0.748 OA
ENDBRANCH  25  26
ENDBRANCH  24  25
ENDBRANCH  23  24
ENDBRANCH  16  23
ENDBRANCH   6   7
ENDBRANCH   4   6
ENDBRANCH   1   2
BRANCH   1  30
ATOM     30  C   UNL A   1      39.357  23.055  26.836  1.00  0.00     0.023 C 
BRANCH  30  31
ATOM     31  C   UNL A   1      39.412  21.646  26.214  1.00  0.00     0.023 C 
BRANCH  31  32
ATOM     32  C   UNL A   1      40.496  20.709  26.750  1.00  0.00     0.116 C 
BRANCH  32  33
ATOM     33  N   UNL A   1      41.552  20.302  25.841  1.00  0.00    -0.352 N 
ATOM     34  C   UNL A   1      42.850  20.758  25.706  1.00  0.00     0.251 C 
ATOM     35  H   UNL A   1      41.303  19.582  25.217  1.00  0.00     0.163 HD
ATOM     36  O   UNL A   1      43.643  20.097  25.036  1.00  0.00    -0.269 OA
BRANCH  34  37
ATOM     37  C   UNL A   1      43.290  22.082  26.225  1.00  0.00     0.039 A 
ATOM     38  C   UNL A   1      43.705  22.312  27.536  1.00  0.00     0.014 A 
ATOM     39  C   UNL A   1      43.279  23.154  25.322  1.00  0.00     0.014 A 
ATOM     40  C   UNL A   1      43.888  23.625  27.993  1.00  0.00     0.010 A 
ATOM     41  C   UNL A   1      43.535  24.459  25.761  1.00  0.00     0.010 A 
ATOM     42  C   UNL A   1      43.760  24.718  27.120  1.00  0.00    -0.014 A 
BRANCH  42  43
ATOM     43  C   UNL A   1      43.791  26.121  27.627  1.00  0.00     0.031 A 
ATOM     44  C   UNL A   1      45.104  26.865  27.722  1.00  0.00     0.074 A 
ATOM     45  C   UNL A   1      42.655  26.749  27.988  1.00  0.00     0.049 A 
ATOM     46  N   UNL A   1      45.336  28.084  28.145  1.00  0.00    -0.248 NA
ATOM     47  C   UNL A   1      46.314  26.148  27.288  1.00  0.00     0.031 C 
ATOM     48  C   UNL A   1      41.317  26.165  27.934  1.00  0.00     0.029 A 
ATOM     49  N   UNL A   1      42.445  28.023  28.462  1.00  0.00    -0.354 N 
ATOM     50  C   UNL A   1      46.711  28.269  28.047  1.00  0.00     0.074 A 
ATOM     51  C   UNL A   1      47.269  27.029  27.557  1.00  0.00     0.031 C 
ATOM     52  C   UNL A   1      40.422  27.088  28.320  1.00  0.00     0.029 A 
ATOM     53  C   UNL A   1      41.124  28.310  28.706  1.00  0.00     0.049 A 
ATOM     54  H   UNL A   1      43.173  28.670  28.611  1.00  0.00     0.167 HD
ATOM     55  C   UNL A   1      47.444  29.374  28.326  1.00  0.00     0.031 A 
ATOM     56  C   UNL A   1      40.536  29.420  29.197  1.00  0.00     0.031 A 
ATOM     57  C   UNL A   1      46.895  30.618  28.797  1.00  0.00     0.049 A 
ATOM     58  C   UNL A   1      41.375  30.617  29.551  1.00  0.00     0.074 A 
ATOM     59  C   UNL A   1      47.563  31.802  29.060  1.00  0.00     0.029 A 
ATOM     60  N   UNL A   1      45.558  30.841  29.080  1.00  0.00    -0.354 N 
ATOM     61  N   UNL A   1      42.668  30.784  29.419  1.00  0.00    -0.248 NA
ATOM     62  C   UNL A   1      40.675  31.782  30.115  1.00  0.00     0.031 C 
ATOM     63  C   UNL A   1      46.644  32.717  29.574  1.00  0.00     0.029 A 
ATOM     64  C   UNL A   1      45.388  32.134  29.551  1.00  0.00     0.049 A 
ATOM     65  H   UNL A   1      44.836  30.182  28.964  1.00  0.00     0.167 HD
ATOM     66  C   UNL A   1      42.935  32.073  29.865  1.00  0.00     0.074 A 
ATOM     67  C   UNL A   1      41.667  32.654  30.253  1.00  0.00     0.031 C 
ATOM     68  C   UNL A   1      44.127  32.713  29.940  1.00  0.00     0.031 A 
BRANCH  55  69
ATOM     69  C   UNL A   1      48.938  29.308  28.137  1.00  0.00    -0.014 A 
ATOM     70  C   UNL A   1      49.490  29.576  26.873  1.00  0.00     0.009 A 
ATOM     71  C   UNL A   1      49.785  28.868  29.165  1.00  0.00     0.009 A 
ATOM     72  C   UNL A   1      50.854  29.388  26.637  1.00  0.00     0.001 A 
ATOM     73  C   UNL A   1      51.154  28.711  28.935  1.00  0.00     0.001 A 
ATOM     74  C   UNL A   1      51.685  28.959  27.669  1.00  0.00     0.000 A 
ENDBRANCH  55  69
BRANCH  56  75
ATOM     75  C   UNL A   1      39.057  29.442  29.362  1.00  0.00    -0.014 A 
ATOM     76  C   UNL A   1      38.230  29.933  28.336  1.00  0.00     0.009 A 
ATOM     77  C   UNL A   1      38.468  29.036  30.567  1.00  0.00     0.009 A 
ATOM     78  C   UNL A   1      36.852  30.053  28.530  1.00  0.00     0.001 A 
ATOM     79  C   UNL A   1      37.085  29.125  30.746  1.00  0.00     0.001 A 
ATOM     80  C   UNL A   1      36.280  29.647  29.734  1.00  0.00     0.000 A 
ENDBRANCH  56  75
BRANCH  68  81
ATOM     81  C   UNL A   1      44.149  34.128  30.451  1.00  0.00    -0.014 A 
ATOM     82  C   UNL A   1      44.039  35.197  29.544  1.00  0.00     0.009 A 
ATOM     83  C   UNL A   1      44.403  34.411  31.802  1.00  0.00     0.009 A 
ATOM     84  C   UNL A   1      44.208  36.515  29.973  1.00  0.00     0.001 A 
ATOM     85  C   UNL A   1      44.540  35.732  32.234  1.00  0.00     0.001 A 
ATOM     86  C   UNL A   1      44.456  36.781  31.319  1.00  0.00     0.000 A 
ENDBRANCH  68  81
ENDBRANCH  42  43
ENDBRANCH  34  37
ENDBRANCH  32  33
ENDBRANCH  31  32
ENDBRANCH  30  31
ENDBRANCH   1  30
TORSDOF 16
ENDMDL
MODEL 3
REMARK VINA RESULT:     -11.0      1.725      6.055
REMARK SMILES O=C(CN1C(=O)/C(=C2/Sc3ccccc3N2CCCS(=O)(=O)[O-])SC1=S)NCCCCNC(=O)c1ccc(-c2c3nc(c(-c4ccccc4)c4ccc([nH]4)c(-c4ccccc4)c4nc(c(-c5ccccc5)c5ccc2[nH]5)C=C4)C=C3)cc1
REMARK SMILES IDX 28 1 27 2 1 3 2 4 3 6 4 7 5 8 25 9 6 10 7 11 24 12 26 13
REMARK SMILES IDX 8 14 9 15 16 16 10 17 15 18 11 19 14 20 12 21 13 22 17 23
REMARK SMILES IDX 18 24 19 25 20 26 21 27 22 28 23 29 29 30 30 31 31 32 32 33
REMARK SMILES IDX 33 34 34 36 35 37 36 38 82 39 37 40 81 41 38 42 39 43 40 44
REMARK SMILES IDX 75 45 41 46 80 47 74 48 76 49 42 50 79 51 73 52 72 53 43 55
REMARK SMILES IDX 65 56 50 57 64 58 51 59 54 60 63 61 77 62 52 63 53 64 62 66
REMARK SMILES IDX 78 67 55 68 44 69 45 70 49 71 46 72 48 73 47 74 66 75 67 76
REMARK SMILES IDX 71 77 68 78 70 79 69 80 56 81 57 82 61 83 58 84 60 85 59 86
REMARK H PARENT 27 5 32 35 76 54 54 65
REMARK Flexibility Score: inf
ROOT
ATOM      1  C   UNL A   1      38.396  24.068  26.186  1.00  0.00     0.116 C 
ENDROOT
BRANCH   1   2
ATOM      2  N   UNL A   1      37.602  23.707  25.007  1.00  0.00    -0.355 N 
ATOM      3  O   UNL A   1      35.563  24.071  26.012  1.00  0.00    -0.273 OA
ATOM      4  C   UNL A   1      36.206  23.776  25.005  1.00  0.00     0.240 C 
ATOM      5  H   UNL A   1      38.067  23.407  24.193  1.00  0.00     0.163 HD
BRANCH   4   6
ATOM      6  C   UNL A   1      35.500  23.476  23.652  1.00  0.00     0.227 C 
BRANCH   6   7
ATOM      7  N   UNL A   1      34.018  23.619  23.675  1.00  0.00    -0.283 N 
ATOM      8  C   UNL A   1      33.416  24.595  22.910  1.00  0.00     0.269 C 
ATOM      9  C   UNL A   1      33.131  22.651  24.089  1.00  0.00     0.148 C 
ATOM     10  O   UNL A   1      33.949  25.091  21.922  1.00  0.00    -0.268 OA
ATOM     11  C   UNL A   1      31.966  24.756  23.240  1.00  0.00     0.111 C 
ATOM     12  S   UNL A   1      31.468  23.182  23.791  1.00  0.00    -0.052 SA
ATOM     13  S   UNL A   1      33.464  21.133  24.696  1.00  0.00    -0.052 S 
ATOM     14  C   UNL A   1      31.209  25.887  23.235  1.00  0.00     0.100 C 
ATOM     15  S   UNL A   1      29.404  25.734  23.480  1.00  0.00    -0.068 SA
ATOM     16  N   UNL A   1      31.571  27.246  23.083  1.00  0.00    -0.334 N 
ATOM     17  C   UNL A   1      29.236  27.509  23.375  1.00  0.00     0.037 A 
ATOM     18  C   UNL A   1      30.483  28.138  23.276  1.00  0.00     0.056 A 
ATOM     19  C   UNL A   1      28.058  28.245  23.354  1.00  0.00     0.017 A 
ATOM     20  C   UNL A   1      30.552  29.532  23.328  1.00  0.00     0.027 A 
ATOM     21  C   UNL A   1      28.135  29.643  23.325  1.00  0.00     0.001 A 
ATOM     22  C   UNL A   1      29.377  30.283  23.351  1.00  0.00     0.002 A 
BRANCH  16  23
ATOM     23  C   UNL A   1      32.648  27.799  22.282  1.00  0.00     0.124 C 
BRANCH  23  24
ATOM     24  C   UNL A   1      33.691  28.508  23.133  1.00  0.00     0.037 C 
BRANCH  24  25
ATOM     25  C   UNL A   1      33.990  27.804  24.427  1.00  0.00     0.124 C 
BRANCH  25  26
ATOM     26  S   UNL A   1      33.520  28.640  25.944  1.00  0.00     0.095 S 
ATOM     27  O   UNL A   1      34.521  28.362  26.944  1.00  0.00    -0.243 OA
ATOM     28  O   UNL A   1      33.104  29.993  25.626  1.00  0.00    -0.243 OA
ATOM     29  O   UNL A   1      32.177  27.902  26.417  1.00  0.00    -0.748 OA
ENDBRANCH  25  26
ENDBRANCH  24  25
ENDBRANCH  23  24
ENDBRANCH  16  23
ENDBRANCH   6   7
ENDBRANCH   4   6
ENDBRANCH   1   2
BRANCH   1  30
ATOM     30  C   UNL A   1      39.230  22.961  26.870  1.00  0.00     0.023 C 
BRANCH  30  31
ATOM     31  C   UNL A   1      40.018  21.963  25.998  1.00  0.00     0.023 C 
BRANCH  31  32
ATOM     32  C   UNL A   1      41.543  22.016  26.115  1.00  0.00     0.116 C 
BRANCH  32  33
ATOM     33  N   UNL A   1      42.262  22.903  25.219  1.00  0.00    -0.352 N 
ATOM     34  C   UNL A   1      43.000  24.042  25.480  1.00  0.00     0.251 C 
ATOM     35  H   UNL A   1      42.217  22.651  24.268  1.00  0.00     0.163 HD
ATOM     36  O   UNL A   1      43.726  24.492  24.595  1.00  0.00    -0.269 OA
BRANCH  34  37
ATOM     37  C   UNL A   1      42.849  24.822  26.739  1.00  0.00     0.039 A 
ATOM     38  C   UNL A   1      42.208  24.348  27.884  1.00  0.00     0.014 A 
ATOM     39  C   UNL A   1      43.391  26.115  26.755  1.00  0.00     0.014 A 
ATOM     40  C   UNL A   1      41.919  25.224  28.939  1.00  0.00     0.010 A 
ATOM     41  C   UNL A   1      43.167  26.968  27.842  1.00  0.00     0.010 A 
ATOM     42  C   UNL A   1      42.356  26.559  28.909  1.00  0.00    -0.014 A 
BRANCH  42  43
ATOM     43  C   UNL A   1      41.918  27.540  29.944  1.00  0.00     0.031 A 
ATOM     44  C   UNL A   1      42.665  27.647  31.255  1.00  0.00     0.074 A 
ATOM     45  C   UNL A   1      40.866  28.353  29.722  1.00  0.00     0.049 A 
ATOM     46  N   UNL A   1      42.431  28.430  32.280  1.00  0.00    -0.248 NA
ATOM     47  C   UNL A   1      43.825  26.759  31.439  1.00  0.00     0.031 C 
ATOM     48  C   UNL A   1      40.063  28.375  28.502  1.00  0.00     0.029 A 
ATOM     49  N   UNL A   1      40.302  29.327  30.513  1.00  0.00    -0.354 N 
ATOM     50  C   UNL A   1      43.395  28.115  33.231  1.00  0.00     0.074 A 
ATOM     51  C   UNL A   1      44.199  27.048  32.679  1.00  0.00     0.031 C 
ATOM     52  C   UNL A   1      39.134  29.338  28.608  1.00  0.00     0.029 A 
ATOM     53  C   UNL A   1      39.236  29.964  29.925  1.00  0.00     0.049 A 
ATOM     54  H   UNL A   1      40.630  29.547  31.415  1.00  0.00     0.167 HD
ATOM     55  C   UNL A   1      43.605  28.672  34.448  1.00  0.00     0.031 A 
ATOM     56  C   UNL A   1      38.419  30.933  30.388  1.00  0.00     0.031 A 
ATOM     57  C   UNL A   1      42.821  29.746  34.998  1.00  0.00     0.049 A 
ATOM     58  C   UNL A   1      38.636  31.499  31.764  1.00  0.00     0.074 A 
ATOM     59  C   UNL A   1      42.995  30.400  36.207  1.00  0.00     0.029 A 
ATOM     60  N   UNL A   1      41.719  30.322  34.387  1.00  0.00    -0.354 N 
ATOM     61  N   UNL A   1      39.574  31.212  32.634  1.00  0.00    -0.248 NA
ATOM     62  C   UNL A   1      37.688  32.527  32.222  1.00  0.00     0.031 C 
ATOM     63  C   UNL A   1      41.955  31.317  36.361  1.00  0.00     0.029 A 
ATOM     64  C   UNL A   1      41.182  31.297  35.212  1.00  0.00     0.049 A 
ATOM     65  H   UNL A   1      41.370  30.075  33.500  1.00  0.00     0.167 HD
ATOM     66  C   UNL A   1      39.342  32.034  33.732  1.00  0.00     0.074 A 
ATOM     67  C   UNL A   1      38.186  32.845  33.411  1.00  0.00     0.031 C 
ATOM     68  C   UNL A   1      40.030  32.105  34.896  1.00  0.00     0.031 A 
BRANCH  55  69
ATOM     69  C   UNL A   1      44.729  28.136  35.296  1.00  0.00    -0.014 A 
ATOM     70  C   UNL A   1      44.471  27.118  36.230  1.00  0.00     0.009 A 
ATOM     71  C   UNL A   1      46.008  28.713  35.262  1.00  0.00     0.009 A 
ATOM     72  C   UNL A   1      45.462  26.702  37.122  1.00  0.00     0.001 A 
ATOM     73  C   UNL A   1      47.006  28.273  36.135  1.00  0.00     0.001 A 
ATOM     74  C   UNL A   1      46.729  27.277  37.072  1.00  0.00     0.000 A 
ENDBRANCH  55  69
BRANCH  56  75
ATOM     75  C   UNL A   1      37.325  31.436  29.514  1.00  0.00    -0.014 A 
ATOM     76  C   UNL A   1      37.467  32.648  28.816  1.00  0.00     0.009 A 
ATOM     77  C   UNL A   1      36.110  30.743  29.424  1.00  0.00     0.009 A 
ATOM     78  C   UNL A   1      36.402  33.173  28.081  1.00  0.00     0.001 A 
ATOM     79  C   UNL A   1      35.057  31.254  28.659  1.00  0.00     0.001 A 
ATOM     80  C   UNL A   1      35.199  32.475  28.000  1.00  0.00     0.000 A 
ENDBRANCH  56  75
BRANCH  68  81
ATOM     81  C   UNL A   1      39.582  33.098  35.934  1.00  0.00    -0.014 A 
ATOM     82  C   UNL A   1      40.178  34.370  35.983  1.00  0.00     0.009 A 
ATOM     83  C   UNL A   1      38.668  32.740  36.937  1.00  0.00     0.009 A 
ATOM     84  C   UNL A   1      39.890  35.252  37.026  1.00  0.00     0.001 A 
ATOM     85  C   UNL A   1      38.357  33.637  37.962  1.00  0.00     0.001 A 
ATOM     86  C   UNL A   1      38.976  34.885  38.013  1.00  0.00     0.000 A 
ENDBRANCH  68  81
ENDBRANCH  42  43
ENDBRANCH  34  37
ENDBRANCH  32  33
ENDBRANCH  31  32
ENDBRANCH  30  31
ENDBRANCH   1  30
TORSDOF 16
ENDMDL
