MODEL 1
REMARK VINA RESULT:     -11.1      0.000      0.000
REMARK SMILES C[C@@H]1CCC[C@@H](C)C1[N@H+]1CCO[C@H](CC(=O)NCCCCNC(=O)c2ccc(-c3c4nc(c(-c5ccccc5)c5ccc([nH]5)c(-c5ccccc5)c5nc(c(-c6ccccc6)c6ccc3[nH]6)C=C5)C=C4)cc2)C1
REMARK SMILES IDX 19 1 18 2 17 3 15 4 16 5 14 7 13 8 9 9 10 10 73 11 11 13
REMARK SMILES IDX 12 14 8 15 1 16 2 17 3 18 4 19 6 20 5 21 7 22 20 23 21 24
REMARK SMILES IDX 22 25 23 26 24 28 25 29 26 30 72 31 27 32 71 33 28 34 29 35
REMARK SMILES IDX 30 36 65 37 31 38 70 39 64 40 66 41 32 42 69 43 63 44 62 45
REMARK SMILES IDX 33 47 55 48 40 49 54 50 41 51 44 52 53 53 67 54 42 55 43 56
REMARK SMILES IDX 52 58 68 59 45 60 34 61 35 62 39 63 36 64 38 65 37 66 56 67
REMARK SMILES IDX 57 68 61 69 58 70 60 71 59 72 46 73 47 74 51 75 48 76 50 77
REMARK SMILES IDX 49 78
REMARK H PARENT 17 6 9 12 22 27 66 46 44 57
REMARK Flexibility Score: inf
ROOT
ATOM      1  C   UNL A   1      36.579  20.953  24.668  1.00  0.00     0.023 C 
ENDROOT
BRANCH   1   2
ATOM      2  C   UNL A   1      35.540  21.237  25.757  1.00  0.00     0.116 C 
BRANCH   2   3
ATOM      3  N   UNL A   1      34.209  20.790  25.383  1.00  0.00    -0.356 N 
ATOM      4  C   UNL A   1      32.981  21.302  25.672  1.00  0.00     0.222 C 
ATOM      5  O   UNL A   1      31.995  20.703  25.243  1.00  0.00    -0.275 OA
ATOM      6  H   UNL A   1      34.194  19.980  24.825  1.00  0.00     0.163 HD
BRANCH   4   7
ATOM      7  C   UNL A   1      32.839  22.587  26.452  1.00  0.00     0.138 C 
BRANCH   7   8
ATOM      8  C   UNL A   1      32.895  23.895  25.662  1.00  0.00     0.182 C 
ATOM      9  N   UNL A   1      31.702  25.764  24.481  1.00  0.00    -0.328 N 
ATOM     10  C   UNL A   1      32.784  25.734  23.499  1.00  0.00     0.291 C 
ATOM     11  C   UNL A   1      31.569  24.421  25.080  1.00  0.00     0.295 C 
ATOM     12  H   UNL A   1      30.893  26.016  23.913  1.00  0.00     0.348 HD
ATOM     13  C   UNL A   1      34.068  24.986  23.918  1.00  0.00     0.222 C 
ATOM     14  O   UNL A   1      33.817  23.728  24.563  1.00  0.00    -0.366 OA
BRANCH   9  15
ATOM     15  C   UNL A   1      31.407  26.932  25.343  1.00  0.00     0.189 C 
ATOM     16  C   UNL A   1      31.657  28.024  27.676  1.00  0.00     0.014 C 
ATOM     17  C   UNL A   1      32.357  27.230  26.546  1.00  0.00     0.045 C 
ATOM     18  C   UNL A   1      33.626  27.967  26.106  1.00  0.00     0.009 C 
ATOM     19  C   UNL A   1      33.332  29.261  25.359  1.00  0.00     0.001 C 
ATOM     20  C   UNL A   1      31.115  28.271  24.584  1.00  0.00     0.045 C 
ATOM     21  C   UNL A   1      32.365  29.072  24.193  1.00  0.00     0.009 C 
ATOM     22  C   UNL A   1      30.152  28.100  23.409  1.00  0.00     0.014 C 
ENDBRANCH   9  15
ENDBRANCH   7   8
ENDBRANCH   4   7
ENDBRANCH   2   3
ENDBRANCH   1   2
BRANCH   1  23
ATOM     23  C   UNL A   1      37.603  19.871  24.983  1.00  0.00     0.023 C 
BRANCH  23  24
ATOM     24  C   UNL A   1      38.842  20.409  25.668  1.00  0.00     0.116 C 
BRANCH  24  25
ATOM     25  N   UNL A   1      39.897  19.403  25.770  1.00  0.00    -0.352 N 
ATOM     26  C   UNL A   1      41.219  19.564  26.097  1.00  0.00     0.251 C 
ATOM     27  H   UNL A   1      39.618  18.479  25.575  1.00  0.00     0.163 HD
ATOM     28  O   UNL A   1      42.009  18.644  25.971  1.00  0.00    -0.269 OA
BRANCH  26  29
ATOM     29  C   UNL A   1      41.674  20.882  26.583  1.00  0.00     0.039 A 
ATOM     30  C   UNL A   1      42.189  21.806  25.671  1.00  0.00     0.014 A 
ATOM     31  C   UNL A   1      41.541  21.213  27.933  1.00  0.00     0.014 A 
ATOM     32  C   UNL A   1      42.505  23.093  26.106  1.00  0.00     0.010 A 
ATOM     33  C   UNL A   1      41.759  22.518  28.341  1.00  0.00     0.010 A 
ATOM     34  C   UNL A   1      42.256  23.468  27.435  1.00  0.00    -0.014 A 
BRANCH  34  35
ATOM     35  C   UNL A   1      42.537  24.834  27.935  1.00  0.00     0.031 A 
ATOM     36  C   UNL A   1      43.930  25.178  28.384  1.00  0.00     0.074 A 
ATOM     37  C   UNL A   1      41.534  25.719  28.083  1.00  0.00     0.049 A 
ATOM     38  N   UNL A   1      44.360  26.248  29.000  1.00  0.00    -0.248 NA
ATOM     39  C   UNL A   1      44.971  24.163  28.144  1.00  0.00     0.031 C 
ATOM     40  C   UNL A   1      40.134  25.492  27.720  1.00  0.00     0.029 A 
ATOM     41  N   UNL A   1      41.542  26.990  28.598  1.00  0.00    -0.354 N 
ATOM     42  C   UNL A   1      45.705  26.017  29.256  1.00  0.00     0.074 A 
ATOM     43  C   UNL A   1      46.010  24.689  28.773  1.00  0.00     0.031 C 
ATOM     44  C   UNL A   1      39.422  26.596  28.004  1.00  0.00     0.029 A 
ATOM     45  C   UNL A   1      40.305  27.587  28.608  1.00  0.00     0.049 A 
ATOM     46  H   UNL A   1      42.357  27.433  28.929  1.00  0.00     0.167 HD
ATOM     47  C   UNL A   1      46.613  26.843  29.826  1.00  0.00     0.031 A 
ATOM     48  C   UNL A   1      39.926  28.795  29.066  1.00  0.00     0.031 A 
ATOM     49  C   UNL A   1      46.316  28.176  30.273  1.00  0.00     0.049 A 
ATOM     50  C   UNL A   1      40.955  29.702  29.681  1.00  0.00     0.074 A 
ATOM     51  C   UNL A   1      47.176  29.118  30.805  1.00  0.00     0.029 A 
ATOM     52  N   UNL A   1      45.058  28.756  30.229  1.00  0.00    -0.354 N 
ATOM     53  N   UNL A   1      42.234  29.490  29.871  1.00  0.00    -0.248 NA
ATOM     54  C   UNL A   1      40.488  31.018  30.135  1.00  0.00     0.031 C 
ATOM     55  C   UNL A   1      46.431  30.260  31.117  1.00  0.00     0.029 A 
ATOM     56  C   UNL A   1      45.117  30.043  30.734  1.00  0.00     0.049 A 
ATOM     57  H   UNL A   1      44.244  28.319  29.888  1.00  0.00     0.167 HD
ATOM     58  C   UNL A   1      42.731  30.656  30.438  1.00  0.00     0.074 A 
ATOM     59  C   UNL A   1      41.617  31.575  30.551  1.00  0.00     0.031 C 
ATOM     60  C   UNL A   1      43.997  30.942  30.827  1.00  0.00     0.031 A 
BRANCH  47  61
ATOM     61  C   UNL A   1      48.010  26.318  29.995  1.00  0.00    -0.014 A 
ATOM     62  C   UNL A   1      48.429  25.739  31.205  1.00  0.00     0.009 A 
ATOM     63  C   UNL A   1      48.917  26.390  28.927  1.00  0.00     0.009 A 
ATOM     64  C   UNL A   1      49.739  25.283  31.354  1.00  0.00     0.001 A 
ATOM     65  C   UNL A   1      50.218  25.906  29.070  1.00  0.00     0.001 A 
ATOM     66  C   UNL A   1      50.631  25.364  30.287  1.00  0.00     0.000 A 
ENDBRANCH  47  61
BRANCH  48  67
ATOM     67  C   UNL A   1      38.510  29.227  28.943  1.00  0.00    -0.014 A 
ATOM     68  C   UNL A   1      38.027  29.721  27.721  1.00  0.00     0.009 A 
ATOM     69  C   UNL A   1      37.638  29.155  30.039  1.00  0.00     0.009 A 
ATOM     70  C   UNL A   1      36.705  30.158  27.607  1.00  0.00     0.001 A 
ATOM     71  C   UNL A   1      36.310  29.568  29.915  1.00  0.00     0.001 A 
ATOM     72  C   UNL A   1      35.848  30.078  28.703  1.00  0.00     0.000 A 
ENDBRANCH  48  67
BRANCH  60  73
ATOM     73  C   UNL A   1      44.255  32.320  31.365  1.00  0.00    -0.014 A 
ATOM     74  C   UNL A   1      44.591  33.384  30.513  1.00  0.00     0.009 A 
ATOM     75  C   UNL A   1      44.109  32.565  32.739  1.00  0.00     0.009 A 
ATOM     76  C   UNL A   1      44.800  34.662  31.034  1.00  0.00     0.001 A 
ATOM     77  C   UNL A   1      44.293  33.847  33.252  1.00  0.00     0.001 A 
ATOM     78  C   UNL A   1      44.646  34.894  32.401  1.00  0.00     0.000 A 
ENDBRANCH  60  73
ENDBRANCH  34  35
ENDBRANCH  26  29
ENDBRANCH  24  25
ENDBRANCH  23  24
ENDBRANCH   1  23
TORSDOF 13
ENDMDL
MODEL 2
REMARK VINA RESULT:     -11.0      2.088      7.605
REMARK SMILES C[C@@H]1CCC[C@@H](C)C1[N@H+]1CCO[C@H](CC(=O)NCCCCNC(=O)c2ccc(-c3c4nc(c(-c5ccccc5)c5ccc([nH]5)c(-c5ccccc5)c5nc(c(-c6ccccc6)c6ccc3[nH]6)C=C5)C=C4)cc2)C1
REMARK SMILES IDX 19 1 18 2 17 3 15 4 16 5 14 7 13 8 9 9 10 10 73 11 11 13
REMARK SMILES IDX 12 14 8 15 1 16 2 17 3 18 4 19 6 20 5 21 7 22 20 23 21 24
REMARK SMILES IDX 22 25 23 26 24 28 25 29 26 30 72 31 27 32 71 33 28 34 29 35
REMARK SMILES IDX 30 36 65 37 31 38 70 39 64 40 66 41 32 42 69 43 63 44 62 45
REMARK SMILES IDX 33 47 55 48 40 49 54 50 41 51 44 52 53 53 67 54 42 55 43 56
REMARK SMILES IDX 52 58 68 59 45 60 34 61 35 62 39 63 36 64 38 65 37 66 56 67
REMARK SMILES IDX 57 68 61 69 58 70 60 71 59 72 46 73 47 74 51 75 48 76 50 77
REMARK SMILES IDX 49 78
REMARK H PARENT 17 6 9 12 22 27 66 46 44 57
REMARK Flexibility Score: inf
ROOT
ATOM      1  C   UNL A   1      33.217  27.671  24.857  1.00  0.00     0.023 C 
ENDROOT
BRANCH   1   2
ATOM      2  C   UNL A   1      32.534  28.205  23.594  1.00  0.00     0.116 C 
BRANCH   2   3
ATOM      3  N   UNL A   1      33.016  27.556  22.387  1.00  0.00    -0.356 N 
ATOM      4  C   UNL A   1      32.680  26.365  21.819  1.00  0.00     0.222 C 
ATOM      5  O   UNL A   1      33.270  26.034  20.790  1.00  0.00    -0.275 OA
ATOM      6  H   UNL A   1      33.701  28.064  21.897  1.00  0.00     0.163 HD
BRANCH   4   7
ATOM      7  C   UNL A   1      31.590  25.503  22.407  1.00  0.00     0.138 C 
BRANCH   7   8
ATOM      8  C   UNL A   1      32.018  24.395  23.373  1.00  0.00     0.182 C 
ATOM      9  N   UNL A   1      32.867  22.061  23.749  1.00  0.00    -0.328 N 
ATOM     10  C   UNL A   1      31.976  22.004  24.907  1.00  0.00     0.291 C 
ATOM     11  C   UNL A   1      32.305  23.009  22.766  1.00  0.00     0.295 C 
ATOM     12  H   UNL A   1      32.854  21.099  23.410  1.00  0.00     0.348 HD
ATOM     13  C   UNL A   1      31.430  23.355  25.416  1.00  0.00     0.222 C 
ATOM     14  O   UNL A   1      30.985  24.230  24.368  1.00  0.00    -0.366 OA
BRANCH   9  15
ATOM     15  C   UNL A   1      34.343  21.964  23.842  1.00  0.00     0.189 C 
ATOM     16  C   UNL A   1      36.624  23.096  23.385  1.00  0.00     0.014 C 
ATOM     17  C   UNL A   1      35.176  23.283  23.898  1.00  0.00     0.045 C 
ATOM     18  C   UNL A   1      35.199  23.888  25.306  1.00  0.00     0.009 C 
ATOM     19  C   UNL A   1      35.714  22.918  26.359  1.00  0.00     0.001 C 
ATOM     20  C   UNL A   1      34.883  20.977  24.933  1.00  0.00     0.045 C 
ATOM     21  C   UNL A   1      34.989  21.575  26.343  1.00  0.00     0.009 C 
ATOM     22  C   UNL A   1      34.164  19.628  24.934  1.00  0.00     0.014 C 
ENDBRANCH   9  15
ENDBRANCH   7   8
ENDBRANCH   4   7
ENDBRANCH   2   3
ENDBRANCH   1   2
BRANCH   1  23
ATOM     23  C   UNL A   1      34.036  28.677  25.654  1.00  0.00     0.023 C 
BRANCH  23  24
ATOM     24  C   UNL A   1      33.639  28.740  27.115  1.00  0.00     0.116 C 
BRANCH  24  25
ATOM     25  N   UNL A   1      33.632  30.109  27.626  1.00  0.00    -0.352 N 
ATOM     26  C   UNL A   1      34.606  30.778  28.323  1.00  0.00     0.251 C 
ATOM     27  H   UNL A   1      32.813  30.623  27.444  1.00  0.00     0.163 HD
ATOM     28  O   UNL A   1      34.377  31.864  28.827  1.00  0.00    -0.269 OA
BRANCH  26  29
ATOM     29  C   UNL A   1      35.933  30.146  28.472  1.00  0.00     0.039 A 
ATOM     30  C   UNL A   1      36.858  30.245  27.431  1.00  0.00     0.014 A 
ATOM     31  C   UNL A   1      36.269  29.502  29.665  1.00  0.00     0.014 A 
ATOM     32  C   UNL A   1      38.151  29.756  27.617  1.00  0.00     0.010 A 
ATOM     33  C   UNL A   1      37.579  29.110  29.884  1.00  0.00     0.010 A 
ATOM     34  C   UNL A   1      38.530  29.221  28.857  1.00  0.00    -0.014 A 
BRANCH  34  35
ATOM     35  C   UNL A   1      39.902  28.725  29.117  1.00  0.00     0.031 A 
ATOM     36  C   UNL A   1      40.919  29.660  29.710  1.00  0.00     0.074 A 
ATOM     37  C   UNL A   1      40.257  27.487  28.729  1.00  0.00     0.049 A 
ATOM     38  N   UNL A   1      42.206  29.490  29.868  1.00  0.00    -0.248 NA
ATOM     39  C   UNL A   1      40.429  30.981  30.144  1.00  0.00     0.031 C 
ATOM     40  C   UNL A   1      39.373  26.499  28.108  1.00  0.00     0.029 A 
ATOM     41  N   UNL A   1      41.473  26.854  28.787  1.00  0.00    -0.354 N 
ATOM     42  C   UNL A   1      42.681  30.690  30.380  1.00  0.00     0.074 A 
ATOM     43  C   UNL A   1      41.557  31.596  30.460  1.00  0.00     0.031 C 
ATOM     44  C   UNL A   1      40.071  25.377  27.863  1.00  0.00     0.029 A 
ATOM     45  C   UNL A   1      41.457  25.584  28.266  1.00  0.00     0.049 A 
ATOM     46  H   UNL A   1      42.281  27.272  29.166  1.00  0.00     0.167 HD
ATOM     47  C   UNL A   1      43.939  31.007  30.766  1.00  0.00     0.031 A 
ATOM     48  C   UNL A   1      42.455  24.690  28.121  1.00  0.00     0.031 A 
ATOM     49  C   UNL A   1      45.047  30.094  30.719  1.00  0.00     0.049 A 
ATOM     50  C   UNL A   1      43.840  25.059  28.572  1.00  0.00     0.074 A 
ATOM     51  C   UNL A   1      46.347  30.293  31.146  1.00  0.00     0.029 A 
ATOM     52  N   UNL A   1      44.979  28.802  30.220  1.00  0.00    -0.354 N 
ATOM     53  N   UNL A   1      44.265  26.181  29.100  1.00  0.00    -0.248 NA
ATOM     54  C   UNL A   1      44.880  24.034  28.415  1.00  0.00     0.031 C 
ATOM     55  C   UNL A   1      47.077  29.132  30.873  1.00  0.00     0.029 A 
ATOM     56  C   UNL A   1      46.218  28.195  30.321  1.00  0.00     0.049 A 
ATOM     57  H   UNL A   1      44.169  28.380  29.852  1.00  0.00     0.167 HD
ATOM     58  C   UNL A   1      45.614  25.986  29.367  1.00  0.00     0.074 A 
ATOM     59  C   UNL A   1      45.932  24.635  28.952  1.00  0.00     0.031 C 
ATOM     60  C   UNL A   1      46.509  26.846  29.911  1.00  0.00     0.031 A 
BRANCH  47  61
ATOM     61  C   UNL A   1      44.172  32.402  31.271  1.00  0.00    -0.014 A 
ATOM     62  C   UNL A   1      44.046  32.714  32.636  1.00  0.00     0.009 A 
ATOM     63  C   UNL A   1      44.537  33.417  30.374  1.00  0.00     0.009 A 
ATOM     64  C   UNL A   1      44.238  34.021  33.083  1.00  0.00     0.001 A 
ATOM     65  C   UNL A   1      44.759  34.718  30.829  1.00  0.00     0.001 A 
ATOM     66  C   UNL A   1      44.597  35.021  32.181  1.00  0.00     0.000 A 
ENDBRANCH  47  61
BRANCH  48  67
ATOM     67  C   UNL A   1      42.176  23.352  27.540  1.00  0.00    -0.014 A 
ATOM     68  C   UNL A   1      42.462  23.095  26.190  1.00  0.00     0.009 A 
ATOM     69  C   UNL A   1      41.621  22.329  28.323  1.00  0.00     0.009 A 
ATOM     70  C   UNL A   1      42.174  21.849  25.630  1.00  0.00     0.001 A 
ATOM     71  C   UNL A   1      41.357  21.076  27.766  1.00  0.00     0.001 A 
ATOM     72  C   UNL A   1      41.625  20.840  26.418  1.00  0.00     0.000 A 
ENDBRANCH  48  67
BRANCH  60  73
ATOM     73  C   UNL A   1      47.903  26.338  30.133  1.00  0.00    -0.014 A 
ATOM     74  C   UNL A   1      48.301  25.822  31.377  1.00  0.00     0.009 A 
ATOM     75  C   UNL A   1      48.814  26.327  29.066  1.00  0.00     0.009 A 
ATOM     76  C   UNL A   1      49.596  25.331  31.551  1.00  0.00     0.001 A 
ATOM     77  C   UNL A   1      50.098  25.811  29.236  1.00  0.00     0.001 A 
ATOM     78  C   UNL A   1      50.491  25.321  30.481  1.00  0.00     0.000 A 
ENDBRANCH  60  73
ENDBRANCH  34  35
ENDBRANCH  26  29
ENDBRANCH  24  25
ENDBRANCH  23  24
ENDBRANCH   1  23
TORSDOF 13
ENDMDL
MODEL 3
REMARK VINA RESULT:     -11.0      1.218      6.207
REMARK SMILES C[C@@H]1CCC[C@@H](C)C1[N@H+]1CCO[C@H](CC(=O)NCCCCNC(=O)c2ccc(-c3c4nc(c(-c5ccccc5)c5ccc([nH]5)c(-c5ccccc5)c5nc(c(-c6ccccc6)c6ccc3[nH]6)C=C5)C=C4)cc2)C1
REMARK SMILES IDX 19 1 18 2 17 3 15 4 16 5 14 7 13 8 9 9 10 10 73 11 11 13
REMARK SMILES IDX 12 14 8 15 1 16 2 17 3 18 4 19 6 20 5 21 7 22 20 23 21 24
REMARK SMILES IDX 22 25 23 26 24 28 25 29 26 30 72 31 27 32 71 33 28 34 29 35
REMARK SMILES IDX 30 36 65 37 31 38 70 39 64 40 66 41 32 42 69 43 63 44 62 45
REMARK SMILES IDX 33 47 55 48 40 49 54 50 41 51 44 52 53 53 67 54 42 55 43 56
REMARK SMILES IDX 52 58 68 59 45 60 34 61 35 62 39 63 36 64 38 65 37 66 56 67
REMARK SMILES IDX 57 68 61 69 58 70 60 71 59 72 46 73 47 74 51 75 48 76 50 77
REMARK SMILES IDX 49 78
REMARK H PARENT 17 6 9 12 22 27 66 46 44 57
REMARK Flexibility Score: inf
ROOT
ATOM      1  C   UNL A   1      37.060  21.703  24.407  1.00  0.00     0.023 C 
ENDROOT
BRANCH   1   2
ATOM      2  C   UNL A   1      36.638  22.717  25.475  1.00  0.00     0.116 C 
BRANCH   2   3
ATOM      3  N   UNL A   1      35.779  22.130  26.487  1.00  0.00    -0.356 N 
ATOM      4  C   UNL A   1      34.435  21.916  26.503  1.00  0.00     0.222 C 
ATOM      5  O   UNL A   1      33.946  21.416  27.517  1.00  0.00    -0.275 OA
ATOM      6  H   UNL A   1      36.250  21.837  27.300  1.00  0.00     0.163 HD
BRANCH   4   7
ATOM      7  C   UNL A   1      33.581  22.241  25.301  1.00  0.00     0.138 C 
BRANCH   7   8
ATOM      8  C   UNL A   1      32.820  23.567  25.321  1.00  0.00     0.182 C 
ATOM      9  N   UNL A   1      32.742  26.010  25.904  1.00  0.00    -0.328 N 
ATOM     10  C   UNL A   1      31.342  25.802  26.267  1.00  0.00     0.291 C 
ATOM     11  C   UNL A   1      33.471  24.738  26.082  1.00  0.00     0.295 C 
ATOM     12  H   UNL A   1      33.041  26.723  26.569  1.00  0.00     0.348 HD
ATOM     13  C   UNL A   1      30.688  24.501  25.753  1.00  0.00     0.222 C 
ATOM     14  O   UNL A   1      31.518  23.340  25.903  1.00  0.00    -0.366 OA
BRANCH   9  15
ATOM     15  C   UNL A   1      33.184  26.906  24.810  1.00  0.00     0.189 C 
ATOM     16  C   UNL A   1      33.408  27.263  22.257  1.00  0.00     0.014 C 
ATOM     17  C   UNL A   1      32.504  26.765  23.411  1.00  0.00     0.045 C 
ATOM     18  C   UNL A   1      31.152  27.484  23.356  1.00  0.00     0.009 C 
ATOM     19  C   UNL A   1      31.247  28.957  23.728  1.00  0.00     0.001 C 
ATOM     20  C   UNL A   1      33.272  28.425  25.180  1.00  0.00     0.045 C 
ATOM     21  C   UNL A   1      31.948  29.192  25.064  1.00  0.00     0.009 C 
ATOM     22  C   UNL A   1      33.968  28.680  26.518  1.00  0.00     0.014 C 
ENDBRANCH   9  15
ENDBRANCH   7   8
ENDBRANCH   4   7
ENDBRANCH   2   3
ENDBRANCH   1   2
BRANCH   1  23
ATOM     23  C   UNL A   1      37.779  20.459  24.909  1.00  0.00     0.023 C 
BRANCH  23  24
ATOM     24  C   UNL A   1      38.994  20.778  25.757  1.00  0.00     0.116 C 
BRANCH  24  25
ATOM     25  N   UNL A   1      39.953  19.676  25.781  1.00  0.00    -0.352 N 
ATOM     26  C   UNL A   1      41.298  19.705  26.048  1.00  0.00     0.251 C 
ATOM     27  H   UNL A   1      39.581  18.788  25.576  1.00  0.00     0.163 HD
ATOM     28  O   UNL A   1      41.993  18.721  25.860  1.00  0.00    -0.269 OA
BRANCH  26  29
ATOM     29  C   UNL A   1      41.896  20.960  26.546  1.00  0.00     0.039 A 
ATOM     30  C   UNL A   1      42.316  21.928  25.630  1.00  0.00     0.014 A 
ATOM     31  C   UNL A   1      41.991  21.192  27.920  1.00  0.00     0.014 A 
ATOM     32  C   UNL A   1      42.767  23.161  26.098  1.00  0.00     0.010 A 
ATOM     33  C   UNL A   1      42.342  22.451  28.377  1.00  0.00     0.010 A 
ATOM     34  C   UNL A   1      42.746  23.444  27.472  1.00  0.00    -0.014 A 
BRANCH  34  35
ATOM     35  C   UNL A   1      43.178  24.754  28.015  1.00  0.00     0.031 A 
ATOM     36  C   UNL A   1      42.140  25.798  28.322  1.00  0.00     0.074 A 
ATOM     37  C   UNL A   1      44.488  25.038  28.130  1.00  0.00     0.049 A 
ATOM     38  N   UNL A   1      42.302  27.053  28.647  1.00  0.00    -0.248 NA
ATOM     39  C   UNL A   1      40.731  25.381  28.208  1.00  0.00     0.031 C 
ATOM     40  C   UNL A   1      45.591  24.125  27.827  1.00  0.00     0.029 A 
ATOM     41  N   UNL A   1      45.112  26.196  28.521  1.00  0.00    -0.354 N 
ATOM     42  C   UNL A   1      41.021  27.584  28.735  1.00  0.00     0.074 A 
ATOM     43  C   UNL A   1      40.097  26.530  28.384  1.00  0.00     0.031 C 
ATOM     44  C   UNL A   1      46.756  24.750  28.065  1.00  0.00     0.029 A 
ATOM     45  C   UNL A   1      46.483  26.117  28.491  1.00  0.00     0.049 A 
ATOM     46  H   UNL A   1      44.624  27.006  28.796  1.00  0.00     0.167 HD
ATOM     47  C   UNL A   1      40.645  28.833  29.095  1.00  0.00     0.031 A 
ATOM     48  C   UNL A   1      47.414  27.051  28.766  1.00  0.00     0.031 A 
ATOM     49  C   UNL A   1      41.564  29.869  29.478  1.00  0.00     0.049 A 
ATOM     50  C   UNL A   1      46.972  28.427  29.178  1.00  0.00     0.074 A 
ATOM     51  C   UNL A   1      41.284  31.148  29.921  1.00  0.00     0.029 A 
ATOM     52  N   UNL A   1      42.944  29.736  29.472  1.00  0.00    -0.354 N 
ATOM     53  N   UNL A   1      45.757  28.901  29.305  1.00  0.00    -0.248 NA
ATOM     54  C   UNL A   1      48.032  29.394  29.494  1.00  0.00     0.031 C 
ATOM     55  C   UNL A   1      42.499  31.804  30.150  1.00  0.00     0.029 A 
ATOM     56  C   UNL A   1      43.531  30.915  29.895  1.00  0.00     0.049 A 
ATOM     57  H   UNL A   1      43.433  28.923  29.207  1.00  0.00     0.167 HD
ATOM     58  C   UNL A   1      45.905  30.209  29.746  1.00  0.00     0.074 A 
ATOM     59  C   UNL A   1      47.327  30.451  29.872  1.00  0.00     0.031 C 
ATOM     60  C   UNL A   1      44.949  31.129  30.023  1.00  0.00     0.031 A 
BRANCH  47  61
ATOM     61  C   UNL A   1      39.175  29.138  29.085  1.00  0.00    -0.014 A 
ATOM     62  C   UNL A   1      38.392  28.986  30.242  1.00  0.00     0.009 A 
ATOM     63  C   UNL A   1      38.565  29.597  27.908  1.00  0.00     0.009 A 
ATOM     64  C   UNL A   1      37.021  29.247  30.208  1.00  0.00     0.001 A 
ATOM     65  C   UNL A   1      37.199  29.886  27.885  1.00  0.00     0.001 A 
ATOM     66  C   UNL A   1      36.427  29.699  29.031  1.00  0.00     0.000 A 
ENDBRANCH  47  61
BRANCH  48  67
ATOM     67  C   UNL A   1      48.857  26.711  28.680  1.00  0.00    -0.014 A 
ATOM     68  C   UNL A   1      49.526  26.184  29.795  1.00  0.00     0.009 A 
ATOM     69  C   UNL A   1      49.575  26.914  27.492  1.00  0.00     0.009 A 
ATOM     70  C   UNL A   1      50.890  25.891  29.731  1.00  0.00     0.001 A 
ATOM     71  C   UNL A   1      50.933  26.596  27.422  1.00  0.00     0.001 A 
ATOM     72  C   UNL A   1      51.591  26.094  28.544  1.00  0.00     0.000 A 
ENDBRANCH  48  67
BRANCH  60  73
ATOM     73  C   UNL A   1      45.406  32.462  30.538  1.00  0.00    -0.014 A 
ATOM     74  C   UNL A   1      45.648  33.536  29.668  1.00  0.00     0.009 A 
ATOM     75  C   UNL A   1      45.546  32.658  31.921  1.00  0.00     0.009 A 
ATOM     76  C   UNL A   1      46.048  34.774  30.175  1.00  0.00     0.001 A 
ATOM     77  C   UNL A   1      45.920  33.902  32.425  1.00  0.00     0.001 A 
ATOM     78  C   UNL A   1      46.178  34.958  31.551  1.00  0.00     0.000 A 
ENDBRANCH  60  73
ENDBRANCH  34  35
ENDBRANCH  26  29
ENDBRANCH  24  25
ENDBRANCH  23  24
ENDBRANCH   1  23
TORSDOF 13
ENDMDL
