MODEL 1
REMARK VINA RESULT:     -11.9      0.000      0.000
REMARK SMILES COc1ccc(-c2ncn(CC(=O)NCCCCNC(=O)c3ccc(-c4c5nc(c(-c6ccccc6)c6ccc([nH]6)c(-c6ccccc6)c6nc(c(-c7ccccc7)c7ccc4[nH]7)C=C6)C=C5)cc3)c2-c2ccc(OC)cc2)cc1
REMARK SMILES IDX 16 1 15 2 14 3 12 4 13 5 11 7 10 8 7 9 8 10 70 11 9 12 6 13
REMARK SMILES IDX 3 14 4 15 80 16 5 17 79 18 2 19 1 20 71 21 72 22 78 23 73 24
REMARK SMILES IDX 77 25 74 26 75 27 76 28 17 29 18 30 19 31 20 32 21 34 22 35
REMARK SMILES IDX 23 36 69 37 24 38 68 39 25 40 26 41 27 42 62 43 28 44 67 45
REMARK SMILES IDX 61 46 63 47 29 48 66 49 60 50 59 51 30 53 52 54 37 55 51 56
REMARK SMILES IDX 38 57 41 58 50 59 64 60 39 61 40 62 49 64 65 65 42 66 31 67
REMARK SMILES IDX 32 68 36 69 33 70 35 71 34 72 53 73 54 74 58 75 55 76 57 77
REMARK SMILES IDX 56 78 43 79 44 80 48 81 45 82 47 83 46 84
REMARK H PARENT 14 6 19 33 63 52 41 63
REMARK Flexibility Score: inf
ROOT
ATOM      1  C   UNL A   1      36.371  20.705  25.106  1.00  0.00     0.023 C 
ENDROOT
BRANCH   1   2
ATOM      2  C   UNL A   1      36.308  22.225  25.274  1.00  0.00     0.116 C 
BRANCH   2   3
ATOM      3  N   UNL A   1      35.236  22.674  26.141  1.00  0.00    -0.355 N 
ATOM      4  C   UNL A   1      34.330  23.680  25.967  1.00  0.00     0.239 C 
ATOM      5  O   UNL A   1      33.401  23.746  26.778  1.00  0.00    -0.273 OA
ATOM      6  H   UNL A   1      35.148  22.177  26.986  1.00  0.00     0.163 HD
BRANCH   4   7
ATOM      7  C   UNL A   1      34.397  24.633  24.788  1.00  0.00     0.223 C 
BRANCH   7   8
ATOM      8  N   UNL A   1      33.114  24.935  24.180  1.00  0.00    -0.321 N 
ATOM      9  C   UNL A   1      31.257  25.840  23.489  1.00  0.00     0.096 A 
ATOM     10  N   UNL A   1      31.297  24.579  22.950  1.00  0.00    -0.236 NA
ATOM     11  C   UNL A   1      32.345  26.071  24.324  1.00  0.00     0.076 A 
ATOM     12  C   UNL A   1      32.404  24.047  23.412  1.00  0.00     0.201 A 
BRANCH   9  13
ATOM     13  C   UNL A   1      30.167  26.768  23.272  1.00  0.00     0.003 A 
ATOM     14  C   UNL A   1      28.096  28.642  23.049  1.00  0.00     0.118 A 
ATOM     15  C   UNL A   1      29.354  28.921  22.514  1.00  0.00     0.047 A 
ATOM     16  C   UNL A   1      27.857  27.403  23.646  1.00  0.00     0.047 A 
ATOM     17  C   UNL A   1      30.389  27.992  22.631  1.00  0.00     0.014 A 
ATOM     18  C   UNL A   1      28.890  26.466  23.751  1.00  0.00     0.014 A 
BRANCH  14  19
ATOM     19  O   UNL A   1      27.161  29.629  22.892  1.00  0.00    -0.497 OA
ATOM     20  C   UNL A   1      27.672  30.869  22.415  1.00  0.00     0.278 C 
ENDBRANCH  14  19
ENDBRANCH   9  13
BRANCH  11  21
ATOM     21  C   UNL A   1      32.597  27.172  25.247  1.00  0.00     0.001 A 
ATOM     22  C   UNL A   1      31.909  27.302  26.454  1.00  0.00     0.014 A 
ATOM     23  C   UNL A   1      33.606  28.093  24.942  1.00  0.00     0.014 A 
ATOM     24  C   UNL A   1      32.198  28.361  27.317  1.00  0.00     0.047 A 
ATOM     25  C   UNL A   1      33.913  29.137  25.819  1.00  0.00     0.047 A 
ATOM     26  C   UNL A   1      33.205  29.278  27.010  1.00  0.00     0.118 A 
BRANCH  26  27
ATOM     27  O   UNL A   1      33.397  30.257  27.945  1.00  0.00    -0.497 OA
ATOM     28  C   UNL A   1      33.466  31.593  27.461  1.00  0.00     0.278 C 
ENDBRANCH  26  27
ENDBRANCH  11  21
ENDBRANCH   7   8
ENDBRANCH   4   7
ENDBRANCH   2   3
ENDBRANCH   1   2
BRANCH   1  29
ATOM     29  C   UNL A   1      37.736  20.110  24.738  1.00  0.00     0.023 C 
BRANCH  29  30
ATOM     30  C   UNL A   1      38.859  20.399  25.725  1.00  0.00     0.116 C 
BRANCH  30  31
ATOM     31  N   UNL A   1      39.867  19.344  25.780  1.00  0.00    -0.352 N 
ATOM     32  C   UNL A   1      41.233  19.482  25.958  1.00  0.00     0.251 C 
ATOM     33  H   UNL A   1      39.536  18.422  25.679  1.00  0.00     0.163 HD
ATOM     34  O   UNL A   1      42.009  18.609  25.610  1.00  0.00    -0.269 OA
BRANCH  32  35
ATOM     35  C   UNL A   1      41.739  20.717  26.587  1.00  0.00     0.039 A 
ATOM     36  C   UNL A   1      42.293  21.746  25.822  1.00  0.00     0.014 A 
ATOM     37  C   UNL A   1      41.621  20.839  27.968  1.00  0.00     0.014 A 
ATOM     38  C   UNL A   1      42.639  22.941  26.449  1.00  0.00     0.010 A 
ATOM     39  C   UNL A   1      41.841  22.056  28.565  1.00  0.00     0.010 A 
ATOM     40  C   UNL A   1      42.386  23.102  27.819  1.00  0.00    -0.014 A 
BRANCH  40  41
ATOM     41  C   UNL A   1      42.535  24.409  28.461  1.00  0.00     0.031 A 
ATOM     42  C   UNL A   1      41.465  25.396  28.125  1.00  0.00     0.074 A 
ATOM     43  C   UNL A   1      43.393  24.617  29.485  1.00  0.00     0.049 A 
ATOM     44  N   UNL A   1      41.600  26.575  27.614  1.00  0.00    -0.248 NA
ATOM     45  C   UNL A   1      40.059  24.979  28.290  1.00  0.00     0.031 C 
ATOM     46  C   UNL A   1      44.267  23.628  30.130  1.00  0.00     0.029 A 
ATOM     47  N   UNL A   1      43.551  25.713  30.280  1.00  0.00    -0.354 N 
ATOM     48  C   UNL A   1      40.320  27.126  27.567  1.00  0.00     0.074 A 
ATOM     49  C   UNL A   1      39.404  26.048  27.835  1.00  0.00     0.031 C 
ATOM     50  C   UNL A   1      44.634  24.078  31.350  1.00  0.00     0.029 A 
ATOM     51  C   UNL A   1      44.168  25.444  31.500  1.00  0.00     0.049 A 
ATOM     52  H   UNL A   1      43.255  26.614  30.017  1.00  0.00     0.167 HD
ATOM     53  C   UNL A   1      40.123  28.475  27.571  1.00  0.00     0.031 A 
ATOM     54  C   UNL A   1      44.249  26.258  32.581  1.00  0.00     0.031 A 
ATOM     55  C   UNL A   1      41.328  29.189  27.238  1.00  0.00     0.049 A 
ATOM     56  C   UNL A   1      43.952  27.634  32.128  1.00  0.00     0.074 A 
ATOM     57  C   UNL A   1      42.189  29.205  26.158  1.00  0.00     0.029 A 
ATOM     58  N   UNL A   1      42.014  29.772  28.275  1.00  0.00    -0.354 N 
ATOM     59  N   UNL A   1      44.736  28.322  31.353  1.00  0.00    -0.248 NA
ATOM     60  C   UNL A   1      42.573  28.089  32.188  1.00  0.00     0.031 C 
ATOM     61  C   UNL A   1      43.488  29.342  26.729  1.00  0.00     0.029 A 
ATOM     62  C   UNL A   1      43.340  29.481  28.111  1.00  0.00     0.049 A 
ATOM     63  H   UNL A   1      41.621  30.304  29.006  1.00  0.00     0.167 HD
ATOM     64  C   UNL A   1      43.876  28.979  30.486  1.00  0.00     0.074 A 
ATOM     65  C   UNL A   1      42.562  28.892  31.121  1.00  0.00     0.031 C 
ATOM     66  C   UNL A   1      44.258  29.271  29.208  1.00  0.00     0.031 A 
BRANCH  53  67
ATOM     67  C   UNL A   1      38.984  29.149  28.305  1.00  0.00    -0.014 A 
ATOM     68  C   UNL A   1      38.855  28.936  29.691  1.00  0.00     0.009 A 
ATOM     69  C   UNL A   1      37.876  29.722  27.652  1.00  0.00     0.009 A 
ATOM     70  C   UNL A   1      37.652  29.191  30.360  1.00  0.00     0.001 A 
ATOM     71  C   UNL A   1      36.689  30.020  28.326  1.00  0.00     0.001 A 
ATOM     72  C   UNL A   1      36.565  29.723  29.675  1.00  0.00     0.000 A 
ENDBRANCH  53  67
BRANCH  54  73
ATOM     73  C   UNL A   1      44.326  25.913  34.017  1.00  0.00    -0.014 A 
ATOM     74  C   UNL A   1      43.260  25.255  34.653  1.00  0.00     0.009 A 
ATOM     75  C   UNL A   1      45.554  25.980  34.700  1.00  0.00     0.009 A 
ATOM     76  C   UNL A   1      43.431  24.650  35.905  1.00  0.00     0.001 A 
ATOM     77  C   UNL A   1      45.723  25.379  35.952  1.00  0.00     0.001 A 
ATOM     78  C   UNL A   1      44.667  24.698  36.548  1.00  0.00     0.000 A 
ENDBRANCH  54  73
BRANCH  66  79
ATOM     79  C   UNL A   1      45.717  29.126  28.851  1.00  0.00    -0.014 A 
ATOM     80  C   UNL A   1      46.660  30.160  28.985  1.00  0.00     0.009 A 
ATOM     81  C   UNL A   1      46.178  27.851  28.486  1.00  0.00     0.009 A 
ATOM     82  C   UNL A   1      48.015  29.934  28.716  1.00  0.00     0.001 A 
ATOM     83  C   UNL A   1      47.532  27.618  28.243  1.00  0.00     0.001 A 
ATOM     84  C   UNL A   1      48.450  28.662  28.348  1.00  0.00     0.000 A 
ENDBRANCH  66  79
ENDBRANCH  40  41
ENDBRANCH  32  35
ENDBRANCH  30  31
ENDBRANCH  29  30
ENDBRANCH   1  29
TORSDOF 16
ENDMDL
MODEL 2
REMARK VINA RESULT:     -11.3      1.758      3.183
REMARK SMILES COc1ccc(-c2ncn(CC(=O)NCCCCNC(=O)c3ccc(-c4c5nc(c(-c6ccccc6)c6ccc([nH]6)c(-c6ccccc6)c6nc(c(-c7ccccc7)c7ccc4[nH]7)C=C6)C=C5)cc3)c2-c2ccc(OC)cc2)cc1
REMARK SMILES IDX 16 1 15 2 14 3 12 4 13 5 11 7 10 8 7 9 8 10 70 11 9 12 6 13
REMARK SMILES IDX 3 14 4 15 80 16 5 17 79 18 2 19 1 20 71 21 72 22 78 23 73 24
REMARK SMILES IDX 77 25 74 26 75 27 76 28 17 29 18 30 19 31 20 32 21 34 22 35
REMARK SMILES IDX 23 36 69 37 24 38 68 39 25 40 26 41 27 42 62 43 28 44 67 45
REMARK SMILES IDX 61 46 63 47 29 48 66 49 60 50 59 51 30 53 52 54 37 55 51 56
REMARK SMILES IDX 38 57 41 58 50 59 64 60 39 61 40 62 49 64 65 65 42 66 31 67
REMARK SMILES IDX 32 68 36 69 33 70 35 71 34 72 53 73 54 74 58 75 55 76 57 77
REMARK SMILES IDX 56 78 43 79 44 80 48 81 45 82 47 83 46 84
REMARK H PARENT 14 6 19 33 63 52 41 63
REMARK Flexibility Score: inf
ROOT
ATOM      1  C   UNL A   1      36.350  21.076  25.537  1.00  0.00     0.023 C 
ENDROOT
BRANCH   1   2
ATOM      2  C   UNL A   1      35.034  21.130  24.758  1.00  0.00     0.116 C 
BRANCH   2   3
ATOM      3  N   UNL A   1      34.078  20.114  25.155  1.00  0.00    -0.355 N 
ATOM      4  C   UNL A   1      32.715  20.112  25.070  1.00  0.00     0.239 C 
ATOM      5  O   UNL A   1      32.140  19.047  25.316  1.00  0.00    -0.273 OA
ATOM      6  H   UNL A   1      34.472  19.302  25.548  1.00  0.00     0.163 HD
BRANCH   4   7
ATOM      7  C   UNL A   1      31.932  21.329  24.615  1.00  0.00     0.223 C 
BRANCH   7   8
ATOM      8  N   UNL A   1      32.093  22.500  25.458  1.00  0.00    -0.321 N 
ATOM      9  C   UNL A   1      32.321  24.505  26.278  1.00  0.00     0.096 A 
ATOM     10  N   UNL A   1      32.287  23.650  27.350  1.00  0.00    -0.236 NA
ATOM     11  C   UNL A   1      32.275  23.813  25.073  1.00  0.00     0.076 A 
ATOM     12  C   UNL A   1      32.187  22.452  26.825  1.00  0.00     0.201 A 
BRANCH   9  13
ATOM     13  C   UNL A   1      32.474  25.940  26.403  1.00  0.00     0.003 A 
ATOM     14  C   UNL A   1      32.721  28.730  26.438  1.00  0.00     0.118 A 
ATOM     15  C   UNL A   1      31.526  28.128  26.834  1.00  0.00     0.047 A 
ATOM     16  C   UNL A   1      33.811  27.936  26.079  1.00  0.00     0.047 A 
ATOM     17  C   UNL A   1      31.398  26.739  26.810  1.00  0.00     0.014 A 
ATOM     18  C   UNL A   1      33.688  26.543  26.068  1.00  0.00     0.014 A 
BRANCH  14  19
ATOM     19  O   UNL A   1      32.731  30.098  26.485  1.00  0.00    -0.497 OA
ATOM     20  C   UNL A   1      31.615  30.727  25.864  1.00  0.00     0.278 C 
ENDBRANCH  14  19
ENDBRANCH   9  13
BRANCH  11  21
ATOM     21  C   UNL A   1      32.489  24.291  23.711  1.00  0.00     0.001 A 
ATOM     22  C   UNL A   1      33.449  23.729  22.870  1.00  0.00     0.014 A 
ATOM     23  C   UNL A   1      31.660  25.302  23.211  1.00  0.00     0.014 A 
ATOM     24  C   UNL A   1      33.605  24.205  21.565  1.00  0.00     0.047 A 
ATOM     25  C   UNL A   1      31.799  25.759  21.898  1.00  0.00     0.047 A 
ATOM     26  C   UNL A   1      32.778  25.214  21.070  1.00  0.00     0.118 A 
BRANCH  26  27
ATOM     27  O   UNL A   1      33.025  25.577  19.775  1.00  0.00    -0.497 OA
ATOM     28  C   UNL A   1      31.952  25.411  18.854  1.00  0.00     0.278 C 
ENDBRANCH  26  27
ENDBRANCH  11  21
ENDBRANCH   7   8
ENDBRANCH   4   7
ENDBRANCH   2   3
ENDBRANCH   1   2
BRANCH   1  29
ATOM     29  C   UNL A   1      37.417  20.102  25.019  1.00  0.00     0.023 C 
BRANCH  29  30
ATOM     30  C   UNL A   1      38.859  20.509  25.295  1.00  0.00     0.116 C 
BRANCH  30  31
ATOM     31  N   UNL A   1      39.738  19.377  25.567  1.00  0.00    -0.352 N 
ATOM     32  C   UNL A   1      41.064  19.405  25.960  1.00  0.00     0.251 C 
ATOM     33  H   UNL A   1      39.338  18.483  25.459  1.00  0.00     0.163 HD
ATOM     34  O   UNL A   1      41.798  18.446  25.790  1.00  0.00    -0.269 OA
BRANCH  32  35
ATOM     35  C   UNL A   1      41.582  20.629  26.601  1.00  0.00     0.039 A 
ATOM     36  C   UNL A   1      42.332  21.563  25.882  1.00  0.00     0.014 A 
ATOM     37  C   UNL A   1      41.275  20.841  27.942  1.00  0.00     0.014 A 
ATOM     38  C   UNL A   1      42.688  22.761  26.498  1.00  0.00     0.010 A 
ATOM     39  C   UNL A   1      41.513  22.070  28.508  1.00  0.00     0.010 A 
ATOM     40  C   UNL A   1      42.253  23.022  27.806  1.00  0.00    -0.014 A 
BRANCH  40  41
ATOM     41  C   UNL A   1      42.422  24.348  28.403  1.00  0.00     0.031 A 
ATOM     42  C   UNL A   1      41.337  25.322  28.079  1.00  0.00     0.074 A 
ATOM     43  C   UNL A   1      43.319  24.588  29.385  1.00  0.00     0.049 A 
ATOM     44  N   UNL A   1      41.447  26.486  27.529  1.00  0.00    -0.248 NA
ATOM     45  C   UNL A   1      39.940  24.907  28.312  1.00  0.00     0.031 C 
ATOM     46  C   UNL A   1      44.222  23.621  30.024  1.00  0.00     0.029 A 
ATOM     47  N   UNL A   1      43.505  25.708  30.140  1.00  0.00    -0.354 N 
ATOM     48  C   UNL A   1      40.164  27.033  27.516  1.00  0.00     0.074 A 
ATOM     49  C   UNL A   1      39.263  25.961  27.852  1.00  0.00     0.031 C 
ATOM     50  C   UNL A   1      44.636  24.108  31.214  1.00  0.00     0.029 A 
ATOM     51  C   UNL A   1      44.171  25.477  31.342  1.00  0.00     0.049 A 
ATOM     52  H   UNL A   1      43.197  26.600  29.862  1.00  0.00     0.167 HD
ATOM     53  C   UNL A   1      39.964  28.380  27.488  1.00  0.00     0.031 A 
ATOM     54  C   UNL A   1      44.292  26.323  32.393  1.00  0.00     0.031 A 
ATOM     55  C   UNL A   1      41.152  29.086  27.085  1.00  0.00     0.049 A 
ATOM     56  C   UNL A   1      43.973  27.684  31.912  1.00  0.00     0.074 A 
ATOM     57  C   UNL A   1      41.969  29.072  25.973  1.00  0.00     0.029 A 
ATOM     58  N   UNL A   1      41.876  29.701  28.077  1.00  0.00    -0.354 N 
ATOM     59  N   UNL A   1      44.724  28.351  31.086  1.00  0.00    -0.248 NA
ATOM     60  C   UNL A   1      42.596  28.138  32.014  1.00  0.00     0.031 C 
ATOM     61  C   UNL A   1      43.290  29.228  26.487  1.00  0.00     0.029 A 
ATOM     62  C   UNL A   1      43.196  29.409  27.869  1.00  0.00     0.049 A 
ATOM     63  H   UNL A   1      41.511  30.254  28.807  1.00  0.00     0.167 HD
ATOM     64  C   UNL A   1      43.828  28.979  30.235  1.00  0.00     0.074 A 
ATOM     65  C   UNL A   1      42.540  28.909  30.924  1.00  0.00     0.031 C 
ATOM     66  C   UNL A   1      44.158  29.234  28.934  1.00  0.00     0.031 A 
BRANCH  53  67
ATOM     67  C   UNL A   1      38.852  29.073  28.246  1.00  0.00    -0.014 A 
ATOM     68  C   UNL A   1      38.740  28.851  29.632  1.00  0.00     0.009 A 
ATOM     69  C   UNL A   1      37.748  29.678  27.616  1.00  0.00     0.009 A 
ATOM     70  C   UNL A   1      37.554  29.128  30.322  1.00  0.00     0.001 A 
ATOM     71  C   UNL A   1      36.578  29.997  28.312  1.00  0.00     0.001 A 
ATOM     72  C   UNL A   1      36.469  29.691  29.659  1.00  0.00     0.000 A 
ENDBRANCH  53  67
BRANCH  54  73
ATOM     73  C   UNL A   1      44.427  26.021  33.835  1.00  0.00    -0.014 A 
ATOM     74  C   UNL A   1      45.137  26.887  34.685  1.00  0.00     0.009 A 
ATOM     75  C   UNL A   1      43.628  25.029  34.433  1.00  0.00     0.009 A 
ATOM     76  C   UNL A   1      45.015  26.791  36.077  1.00  0.00     0.001 A 
ATOM     77  C   UNL A   1      43.511  24.931  35.823  1.00  0.00     0.001 A 
ATOM     78  C   UNL A   1      44.190  25.823  36.646  1.00  0.00     0.000 A 
ENDBRANCH  54  73
BRANCH  66  79
ATOM     79  C   UNL A   1      45.602  29.081  28.524  1.00  0.00    -0.014 A 
ATOM     80  C   UNL A   1      46.177  27.860  28.131  1.00  0.00     0.009 A 
ATOM     81  C   UNL A   1      46.376  30.246  28.410  1.00  0.00     0.009 A 
ATOM     82  C   UNL A   1      47.500  27.802  27.681  1.00  0.00     0.001 A 
ATOM     83  C   UNL A   1      47.688  30.193  27.936  1.00  0.00     0.001 A 
ATOM     84  C   UNL A   1      48.254  28.970  27.582  1.00  0.00     0.000 A 
ENDBRANCH  66  79
ENDBRANCH  40  41
ENDBRANCH  32  35
ENDBRANCH  30  31
ENDBRANCH  29  30
ENDBRANCH   1  29
TORSDOF 16
ENDMDL
MODEL 3
REMARK VINA RESULT:     -11.1      2.366      5.439
REMARK SMILES COc1ccc(-c2ncn(CC(=O)NCCCCNC(=O)c3ccc(-c4c5nc(c(-c6ccccc6)c6ccc([nH]6)c(-c6ccccc6)c6nc(c(-c7ccccc7)c7ccc4[nH]7)C=C6)C=C5)cc3)c2-c2ccc(OC)cc2)cc1
REMARK SMILES IDX 16 1 15 2 14 3 12 4 13 5 11 7 10 8 7 9 8 10 70 11 9 12 6 13
REMARK SMILES IDX 3 14 4 15 80 16 5 17 79 18 2 19 1 20 71 21 72 22 78 23 73 24
REMARK SMILES IDX 77 25 74 26 75 27 76 28 17 29 18 30 19 31 20 32 21 34 22 35
REMARK SMILES IDX 23 36 69 37 24 38 68 39 25 40 26 41 27 42 62 43 28 44 67 45
REMARK SMILES IDX 61 46 63 47 29 48 66 49 60 50 59 51 30 53 52 54 37 55 51 56
REMARK SMILES IDX 38 57 41 58 50 59 64 60 39 61 40 62 49 64 65 65 42 66 31 67
REMARK SMILES IDX 32 68 36 69 33 70 35 71 34 72 53 73 54 74 58 75 55 76 57 77
REMARK SMILES IDX 56 78 43 79 44 80 48 81 45 82 47 83 46 84
REMARK H PARENT 14 6 19 33 63 52 41 63
REMARK Flexibility Score: inf
ROOT
ATOM      1  C   UNL A   1      35.516  21.799  25.875  1.00  0.00     0.023 C 
ENDROOT
BRANCH   1   2
ATOM      2  C   UNL A   1      35.167  22.732  27.037  1.00  0.00     0.116 C 
BRANCH   2   3
ATOM      3  N   UNL A   1      33.743  22.854  27.281  1.00  0.00    -0.355 N 
ATOM      4  C   UNL A   1      32.776  23.475  26.542  1.00  0.00     0.239 C 
ATOM      5  O   UNL A   1      31.604  23.283  26.878  1.00  0.00    -0.273 OA
ATOM      6  H   UNL A   1      33.423  22.424  28.106  1.00  0.00     0.163 HD
BRANCH   4   7
ATOM      7  C   UNL A   1      33.105  24.300  25.312  1.00  0.00     0.223 C 
BRANCH   7   8
ATOM      8  N   UNL A   1      31.948  24.810  24.600  1.00  0.00    -0.321 N 
ATOM      9  C   UNL A   1      30.373  26.023  23.709  1.00  0.00     0.096 A 
ATOM     10  N   UNL A   1      30.144  24.732  23.303  1.00  0.00    -0.236 NA
ATOM     11  C   UNL A   1      31.453  26.098  24.581  1.00  0.00     0.076 A 
ATOM     12  C   UNL A   1      31.082  24.023  23.883  1.00  0.00     0.201 A 
BRANCH   9  13
ATOM     13  C   UNL A   1      29.532  27.140  23.333  1.00  0.00     0.003 A 
ATOM     14  C   UNL A   1      27.947  29.388  22.799  1.00  0.00     0.118 A 
ATOM     15  C   UNL A   1      29.268  29.340  22.352  1.00  0.00     0.047 A 
ATOM     16  C   UNL A   1      27.401  28.289  23.463  1.00  0.00     0.047 A 
ATOM     17  C   UNL A   1      30.062  28.225  22.624  1.00  0.00     0.014 A 
ATOM     18  C   UNL A   1      28.191  27.165  23.723  1.00  0.00     0.014 A 
BRANCH  14  19
ATOM     19  O   UNL A   1      27.266  30.534  22.491  1.00  0.00    -0.497 OA
ATOM     20  C   UNL A   1      27.640  31.676  23.255  1.00  0.00     0.278 C 
ENDBRANCH  14  19
ENDBRANCH   9  13
BRANCH  11  21
ATOM     21  C   UNL A   1      31.916  27.212  25.401  1.00  0.00     0.001 A 
ATOM     22  C   UNL A   1      32.889  28.107  24.956  1.00  0.00     0.014 A 
ATOM     23  C   UNL A   1      31.319  27.428  26.649  1.00  0.00     0.014 A 
ATOM     24  C   UNL A   1      33.288  29.172  25.767  1.00  0.00     0.047 A 
ATOM     25  C   UNL A   1      31.699  28.510  27.448  1.00  0.00     0.047 A 
ATOM     26  C   UNL A   1      32.691  29.385  27.011  1.00  0.00     0.118 A 
BRANCH  26  27
ATOM     27  O   UNL A   1      33.161  30.470  27.697  1.00  0.00    -0.497 OA
ATOM     28  C   UNL A   1      34.533  30.795  27.508  1.00  0.00     0.278 C 
ENDBRANCH  26  27
ENDBRANCH  11  21
ENDBRANCH   7   8
ENDBRANCH   4   7
ENDBRANCH   2   3
ENDBRANCH   1   2
BRANCH   1  29
ATOM     29  C   UNL A   1      36.474  22.352  24.812  1.00  0.00     0.023 C 
BRANCH  29  30
ATOM     30  C   UNL A   1      37.764  22.958  25.350  1.00  0.00     0.116 C 
BRANCH  30  31
ATOM     31  N   UNL A   1      38.534  22.037  26.180  1.00  0.00    -0.352 N 
ATOM     32  C   UNL A   1      39.676  22.305  26.914  1.00  0.00     0.251 C 
ATOM     33  H   UNL A   1      38.200  21.111  26.224  1.00  0.00     0.163 HD
ATOM     34  O   UNL A   1      40.440  21.416  27.247  1.00  0.00    -0.269 OA
BRANCH  32  35
ATOM     35  C   UNL A   1      39.954  23.703  27.296  1.00  0.00     0.039 A 
ATOM     36  C   UNL A   1      38.947  24.672  27.284  1.00  0.00     0.014 A 
ATOM     37  C   UNL A   1      41.247  24.023  27.699  1.00  0.00     0.014 A 
ATOM     38  C   UNL A   1      39.231  25.945  27.775  1.00  0.00     0.010 A 
ATOM     39  C   UNL A   1      41.493  25.234  28.299  1.00  0.00     0.010 A 
ATOM     40  C   UNL A   1      40.501  26.215  28.307  1.00  0.00    -0.014 A 
BRANCH  40  41
ATOM     41  C   UNL A   1      40.764  27.464  29.022  1.00  0.00     0.031 A 
ATOM     42  C   UNL A   1      41.762  28.362  28.366  1.00  0.00     0.074 A 
ATOM     43  C   UNL A   1      39.973  27.900  30.028  1.00  0.00     0.049 A 
ATOM     44  N   UNL A   1      42.858  28.834  28.862  1.00  0.00    -0.248 NA
ATOM     45  C   UNL A   1      41.562  28.700  26.944  1.00  0.00     0.031 C 
ATOM     46  C   UNL A   1      38.757  27.261  30.546  1.00  0.00     0.029 A 
ATOM     47  N   UNL A   1      39.987  29.090  30.694  1.00  0.00    -0.354 N 
ATOM     48  C   UNL A   1      43.392  29.679  27.890  1.00  0.00     0.074 A 
ATOM     49  C   UNL A   1      42.649  29.428  26.682  1.00  0.00     0.031 C 
ATOM     50  C   UNL A   1      38.020  28.171  31.220  1.00  0.00     0.029 A 
ATOM     51  C   UNL A   1      38.785  29.399  31.327  1.00  0.00     0.049 A 
ATOM     52  H   UNL A   1      40.776  29.678  30.726  1.00  0.00     0.167 HD
ATOM     53  C   UNL A   1      44.227  30.704  28.217  1.00  0.00     0.031 A 
ATOM     54  C   UNL A   1      38.415  30.591  31.856  1.00  0.00     0.031 A 
ATOM     55  C   UNL A   1      44.765  30.550  29.544  1.00  0.00     0.049 A 
ATOM     56  C   UNL A   1      39.639  31.400  32.038  1.00  0.00     0.074 A 
ATOM     57  C   UNL A   1      45.514  29.587  30.189  1.00  0.00     0.029 A 
ATOM     58  N   UNL A   1      44.211  31.324  30.534  1.00  0.00    -0.354 N 
ATOM     59  N   UNL A   1      40.564  31.121  32.909  1.00  0.00    -0.248 NA
ATOM     60  C   UNL A   1      40.044  32.279  30.954  1.00  0.00     0.031 C 
ATOM     61  C   UNL A   1      44.979  29.533  31.510  1.00  0.00     0.029 A 
ATOM     62  C   UNL A   1      43.995  30.518  31.618  1.00  0.00     0.049 A 
ATOM     63  H   UNL A   1      44.007  32.286  30.475  1.00  0.00     0.167 HD
ATOM     64  C   UNL A   1      41.753  31.389  32.248  1.00  0.00     0.074 A 
ATOM     65  C   UNL A   1      41.369  32.207  31.098  1.00  0.00     0.031 C 
ATOM     66  C   UNL A   1      42.886  30.681  32.531  1.00  0.00     0.031 A 
BRANCH  53  67
ATOM     67  C   UNL A   1      44.202  32.052  27.527  1.00  0.00    -0.014 A 
ATOM     68  C   UNL A   1      45.048  32.259  26.422  1.00  0.00     0.009 A 
ATOM     69  C   UNL A   1      43.621  33.201  28.098  1.00  0.00     0.009 A 
ATOM     70  C   UNL A   1      45.369  33.548  25.979  1.00  0.00     0.001 A 
ATOM     71  C   UNL A   1      43.904  34.487  27.628  1.00  0.00     0.001 A 
ATOM     72  C   UNL A   1      44.805  34.662  26.590  1.00  0.00     0.000 A 
ENDBRANCH  53  67
BRANCH  54  73
ATOM     73  C   UNL A   1      37.066  31.182  31.995  1.00  0.00    -0.014 A 
ATOM     74  C   UNL A   1      36.681  31.814  33.189  1.00  0.00     0.009 A 
ATOM     75  C   UNL A   1      36.252  31.371  30.864  1.00  0.00     0.009 A 
ATOM     76  C   UNL A   1      35.550  32.639  33.236  1.00  0.00     0.001 A 
ATOM     77  C   UNL A   1      35.120  32.191  30.912  1.00  0.00     0.001 A 
ATOM     78  C   UNL A   1      34.778  32.840  32.093  1.00  0.00     0.000 A 
ENDBRANCH  54  73
BRANCH  66  79
ATOM     79  C   UNL A   1      42.892  29.812  33.765  1.00  0.00    -0.014 A 
ATOM     80  C   UNL A   1      43.503  30.179  34.976  1.00  0.00     0.009 A 
ATOM     81  C   UNL A   1      42.136  28.629  33.735  1.00  0.00     0.009 A 
ATOM     82  C   UNL A   1      43.399  29.363  36.108  1.00  0.00     0.001 A 
ATOM     83  C   UNL A   1      42.010  27.828  34.871  1.00  0.00     0.001 A 
ATOM     84  C   UNL A   1      42.650  28.189  36.054  1.00  0.00     0.000 A 
ENDBRANCH  66  79
ENDBRANCH  40  41
ENDBRANCH  32  35
ENDBRANCH  30  31
ENDBRANCH  29  30
ENDBRANCH   1  29
TORSDOF 16
ENDMDL
