MODEL 1
REMARK VINA RESULT:     -11.7      0.000      0.000
REMARK SMILES Cc1cc(F)ccc1-n1ccc(C)c(C(=O)NCCCCNC(=O)c2ccc(-c3c4nc(c(-c5ccccc5)c5ccc([nH]5)c(-c5ccccc5)c5nc(c(-c6ccccc6)c6ccc3[nH]6)C=C5)C=C4)cc2)c1=O
REMARK SMILES IDX 20 1 19 2 18 3 17 4 15 5 16 6 14 8 9 9 10 10 73 11 11 12
REMARK SMILES IDX 74 13 12 14 13 15 8 16 1 17 2 18 3 19 4 20 7 21 5 22 6 23
REMARK SMILES IDX 21 24 22 25 23 26 24 28 25 29 26 30 72 31 27 32 71 33 28 34
REMARK SMILES IDX 29 35 30 36 65 37 31 38 70 39 64 40 66 41 32 42 69 43 63 44
REMARK SMILES IDX 62 45 33 47 55 48 40 49 54 50 41 51 44 52 53 53 67 54 42 55
REMARK SMILES IDX 43 56 52 58 68 59 45 60 34 61 35 62 39 63 36 64 38 65 37 66
REMARK SMILES IDX 56 67 57 68 61 69 58 70 60 71 59 72 46 73 47 74 51 75 48 76
REMARK SMILES IDX 50 77 49 78
REMARK H PARENT 17 7 22 27 66 46 44 57
REMARK Flexibility Score: inf
ROOT
ATOM      1  C   UNL A   1      37.616  20.668  24.949  1.00  0.00     0.023 C 
ENDROOT
BRANCH   1   2
ATOM      2  C   UNL A   1      37.040  21.893  24.245  1.00  0.00     0.023 C 
BRANCH   2   3
ATOM      3  C   UNL A   1      36.827  23.127  25.116  1.00  0.00     0.116 C 
BRANCH   3   4
ATOM      4  N   UNL A   1      35.960  22.937  26.272  1.00  0.00    -0.352 N 
ATOM      5  C   UNL A   1      34.644  22.537  26.304  1.00  0.00     0.257 C 
ATOM      6  O   UNL A   1      34.147  22.245  27.391  1.00  0.00    -0.269 OA
ATOM      7  H   UNL A   1      36.371  23.120  27.146  1.00  0.00     0.163 HD
BRANCH   5   8
ATOM      8  C   UNL A   1      33.832  22.555  25.050  1.00  0.00     0.108 A 
ATOM      9  N   UNL A   1      32.255  23.806  23.621  1.00  0.00    -0.283 N 
ATOM     10  C   UNL A   1      31.877  22.599  23.053  1.00  0.00     0.095 A 
ATOM     11  C   UNL A   1      33.373  23.865  24.473  1.00  0.00     0.268 A 
ATOM     12  C   UNL A   1      32.503  21.457  23.350  1.00  0.00     0.023 A 
ATOM     13  O   UNL A   1      33.928  24.900  24.840  1.00  0.00    -0.268 OA
ATOM     14  C   UNL A   1      33.479  21.407  24.426  1.00  0.00    -0.031 A 
ATOM     15  C   UNL A   1      33.919  20.009  24.777  1.00  0.00     0.045 C 
BRANCH   9  16
ATOM     16  C   UNL A   1      31.453  24.981  23.431  1.00  0.00     0.052 A 
ATOM     17  C   UNL A   1      32.633  25.743  21.272  1.00  0.00     0.047 C 
ATOM     18  C   UNL A   1      31.663  25.929  22.408  1.00  0.00    -0.024 A 
ATOM     19  C   UNL A   1      30.903  27.114  22.410  1.00  0.00     0.044 A 
ATOM     20  C   UNL A   1      29.928  27.333  23.377  1.00  0.00     0.123 A 
ATOM     21  C   UNL A   1      30.433  25.216  24.382  1.00  0.00     0.030 A 
ATOM     22  F   UNL A   1      29.218  28.468  23.356  1.00  0.00    -0.207 F 
ATOM     23  C   UNL A   1      29.677  26.389  24.357  1.00  0.00     0.041 A 
ENDBRANCH   9  16
ENDBRANCH   5   8
ENDBRANCH   3   4
ENDBRANCH   2   3
ENDBRANCH   1   2
BRANCH   1  24
ATOM     24  C   UNL A   1      38.873  20.900  25.780  1.00  0.00     0.116 C 
BRANCH  24  25
ATOM     25  N   UNL A   1      39.857  19.829  25.681  1.00  0.00    -0.352 N 
ATOM     26  C   UNL A   1      41.197  19.813  26.001  1.00  0.00     0.251 C 
ATOM     27  H   UNL A   1      39.507  18.979  25.329  1.00  0.00     0.163 HD
ATOM     28  O   UNL A   1      41.879  18.822  25.757  1.00  0.00    -0.269 OA
BRANCH  26  29
ATOM     29  C   UNL A   1      41.837  21.012  26.587  1.00  0.00     0.039 A 
ATOM     30  C   UNL A   1      41.962  21.156  27.966  1.00  0.00     0.014 A 
ATOM     31  C   UNL A   1      42.279  22.033  25.738  1.00  0.00     0.014 A 
ATOM     32  C   UNL A   1      42.289  22.397  28.500  1.00  0.00     0.010 A 
ATOM     33  C   UNL A   1      42.717  23.248  26.279  1.00  0.00     0.010 A 
ATOM     34  C   UNL A   1      42.652  23.467  27.663  1.00  0.00    -0.014 A 
BRANCH  34  35
ATOM     35  C   UNL A   1      42.919  24.802  28.264  1.00  0.00     0.031 A 
ATOM     36  C   UNL A   1      44.329  25.253  28.553  1.00  0.00     0.074 A 
ATOM     37  C   UNL A   1      41.893  25.652  28.468  1.00  0.00     0.049 A 
ATOM     38  N   UNL A   1      44.745  26.409  29.011  1.00  0.00    -0.248 NA
ATOM     39  C   UNL A   1      45.414  24.291  28.299  1.00  0.00     0.031 C 
ATOM     40  C   UNL A   1      40.484  25.347  28.210  1.00  0.00     0.029 A 
ATOM     41  N   UNL A   1      41.878  26.956  28.894  1.00  0.00    -0.354 N 
ATOM     42  C   UNL A   1      46.127  26.304  29.119  1.00  0.00     0.074 A 
ATOM     43  C   UNL A   1      46.481  24.964  28.705  1.00  0.00     0.031 C 
ATOM     44  C   UNL A   1      39.754  26.453  28.405  1.00  0.00     0.029 A 
ATOM     45  C   UNL A   1      40.628  27.525  28.873  1.00  0.00     0.049 A 
ATOM     46  H   UNL A   1      42.685  27.438  29.187  1.00  0.00     0.167 HD
ATOM     47  C   UNL A   1      47.021  27.241  29.514  1.00  0.00     0.031 A 
ATOM     48  C   UNL A   1      40.218  28.767  29.194  1.00  0.00     0.031 A 
ATOM     49  C   UNL A   1      46.675  28.581  29.906  1.00  0.00     0.049 A 
ATOM     50  C   UNL A   1      41.225  29.775  29.663  1.00  0.00     0.074 A 
ATOM     51  C   UNL A   1      47.521  29.604  30.304  1.00  0.00     0.029 A 
ATOM     52  N   UNL A   1      45.386  29.089  29.942  1.00  0.00    -0.354 N 
ATOM     53  N   UNL A   1      42.526  29.654  29.763  1.00  0.00    -0.248 NA
ATOM     54  C   UNL A   1      40.708  31.089  30.073  1.00  0.00     0.031 C 
ATOM     55  C   UNL A   1      46.739  30.714  30.633  1.00  0.00     0.029 A 
ATOM     56  C   UNL A   1      45.412  30.403  30.380  1.00  0.00     0.049 A 
ATOM     57  H   UNL A   1      44.575  28.591  29.694  1.00  0.00     0.167 HD
ATOM     58  C   UNL A   1      42.984  30.873  30.240  1.00  0.00     0.074 A 
ATOM     59  C   UNL A   1      41.826  31.730  30.387  1.00  0.00     0.031 C 
ATOM     60  C   UNL A   1      44.254  31.244  30.534  1.00  0.00     0.031 A 
BRANCH  47  61
ATOM     61  C   UNL A   1      48.474  26.857  29.561  1.00  0.00    -0.014 A 
ATOM     62  C   UNL A   1      49.278  27.034  28.422  1.00  0.00     0.009 A 
ATOM     63  C   UNL A   1      49.027  26.233  30.689  1.00  0.00     0.009 A 
ATOM     64  C   UNL A   1      50.599  26.585  28.407  1.00  0.00     0.001 A 
ATOM     65  C   UNL A   1      50.358  25.808  30.682  1.00  0.00     0.001 A 
ATOM     66  C   UNL A   1      51.140  25.975  29.538  1.00  0.00     0.000 A 
ENDBRANCH  47  61
BRANCH  48  67
ATOM     67  C   UNL A   1      38.779  29.112  29.071  1.00  0.00    -0.014 A 
ATOM     68  C   UNL A   1      38.265  29.595  27.856  1.00  0.00     0.009 A 
ATOM     69  C   UNL A   1      37.925  29.020  30.179  1.00  0.00     0.009 A 
ATOM     70  C   UNL A   1      36.935  30.008  27.762  1.00  0.00     0.001 A 
ATOM     71  C   UNL A   1      36.586  29.407  30.074  1.00  0.00     0.001 A 
ATOM     72  C   UNL A   1      36.096  29.910  28.870  1.00  0.00     0.000 A 
ENDBRANCH  48  67
BRANCH  60  73
ATOM     73  C   UNL A   1      44.473  32.638  31.047  1.00  0.00    -0.014 A 
ATOM     74  C   UNL A   1      44.392  32.898  32.424  1.00  0.00     0.009 A 
ATOM     75  C   UNL A   1      44.666  33.710  30.162  1.00  0.00     0.009 A 
ATOM     76  C   UNL A   1      44.489  34.204  32.905  1.00  0.00     0.001 A 
ATOM     77  C   UNL A   1      44.791  35.012  30.649  1.00  0.00     0.001 A 
ATOM     78  C   UNL A   1      44.692  35.259  32.018  1.00  0.00     0.000 A 
ENDBRANCH  60  73
ENDBRANCH  34  35
ENDBRANCH  26  29
ENDBRANCH  24  25
ENDBRANCH   1  24
TORSDOF 12
ENDMDL
MODEL 2
REMARK VINA RESULT:     -11.7      2.348      7.592
REMARK SMILES Cc1cc(F)ccc1-n1ccc(C)c(C(=O)NCCCCNC(=O)c2ccc(-c3c4nc(c(-c5ccccc5)c5ccc([nH]5)c(-c5ccccc5)c5nc(c(-c6ccccc6)c6ccc3[nH]6)C=C5)C=C4)cc2)c1=O
REMARK SMILES IDX 20 1 19 2 18 3 17 4 15 5 16 6 14 8 9 9 10 10 73 11 11 12
REMARK SMILES IDX 74 13 12 14 13 15 8 16 1 17 2 18 3 19 4 20 7 21 5 22 6 23
REMARK SMILES IDX 21 24 22 25 23 26 24 28 25 29 26 30 72 31 27 32 71 33 28 34
REMARK SMILES IDX 29 35 30 36 65 37 31 38 70 39 64 40 66 41 32 42 69 43 63 44
REMARK SMILES IDX 62 45 33 47 55 48 40 49 54 50 41 51 44 52 53 53 67 54 42 55
REMARK SMILES IDX 43 56 52 58 68 59 45 60 34 61 35 62 39 63 36 64 38 65 37 66
REMARK SMILES IDX 56 67 57 68 61 69 58 70 60 71 59 72 46 73 47 74 51 75 48 76
REMARK SMILES IDX 50 77 49 78
REMARK H PARENT 17 7 22 27 66 46 44 57
REMARK Flexibility Score: inf
ROOT
ATOM      1  C   UNL A   1      32.702  29.375  25.890  1.00  0.00     0.023 C 
ENDROOT
BRANCH   1   2
ATOM      2  C   UNL A   1      31.706  28.237  25.689  1.00  0.00     0.023 C 
BRANCH   2   3
ATOM      3  C   UNL A   1      32.080  26.900  26.321  1.00  0.00     0.116 C 
BRANCH   3   4
ATOM      4  N   UNL A   1      30.961  26.031  26.660  1.00  0.00    -0.352 N 
ATOM      5  C   UNL A   1      30.762  24.713  26.322  1.00  0.00     0.257 C 
ATOM      6  O   UNL A   1      29.849  24.098  26.872  1.00  0.00    -0.269 OA
ATOM      7  H   UNL A   1      30.252  26.443  27.204  1.00  0.00     0.163 HD
BRANCH   5   8
ATOM      8  C   UNL A   1      31.586  24.091  25.242  1.00  0.00     0.108 A 
ATOM      9  N   UNL A   1      33.776  23.165  24.581  1.00  0.00    -0.283 N 
ATOM     10  C   UNL A   1      33.429  23.398  23.259  1.00  0.00     0.095 A 
ATOM     11  C   UNL A   1      32.813  23.300  25.597  1.00  0.00     0.268 A 
ATOM     12  C   UNL A   1      32.211  23.824  22.918  1.00  0.00     0.023 A 
ATOM     13  O   UNL A   1      32.945  22.900  26.753  1.00  0.00    -0.268 OA
ATOM     14  C   UNL A   1      31.263  24.244  23.937  1.00  0.00    -0.031 A 
ATOM     15  C   UNL A   1      30.029  24.905  23.377  1.00  0.00     0.045 C 
BRANCH   9  16
ATOM     16  C   UNL A   1      35.140  22.890  24.936  1.00  0.00     0.052 A 
ATOM     17  C   UNL A   1      34.921  20.327  24.800  1.00  0.00     0.047 C 
ATOM     18  C   UNL A   1      35.665  21.594  25.125  1.00  0.00    -0.024 A 
ATOM     19  C   UNL A   1      36.978  21.456  25.614  1.00  0.00     0.044 A 
ATOM     20  C   UNL A   1      37.766  22.573  25.865  1.00  0.00     0.123 A 
ATOM     21  C   UNL A   1      35.975  24.007  25.171  1.00  0.00     0.030 A 
ATOM     22  F   UNL A   1      39.012  22.414  26.328  1.00  0.00    -0.207 F 
ATOM     23  C   UNL A   1      37.280  23.849  25.638  1.00  0.00     0.041 A 
ENDBRANCH   9  16
ENDBRANCH   5   8
ENDBRANCH   3   4
ENDBRANCH   2   3
ENDBRANCH   1   2
BRANCH   1  24
ATOM     24  C   UNL A   1      33.599  29.274  27.119  1.00  0.00     0.116 C 
BRANCH  24  25
ATOM     25  N   UNL A   1      33.750  30.526  27.849  1.00  0.00    -0.352 N 
ATOM     26  C   UNL A   1      34.816  31.018  28.571  1.00  0.00     0.251 C 
ATOM     27  H   UNL A   1      32.963  31.118  27.821  1.00  0.00     0.163 HD
ATOM     28  O   UNL A   1      34.709  32.072  29.192  1.00  0.00    -0.269 OA
BRANCH  26  29
ATOM     29  C   UNL A   1      36.078  30.250  28.651  1.00  0.00     0.039 A 
ATOM     30  C   UNL A   1      36.401  29.518  29.791  1.00  0.00     0.014 A 
ATOM     31  C   UNL A   1      36.977  30.301  27.579  1.00  0.00     0.014 A 
ATOM     32  C   UNL A   1      37.700  29.053  29.963  1.00  0.00     0.010 A 
ATOM     33  C   UNL A   1      38.250  29.733  27.711  1.00  0.00     0.010 A 
ATOM     34  C   UNL A   1      38.649  29.172  28.933  1.00  0.00    -0.014 A 
BRANCH  34  35
ATOM     35  C   UNL A   1      40.050  28.736  29.181  1.00  0.00     0.031 A 
ATOM     36  C   UNL A   1      40.533  27.384  28.720  1.00  0.00     0.074 A 
ATOM     37  C   UNL A   1      40.920  29.597  29.745  1.00  0.00     0.049 A 
ATOM     38  N   UNL A   1      41.738  26.872  28.793  1.00  0.00    -0.248 NA
ATOM     39  C   UNL A   1      39.545  26.487  28.097  1.00  0.00     0.031 C 
ATOM     40  C   UNL A   1      40.586  30.943  30.216  1.00  0.00     0.029 A 
ATOM     41  N   UNL A   1      42.268  29.489  29.976  1.00  0.00    -0.354 N 
ATOM     42  C   UNL A   1      41.646  25.595  28.250  1.00  0.00     0.074 A 
ATOM     43  C   UNL A   1      40.264  25.396  27.874  1.00  0.00     0.031 C 
ATOM     44  C   UNL A   1      41.709  31.562  30.605  1.00  0.00     0.029 A 
ATOM     45  C   UNL A   1      42.830  30.637  30.481  1.00  0.00     0.049 A 
ATOM     46  H   UNL A   1      42.783  28.668  29.799  1.00  0.00     0.167 HD
ATOM     47  C   UNL A   1      42.625  24.678  28.069  1.00  0.00     0.031 A 
ATOM     48  C   UNL A   1      44.104  30.922  30.813  1.00  0.00     0.031 A 
ATOM     49  C   UNL A   1      44.005  24.880  28.421  1.00  0.00     0.049 A 
ATOM     50  C   UNL A   1      45.164  29.875  30.635  1.00  0.00     0.074 A 
ATOM     51  C   UNL A   1      45.070  24.009  28.256  1.00  0.00     0.029 A 
ATOM     52  N   UNL A   1      44.514  26.031  29.001  1.00  0.00    -0.354 N 
ATOM     53  N   UNL A   1      45.054  28.673  30.125  1.00  0.00    -0.248 NA
ATOM     54  C   UNL A   1      46.519  30.218  31.087  1.00  0.00     0.031 C 
ATOM     55  C   UNL A   1      46.213  24.612  28.784  1.00  0.00     0.029 A 
ATOM     56  C   UNL A   1      45.873  25.882  29.223  1.00  0.00     0.049 A 
ATOM     57  H   UNL A   1      43.990  26.833  29.222  1.00  0.00     0.167 HD
ATOM     58  C   UNL A   1      46.325  28.118  30.188  1.00  0.00     0.074 A 
ATOM     59  C   UNL A   1      47.195  29.123  30.763  1.00  0.00     0.031 C 
ATOM     60  C   UNL A   1      46.729  26.883  29.806  1.00  0.00     0.031 A 
BRANCH  47  61
ATOM     61  C   UNL A   1      42.248  23.350  27.470  1.00  0.00    -0.014 A 
ATOM     62  C   UNL A   1      41.790  22.316  28.303  1.00  0.00     0.009 A 
ATOM     63  C   UNL A   1      42.436  23.088  26.105  1.00  0.00     0.009 A 
ATOM     64  C   UNL A   1      41.539  21.044  27.785  1.00  0.00     0.001 A 
ATOM     65  C   UNL A   1      42.159  21.821  25.583  1.00  0.00     0.001 A 
ATOM     66  C   UNL A   1      41.721  20.799  26.425  1.00  0.00     0.000 A 
ENDBRANCH  47  61
BRANCH  48  67
ATOM     67  C   UNL A   1      44.433  32.270  31.342  1.00  0.00    -0.014 A 
ATOM     68  C   UNL A   1      44.854  33.292  30.475  1.00  0.00     0.009 A 
ATOM     69  C   UNL A   1      44.386  32.527  32.720  1.00  0.00     0.009 A 
ATOM     70  C   UNL A   1      45.252  34.531  30.978  1.00  0.00     0.001 A 
ATOM     71  C   UNL A   1      44.757  33.779  33.218  1.00  0.00     0.001 A 
ATOM     72  C   UNL A   1      45.200  34.775  32.349  1.00  0.00     0.000 A 
ENDBRANCH  48  67
BRANCH  60  73
ATOM     73  C   UNL A   1      48.177  26.533  29.993  1.00  0.00    -0.014 A 
ATOM     74  C   UNL A   1      49.096  26.786  28.963  1.00  0.00     0.009 A 
ATOM     75  C   UNL A   1      48.615  25.868  31.149  1.00  0.00     0.009 A 
ATOM     76  C   UNL A   1      50.423  26.371  29.080  1.00  0.00     0.001 A 
ATOM     77  C   UNL A   1      49.950  25.478  31.275  1.00  0.00     0.001 A 
ATOM     78  C   UNL A   1      50.850  25.721  30.238  1.00  0.00     0.000 A 
ENDBRANCH  60  73
ENDBRANCH  34  35
ENDBRANCH  26  29
ENDBRANCH  24  25
ENDBRANCH   1  24
TORSDOF 12
ENDMDL
MODEL 3
REMARK VINA RESULT:     -11.6      4.463      9.327
REMARK SMILES Cc1cc(F)ccc1-n1ccc(C)c(C(=O)NCCCCNC(=O)c2ccc(-c3c4nc(c(-c5ccccc5)c5ccc([nH]5)c(-c5ccccc5)c5nc(c(-c6ccccc6)c6ccc3[nH]6)C=C5)C=C4)cc2)c1=O
REMARK SMILES IDX 20 1 19 2 18 3 17 4 15 5 16 6 14 8 9 9 10 10 73 11 11 12
REMARK SMILES IDX 74 13 12 14 13 15 8 16 1 17 2 18 3 19 4 20 7 21 5 22 6 23
REMARK SMILES IDX 21 24 22 25 23 26 24 28 25 29 26 30 72 31 27 32 71 33 28 34
REMARK SMILES IDX 29 35 30 36 65 37 31 38 70 39 64 40 66 41 32 42 69 43 63 44
REMARK SMILES IDX 62 45 33 47 55 48 40 49 54 50 41 51 44 52 53 53 67 54 42 55
REMARK SMILES IDX 43 56 52 58 68 59 45 60 34 61 35 62 39 63 36 64 38 65 37 66
REMARK SMILES IDX 56 67 57 68 61 69 58 70 60 71 59 72 46 73 47 74 51 75 48 76
REMARK SMILES IDX 50 77 49 78
REMARK H PARENT 17 7 22 27 66 46 44 57
REMARK Flexibility Score: inf
ROOT
ATOM      1  C   UNL A   1      31.808  31.557  26.555  1.00  0.00     0.023 C 
ENDROOT
BRANCH   1   2
ATOM      2  C   UNL A   1      31.778  30.059  26.839  1.00  0.00     0.023 C 
BRANCH   2   3
ATOM      3  C   UNL A   1      33.079  29.304  26.587  1.00  0.00     0.116 C 
BRANCH   3   4
ATOM      4  N   UNL A   1      33.567  29.335  25.215  1.00  0.00    -0.352 N 
ATOM      5  C   UNL A   1      32.978  28.826  24.080  1.00  0.00     0.257 C 
ATOM      6  O   UNL A   1      33.454  29.130  22.986  1.00  0.00    -0.269 OA
ATOM      7  H   UNL A   1      34.434  29.780  25.082  1.00  0.00     0.163 HD
BRANCH   5   8
ATOM      8  C   UNL A   1      31.848  27.856  24.201  1.00  0.00     0.108 A 
ATOM      9  N   UNL A   1      31.148  25.491  24.273  1.00  0.00    -0.283 N 
ATOM     10  C   UNL A   1      29.875  25.900  23.907  1.00  0.00     0.095 A 
ATOM     11  C   UNL A   1      32.118  26.443  24.636  1.00  0.00     0.268 A 
ATOM     12  C   UNL A   1      29.553  27.193  23.813  1.00  0.00     0.023 A 
ATOM     13  O   UNL A   1      33.185  26.188  25.191  1.00  0.00    -0.268 OA
ATOM     14  C   UNL A   1      30.578  28.218  23.906  1.00  0.00    -0.031 A 
ATOM     15  C   UNL A   1      30.084  29.599  23.557  1.00  0.00     0.045 C 
BRANCH   9  16
ATOM     16  C   UNL A   1      31.520  24.107  24.184  1.00  0.00     0.052 A 
ATOM     17  C   UNL A   1      30.658  23.466  26.525  1.00  0.00     0.047 C 
ATOM     18  C   UNL A   1      31.381  23.179  25.237  1.00  0.00    -0.024 A 
ATOM     19  C   UNL A   1      31.915  21.885  25.079  1.00  0.00     0.044 A 
ATOM     20  C   UNL A   1      32.530  21.508  23.891  1.00  0.00     0.123 A 
ATOM     21  C   UNL A   1      32.122  23.686  22.976  1.00  0.00     0.030 A 
ATOM     22  F   UNL A   1      33.028  20.272  23.766  1.00  0.00    -0.207 F 
ATOM     23  C   UNL A   1      32.629  22.394  22.832  1.00  0.00     0.041 A 
ENDBRANCH   9  16
ENDBRANCH   5   8
ENDBRANCH   3   4
ENDBRANCH   2   3
ENDBRANCH   1   2
BRANCH   1  24
ATOM     24  C   UNL A   1      32.910  32.351  27.248  1.00  0.00     0.116 C 
BRANCH  24  25
ATOM     25  N   UNL A   1      32.534  33.716  27.591  1.00  0.00    -0.352 N 
ATOM     26  C   UNL A   1      33.089  34.598  28.493  1.00  0.00     0.251 C 
ATOM     27  H   UNL A   1      31.755  34.066  27.099  1.00  0.00     0.163 HD
ATOM     28  O   UNL A   1      32.561  35.688  28.699  1.00  0.00    -0.269 OA
BRANCH  26  29
ATOM     29  C   UNL A   1      34.294  34.215  29.262  1.00  0.00     0.039 A 
ATOM     30  C   UNL A   1      35.567  34.572  28.824  1.00  0.00     0.014 A 
ATOM     31  C   UNL A   1      34.147  33.444  30.421  1.00  0.00     0.014 A 
ATOM     32  C   UNL A   1      36.682  33.962  29.388  1.00  0.00     0.010 A 
ATOM     33  C   UNL A   1      35.279  32.921  31.056  1.00  0.00     0.010 A 
ATOM     34  C   UNL A   1      36.553  33.112  30.499  1.00  0.00    -0.014 A 
BRANCH  34  35
ATOM     35  C   UNL A   1      37.757  32.415  31.026  1.00  0.00     0.031 A 
ATOM     36  C   UNL A   1      38.262  32.688  32.421  1.00  0.00     0.074 A 
ATOM     37  C   UNL A   1      38.350  31.463  30.278  1.00  0.00     0.049 A 
ATOM     38  N   UNL A   1      39.255  32.120  33.062  1.00  0.00    -0.248 NA
ATOM     39  C   UNL A   1      37.570  33.728  33.201  1.00  0.00     0.031 C 
ATOM     40  C   UNL A   1      37.946  31.087  28.922  1.00  0.00     0.029 A 
ATOM     41  N   UNL A   1      39.383  30.608  30.567  1.00  0.00    -0.354 N 
ATOM     42  C   UNL A   1      39.319  32.747  34.302  1.00  0.00     0.074 A 
ATOM     43  C   UNL A   1      38.283  33.756  34.318  1.00  0.00     0.031 C 
ATOM     44  C   UNL A   1      38.668  30.029  28.528  1.00  0.00     0.029 A 
ATOM     45  C   UNL A   1      39.634  29.696  29.570  1.00  0.00     0.049 A 
ATOM     46  H   UNL A   1      39.897  30.645  31.406  1.00  0.00     0.167 HD
ATOM     47  C   UNL A   1      40.154  32.495  35.337  1.00  0.00     0.031 A 
ATOM     48  C   UNL A   1      40.539  28.702  29.492  1.00  0.00     0.031 A 
ATOM     49  C   UNL A   1      41.170  31.478  35.334  1.00  0.00     0.049 A 
ATOM     50  C   UNL A   1      41.477  28.468  30.639  1.00  0.00     0.074 A 
ATOM     51  C   UNL A   1      42.052  31.141  36.349  1.00  0.00     0.029 A 
ATOM     52  N   UNL A   1      41.439  30.629  34.272  1.00  0.00    -0.354 N 
ATOM     53  N   UNL A   1      41.523  29.075  31.800  1.00  0.00    -0.248 NA
ATOM     54  C   UNL A   1      42.492  27.420  30.464  1.00  0.00     0.031 C 
ATOM     55  C   UNL A   1      42.889  30.125  35.882  1.00  0.00     0.029 A 
ATOM     56  C   UNL A   1      42.489  29.787  34.599  1.00  0.00     0.049 A 
ATOM     57  H   UNL A   1      40.956  30.625  33.415  1.00  0.00     0.167 HD
ATOM     58  C   UNL A   1      42.566  28.480  32.496  1.00  0.00     0.074 A 
ATOM     59  C   UNL A   1      43.110  27.448  31.638  1.00  0.00     0.031 C 
ATOM     60  C   UNL A   1      43.031  28.771  33.735  1.00  0.00     0.031 A 
BRANCH  47  61
ATOM     61  C   UNL A   1      40.023  33.342  36.573  1.00  0.00    -0.014 A 
ATOM     62  C   UNL A   1      39.124  32.963  37.585  1.00  0.00     0.009 A 
ATOM     63  C   UNL A   1      40.709  34.559  36.699  1.00  0.00     0.009 A 
ATOM     64  C   UNL A   1      38.907  33.789  38.689  1.00  0.00     0.001 A 
ATOM     65  C   UNL A   1      40.510  35.372  37.818  1.00  0.00     0.001 A 
ATOM     66  C   UNL A   1      39.602  34.992  38.806  1.00  0.00     0.000 A 
ENDBRANCH  47  61
BRANCH  48  67
ATOM     67  C   UNL A   1      40.584  27.855  28.272  1.00  0.00    -0.014 A 
ATOM     68  C   UNL A   1      39.899  26.629  28.232  1.00  0.00     0.009 A 
ATOM     69  C   UNL A   1      41.360  28.235  27.168  1.00  0.00     0.009 A 
ATOM     70  C   UNL A   1      40.015  25.788  27.125  1.00  0.00     0.001 A 
ATOM     71  C   UNL A   1      41.449  27.403  26.048  1.00  0.00     0.001 A 
ATOM     72  C   UNL A   1      40.786  26.177  26.032  1.00  0.00     0.000 A 
ENDBRANCH  48  67
BRANCH  60  73
ATOM     73  C   UNL A   1      44.190  27.968  34.252  1.00  0.00    -0.014 A 
ATOM     74  C   UNL A   1      43.956  26.803  34.999  1.00  0.00     0.009 A 
ATOM     75  C   UNL A   1      45.510  28.413  34.080  1.00  0.00     0.009 A 
ATOM     76  C   UNL A   1      45.018  26.105  35.575  1.00  0.00     0.001 A 
ATOM     77  C   UNL A   1      46.573  27.697  34.634  1.00  0.00     0.001 A 
ATOM     78  C   UNL A   1      46.326  26.551  35.388  1.00  0.00     0.000 A 
ENDBRANCH  60  73
ENDBRANCH  34  35
ENDBRANCH  26  29
ENDBRANCH  24  25
ENDBRANCH   1  24
TORSDOF 12
ENDMDL
