MODEL 1
REMARK VINA RESULT:     -11.5      0.000      0.000
REMARK SMILES Cc1cc(C)c2c(c1)C=C(C(=O)NCCCCNC(=O)c1ccc(-c3c4nc(c(-c5ccccc5)c5ccc([nH]5)c(-c5ccccc5)c5nc(c(-c6ccccc6)c6ccc3[nH]6)C=C5)C=C4)cc1)[C@@H](C(F)(F)F)O2
REMARK SMILES IDX 16 1 15 2 14 3 13 4 11 5 12 6 10 8 1 9 2 10 3 11 8 12 4 13
REMARK SMILES IDX 7 14 5 15 6 16 9 17 74 18 69 19 70 20 71 21 72 22 73 23
REMARK SMILES IDX 17 24 18 25 19 26 20 28 21 29 22 30 68 31 23 32 67 33 24 34
REMARK SMILES IDX 25 35 26 36 61 37 27 38 66 39 60 40 62 41 28 42 65 43 59 44
REMARK SMILES IDX 58 45 29 47 51 48 36 49 50 50 37 51 40 52 49 53 63 54 38 55
REMARK SMILES IDX 39 56 48 58 64 59 41 60 30 61 31 62 35 63 32 64 34 65 33 66
REMARK SMILES IDX 52 67 53 68 57 69 54 70 56 71 55 72 42 73 43 74 47 75 44 76
REMARK SMILES IDX 46 77 45 78
REMARK H PARENT 13 7 18 27 62 46 40 57
REMARK Flexibility Score: inf
ROOT
ATOM      1  C   UNL A   1      33.328  29.219  25.569  1.00  0.00     0.023 C 
ENDROOT
BRANCH   1   2
ATOM      2  C   UNL A   1      33.631  27.985  24.717  1.00  0.00     0.023 C 
BRANCH   2   3
ATOM      3  C   UNL A   1      32.389  27.284  24.176  1.00  0.00     0.116 C 
BRANCH   3   4
ATOM      4  N   UNL A   1      31.584  26.710  25.239  1.00  0.00    -0.352 N 
ATOM      5  C   UNL A   1      31.508  25.524  25.887  1.00  0.00     0.251 C 
ATOM      6  O   UNL A   1      30.631  25.460  26.756  1.00  0.00    -0.270 OA
ATOM      7  H   UNL A   1      30.917  27.352  25.575  1.00  0.00     0.163 HD
BRANCH   5   8
ATOM      8  C   UNL A   1      32.380  24.340  25.628  1.00  0.00     0.067 C 
ATOM      9  C   UNL A   1      38.321  22.640  25.860  1.00  0.00     0.044 C 
ATOM     10  C   UNL A   1      36.840  22.454  25.709  1.00  0.00    -0.050 A 
ATOM     11  C   UNL A   1      36.317  21.212  25.325  1.00  0.00     0.010 A 
ATOM     12  C   UNL A   1      35.969  23.535  25.905  1.00  0.00     0.015 A 
ATOM     13  C   UNL A   1      34.937  21.033  25.161  1.00  0.00    -0.008 A 
ATOM     14  C   UNL A   1      34.590  23.373  25.739  1.00  0.00     0.018 A 
ATOM     15  C   UNL A   1      34.385  19.694  24.760  1.00  0.00     0.048 C 
ATOM     16  C   UNL A   1      34.085  22.125  25.366  1.00  0.00     0.130 A 
ATOM     17  C   UNL A   1      33.670  24.476  25.986  1.00  0.00     0.025 C 
ATOM     18  O   UNL A   1      32.743  21.904  25.232  1.00  0.00    -0.475 OA
ATOM     19  C   UNL A   1      31.917  23.070  24.974  1.00  0.00     0.314 C 
BRANCH  19  20
ATOM     20  C   UNL A   1      31.712  23.222  23.455  1.00  0.00     0.429 C 
ATOM     21  F   UNL A   1      32.571  24.145  22.953  1.00  0.00    -0.167 F 
ATOM     22  F   UNL A   1      31.954  22.072  22.782  1.00  0.00    -0.167 F 
ATOM     23  F   UNL A   1      30.460  23.613  23.128  1.00  0.00    -0.167 F 
ENDBRANCH  19  20
ENDBRANCH   5   8
ENDBRANCH   3   4
ENDBRANCH   2   3
ENDBRANCH   1   2
BRANCH   1  24
ATOM     24  C   UNL A   1      33.713  29.108  27.043  1.00  0.00     0.116 C 
BRANCH  24  25
ATOM     25  N   UNL A   1      33.663  30.371  27.764  1.00  0.00    -0.352 N 
ATOM     26  C   UNL A   1      34.653  30.951  28.520  1.00  0.00     0.251 C 
ATOM     27  H   UNL A   1      32.817  30.872  27.702  1.00  0.00     0.163 HD
ATOM     28  O   UNL A   1      34.455  31.992  29.135  1.00  0.00    -0.269 OA
BRANCH  26  29
ATOM     29  C   UNL A   1      35.953  30.264  28.616  1.00  0.00     0.039 A 
ATOM     30  C   UNL A   1      36.819  30.309  27.523  1.00  0.00     0.014 A 
ATOM     31  C   UNL A   1      36.340  29.661  29.817  1.00  0.00     0.014 A 
ATOM     32  C   UNL A   1      38.113  29.810  27.659  1.00  0.00     0.010 A 
ATOM     33  C   UNL A   1      37.648  29.220  29.968  1.00  0.00     0.010 A 
ATOM     34  C   UNL A   1      38.547  29.298  28.892  1.00  0.00    -0.014 A 
BRANCH  34  35
ATOM     35  C   UNL A   1      39.942  28.837  29.077  1.00  0.00     0.031 A 
ATOM     36  C   UNL A   1      40.958  29.754  29.691  1.00  0.00     0.074 A 
ATOM     37  C   UNL A   1      40.301  27.612  28.648  1.00  0.00     0.049 A 
ATOM     38  N   UNL A   1      42.231  29.545  29.906  1.00  0.00    -0.248 NA
ATOM     39  C   UNL A   1      40.486  31.088  30.097  1.00  0.00     0.031 C 
ATOM     40  C   UNL A   1      39.411  26.642  28.008  1.00  0.00     0.029 A 
ATOM     41  N   UNL A   1      41.514  26.974  28.693  1.00  0.00    -0.354 N 
ATOM     42  C   UNL A   1      42.712  30.722  30.463  1.00  0.00     0.074 A 
ATOM     43  C   UNL A   1      41.610  31.657  30.504  1.00  0.00     0.031 C 
ATOM     44  C   UNL A   1      40.098  25.516  27.757  1.00  0.00     0.029 A 
ATOM     45  C   UNL A   1      41.482  25.698  28.188  1.00  0.00     0.049 A 
ATOM     46  H   UNL A   1      42.330  27.390  29.052  1.00  0.00     0.167 HD
ATOM     47  C   UNL A   1      43.956  30.993  30.922  1.00  0.00     0.031 A 
ATOM     48  C   UNL A   1      42.456  24.774  28.090  1.00  0.00     0.031 A 
ATOM     49  C   UNL A   1      45.051  30.062  30.889  1.00  0.00     0.049 A 
ATOM     50  C   UNL A   1      43.835  25.105  28.583  1.00  0.00     0.074 A 
ATOM     51  C   UNL A   1      46.338  30.228  31.368  1.00  0.00     0.029 A 
ATOM     52  N   UNL A   1      44.982  28.789  30.348  1.00  0.00    -0.354 N 
ATOM     53  N   UNL A   1      44.265  26.208  29.147  1.00  0.00    -0.248 NA
ATOM     54  C   UNL A   1      44.860  24.063  28.431  1.00  0.00     0.031 C 
ATOM     55  C   UNL A   1      47.061  29.065  31.083  1.00  0.00     0.029 A 
ATOM     56  C   UNL A   1      46.211  28.162  30.463  1.00  0.00     0.049 A 
ATOM     57  H   UNL A   1      44.180  28.389  29.941  1.00  0.00     0.167 HD
ATOM     58  C   UNL A   1      45.606  25.989  29.431  1.00  0.00     0.074 A 
ATOM     59  C   UNL A   1      45.916  24.644  28.988  1.00  0.00     0.031 C 
ATOM     60  C   UNL A   1      46.500  26.828  30.007  1.00  0.00     0.031 A 
BRANCH  47  61
ATOM     61  C   UNL A   1      44.186  32.358  31.502  1.00  0.00    -0.014 A 
ATOM     62  C   UNL A   1      44.575  33.432  30.684  1.00  0.00     0.009 A 
ATOM     63  C   UNL A   1      44.008  32.577  32.876  1.00  0.00     0.009 A 
ATOM     64  C   UNL A   1      44.818  34.690  31.238  1.00  0.00     0.001 A 
ATOM     65  C   UNL A   1      44.227  33.842  33.423  1.00  0.00     0.001 A 
ATOM     66  C   UNL A   1      44.641  34.895  32.606  1.00  0.00     0.000 A 
ENDBRANCH  47  61
BRANCH  48  67
ATOM     67  C   UNL A   1      42.144  23.432  27.539  1.00  0.00    -0.014 A 
ATOM     68  C   UNL A   1      41.555  22.457  28.358  1.00  0.00     0.009 A 
ATOM     69  C   UNL A   1      42.402  23.128  26.193  1.00  0.00     0.009 A 
ATOM     70  C   UNL A   1      41.239  21.198  27.841  1.00  0.00     0.001 A 
ATOM     71  C   UNL A   1      42.066  21.875  25.676  1.00  0.00     0.001 A 
ATOM     72  C   UNL A   1      41.489  20.910  26.501  1.00  0.00     0.000 A 
ENDBRANCH  48  67
BRANCH  60  73
ATOM     73  C   UNL A   1      47.897  26.315  30.204  1.00  0.00    -0.014 A 
ATOM     74  C   UNL A   1      48.298  25.768  31.431  1.00  0.00     0.009 A 
ATOM     75  C   UNL A   1      48.797  26.313  29.127  1.00  0.00     0.009 A 
ATOM     76  C   UNL A   1      49.582  25.243  31.582  1.00  0.00     0.001 A 
ATOM     77  C   UNL A   1      50.073  25.769  29.274  1.00  0.00     0.001 A 
ATOM     78  C   UNL A   1      50.466  25.238  30.502  1.00  0.00     0.000 A 
ENDBRANCH  60  73
ENDBRANCH  34  35
ENDBRANCH  26  29
ENDBRANCH  24  25
ENDBRANCH   1  24
TORSDOF 12
ENDMDL
MODEL 2
REMARK VINA RESULT:     -11.5      2.433      7.707
REMARK SMILES Cc1cc(C)c2c(c1)C=C(C(=O)NCCCCNC(=O)c1ccc(-c3c4nc(c(-c5ccccc5)c5ccc([nH]5)c(-c5ccccc5)c5nc(c(-c6ccccc6)c6ccc3[nH]6)C=C5)C=C4)cc1)[C@@H](C(F)(F)F)O2
REMARK SMILES IDX 16 1 15 2 14 3 13 4 11 5 12 6 10 8 1 9 2 10 3 11 8 12 4 13
REMARK SMILES IDX 7 14 5 15 6 16 9 17 74 18 69 19 70 20 71 21 72 22 73 23
REMARK SMILES IDX 17 24 18 25 19 26 20 28 21 29 22 30 68 31 23 32 67 33 24 34
REMARK SMILES IDX 25 35 26 36 61 37 27 38 66 39 60 40 62 41 28 42 65 43 59 44
REMARK SMILES IDX 58 45 29 47 51 48 36 49 50 50 37 51 40 52 49 53 63 54 38 55
REMARK SMILES IDX 39 56 48 58 64 59 41 60 30 61 31 62 35 63 32 64 34 65 33 66
REMARK SMILES IDX 52 67 53 68 57 69 54 70 56 71 55 72 42 73 43 74 47 75 44 76
REMARK SMILES IDX 46 77 45 78
REMARK H PARENT 13 7 18 27 62 46 40 57
REMARK Flexibility Score: inf
ROOT
ATOM      1  C   UNL A   1      35.983  23.240  25.942  1.00  0.00     0.023 C 
ENDROOT
BRANCH   1   2
ATOM      2  C   UNL A   1      35.090  22.049  25.584  1.00  0.00     0.023 C 
BRANCH   2   3
ATOM      3  C   UNL A   1      33.733  22.443  25.008  1.00  0.00     0.116 C 
BRANCH   3   4
ATOM      4  N   UNL A   1      33.814  22.759  23.594  1.00  0.00    -0.352 N 
ATOM      5  C   UNL A   1      33.518  23.816  22.801  1.00  0.00     0.251 C 
ATOM      6  O   UNL A   1      33.746  23.646  21.598  1.00  0.00    -0.270 OA
ATOM      7  H   UNL A   1      34.180  22.007  23.075  1.00  0.00     0.163 HD
BRANCH   5   8
ATOM      8  C   UNL A   1      32.956  25.118  23.271  1.00  0.00     0.067 C 
ATOM      9  C   UNL A   1      34.170  29.685  27.257  1.00  0.00     0.044 C 
ATOM     10  C   UNL A   1      33.459  28.991  26.134  1.00  0.00    -0.050 A 
ATOM     11  C   UNL A   1      32.306  29.552  25.570  1.00  0.00     0.010 A 
ATOM     12  C   UNL A   1      33.916  27.750  25.669  1.00  0.00     0.015 A 
ATOM     13  C   UNL A   1      31.622  28.902  24.534  1.00  0.00    -0.008 A 
ATOM     14  C   UNL A   1      33.242  27.086  24.641  1.00  0.00     0.018 A 
ATOM     15  C   UNL A   1      30.393  29.517  23.928  1.00  0.00     0.048 C 
ATOM     16  C   UNL A   1      32.099  27.665  24.083  1.00  0.00     0.130 A 
ATOM     17  C   UNL A   1      33.733  25.817  24.116  1.00  0.00     0.025 C 
ATOM     18  O   UNL A   1      31.428  27.076  23.047  1.00  0.00    -0.475 OA
ATOM     19  C   UNL A   1      31.600  25.643  22.895  1.00  0.00     0.314 C 
BRANCH  19  20
ATOM     20  C   UNL A   1      30.455  24.913  23.622  1.00  0.00     0.429 C 
ATOM     21  F   UNL A   1      30.159  23.749  22.989  1.00  0.00    -0.167 F 
ATOM     22  F   UNL A   1      30.779  24.581  24.894  1.00  0.00    -0.167 F 
ATOM     23  F   UNL A   1      29.319  25.642  23.682  1.00  0.00    -0.167 F 
ENDBRANCH  19  20
ENDBRANCH   5   8
ENDBRANCH   3   4
ENDBRANCH   2   3
ENDBRANCH   1   2
BRANCH   1  24
ATOM     24  C   UNL A   1      37.241  23.393  25.089  1.00  0.00     0.116 C 
BRANCH  24  25
ATOM     25  N   UNL A   1      38.323  22.495  25.465  1.00  0.00    -0.352 N 
ATOM     26  C   UNL A   1      39.435  22.784  26.219  1.00  0.00     0.251 C 
ATOM     27  H   UNL A   1      38.249  21.567  25.142  1.00  0.00     0.163 HD
ATOM     28  O   UNL A   1      40.310  21.947  26.405  1.00  0.00    -0.269 OA
BRANCH  26  29
ATOM     29  C   UNL A   1      39.579  24.147  26.761  1.00  0.00     0.039 A 
ATOM     30  C   UNL A   1      39.150  24.400  28.064  1.00  0.00     0.014 A 
ATOM     31  C   UNL A   1      40.218  25.137  26.007  1.00  0.00     0.014 A 
ATOM     32  C   UNL A   1      39.431  25.635  28.646  1.00  0.00     0.010 A 
ATOM     33  C   UNL A   1      40.550  26.343  26.610  1.00  0.00     0.010 A 
ATOM     34  C   UNL A   1      40.166  26.599  27.936  1.00  0.00    -0.014 A 
BRANCH  34  35
ATOM     35  C   UNL A   1      40.542  27.885  28.566  1.00  0.00     0.031 A 
ATOM     36  C   UNL A   1      41.948  28.103  29.039  1.00  0.00     0.074 A 
ATOM     37  C   UNL A   1      39.606  28.834  28.753  1.00  0.00     0.049 A 
ATOM     38  N   UNL A   1      42.462  29.144  29.641  1.00  0.00    -0.248 NA
ATOM     39  C   UNL A   1      42.897  26.998  28.826  1.00  0.00     0.031 C 
ATOM     40  C   UNL A   1      38.198  28.727  28.365  1.00  0.00     0.029 A 
ATOM     41  N   UNL A   1      39.702  30.081  29.317  1.00  0.00    -0.354 N 
ATOM     42  C   UNL A   1      43.788  28.816  29.886  1.00  0.00     0.074 A 
ATOM     43  C   UNL A   1      43.987  27.463  29.416  1.00  0.00     0.031 C 
ATOM     44  C   UNL A   1      37.572  29.877  28.664  1.00  0.00     0.029 A 
ATOM     45  C   UNL A   1      38.525  30.786  29.294  1.00  0.00     0.049 A 
ATOM     46  H   UNL A   1      40.536  30.436  29.701  1.00  0.00     0.167 HD
ATOM     47  C   UNL A   1      44.762  29.582  30.431  1.00  0.00     0.031 A 
ATOM     48  C   UNL A   1      38.246  32.031  29.725  1.00  0.00     0.031 A 
ATOM     49  C   UNL A   1      44.568  30.930  30.891  1.00  0.00     0.049 A 
ATOM     50  C   UNL A   1      39.335  32.854  30.349  1.00  0.00     0.074 A 
ATOM     51  C   UNL A   1      45.501  31.803  31.420  1.00  0.00     0.029 A 
ATOM     52  N   UNL A   1      43.355  31.599  30.871  1.00  0.00    -0.354 N 
ATOM     53  N   UNL A   1      40.596  32.546  30.536  1.00  0.00    -0.248 NA
ATOM     54  C   UNL A   1      38.965  34.196  30.818  1.00  0.00     0.031 C 
ATOM     55  C   UNL A   1      44.843  32.992  31.756  1.00  0.00     0.029 A 
ATOM     56  C   UNL A   1      43.510  32.870  31.397  1.00  0.00     0.049 A 
ATOM     57  H   UNL A   1      42.508  31.227  30.534  1.00  0.00     0.167 HD
ATOM     58  C   UNL A   1      41.174  33.660  31.129  1.00  0.00     0.074 A 
ATOM     59  C   UNL A   1      40.129  34.655  31.261  1.00  0.00     0.031 C 
ATOM     60  C   UNL A   1      42.456  33.841  31.529  1.00  0.00     0.031 A 
BRANCH  47  61
ATOM     61  C   UNL A   1      46.125  28.967  30.553  1.00  0.00    -0.014 A 
ATOM     62  C   UNL A   1      46.499  28.268  31.712  1.00  0.00     0.009 A 
ATOM     63  C   UNL A   1      47.044  29.082  29.499  1.00  0.00     0.009 A 
ATOM     64  C   UNL A   1      47.781  27.727  31.828  1.00  0.00     0.001 A 
ATOM     65  C   UNL A   1      48.316  28.518  29.608  1.00  0.00     0.001 A 
ATOM     66  C   UNL A   1      48.687  27.850  30.776  1.00  0.00     0.000 A 
ENDBRANCH  47  61
BRANCH  48  67
ATOM     67  C   UNL A   1      36.883  32.586  29.537  1.00  0.00    -0.014 A 
ATOM     68  C   UNL A   1      36.535  33.197  28.323  1.00  0.00     0.009 A 
ATOM     69  C   UNL A   1      35.917  32.482  30.550  1.00  0.00     0.009 A 
ATOM     70  C   UNL A   1      35.248  33.702  28.130  1.00  0.00     0.001 A 
ATOM     71  C   UNL A   1      34.625  32.971  30.345  1.00  0.00     0.001 A 
ATOM     72  C   UNL A   1      34.292  33.584  29.138  1.00  0.00     0.000 A 
ENDBRANCH  48  67
BRANCH  60  73
ATOM     73  C   UNL A   1      42.806  35.168  32.137  1.00  0.00    -0.014 A 
ATOM     74  C   UNL A   1      42.515  35.444  33.480  1.00  0.00     0.009 A 
ATOM     75  C   UNL A   1      43.500  36.122  31.376  1.00  0.00     0.009 A 
ATOM     76  C   UNL A   1      42.897  36.660  34.047  1.00  0.00     0.001 A 
ATOM     77  C   UNL A   1      43.899  37.328  31.952  1.00  0.00     0.001 A 
ATOM     78  C   UNL A   1      43.595  37.598  33.285  1.00  0.00     0.000 A 
ENDBRANCH  60  73
ENDBRANCH  34  35
ENDBRANCH  26  29
ENDBRANCH  24  25
ENDBRANCH   1  24
TORSDOF 12
ENDMDL
MODEL 3
REMARK VINA RESULT:     -11.4      3.420      5.138
REMARK SMILES Cc1cc(C)c2c(c1)C=C(C(=O)NCCCCNC(=O)c1ccc(-c3c4nc(c(-c5ccccc5)c5ccc([nH]5)c(-c5ccccc5)c5nc(c(-c6ccccc6)c6ccc3[nH]6)C=C5)C=C4)cc1)[C@@H](C(F)(F)F)O2
REMARK SMILES IDX 16 1 15 2 14 3 13 4 11 5 12 6 10 8 1 9 2 10 3 11 8 12 4 13
REMARK SMILES IDX 7 14 5 15 6 16 9 17 74 18 69 19 70 20 71 21 72 22 73 23
REMARK SMILES IDX 17 24 18 25 19 26 20 28 21 29 22 30 68 31 23 32 67 33 24 34
REMARK SMILES IDX 25 35 26 36 61 37 27 38 66 39 60 40 62 41 28 42 65 43 59 44
REMARK SMILES IDX 58 45 29 47 51 48 36 49 50 50 37 51 40 52 49 53 63 54 38 55
REMARK SMILES IDX 39 56 48 58 64 59 41 60 30 61 31 62 35 63 32 64 34 65 33 66
REMARK SMILES IDX 52 67 53 68 57 69 54 70 56 71 55 72 42 73 43 74 47 75 44 76
REMARK SMILES IDX 46 77 45 78
REMARK H PARENT 13 7 18 27 62 46 40 57
REMARK Flexibility Score: inf
ROOT
ATOM      1  C   UNL A   1      31.560  31.966  26.780  1.00  0.00     0.023 C 
ENDROOT
BRANCH   1   2
ATOM      2  C   UNL A   1      31.819  30.459  26.743  1.00  0.00     0.023 C 
BRANCH   2   3
ATOM      3  C   UNL A   1      33.211  30.081  26.246  1.00  0.00     0.116 C 
BRANCH   3   4
ATOM      4  N   UNL A   1      33.205  29.713  24.841  1.00  0.00    -0.352 N 
ATOM      5  C   UNL A   1      32.963  28.595  24.117  1.00  0.00     0.251 C 
ATOM      6  O   UNL A   1      33.086  28.730  22.894  1.00  0.00    -0.270 OA
ATOM      7  H   UNL A   1      33.439  30.476  24.266  1.00  0.00     0.163 HD
BRANCH   5   8
ATOM      8  C   UNL A   1      32.575  27.267  24.679  1.00  0.00     0.067 C 
ATOM      9  C   UNL A   1      35.107  21.935  26.521  1.00  0.00     0.044 C 
ATOM     10  C   UNL A   1      34.019  22.950  26.333  1.00  0.00    -0.050 A 
ATOM     11  C   UNL A   1      32.694  22.639  26.664  1.00  0.00     0.010 A 
ATOM     12  C   UNL A   1      34.311  24.204  25.777  1.00  0.00     0.015 A 
ATOM     13  C   UNL A   1      31.666  23.572  26.473  1.00  0.00    -0.008 A 
ATOM     14  C   UNL A   1      33.296  25.143  25.575  1.00  0.00     0.018 A 
ATOM     15  C   UNL A   1      30.250  23.233  26.843  1.00  0.00     0.048 C 
ATOM     16  C   UNL A   1      31.982  24.820  25.921  1.00  0.00     0.130 A 
ATOM     17  C   UNL A   1      33.594  26.467  25.042  1.00  0.00     0.025 C 
ATOM     18  O   UNL A   1      30.960  25.718  25.781  1.00  0.00    -0.475 OA
ATOM     19  C   UNL A   1      31.160  26.781  24.814  1.00  0.00     0.314 C 
BRANCH  19  20
ATOM     20  C   UNL A   1      30.542  26.365  23.465  1.00  0.00     0.429 C 
ATOM     21  F   UNL A   1      29.903  27.417  22.894  1.00  0.00    -0.167 F 
ATOM     22  F   UNL A   1      31.475  25.957  22.573  1.00  0.00    -0.167 F 
ATOM     23  F   UNL A   1      29.645  25.361  23.584  1.00  0.00    -0.167 F 
ENDBRANCH  19  20
ENDBRANCH   5   8
ENDBRANCH   3   4
ENDBRANCH   2   3
ENDBRANCH   1   2
BRANCH   1  24
ATOM     24  C   UNL A   1      32.714  32.815  27.314  1.00  0.00     0.116 C 
BRANCH  24  25
ATOM     25  N   UNL A   1      32.330  34.172  27.677  1.00  0.00    -0.352 N 
ATOM     26  C   UNL A   1      32.941  35.007  28.581  1.00  0.00     0.251 C 
ATOM     27  H   UNL A   1      31.538  34.535  27.219  1.00  0.00     0.163 HD
ATOM     28  O   UNL A   1      32.472  36.107  28.845  1.00  0.00    -0.269 OA
BRANCH  26  29
ATOM     29  C   UNL A   1      34.154  34.529  29.267  1.00  0.00     0.039 A 
ATOM     30  C   UNL A   1      34.019  33.880  30.495  1.00  0.00     0.014 A 
ATOM     31  C   UNL A   1      35.403  34.647  28.648  1.00  0.00     0.014 A 
ATOM     32  C   UNL A   1      35.135  33.278  31.073  1.00  0.00     0.010 A 
ATOM     33  C   UNL A   1      36.499  33.994  29.196  1.00  0.00     0.010 A 
ATOM     34  C   UNL A   1      36.372  33.298  30.409  1.00  0.00    -0.014 A 
BRANCH  34  35
ATOM     35  C   UNL A   1      37.548  32.595  30.969  1.00  0.00     0.031 A 
ATOM     36  C   UNL A   1      38.166  33.072  32.250  1.00  0.00     0.074 A 
ATOM     37  C   UNL A   1      38.087  31.560  30.298  1.00  0.00     0.049 A 
ATOM     38  N   UNL A   1      39.215  32.611  32.880  1.00  0.00    -0.248 NA
ATOM     39  C   UNL A   1      37.533  34.234  32.897  1.00  0.00     0.031 C 
ATOM     40  C   UNL A   1      37.596  31.024  29.027  1.00  0.00     0.029 A 
ATOM     41  N   UNL A   1      39.168  30.770  30.598  1.00  0.00    -0.354 N 
ATOM     42  C   UNL A   1      39.372  33.429  33.990  1.00  0.00     0.074 A 
ATOM     43  C   UNL A   1      38.346  34.446  33.920  1.00  0.00     0.031 C 
ATOM     44  C   UNL A   1      38.348  29.966  28.678  1.00  0.00     0.029 A 
ATOM     45  C   UNL A   1      39.391  29.774  29.681  1.00  0.00     0.049 A 
ATOM     46  H   UNL A   1      39.730  30.905  31.395  1.00  0.00     0.167 HD
ATOM     47  C   UNL A   1      40.276  33.330  34.992  1.00  0.00     0.031 A 
ATOM     48  C   UNL A   1      40.328  28.806  29.655  1.00  0.00     0.031 A 
ATOM     49  C   UNL A   1      41.291  32.315  35.068  1.00  0.00     0.049 A 
ATOM     50  C   UNL A   1      41.336  28.729  30.765  1.00  0.00     0.074 A 
ATOM     51  C   UNL A   1      42.228  32.104  36.064  1.00  0.00     0.029 A 
ATOM     52  N   UNL A   1      41.498  31.339  34.106  1.00  0.00    -0.354 N 
ATOM     53  N   UNL A   1      41.446  29.485  31.831  1.00  0.00    -0.248 NA
ATOM     54  C   UNL A   1      42.344  27.665  30.670  1.00  0.00     0.031 C 
ATOM     55  C   UNL A   1      43.027  31.020  35.687  1.00  0.00     0.029 A 
ATOM     56  C   UNL A   1      42.561  30.532  34.476  1.00  0.00     0.049 A 
ATOM     57  H   UNL A   1      40.969  31.234  33.283  1.00  0.00     0.167 HD
ATOM     58  C   UNL A   1      42.526  28.979  32.542  1.00  0.00     0.074 A 
ATOM     59  C   UNL A   1      43.029  27.846  31.793  1.00  0.00     0.031 C 
ATOM     60  C   UNL A   1      43.052  29.416  33.712  1.00  0.00     0.031 A 
BRANCH  47  61
ATOM     61  C   UNL A   1      40.195  34.352  36.088  1.00  0.00    -0.014 A 
ATOM     62  C   UNL A   1      39.364  34.148  37.202  1.00  0.00     0.009 A 
ATOM     63  C   UNL A   1      40.958  35.526  36.012  1.00  0.00     0.009 A 
ATOM     64  C   UNL A   1      39.270  35.119  38.201  1.00  0.00     0.001 A 
ATOM     65  C   UNL A   1      40.882  36.484  37.025  1.00  0.00     0.001 A 
ATOM     66  C   UNL A   1      40.031  36.284  38.113  1.00  0.00     0.000 A 
ENDBRANCH  47  61
BRANCH  48  67
ATOM     67  C   UNL A   1      40.323  27.807  28.557  1.00  0.00    -0.014 A 
ATOM     68  C   UNL A   1      41.034  28.062  27.375  1.00  0.00     0.009 A 
ATOM     69  C   UNL A   1      39.640  26.590  28.695  1.00  0.00     0.009 A 
ATOM     70  C   UNL A   1      41.052  27.117  26.346  1.00  0.00     0.001 A 
ATOM     71  C   UNL A   1      39.677  25.640  27.671  1.00  0.00     0.001 A 
ATOM     72  C   UNL A   1      40.379  25.906  26.496  1.00  0.00     0.000 A 
ENDBRANCH  48  67
BRANCH  60  73
ATOM     73  C   UNL A   1      44.227  28.661  34.262  1.00  0.00    -0.014 A 
ATOM     74  C   UNL A   1      45.539  29.064  33.976  1.00  0.00     0.009 A 
ATOM     75  C   UNL A   1      44.015  27.583  35.134  1.00  0.00     0.009 A 
ATOM     76  C   UNL A   1      46.621  28.386  34.541  1.00  0.00     0.001 A 
ATOM     77  C   UNL A   1      45.098  26.921  35.714  1.00  0.00     0.001 A 
ATOM     78  C   UNL A   1      46.399  27.321  35.414  1.00  0.00     0.000 A 
ENDBRANCH  60  73
ENDBRANCH  34  35
ENDBRANCH  26  29
ENDBRANCH  24  25
ENDBRANCH   1  24
TORSDOF 12
ENDMDL
