MODEL 1
REMARK VINA RESULT:     -11.3      0.000      0.000
REMARK SMILES O=C(NCCCCNC(=O)C1CCN(S(=O)(=O)c2ccc3nc(O)sc3c2)CC1)c1ccc(-c2c3nc(c(-c4ccccc4)c4ccc([nH]4)c(-c4ccccc4)c4nc(c(-c5ccccc5)c5ccc2[nH]5)C=C4)C=C3)cc1
REMARK SMILES IDX 6 1 5 2 4 3 3 4 1 5 2 6 30 8 31 9 77 10 32 11 76 12 33 13
REMARK SMILES IDX 34 14 35 15 70 16 36 17 75 18 69 19 71 20 37 21 74 22 68 23
REMARK SMILES IDX 67 24 38 26 60 27 45 28 59 29 46 30 49 31 58 32 72 33 47 34
REMARK SMILES IDX 48 35 57 37 73 38 50 39 39 40 40 41 44 42 41 43 43 44 42 45
REMARK SMILES IDX 61 46 62 47 66 48 63 49 65 50 64 51 51 52 52 53 56 54 53 55
REMARK SMILES IDX 55 56 54 57 7 58 8 59 9 60 10 62 11 63 12 64 29 65 13 66
REMARK SMILES IDX 28 67 14 68 15 69 16 70 17 71 18 72 19 73 27 74 20 75 26 76
REMARK SMILES IDX 21 77 25 78 22 79 23 80 24 81
REMARK H PARENT 3 7 71 25 49 36 8 61 24 82
REMARK Flexibility Score: inf
ROOT
ATOM      1  C   UNL A   1      42.285  27.045  35.821  1.00  0.00     0.023 C 
ENDROOT
BRANCH   1   2
ATOM      2  C   UNL A   1      41.523  25.894  36.494  1.00  0.00     0.023 C 
BRANCH   2   3
ATOM      3  C   UNL A   1      41.715  24.516  35.847  1.00  0.00     0.116 C 
BRANCH   3   4
ATOM      4  N   UNL A   1      42.986  23.939  36.242  1.00  0.00    -0.352 N 
ATOM      5  O   UNL A   1      44.899  22.831  36.006  1.00  0.00    -0.269 OA
ATOM      6  C   UNL A   1      44.100  23.631  35.520  1.00  0.00     0.251 C 
ATOM      7  H   UNL A   1      43.056  23.733  37.203  1.00  0.00     0.163 HD
BRANCH   6   8
ATOM      8  C   UNL A   1      44.411  24.253  34.215  1.00  0.00     0.039 A 
ATOM      9  C   UNL A   1      44.921  25.556  34.245  1.00  0.00     0.014 A 
ATOM     10  C   UNL A   1      44.036  23.678  32.996  1.00  0.00     0.014 A 
ATOM     11  C   UNL A   1      45.034  26.293  33.071  1.00  0.00     0.010 A 
ATOM     12  C   UNL A   1      44.162  24.414  31.814  1.00  0.00     0.010 A 
ATOM     13  C   UNL A   1      44.648  25.726  31.851  1.00  0.00    -0.014 A 
BRANCH  13  14
ATOM     14  C   UNL A   1      44.847  26.552  30.648  1.00  0.00     0.031 A 
ATOM     15  C   UNL A   1      44.872  25.775  29.365  1.00  0.00     0.074 A 
ATOM     16  C   UNL A   1      44.406  27.830  30.630  1.00  0.00     0.049 A 
ATOM     17  N   UNL A   1      43.803  25.346  28.757  1.00  0.00    -0.248 NA
ATOM     18  C   UNL A   1      46.111  25.195  28.846  1.00  0.00     0.031 C 
ATOM     19  C   UNL A   1      43.133  28.275  31.215  1.00  0.00     0.029 A 
ATOM     20  N   UNL A   1      44.859  28.929  29.937  1.00  0.00    -0.354 N 
ATOM     21  C   UNL A   1      44.211  24.436  27.792  1.00  0.00     0.074 A 
ATOM     22  C   UNL A   1      45.651  24.369  27.893  1.00  0.00     0.031 C 
ATOM     23  C   UNL A   1      42.816  29.480  30.697  1.00  0.00     0.029 A 
ATOM     24  C   UNL A   1      43.909  29.945  29.848  1.00  0.00     0.049 A 
ATOM     25  H   UNL A   1      45.759  28.990  29.544  1.00  0.00     0.167 HD
ATOM     26  C   UNL A   1      43.343  23.806  26.952  1.00  0.00     0.031 A 
ATOM     27  C   UNL A   1      43.780  30.761  28.762  1.00  0.00     0.031 A 
ATOM     28  C   UNL A   1      41.970  24.183  27.100  1.00  0.00     0.049 A 
ATOM     29  C   UNL A   1      43.022  29.841  27.827  1.00  0.00     0.074 A 
ATOM     30  C   UNL A   1      40.825  23.689  27.683  1.00  0.00     0.029 A 
ATOM     31  N   UNL A   1      41.585  25.382  26.554  1.00  0.00    -0.354 N 
ATOM     32  N   UNL A   1      41.750  29.535  27.892  1.00  0.00    -0.248 NA
ATOM     33  C   UNL A   1      43.828  28.914  27.031  1.00  0.00     0.031 C 
ATOM     34  C   UNL A   1      39.973  24.825  27.858  1.00  0.00     0.029 A 
ATOM     35  C   UNL A   1      40.674  25.943  27.406  1.00  0.00     0.049 A 
ATOM     36  H   UNL A   1      41.905  25.766  25.706  1.00  0.00     0.167 HD
ATOM     37  C   UNL A   1      41.659  28.221  27.419  1.00  0.00     0.074 A 
ATOM     38  C   UNL A   1      42.974  27.912  26.893  1.00  0.00     0.031 C 
ATOM     39  C   UNL A   1      40.609  27.374  27.644  1.00  0.00     0.031 A 
BRANCH  26  40
ATOM     40  C   UNL A   1      43.731  22.945  25.809  1.00  0.00    -0.014 A 
ATOM     41  C   UNL A   1      44.335  23.444  24.651  1.00  0.00     0.009 A 
ATOM     42  C   UNL A   1      43.670  21.552  25.996  1.00  0.00     0.009 A 
ATOM     43  C   UNL A   1      44.888  22.558  23.715  1.00  0.00     0.001 A 
ATOM     44  C   UNL A   1      44.231  20.674  25.070  1.00  0.00     0.001 A 
ATOM     45  C   UNL A   1      44.846  21.179  23.931  1.00  0.00     0.000 A 
ENDBRANCH  26  40
BRANCH  27  46
ATOM     46  C   UNL A   1      45.044  31.494  28.410  1.00  0.00    -0.014 A 
ATOM     47  C   UNL A   1      46.066  31.860  29.295  1.00  0.00     0.009 A 
ATOM     48  C   UNL A   1      45.172  31.930  27.073  1.00  0.00     0.009 A 
ATOM     49  C   UNL A   1      47.061  32.772  28.915  1.00  0.00     0.001 A 
ATOM     50  C   UNL A   1      46.181  32.814  26.680  1.00  0.00     0.001 A 
ATOM     51  C   UNL A   1      47.101  33.271  27.616  1.00  0.00     0.000 A 
ENDBRANCH  27  46
BRANCH  39  52
ATOM     52  C   UNL A   1      39.406  27.914  28.348  1.00  0.00    -0.014 A 
ATOM     53  C   UNL A   1      38.514  28.772  27.676  1.00  0.00     0.009 A 
ATOM     54  C   UNL A   1      39.236  27.710  29.721  1.00  0.00     0.009 A 
ATOM     55  C   UNL A   1      37.540  29.480  28.378  1.00  0.00     0.001 A 
ATOM     56  C   UNL A   1      38.244  28.401  30.418  1.00  0.00     0.001 A 
ATOM     57  C   UNL A   1      37.414  29.304  29.753  1.00  0.00     0.000 A 
ENDBRANCH  39  52
ENDBRANCH  13  14
ENDBRANCH   6   8
ENDBRANCH   3   4
ENDBRANCH   2   3
ENDBRANCH   1   2
BRANCH   1  58
ATOM     58  C   UNL A   1      41.430  27.962  34.947  1.00  0.00     0.116 C 
BRANCH  58  59
ATOM     59  N   UNL A   1      40.809  29.027  35.718  1.00  0.00    -0.356 N 
ATOM     60  C   UNL A   1      39.886  29.956  35.324  1.00  0.00     0.223 C 
ATOM     61  H   UNL A   1      41.094  29.089  36.658  1.00  0.00     0.163 HD
ATOM     62  O   UNL A   1      39.443  30.740  36.163  1.00  0.00    -0.275 OA
BRANCH  60  63
ATOM     63  C   UNL A   1      39.457  30.003  33.859  1.00  0.00     0.081 C 
ATOM     64  C   UNL A   1      40.307  31.005  33.077  1.00  0.00     0.030 C 
ATOM     65  C   UNL A   1      37.962  30.302  33.685  1.00  0.00     0.030 C 
ATOM     66  C   UNL A   1      39.894  32.444  33.361  1.00  0.00     0.103 C 
ATOM     67  C   UNL A   1      37.589  31.780  33.800  1.00  0.00     0.103 C 
ATOM     68  N   UNL A   1      38.475  32.623  32.942  1.00  0.00    -0.198 NA
BRANCH  68  69
ATOM     69  S   UNL A   1      38.041  34.292  32.862  1.00  0.00     0.243 S 
ATOM     70  O   UNL A   1      37.795  34.761  34.205  1.00  0.00    -0.207 OA
ATOM     71  O   UNL A   1      39.013  34.953  32.011  1.00  0.00    -0.207 OA
BRANCH  69  72
ATOM     72  C   UNL A   1      36.487  34.321  31.983  1.00  0.00     0.084 A 
ATOM     73  C   UNL A   1      35.384  34.955  32.556  1.00  0.00     0.024 A 
ATOM     74  C   UNL A   1      36.436  33.826  30.670  1.00  0.00     0.043 A 
ATOM     75  C   UNL A   1      34.176  35.039  31.854  1.00  0.00     0.031 A 
ATOM     76  C   UNL A   1      35.229  33.965  29.962  1.00  0.00     0.059 A 
ATOM     77  C   UNL A   1      34.094  34.550  30.535  1.00  0.00     0.085 A 
ATOM     78  S   UNL A   1      34.858  33.516  28.337  1.00  0.00    -0.077 S 
ATOM     79  N   UNL A   1      32.977  34.611  29.718  1.00  0.00    -0.203 NA
ATOM     80  C   UNL A   1      33.282  34.108  28.552  1.00  0.00     0.271 A 
BRANCH  80  81
ATOM     81  O   UNL A   1      32.365  34.086  27.604  1.00  0.00    -0.486 OA
ATOM     82  H   UNL A   1      32.457  34.635  26.851  1.00  0.00     0.296 HD
ENDBRANCH  80  81
ENDBRANCH  69  72
ENDBRANCH  68  69
ENDBRANCH  60  63
ENDBRANCH  58  59
ENDBRANCH   1  58
TORSDOF 14
ENDMDL
MODEL 2
REMARK VINA RESULT:     -11.1      5.638     10.563
REMARK SMILES O=C(NCCCCNC(=O)C1CCN(S(=O)(=O)c2ccc3nc(O)sc3c2)CC1)c1ccc(-c2c3nc(c(-c4ccccc4)c4ccc([nH]4)c(-c4ccccc4)c4nc(c(-c5ccccc5)c5ccc2[nH]5)C=C4)C=C3)cc1
REMARK SMILES IDX 6 1 5 2 4 3 3 4 1 5 2 6 30 8 31 9 77 10 32 11 76 12 33 13
REMARK SMILES IDX 34 14 35 15 70 16 36 17 75 18 69 19 71 20 37 21 74 22 68 23
REMARK SMILES IDX 67 24 38 26 60 27 45 28 59 29 46 30 49 31 58 32 72 33 47 34
REMARK SMILES IDX 48 35 57 37 73 38 50 39 39 40 40 41 44 42 41 43 43 44 42 45
REMARK SMILES IDX 61 46 62 47 66 48 63 49 65 50 64 51 51 52 52 53 56 54 53 55
REMARK SMILES IDX 55 56 54 57 7 58 8 59 9 60 10 62 11 63 12 64 29 65 13 66
REMARK SMILES IDX 28 67 14 68 15 69 16 70 17 71 18 72 19 73 27 74 20 75 26 76
REMARK SMILES IDX 21 77 25 78 22 79 23 80 24 81
REMARK H PARENT 3 7 71 25 49 36 8 61 24 82
REMARK Flexibility Score: inf
ROOT
ATOM      1  C   UNL A   1      31.650  30.719  26.050  1.00  0.00     0.023 C 
ENDROOT
BRANCH   1   2
ATOM      2  C   UNL A   1      32.248  29.879  27.188  1.00  0.00     0.023 C 
BRANCH   2   3
ATOM      3  C   UNL A   1      33.667  30.275  27.617  1.00  0.00     0.116 C 
BRANCH   3   4
ATOM      4  N   UNL A   1      33.895  31.688  27.381  1.00  0.00    -0.352 N 
ATOM      5  O   UNL A   1      34.455  33.785  27.863  1.00  0.00    -0.269 OA
ATOM      6  C   UNL A   1      34.703  32.588  28.010  1.00  0.00     0.251 C 
ATOM      7  H   UNL A   1      33.373  32.064  26.635  1.00  0.00     0.163 HD
BRANCH   6   8
ATOM      8  C   UNL A   1      35.883  32.191  28.807  1.00  0.00     0.039 A 
ATOM      9  C   UNL A   1      36.823  31.369  28.173  1.00  0.00     0.014 A 
ATOM     10  C   UNL A   1      35.984  32.435  30.180  1.00  0.00     0.014 A 
ATOM     11  C   UNL A   1      37.842  30.773  28.906  1.00  0.00     0.010 A 
ATOM     12  C   UNL A   1      37.017  31.846  30.916  1.00  0.00     0.010 A 
ATOM     13  C   UNL A   1      37.939  31.004  30.283  1.00  0.00    -0.014 A 
BRANCH  13  14
ATOM     14  C   UNL A   1      39.076  30.378  30.979  1.00  0.00     0.031 A 
ATOM     15  C   UNL A   1      39.360  28.969  30.550  1.00  0.00     0.074 A 
ATOM     16  C   UNL A   1      40.097  31.146  31.422  1.00  0.00     0.049 A 
ATOM     17  N   UNL A   1      40.001  28.658  29.460  1.00  0.00    -0.248 NA
ATOM     18  C   UNL A   1      38.692  27.829  31.180  1.00  0.00     0.031 C 
ATOM     19  C   UNL A   1      40.659  32.284  30.681  1.00  0.00     0.029 A 
ATOM     20  N   UNL A   1      40.966  30.968  32.473  1.00  0.00    -0.354 N 
ATOM     21  C   UNL A   1      39.818  27.300  29.243  1.00  0.00     0.074 A 
ATOM     22  C   UNL A   1      38.991  26.832  30.332  1.00  0.00     0.031 C 
ATOM     23  C   UNL A   1      41.875  32.574  31.189  1.00  0.00     0.029 A 
ATOM     24  C   UNL A   1      42.125  31.733  32.356  1.00  0.00     0.049 A 
ATOM     25  H   UNL A   1      40.788  30.362  33.229  1.00  0.00     0.167 HD
ATOM     26  C   UNL A   1      40.374  26.634  28.193  1.00  0.00     0.031 A 
ATOM     27  C   UNL A   1      43.350  31.313  32.785  1.00  0.00     0.031 A 
ATOM     28  C   UNL A   1      41.208  27.428  27.342  1.00  0.00     0.049 A 
ATOM     29  C   UNL A   1      43.730  30.391  31.645  1.00  0.00     0.074 A 
ATOM     30  C   UNL A   1      41.128  28.061  26.122  1.00  0.00     0.029 A 
ATOM     31  N   UNL A   1      42.473  27.716  27.794  1.00  0.00    -0.354 N 
ATOM     32  N   UNL A   1      44.142  30.749  30.454  1.00  0.00    -0.248 NA
ATOM     33  C   UNL A   1      43.234  29.017  31.726  1.00  0.00     0.031 C 
ATOM     34  C   UNL A   1      42.152  29.060  26.150  1.00  0.00     0.029 A 
ATOM     35  C   UNL A   1      42.762  28.995  27.402  1.00  0.00     0.049 A 
ATOM     36  H   UNL A   1      43.062  27.114  28.303  1.00  0.00     0.167 HD
ATOM     37  C   UNL A   1      43.664  29.764  29.583  1.00  0.00     0.074 A 
ATOM     38  C   UNL A   1      43.129  28.723  30.439  1.00  0.00     0.031 C 
ATOM     39  C   UNL A   1      43.534  29.906  28.229  1.00  0.00     0.031 A 
BRANCH  26  40
ATOM     40  C   UNL A   1      40.339  25.166  27.995  1.00  0.00    -0.014 A 
ATOM     41  C   UNL A   1      39.335  24.520  27.268  1.00  0.00     0.009 A 
ATOM     42  C   UNL A   1      41.474  24.431  28.385  1.00  0.00     0.009 A 
ATOM     43  C   UNL A   1      39.484  23.169  26.919  1.00  0.00     0.001 A 
ATOM     44  C   UNL A   1      41.625  23.093  28.027  1.00  0.00     0.001 A 
ATOM     45  C   UNL A   1      40.631  22.464  27.287  1.00  0.00     0.000 A 
ENDBRANCH  26  40
BRANCH  27  46
ATOM     46  C   UNL A   1      43.380  30.938  34.241  1.00  0.00    -0.014 A 
ATOM     47  C   UNL A   1      43.319  29.640  34.765  1.00  0.00     0.009 A 
ATOM     48  C   UNL A   1      43.384  32.001  35.169  1.00  0.00     0.009 A 
ATOM     49  C   UNL A   1      43.080  29.421  36.129  1.00  0.00     0.001 A 
ATOM     50  C   UNL A   1      43.178  31.786  36.535  1.00  0.00     0.001 A 
ATOM     51  C   UNL A   1      42.981  30.496  37.009  1.00  0.00     0.000 A 
ENDBRANCH  27  46
BRANCH  39  52
ATOM     52  C   UNL A   1      44.047  31.161  27.599  1.00  0.00    -0.014 A 
ATOM     53  C   UNL A   1      45.210  31.134  26.805  1.00  0.00     0.009 A 
ATOM     54  C   UNL A   1      43.480  32.398  27.918  1.00  0.00     0.009 A 
ATOM     55  C   UNL A   1      45.841  32.317  26.424  1.00  0.00     0.001 A 
ATOM     56  C   UNL A   1      44.099  33.582  27.515  1.00  0.00     0.001 A 
ATOM     57  C   UNL A   1      45.291  33.542  26.791  1.00  0.00     0.000 A 
ENDBRANCH  39  52
ENDBRANCH  13  14
ENDBRANCH   6   8
ENDBRANCH   3   4
ENDBRANCH   2   3
ENDBRANCH   1   2
BRANCH   1  58
ATOM     58  C   UNL A   1      31.360  29.950  24.762  1.00  0.00     0.116 C 
BRANCH  58  59
ATOM     59  N   UNL A   1      32.578  29.498  24.110  1.00  0.00    -0.356 N 
ATOM     60  C   UNL A   1      33.037  28.223  23.919  1.00  0.00     0.223 C 
ATOM     61  H   UNL A   1      33.156  30.212  23.756  1.00  0.00     0.163 HD
ATOM     62  O   UNL A   1      34.076  28.060  23.282  1.00  0.00    -0.275 OA
BRANCH  60  63
ATOM     63  C   UNL A   1      32.259  27.055  24.522  1.00  0.00     0.081 C 
ATOM     64  C   UNL A   1      32.969  26.514  25.763  1.00  0.00     0.030 C 
ATOM     65  C   UNL A   1      31.993  25.933  23.510  1.00  0.00     0.030 C 
ATOM     66  C   UNL A   1      34.181  25.665  25.398  1.00  0.00     0.103 C 
ATOM     67  C   UNL A   1      33.169  24.982  23.287  1.00  0.00     0.103 C 
ATOM     68  N   UNL A   1      33.721  24.500  24.589  1.00  0.00    -0.198 NA
BRANCH  68  69
ATOM     69  S   UNL A   1      34.946  23.291  24.460  1.00  0.00     0.243 S 
ATOM     70  O   UNL A   1      35.454  23.302  23.108  1.00  0.00    -0.207 OA
ATOM     71  O   UNL A   1      35.841  23.458  25.591  1.00  0.00    -0.207 OA
BRANCH  69  72
ATOM     72  C   UNL A   1      34.092  21.743  24.708  1.00  0.00     0.084 A 
ATOM     73  C   UNL A   1      32.712  21.743  24.909  1.00  0.00     0.024 A 
ATOM     74  C   UNL A   1      34.802  20.541  24.561  1.00  0.00     0.043 A 
ATOM     75  C   UNL A   1      32.019  20.535  25.046  1.00  0.00     0.031 A 
ATOM     76  C   UNL A   1      34.080  19.337  24.650  1.00  0.00     0.059 A 
ATOM     77  C   UNL A   1      32.704  19.312  24.904  1.00  0.00     0.085 A 
ATOM     78  S   UNL A   1      34.637  17.713  24.466  1.00  0.00    -0.077 S 
ATOM     79  N   UNL A   1      32.132  18.052  24.971  1.00  0.00    -0.203 NA
ATOM     80  C   UNL A   1      33.057  17.159  24.744  1.00  0.00     0.271 A 
BRANCH  80  81
ATOM     81  O   UNL A   1      32.727  15.882  24.738  1.00  0.00    -0.486 OA
ATOM     82  H   UNL A   1      33.328  15.242  25.065  1.00  0.00     0.296 HD
ENDBRANCH  80  81
ENDBRANCH  69  72
ENDBRANCH  68  69
ENDBRANCH  60  63
ENDBRANCH  58  59
ENDBRANCH   1  58
TORSDOF 14
ENDMDL
MODEL 3
REMARK VINA RESULT:     -11.0      4.987      9.138
REMARK SMILES O=C(NCCCCNC(=O)C1CCN(S(=O)(=O)c2ccc3nc(O)sc3c2)CC1)c1ccc(-c2c3nc(c(-c4ccccc4)c4ccc([nH]4)c(-c4ccccc4)c4nc(c(-c5ccccc5)c5ccc2[nH]5)C=C4)C=C3)cc1
REMARK SMILES IDX 6 1 5 2 4 3 3 4 1 5 2 6 30 8 31 9 77 10 32 11 76 12 33 13
REMARK SMILES IDX 34 14 35 15 70 16 36 17 75 18 69 19 71 20 37 21 74 22 68 23
REMARK SMILES IDX 67 24 38 26 60 27 45 28 59 29 46 30 49 31 58 32 72 33 47 34
REMARK SMILES IDX 48 35 57 37 73 38 50 39 39 40 40 41 44 42 41 43 43 44 42 45
REMARK SMILES IDX 61 46 62 47 66 48 63 49 65 50 64 51 51 52 52 53 56 54 53 55
REMARK SMILES IDX 55 56 54 57 7 58 8 59 9 60 10 62 11 63 12 64 29 65 13 66
REMARK SMILES IDX 28 67 14 68 15 69 16 70 17 71 18 72 19 73 27 74 20 75 26 76
REMARK SMILES IDX 21 77 25 78 22 79 23 80 24 81
REMARK H PARENT 3 7 71 25 49 36 8 61 24 82
REMARK Flexibility Score: inf
ROOT
ATOM      1  C   UNL A   1      36.505  20.168  25.020  1.00  0.00     0.023 C 
ENDROOT
BRANCH   1   2
ATOM      2  C   UNL A   1      37.800  20.900  24.636  1.00  0.00     0.023 C 
BRANCH   2   3
ATOM      3  C   UNL A   1      38.461  21.698  25.768  1.00  0.00     0.116 C 
BRANCH   3   4
ATOM      4  N   UNL A   1      39.725  21.095  26.146  1.00  0.00    -0.352 N 
ATOM      5  O   UNL A   1      41.932  20.886  26.307  1.00  0.00    -0.269 OA
ATOM      6  C   UNL A   1      40.959  21.638  26.347  1.00  0.00     0.251 C 
ATOM      7  H   UNL A   1      39.684  20.120  26.282  1.00  0.00     0.163 HD
BRANCH   6   8
ATOM      8  C   UNL A   1      41.167  23.068  26.659  1.00  0.00     0.039 A 
ATOM      9  C   UNL A   1      42.119  23.747  25.889  1.00  0.00     0.014 A 
ATOM     10  C   UNL A   1      40.612  23.684  27.785  1.00  0.00     0.014 A 
ATOM     11  C   UNL A   1      42.535  25.023  26.252  1.00  0.00     0.010 A 
ATOM     12  C   UNL A   1      41.021  24.972  28.143  1.00  0.00     0.010 A 
ATOM     13  C   UNL A   1      41.992  25.638  27.386  1.00  0.00    -0.014 A 
BRANCH  13  14
ATOM     14  C   UNL A   1      42.447  27.010  27.674  1.00  0.00     0.031 A 
ATOM     15  C   UNL A   1      41.341  28.020  27.752  1.00  0.00     0.074 A 
ATOM     16  C   UNL A   1      43.566  27.206  28.407  1.00  0.00     0.049 A 
ATOM     17  N   UNL A   1      40.574  28.177  28.793  1.00  0.00    -0.248 NA
ATOM     18  C   UNL A   1      40.858  28.718  26.560  1.00  0.00     0.031 C 
ATOM     19  C   UNL A   1      43.937  26.405  29.582  1.00  0.00     0.029 A 
ATOM     20  N   UNL A   1      44.472  28.241  28.406  1.00  0.00    -0.354 N 
ATOM     21  C   UNL A   1      39.504  28.971  28.405  1.00  0.00     0.074 A 
ATOM     22  C   UNL A   1      39.720  29.273  27.008  1.00  0.00     0.031 C 
ATOM     23  C   UNL A   1      44.862  27.083  30.294  1.00  0.00     0.029 A 
ATOM     24  C   UNL A   1      45.236  28.295  29.570  1.00  0.00     0.049 A 
ATOM     25  H   UNL A   1      44.568  28.878  27.662  1.00  0.00     0.167 HD
ATOM     26  C   UNL A   1      38.514  29.351  29.259  1.00  0.00     0.031 A 
ATOM     27  C   UNL A   1      45.659  29.461  30.138  1.00  0.00     0.031 A 
ATOM     28  C   UNL A   1      38.675  28.911  30.612  1.00  0.00     0.049 A 
ATOM     29  C   UNL A   1      44.388  29.892  30.841  1.00  0.00     0.074 A 
ATOM     30  C   UNL A   1      38.185  27.925  31.438  1.00  0.00     0.029 A 
ATOM     31  N   UNL A   1      39.574  29.595  31.393  1.00  0.00    -0.354 N 
ATOM     32  N   UNL A   1      43.899  29.395  31.950  1.00  0.00    -0.248 NA
ATOM     33  C   UNL A   1      43.421  30.639  30.035  1.00  0.00     0.031 C 
ATOM     34  C   UNL A   1      39.158  27.791  32.480  1.00  0.00     0.029 A 
ATOM     35  C   UNL A   1      40.196  28.678  32.196  1.00  0.00     0.049 A 
ATOM     36  H   UNL A   1      39.739  30.565  31.378  1.00  0.00     0.167 HD
ATOM     37  C   UNL A   1      42.510  29.493  31.821  1.00  0.00     0.074 A 
ATOM     38  C   UNL A   1      42.290  30.283  30.626  1.00  0.00     0.031 C 
ATOM     39  C   UNL A   1      41.599  28.781  32.552  1.00  0.00     0.031 A 
BRANCH  26  40
ATOM     40  C   UNL A   1      37.435  30.316  28.943  1.00  0.00    -0.014 A 
ATOM     41  C   UNL A   1      37.603  31.702  29.027  1.00  0.00     0.009 A 
ATOM     42  C   UNL A   1      36.268  29.811  28.341  1.00  0.00     0.009 A 
ATOM     43  C   UNL A   1      36.629  32.558  28.493  1.00  0.00     0.001 A 
ATOM     44  C   UNL A   1      35.307  30.663  27.800  1.00  0.00     0.001 A 
ATOM     45  C   UNL A   1      35.492  32.038  27.871  1.00  0.00     0.000 A 
ENDBRANCH  26  40
BRANCH  27  46
ATOM     46  C   UNL A   1      46.463  30.325  29.207  1.00  0.00    -0.014 A 
ATOM     47  C   UNL A   1      46.084  31.576  28.701  1.00  0.00     0.009 A 
ATOM     48  C   UNL A   1      47.677  29.786  28.731  1.00  0.00     0.009 A 
ATOM     49  C   UNL A   1      46.779  32.166  27.636  1.00  0.00     0.001 A 
ATOM     50  C   UNL A   1      48.391  30.386  27.690  1.00  0.00     0.001 A 
ATOM     51  C   UNL A   1      47.916  31.556  27.112  1.00  0.00     0.000 A 
ENDBRANCH  27  46
BRANCH  39  52
ATOM     52  C   UNL A   1      42.106  27.913  33.659  1.00  0.00    -0.014 A 
ATOM     53  C   UNL A   1      41.918  28.290  35.002  1.00  0.00     0.009 A 
ATOM     54  C   UNL A   1      42.914  26.806  33.378  1.00  0.00     0.009 A 
ATOM     55  C   UNL A   1      42.596  27.635  36.029  1.00  0.00     0.001 A 
ATOM     56  C   UNL A   1      43.573  26.136  34.410  1.00  0.00     0.001 A 
ATOM     57  C   UNL A   1      43.435  26.565  35.730  1.00  0.00     0.000 A 
ENDBRANCH  39  52
ENDBRANCH  13  14
ENDBRANCH   6   8
ENDBRANCH   3   4
ENDBRANCH   2   3
ENDBRANCH   1   2
BRANCH   1  58
ATOM     58  C   UNL A   1      35.438  21.044  25.674  1.00  0.00     0.116 C 
BRANCH  58  59
ATOM     59  N   UNL A   1      34.177  21.001  24.950  1.00  0.00    -0.356 N 
ATOM     60  C   UNL A   1      33.710  21.837  23.974  1.00  0.00     0.223 C 
ATOM     61  H   UNL A   1      33.573  20.264  25.199  1.00  0.00     0.163 HD
ATOM     62  O   UNL A   1      32.628  21.581  23.447  1.00  0.00    -0.275 OA
BRANCH  60  63
ATOM     63  C   UNL A   1      34.532  23.066  23.592  1.00  0.00     0.081 C 
ATOM     64  C   UNL A   1      35.156  23.708  24.831  1.00  0.00     0.030 C 
ATOM     65  C   UNL A   1      33.726  24.096  22.789  1.00  0.00     0.030 C 
ATOM     66  C   UNL A   1      34.133  24.503  25.634  1.00  0.00     0.103 C 
ATOM     67  C   UNL A   1      32.833  25.006  23.633  1.00  0.00     0.103 C 
ATOM     68  N   UNL A   1      33.597  25.595  24.773  1.00  0.00    -0.198 NA
BRANCH  68  69
ATOM     69  S   UNL A   1      32.735  26.770  25.699  1.00  0.00     0.243 S 
ATOM     70  O   UNL A   1      31.717  26.088  26.461  1.00  0.00    -0.207 OA
ATOM     71  O   UNL A   1      33.719  27.610  26.358  1.00  0.00    -0.207 OA
BRANCH  69  72
ATOM     72  C   UNL A   1      31.915  27.797  24.490  1.00  0.00     0.084 A 
ATOM     73  C   UNL A   1      32.674  28.482  23.541  1.00  0.00     0.024 A 
ATOM     74  C   UNL A   1      30.513  27.791  24.428  1.00  0.00     0.043 A 
ATOM     75  C   UNL A   1      32.043  29.242  22.550  1.00  0.00     0.031 A 
ATOM     76  C   UNL A   1      29.898  28.519  23.394  1.00  0.00     0.059 A 
ATOM     77  C   UNL A   1      30.637  29.257  22.462  1.00  0.00     0.085 A 
ATOM     78  S   UNL A   1      28.221  28.672  23.013  1.00  0.00    -0.077 S 
ATOM     79  N   UNL A   1      29.893  29.929  21.506  1.00  0.00    -0.203 NA
ATOM     80  C   UNL A   1      28.628  29.675  21.706  1.00  0.00     0.271 A 
BRANCH  80  81
ATOM     81  O   UNL A   1      27.733  30.199  20.891  1.00  0.00    -0.486 OA
ATOM     82  H   UNL A   1      28.006  30.777  20.205  1.00  0.00     0.296 HD
ENDBRANCH  80  81
ENDBRANCH  69  72
ENDBRANCH  68  69
ENDBRANCH  60  63
ENDBRANCH  58  59
ENDBRANCH   1  58
TORSDOF 14
ENDMDL
