MODEL 1
REMARK VINA RESULT:     -11.3      0.000      0.000
REMARK SMILES CC(=O)c1cc2c(cc1NC(=O)/C=C/C(=O)NCCCCNC(=O)c1ccc(-c3c4nc(c(-c5ccccc5)c5ccc([nH]5)c(-c5ccccc5)c5nc(c(-c6ccccc6)c6ccc3[nH]6)C=C5)C=C4)cc1)OCO2
REMARK SMILES IDX 19 1 18 2 17 3 15 4 16 5 14 7 13 8 11 9 10 10 12 12 9 13
REMARK SMILES IDX 4 14 5 15 6 16 8 17 7 18 75 19 73 20 74 21 2 22 1 23 3 24
REMARK SMILES IDX 20 25 21 26 22 27 23 28 24 30 25 31 26 32 72 33 27 34 71 35
REMARK SMILES IDX 28 36 29 37 30 38 65 39 31 40 70 41 64 42 66 43 32 44 69 45
REMARK SMILES IDX 63 46 62 47 33 49 55 50 40 51 54 52 41 53 44 54 53 55 67 56
REMARK SMILES IDX 42 57 43 58 52 60 68 61 45 62 34 63 35 64 39 65 36 66 38 67
REMARK SMILES IDX 37 68 56 69 57 70 61 71 58 72 60 73 59 74 46 75 47 76 51 77
REMARK SMILES IDX 48 78 50 79 49 80
REMARK H PARENT 17 6 10 11 22 29 66 48 44 59
REMARK Flexibility Score: inf
ROOT
ATOM      1  C   UNL A   1      31.663  30.799  25.890  1.00  0.00     0.023 C 
ENDROOT
BRANCH   1   2
ATOM      2  C   UNL A   1      31.686  29.575  26.800  1.00  0.00     0.116 C 
BRANCH   2   3
ATOM      3  N   UNL A   1      32.904  29.522  27.582  1.00  0.00    -0.353 N 
ATOM      4  C   UNL A   1      34.096  28.955  27.268  1.00  0.00     0.244 C 
ATOM      5  O   UNL A   1      35.083  29.162  27.968  1.00  0.00    -0.270 OA
ATOM      6  H   UNL A   1      32.862  29.960  28.463  1.00  0.00     0.163 HD
BRANCH   4   7
ATOM      7  C   UNL A   1      34.215  28.090  26.078  1.00  0.00     0.077 C 
ATOM      8  C   UNL A   1      33.664  26.868  26.065  1.00  0.00     0.077 C 
BRANCH   8   9
ATOM      9  C   UNL A   1      33.995  25.918  24.995  1.00  0.00     0.248 C 
ATOM     10  N   UNL A   1      33.203  25.837  23.884  1.00  0.00    -0.322 N 
ATOM     11  H   UNL A   1      33.508  25.170  23.228  1.00  0.00     0.170 HD
ATOM     12  O   UNL A   1      34.993  25.212  25.123  1.00  0.00    -0.270 OA
BRANCH  10  13
ATOM     13  C   UNL A   1      32.027  26.528  23.493  1.00  0.00     0.056 A 
ATOM     14  C   UNL A   1      30.772  26.069  23.971  1.00  0.00     0.045 A 
ATOM     15  C   UNL A   1      29.615  26.859  23.882  1.00  0.00     0.064 A 
ATOM     16  C   UNL A   1      29.731  28.076  23.250  1.00  0.00     0.166 A 
ATOM     17  C   UNL A   1      32.037  27.675  22.697  1.00  0.00     0.077 A 
ATOM     18  C   UNL A   1      30.898  28.446  22.635  1.00  0.00     0.167 A 
ATOM     19  O   UNL A   1      28.763  29.019  23.122  1.00  0.00    -0.454 OA
ATOM     20  O   UNL A   1      30.798  29.648  22.008  1.00  0.00    -0.454 OA
ATOM     21  C   UNL A   1      29.507  30.079  22.479  1.00  0.00     0.468 C 
BRANCH  14  22
ATOM     22  C   UNL A   1      30.652  24.695  24.510  1.00  0.00     0.162 C 
ATOM     23  C   UNL A   1      30.654  23.576  23.501  1.00  0.00     0.093 C 
ATOM     24  O   UNL A   1      30.685  24.505  25.721  1.00  0.00    -0.294 OA
ENDBRANCH  14  22
ENDBRANCH  10  13
ENDBRANCH   8   9
ENDBRANCH   4   7
ENDBRANCH   2   3
ENDBRANCH   1   2
BRANCH   1  25
ATOM     25  C   UNL A   1      31.366  32.118  26.610  1.00  0.00     0.023 C 
BRANCH  25  26
ATOM     26  C   UNL A   1      32.592  32.836  27.164  1.00  0.00     0.116 C 
BRANCH  26  27
ATOM     27  N   UNL A   1      32.302  34.181  27.634  1.00  0.00    -0.352 N 
ATOM     28  C   UNL A   1      32.967  34.926  28.572  1.00  0.00     0.251 C 
ATOM     29  H   UNL A   1      31.522  34.618  27.220  1.00  0.00     0.163 HD
ATOM     30  O   UNL A   1      32.527  36.016  28.926  1.00  0.00    -0.269 OA
BRANCH  28  31
ATOM     31  C   UNL A   1      34.193  34.387  29.186  1.00  0.00     0.039 A 
ATOM     32  C   UNL A   1      34.073  33.621  30.347  1.00  0.00     0.014 A 
ATOM     33  C   UNL A   1      35.447  34.618  28.613  1.00  0.00     0.014 A 
ATOM     34  C   UNL A   1      35.210  33.044  30.907  1.00  0.00     0.010 A 
ATOM     35  C   UNL A   1      36.568  33.975  29.125  1.00  0.00     0.010 A 
ATOM     36  C   UNL A   1      36.462  33.195  30.285  1.00  0.00    -0.014 A 
BRANCH  36  37
ATOM     37  C   UNL A   1      37.662  32.538  30.854  1.00  0.00     0.031 A 
ATOM     38  C   UNL A   1      38.260  33.032  32.140  1.00  0.00     0.074 A 
ATOM     39  C   UNL A   1      38.221  31.504  30.197  1.00  0.00     0.049 A 
ATOM     40  N   UNL A   1      39.268  32.545  32.818  1.00  0.00    -0.248 NA
ATOM     41  C   UNL A   1      37.667  34.243  32.729  1.00  0.00     0.031 C 
ATOM     42  C   UNL A   1      37.769  30.977  28.907  1.00  0.00     0.029 A 
ATOM     43  N   UNL A   1      39.285  30.707  30.529  1.00  0.00    -0.354 N 
ATOM     44  C   UNL A   1      39.429  33.390  33.909  1.00  0.00     0.074 A 
ATOM     45  C   UNL A   1      38.464  34.457  33.764  1.00  0.00     0.031 C 
ATOM     46  C   UNL A   1      38.523  29.916  28.580  1.00  0.00     0.029 A 
ATOM     47  C   UNL A   1      39.527  29.707  29.618  1.00  0.00     0.049 A 
ATOM     48  H   UNL A   1      39.825  30.838  31.342  1.00  0.00     0.167 HD
ATOM     49  C   UNL A   1      40.282  33.272  34.954  1.00  0.00     0.031 A 
ATOM     50  C   UNL A   1      40.446  28.725  29.625  1.00  0.00     0.031 A 
ATOM     51  C   UNL A   1      41.244  32.212  35.090  1.00  0.00     0.049 A 
ATOM     52  C   UNL A   1      41.380  28.607  30.797  1.00  0.00     0.074 A 
ATOM     53  C   UNL A   1      42.127  31.974  36.129  1.00  0.00     0.029 A 
ATOM     54  N   UNL A   1      41.453  31.213  34.150  1.00  0.00    -0.354 N 
ATOM     55  N   UNL A   1      41.464  29.364  31.864  1.00  0.00    -0.248 NA
ATOM     56  C   UNL A   1      42.328  27.486  30.774  1.00  0.00     0.031 C 
ATOM     57  C   UNL A   1      42.905  30.862  35.793  1.00  0.00     0.029 A 
ATOM     58  C   UNL A   1      42.465  30.370  34.574  1.00  0.00     0.049 A 
ATOM     59  H   UNL A   1      40.956  31.120  33.305  1.00  0.00     0.167 HD
ATOM     60  C   UNL A   1      42.456  28.798  32.653  1.00  0.00     0.074 A 
ATOM     61  C   UNL A   1      42.930  27.624  31.948  1.00  0.00     0.031 C 
ATOM     62  C   UNL A   1      42.930  29.210  33.855  1.00  0.00     0.031 A 
BRANCH  49  63
ATOM     63  C   UNL A   1      40.205  34.326  36.024  1.00  0.00    -0.014 A 
ATOM     64  C   UNL A   1      40.970  35.502  35.943  1.00  0.00     0.009 A 
ATOM     65  C   UNL A   1      39.355  34.147  37.127  1.00  0.00     0.009 A 
ATOM     66  C   UNL A   1      40.923  36.452  36.967  1.00  0.00     0.001 A 
ATOM     67  C   UNL A   1      39.285  35.115  38.132  1.00  0.00     0.001 A 
ATOM     68  C   UNL A   1      40.078  36.259  38.057  1.00  0.00     0.000 A 
ENDBRANCH  49  63
BRANCH  50  69
ATOM     69  C   UNL A   1      40.497  27.758  28.499  1.00  0.00    -0.014 A 
ATOM     70  C   UNL A   1      41.268  28.025  27.357  1.00  0.00     0.009 A 
ATOM     71  C   UNL A   1      39.793  26.544  28.573  1.00  0.00     0.009 A 
ATOM     72  C   UNL A   1      41.316  27.107  26.305  1.00  0.00     0.001 A 
ATOM     73  C   UNL A   1      39.867  25.616  27.532  1.00  0.00     0.001 A 
ATOM     74  C   UNL A   1      40.622  25.902  26.395  1.00  0.00     0.000 A 
ENDBRANCH  50  69
BRANCH  62  75
ATOM     75  C   UNL A   1      43.997  28.368  34.497  1.00  0.00    -0.014 A 
ATOM     76  C   UNL A   1      45.359  28.613  34.269  1.00  0.00     0.009 A 
ATOM     77  C   UNL A   1      43.628  27.338  35.376  1.00  0.00     0.009 A 
ATOM     78  C   UNL A   1      46.331  27.819  34.882  1.00  0.00     0.001 A 
ATOM     79  C   UNL A   1      44.602  26.566  36.012  1.00  0.00     0.001 A 
ATOM     80  C   UNL A   1      45.951  26.800  35.756  1.00  0.00     0.000 A 
ENDBRANCH  62  75
ENDBRANCH  36  37
ENDBRANCH  28  31
ENDBRANCH  26  27
ENDBRANCH  25  26
ENDBRANCH   1  25
TORSDOF 14
ENDMDL
MODEL 2
REMARK VINA RESULT:     -11.2      5.085      9.903
REMARK SMILES CC(=O)c1cc2c(cc1NC(=O)/C=C/C(=O)NCCCCNC(=O)c1ccc(-c3c4nc(c(-c5ccccc5)c5ccc([nH]5)c(-c5ccccc5)c5nc(c(-c6ccccc6)c6ccc3[nH]6)C=C5)C=C4)cc1)OCO2
REMARK SMILES IDX 19 1 18 2 17 3 15 4 16 5 14 7 13 8 11 9 10 10 12 12 9 13
REMARK SMILES IDX 4 14 5 15 6 16 8 17 7 18 75 19 73 20 74 21 2 22 1 23 3 24
REMARK SMILES IDX 20 25 21 26 22 27 23 28 24 30 25 31 26 32 72 33 27 34 71 35
REMARK SMILES IDX 28 36 29 37 30 38 65 39 31 40 70 41 64 42 66 43 32 44 69 45
REMARK SMILES IDX 63 46 62 47 33 49 55 50 40 51 54 52 41 53 44 54 53 55 67 56
REMARK SMILES IDX 42 57 43 58 52 60 68 61 45 62 34 63 35 64 39 65 36 66 38 67
REMARK SMILES IDX 37 68 56 69 57 70 61 71 58 72 60 73 59 74 46 75 47 76 51 77
REMARK SMILES IDX 48 78 50 79 49 80
REMARK H PARENT 17 6 10 11 22 29 66 48 44 59
REMARK Flexibility Score: inf
ROOT
ATOM      1  C   UNL A   1      39.256  22.552  26.522  1.00  0.00     0.023 C 
ENDROOT
BRANCH   1   2
ATOM      2  C   UNL A   1      38.300  23.628  26.016  1.00  0.00     0.116 C 
BRANCH   2   3
ATOM      3  N   UNL A   1      37.701  23.247  24.753  1.00  0.00    -0.353 N 
ATOM      4  C   UNL A   1      36.389  23.077  24.447  1.00  0.00     0.244 C 
ATOM      5  O   UNL A   1      36.041  22.933  23.278  1.00  0.00    -0.270 OA
ATOM      6  H   UNL A   1      38.332  23.092  24.014  1.00  0.00     0.163 HD
BRANCH   4   7
ATOM      7  C   UNL A   1      35.373  23.070  25.516  1.00  0.00     0.077 C 
ATOM      8  C   UNL A   1      35.146  21.961  26.235  1.00  0.00     0.077 C 
BRANCH   8   9
ATOM      9  C   UNL A   1      33.973  21.877  27.115  1.00  0.00     0.248 C 
ATOM     10  N   UNL A   1      32.959  21.008  26.821  1.00  0.00    -0.322 N 
ATOM     11  H   UNL A   1      32.220  21.029  27.470  1.00  0.00     0.170 HD
ATOM     12  O   UNL A   1      33.933  22.595  28.112  1.00  0.00    -0.270 OA
BRANCH  10  13
ATOM     13  C   UNL A   1      32.766  20.084  25.763  1.00  0.00     0.056 A 
ATOM     14  C   UNL A   1      32.434  20.577  24.474  1.00  0.00     0.045 A 
ATOM     15  C   UNL A   1      32.524  19.768  23.329  1.00  0.00     0.064 A 
ATOM     16  C   UNL A   1      32.885  18.454  23.514  1.00  0.00     0.166 A 
ATOM     17  C   UNL A   1      32.934  18.704  25.905  1.00  0.00     0.077 A 
ATOM     18  C   UNL A   1      33.037  17.930  24.771  1.00  0.00     0.167 A 
ATOM     19  O   UNL A   1      33.102  17.528  22.544  1.00  0.00    -0.454 OA
ATOM     20  O   UNL A   1      33.326  16.603  24.752  1.00  0.00    -0.454 OA
ATOM     21  C   UNL A   1      33.545  16.406  23.342  1.00  0.00     0.468 C 
BRANCH  14  22
ATOM     22  C   UNL A   1      31.906  21.953  24.331  1.00  0.00     0.162 C 
ATOM     23  C   UNL A   1      32.316  22.703  23.090  1.00  0.00     0.093 C 
ATOM     24  O   UNL A   1      31.078  22.378  25.128  1.00  0.00    -0.294 OA
ENDBRANCH  14  22
ENDBRANCH  10  13
ENDBRANCH   8   9
ENDBRANCH   4   7
ENDBRANCH   2   3
ENDBRANCH   1   2
BRANCH   1  25
ATOM     25  C   UNL A   1      39.214  21.243  25.729  1.00  0.00     0.023 C 
BRANCH  25  26
ATOM     26  C   UNL A   1      39.700  20.015  26.492  1.00  0.00     0.116 C 
BRANCH  26  27
ATOM     27  N   UNL A   1      40.863  19.388  25.883  1.00  0.00    -0.352 N 
ATOM     28  C   UNL A   1      42.143  19.866  25.782  1.00  0.00     0.251 C 
ATOM     29  H   UNL A   1      40.710  18.498  25.491  1.00  0.00     0.163 HD
ATOM     30  O   UNL A   1      42.989  19.247  25.144  1.00  0.00    -0.269 OA
BRANCH  28  31
ATOM     31  C   UNL A   1      42.485  21.154  26.410  1.00  0.00     0.039 A 
ATOM     32  C   UNL A   1      42.792  22.236  25.583  1.00  0.00     0.014 A 
ATOM     33  C   UNL A   1      42.484  21.300  27.801  1.00  0.00     0.014 A 
ATOM     34  C   UNL A   1      43.052  23.480  26.152  1.00  0.00     0.010 A 
ATOM     35  C   UNL A   1      42.662  22.560  28.362  1.00  0.00     0.010 A 
ATOM     36  C   UNL A   1      42.962  23.657  27.544  1.00  0.00    -0.014 A 
BRANCH  36  37
ATOM     37  C   UNL A   1      43.189  24.994  28.142  1.00  0.00     0.031 A 
ATOM     38  C   UNL A   1      44.573  25.428  28.527  1.00  0.00     0.074 A 
ATOM     39  C   UNL A   1      42.137  25.807  28.355  1.00  0.00     0.049 A 
ATOM     40  N   UNL A   1      44.971  26.580  29.004  1.00  0.00    -0.248 NA
ATOM     41  C   UNL A   1      45.650  24.435  28.381  1.00  0.00     0.031 C 
ATOM     42  C   UNL A   1      40.738  25.470  28.083  1.00  0.00     0.029 A 
ATOM     43  N   UNL A   1      42.084  27.088  28.839  1.00  0.00    -0.354 N 
ATOM     44  C   UNL A   1      46.337  26.449  29.215  1.00  0.00     0.074 A 
ATOM     45  C   UNL A   1      46.687  25.086  28.883  1.00  0.00     0.031 C 
ATOM     46  C   UNL A   1      39.969  26.534  28.362  1.00  0.00     0.029 A 
ATOM     47  C   UNL A   1      40.815  27.615  28.860  1.00  0.00     0.049 A 
ATOM     48  H   UNL A   1      42.878  27.584  29.142  1.00  0.00     0.167 HD
ATOM     49  C   UNL A   1      47.227  27.385  29.620  1.00  0.00     0.031 A 
ATOM     50  C   UNL A   1      40.383  28.834  29.227  1.00  0.00     0.031 A 
ATOM     51  C   UNL A   1      46.873  28.738  29.956  1.00  0.00     0.049 A 
ATOM     52  C   UNL A   1      41.387  29.862  29.667  1.00  0.00     0.074 A 
ATOM     53  C   UNL A   1      47.702  29.780  30.336  1.00  0.00     0.029 A 
ATOM     54  N   UNL A   1      45.577  29.235  29.957  1.00  0.00    -0.354 N 
ATOM     55  N   UNL A   1      42.688  29.749  29.781  1.00  0.00    -0.248 NA
ATOM     56  C   UNL A   1      40.863  31.192  30.007  1.00  0.00     0.031 C 
ATOM     57  C   UNL A   1      46.901  30.892  30.617  1.00  0.00     0.029 A 
ATOM     58  C   UNL A   1      45.582  30.562  30.351  1.00  0.00     0.049 A 
ATOM     59  H   UNL A   1      44.775  28.719  29.714  1.00  0.00     0.167 HD
ATOM     60  C   UNL A   1      43.144  30.998  30.180  1.00  0.00     0.074 A 
ATOM     61  C   UNL A   1      41.980  31.857  30.271  1.00  0.00     0.031 C 
ATOM     62  C   UNL A   1      44.412  31.400  30.444  1.00  0.00     0.031 A 
BRANCH  49  63
ATOM     63  C   UNL A   1      48.668  26.964  29.722  1.00  0.00    -0.014 A 
ATOM     64  C   UNL A   1      49.547  27.110  28.635  1.00  0.00     0.009 A 
ATOM     65  C   UNL A   1      49.157  26.419  30.919  1.00  0.00     0.009 A 
ATOM     66  C   UNL A   1      50.871  26.674  28.728  1.00  0.00     0.001 A 
ATOM     67  C   UNL A   1      50.491  26.015  31.020  1.00  0.00     0.001 A 
ATOM     68  C   UNL A   1      51.342  26.131  29.922  1.00  0.00     0.000 A 
ENDBRANCH  49  63
BRANCH  50  69
ATOM     69  C   UNL A   1      38.934  29.154  29.154  1.00  0.00    -0.014 A 
ATOM     70  C   UNL A   1      38.113  29.023  30.285  1.00  0.00     0.009 A 
ATOM     71  C   UNL A   1      38.368  29.620  27.956  1.00  0.00     0.009 A 
ATOM     72  C   UNL A   1      36.752  29.331  30.211  1.00  0.00     0.001 A 
ATOM     73  C   UNL A   1      37.014  29.955  27.894  1.00  0.00     0.001 A 
ATOM     74  C   UNL A   1      36.205  29.803  29.019  1.00  0.00     0.000 A 
ENDBRANCH  50  69
BRANCH  62  75
ATOM     75  C   UNL A   1      44.609  32.839  30.829  1.00  0.00    -0.014 A 
ATOM     76  C   UNL A   1      44.839  33.830  29.863  1.00  0.00     0.009 A 
ATOM     77  C   UNL A   1      44.523  33.212  32.179  1.00  0.00     0.009 A 
ATOM     78  C   UNL A   1      45.016  35.162  30.246  1.00  0.00     0.001 A 
ATOM     79  C   UNL A   1      44.668  34.547  32.557  1.00  0.00     0.001 A 
ATOM     80  C   UNL A   1      44.924  35.519  31.591  1.00  0.00     0.000 A 
ENDBRANCH  62  75
ENDBRANCH  36  37
ENDBRANCH  28  31
ENDBRANCH  26  27
ENDBRANCH  25  26
ENDBRANCH   1  25
TORSDOF 14
ENDMDL
MODEL 3
REMARK VINA RESULT:     -11.2      3.358      5.644
REMARK SMILES CC(=O)c1cc2c(cc1NC(=O)/C=C/C(=O)NCCCCNC(=O)c1ccc(-c3c4nc(c(-c5ccccc5)c5ccc([nH]5)c(-c5ccccc5)c5nc(c(-c6ccccc6)c6ccc3[nH]6)C=C5)C=C4)cc1)OCO2
REMARK SMILES IDX 19 1 18 2 17 3 15 4 16 5 14 7 13 8 11 9 10 10 12 12 9 13
REMARK SMILES IDX 4 14 5 15 6 16 8 17 7 18 75 19 73 20 74 21 2 22 1 23 3 24
REMARK SMILES IDX 20 25 21 26 22 27 23 28 24 30 25 31 26 32 72 33 27 34 71 35
REMARK SMILES IDX 28 36 29 37 30 38 65 39 31 40 70 41 64 42 66 43 32 44 69 45
REMARK SMILES IDX 63 46 62 47 33 49 55 50 40 51 54 52 41 53 44 54 53 55 67 56
REMARK SMILES IDX 42 57 43 58 52 60 68 61 45 62 34 63 35 64 39 65 36 66 38 67
REMARK SMILES IDX 37 68 56 69 57 70 61 71 58 72 60 73 59 74 46 75 47 76 51 77
REMARK SMILES IDX 48 78 50 79 49 80
REMARK H PARENT 17 6 10 11 22 29 66 48 44 59
REMARK Flexibility Score: inf
ROOT
ATOM      1  C   UNL A   1      33.066  29.329  24.832  1.00  0.00     0.023 C 
ENDROOT
BRANCH   1   2
ATOM      2  C   UNL A   1      32.241  28.694  23.716  1.00  0.00     0.116 C 
BRANCH   2   3
ATOM      3  N   UNL A   1      33.086  27.993  22.771  1.00  0.00    -0.353 N 
ATOM      4  C   UNL A   1      33.122  26.669  22.476  1.00  0.00     0.244 C 
ATOM      5  O   UNL A   1      33.770  26.266  21.515  1.00  0.00    -0.270 OA
ATOM      6  H   UNL A   1      33.722  28.555  22.272  1.00  0.00     0.163 HD
BRANCH   4   7
ATOM      7  C   UNL A   1      32.374  25.704  23.306  1.00  0.00     0.077 C 
ATOM      8  C   UNL A   1      32.769  24.426  23.390  1.00  0.00     0.077 C 
BRANCH   8   9
ATOM      9  C   UNL A   1      31.893  23.418  24.000  1.00  0.00     0.248 C 
ATOM     10  N   UNL A   1      32.423  22.449  24.806  1.00  0.00    -0.322 N 
ATOM     11  H   UNL A   1      31.754  21.822  25.164  1.00  0.00     0.170 HD
ATOM     12  O   UNL A   1      30.686  23.473  23.774  1.00  0.00    -0.270 OA
BRANCH  10  13
ATOM     13  C   UNL A   1      33.749  22.172  25.226  1.00  0.00     0.056 A 
ATOM     14  C   UNL A   1      34.271  20.867  25.030  1.00  0.00     0.045 A 
ATOM     15  C   UNL A   1      35.646  20.599  25.136  1.00  0.00     0.064 A 
ATOM     16  C   UNL A   1      36.463  21.642  25.504  1.00  0.00     0.166 A 
ATOM     17  C   UNL A   1      34.597  23.133  25.783  1.00  0.00     0.077 A 
ATOM     18  C   UNL A   1      35.944  22.858  25.864  1.00  0.00     0.167 A 
ATOM     19  O   UNL A   1      37.818  21.619  25.592  1.00  0.00    -0.454 OA
ATOM     20  O   UNL A   1      36.900  23.737  26.261  1.00  0.00    -0.454 OA
ATOM     21  C   UNL A   1      38.089  23.004  25.909  1.00  0.00     0.468 C 
BRANCH  14  22
ATOM     22  C   UNL A   1      33.346  19.738  24.782  1.00  0.00     0.162 C 
ATOM     23  C   UNL A   1      33.964  18.466  24.261  1.00  0.00     0.093 C 
ATOM     24  O   UNL A   1      32.170  19.823  25.118  1.00  0.00    -0.294 OA
ENDBRANCH  14  22
ENDBRANCH  10  13
ENDBRANCH   8   9
ENDBRANCH   4   7
ENDBRANCH   2   3
ENDBRANCH   1   2
BRANCH   1  25
ATOM     25  C   UNL A   1      33.740  28.324  25.771  1.00  0.00     0.023 C 
BRANCH  25  26
ATOM     26  C   UNL A   1      33.490  28.567  27.256  1.00  0.00     0.116 C 
BRANCH  26  27
ATOM     27  N   UNL A   1      33.422  29.978  27.600  1.00  0.00    -0.352 N 
ATOM     28  C   UNL A   1      34.388  30.775  28.158  1.00  0.00     0.251 C 
ATOM     29  H   UNL A   1      32.565  30.424  27.405  1.00  0.00     0.163 HD
ATOM     30  O   UNL A   1      34.131  31.931  28.478  1.00  0.00    -0.269 OA
BRANCH  28  31
ATOM     31  C   UNL A   1      35.728  30.216  28.410  1.00  0.00     0.039 A 
ATOM     32  C   UNL A   1      36.654  30.215  27.366  1.00  0.00     0.014 A 
ATOM     33  C   UNL A   1      36.074  29.716  29.669  1.00  0.00     0.014 A 
ATOM     34  C   UNL A   1      37.948  29.754  27.599  1.00  0.00     0.010 A 
ATOM     35  C   UNL A   1      37.387  29.334  29.921  1.00  0.00     0.010 A 
ATOM     36  C   UNL A   1      38.331  29.336  28.885  1.00  0.00    -0.014 A 
BRANCH  36  37
ATOM     37  C   UNL A   1      39.722  28.895  29.143  1.00  0.00     0.031 A 
ATOM     38  C   UNL A   1      40.687  29.801  29.851  1.00  0.00     0.074 A 
ATOM     39  C   UNL A   1      40.116  27.680  28.718  1.00  0.00     0.049 A 
ATOM     40  N   UNL A   1      41.921  29.562  30.217  1.00  0.00    -0.248 NA
ATOM     41  C   UNL A   1      40.217  31.158  30.169  1.00  0.00     0.031 C 
ATOM     42  C   UNL A   1      39.288  26.737  27.962  1.00  0.00     0.029 A 
ATOM     43  N   UNL A   1      41.311  27.025  28.872  1.00  0.00    -0.354 N 
ATOM     44  C   UNL A   1      42.372  30.737  30.805  1.00  0.00     0.074 A 
ATOM     45  C   UNL A   1      41.307  31.707  30.683  1.00  0.00     0.031 C 
ATOM     46  C   UNL A   1      39.986  25.609  27.757  1.00  0.00     0.029 A 
ATOM     47  C   UNL A   1      41.315  25.759  28.339  1.00  0.00     0.049 A 
ATOM     48  H   UNL A   1      42.091  27.424  29.321  1.00  0.00     0.167 HD
ATOM     49  C   UNL A   1      43.554  30.979  31.419  1.00  0.00     0.031 A 
ATOM     50  C   UNL A   1      42.278  24.820  28.330  1.00  0.00     0.031 A 
ATOM     51  C   UNL A   1      44.613  30.013  31.532  1.00  0.00     0.049 A 
ATOM     52  C   UNL A   1      43.582  25.105  29.022  1.00  0.00     0.074 A 
ATOM     53  C   UNL A   1      45.834  30.139  32.171  1.00  0.00     0.029 A 
ATOM     54  N   UNL A   1      44.576  28.737  30.986  1.00  0.00    -0.354 N 
ATOM     55  N   UNL A   1      43.963  26.192  29.649  1.00  0.00    -0.248 NA
ATOM     56  C   UNL A   1      44.577  24.024  29.026  1.00  0.00     0.031 C 
ATOM     57  C   UNL A   1      46.557  28.959  31.966  1.00  0.00     0.029 A 
ATOM     58  C   UNL A   1      45.762  28.075  31.254  1.00  0.00     0.049 A 
ATOM     59  H   UNL A   1      43.819  28.361  30.481  1.00  0.00     0.167 HD
ATOM     60  C   UNL A   1      45.231  25.919  30.143  1.00  0.00     0.074 A 
ATOM     61  C   UNL A   1      45.545  24.558  29.759  1.00  0.00     0.031 C 
ATOM     62  C   UNL A   1      46.060  26.721  30.856  1.00  0.00     0.031 A 
BRANCH  49  63
ATOM     63  C   UNL A   1      43.754  32.349  32.008  1.00  0.00    -0.014 A 
ATOM     64  C   UNL A   1      43.425  32.620  33.348  1.00  0.00     0.009 A 
ATOM     65  C   UNL A   1      44.281  33.382  31.219  1.00  0.00     0.009 A 
ATOM     66  C   UNL A   1      43.574  33.907  33.869  1.00  0.00     0.001 A 
ATOM     67  C   UNL A   1      44.461  34.661  31.753  1.00  0.00     0.001 A 
ATOM     68  C   UNL A   1      44.095  34.924  33.073  1.00  0.00     0.000 A 
ENDBRANCH  49  63
BRANCH  50  69
ATOM     69  C   UNL A   1      42.024  23.512  27.674  1.00  0.00    -0.014 A 
ATOM     70  C   UNL A   1      41.375  22.477  28.365  1.00  0.00     0.009 A 
ATOM     71  C   UNL A   1      42.405  23.301  26.339  1.00  0.00     0.009 A 
ATOM     72  C   UNL A   1      41.134  21.251  27.740  1.00  0.00     0.001 A 
ATOM     73  C   UNL A   1      42.136  22.085  25.707  1.00  0.00     0.001 A 
ATOM     74  C   UNL A   1      41.507  21.058  26.410  1.00  0.00     0.000 A 
ENDBRANCH  50  69
BRANCH  62  75
ATOM     75  C   UNL A   1      47.375  26.137  31.290  1.00  0.00    -0.014 A 
ATOM     76  C   UNL A   1      48.496  26.151  30.446  1.00  0.00     0.009 A 
ATOM     77  C   UNL A   1      47.501  25.601  32.580  1.00  0.00     0.009 A 
ATOM     78  C   UNL A   1      49.708  25.605  30.876  1.00  0.00     0.001 A 
ATOM     79  C   UNL A   1      48.721  25.085  33.018  1.00  0.00     0.001 A 
ATOM     80  C   UNL A   1      49.820  25.078  32.162  1.00  0.00     0.000 A 
ENDBRANCH  62  75
ENDBRANCH  36  37
ENDBRANCH  28  31
ENDBRANCH  26  27
ENDBRANCH  25  26
ENDBRANCH   1  25
TORSDOF 14
ENDMDL
