MODEL 1
REMARK VINA RESULT:     -12.4      0.000      0.000
REMARK SMILES Cc1c(NC(=O)c2ccc(I)cc2)cccc1C(=O)NCCCCNC(=O)c1ccc(-c2c3nc(c(-c4ccccc4)c4ccc([nH]4)c(-c4ccccc4)c4nc(c(-c5ccccc5)c5ccc2[nH]5)C=C4)C=C3)cc1
REMARK SMILES IDX 22 1 21 2 20 3 18 4 19 5 17 7 1 8 2 9 3 10 14 11 16 12 15 13
REMARK SMILES IDX 4 14 5 15 6 17 7 18 8 19 13 20 9 21 12 22 10 23 11 24 23 25
REMARK SMILES IDX 24 26 25 27 26 28 27 30 28 31 29 32 75 33 30 34 74 35 31 36
REMARK SMILES IDX 32 37 33 38 68 39 34 40 73 41 67 42 69 43 35 44 72 45 66 46
REMARK SMILES IDX 65 47 36 49 58 50 43 51 57 52 44 53 47 54 56 55 70 56 45 57
REMARK SMILES IDX 46 58 55 60 71 61 48 62 37 63 38 64 42 65 39 66 41 67 40 68
REMARK SMILES IDX 59 69 60 70 64 71 61 72 63 73 62 74 49 75 50 76 54 77 51 78
REMARK SMILES IDX 53 79 52 80
REMARK H PARENT 20 6 4 16 25 29 69 48 47 59
REMARK Flexibility Score: inf
ROOT
ATOM      1  C   UNL A   1      37.665  21.736  25.386  1.00  0.00     0.023 C 
ENDROOT
BRANCH   1   2
ATOM      2  C   UNL A   1      36.183  21.918  25.767  1.00  0.00     0.116 C 
BRANCH   2   3
ATOM      3  N   UNL A   1      35.406  20.765  25.354  1.00  0.00    -0.352 N 
ATOM      4  C   UNL A   1      34.125  20.557  24.913  1.00  0.00     0.251 C 
ATOM      5  O   UNL A   1      33.829  19.374  24.712  1.00  0.00    -0.269 OA
ATOM      6  H   UNL A   1      35.924  19.930  25.402  1.00  0.00     0.163 HD
BRANCH   4   7
ATOM      7  C   UNL A   1      33.098  21.603  24.581  1.00  0.00     0.044 A 
ATOM      8  C   UNL A   1      34.354  22.907  22.770  1.00  0.00     0.047 C 
ATOM      9  C   UNL A   1      33.129  22.589  23.574  1.00  0.00    -0.015 A 
ATOM     10  C   UNL A   1      32.039  23.487  23.438  1.00  0.00     0.045 A 
ATOM     11  C   UNL A   1      31.019  23.528  24.386  1.00  0.00     0.026 A 
ATOM     12  C   UNL A   1      32.036  21.659  25.512  1.00  0.00     0.014 A 
ATOM     13  C   UNL A   1      31.030  22.625  25.438  1.00  0.00     0.003 A 
BRANCH  10  14
ATOM     14  N   UNL A   1      32.003  24.317  22.304  1.00  0.00    -0.322 N 
ATOM     15  C   UNL A   1      31.770  25.665  22.186  1.00  0.00     0.255 C 
ATOM     16  H   UNL A   1      32.172  23.854  21.451  1.00  0.00     0.170 HD
ATOM     17  O   UNL A   1      31.479  26.135  21.088  1.00  0.00    -0.269 OA
BRANCH  15  18
ATOM     18  C   UNL A   1      32.013  26.586  23.327  1.00  0.00     0.040 A 
ATOM     19  C   UNL A   1      30.981  27.451  23.705  1.00  0.00     0.015 A 
ATOM     20  C   UNL A   1      33.268  26.698  23.943  1.00  0.00     0.015 A 
ATOM     21  C   UNL A   1      31.182  28.382  24.727  1.00  0.00     0.015 A 
ATOM     22  C   UNL A   1      33.466  27.618  24.976  1.00  0.00     0.015 A 
ATOM     23  C   UNL A   1      32.420  28.453  25.367  1.00  0.00     0.013 A 
ATOM     24  I   UNL A   1      32.716  29.824  26.899  1.00  0.00    -0.044 I 
ENDBRANCH  15  18
ENDBRANCH  10  14
ENDBRANCH   4   7
ENDBRANCH   2   3
ENDBRANCH   1   2
BRANCH   1  25
ATOM     25  C   UNL A   1      38.622  22.770  25.973  1.00  0.00     0.023 C 
BRANCH  25  26
ATOM     26  C   UNL A   1      39.689  22.146  26.849  1.00  0.00     0.116 C 
BRANCH  26  27
ATOM     27  N   UNL A   1      40.427  21.049  26.225  1.00  0.00    -0.352 N 
ATOM     28  C   UNL A   1      41.796  20.866  26.121  1.00  0.00     0.251 C 
ATOM     29  H   UNL A   1      39.874  20.342  25.823  1.00  0.00     0.163 HD
ATOM     30  O   UNL A   1      42.245  19.899  25.508  1.00  0.00    -0.269 OA
BRANCH  28  31
ATOM     31  C   UNL A   1      42.715  21.741  26.893  1.00  0.00     0.039 A 
ATOM     32  C   UNL A   1      42.604  21.714  28.287  1.00  0.00     0.014 A 
ATOM     33  C   UNL A   1      43.391  22.782  26.269  1.00  0.00     0.014 A 
ATOM     34  C   UNL A   1      42.863  22.874  29.006  1.00  0.00     0.010 A 
ATOM     35  C   UNL A   1      43.502  23.976  26.950  1.00  0.00     0.010 A 
ATOM     36  C   UNL A   1      43.147  24.040  28.300  1.00  0.00    -0.014 A 
BRANCH  36  37
ATOM     37  C   UNL A   1      42.937  25.373  28.856  1.00  0.00     0.031 A 
ATOM     38  C   UNL A   1      41.770  26.177  28.423  1.00  0.00     0.074 A 
ATOM     39  C   UNL A   1      43.762  25.833  29.830  1.00  0.00     0.049 A 
ATOM     40  N   UNL A   1      41.706  27.465  28.492  1.00  0.00    -0.248 NA
ATOM     41  C   UNL A   1      40.584  25.581  27.815  1.00  0.00     0.031 C 
ATOM     42  C   UNL A   1      43.556  27.024  30.656  1.00  0.00     0.029 A 
ATOM     43  N   UNL A   1      45.061  25.436  30.171  1.00  0.00    -0.354 N 
ATOM     44  C   UNL A   1      40.393  27.822  28.272  1.00  0.00     0.074 A 
ATOM     45  C   UNL A   1      39.771  26.637  27.736  1.00  0.00     0.031 C 
ATOM     46  C   UNL A   1      44.747  27.434  31.122  1.00  0.00     0.029 A 
ATOM     47  C   UNL A   1      45.757  26.618  30.473  1.00  0.00     0.049 A 
ATOM     48  H   UNL A   1      45.413  24.517  30.193  1.00  0.00     0.167 HD
ATOM     49  C   UNL A   1      39.943  29.027  28.725  1.00  0.00     0.031 A 
ATOM     50  C   UNL A   1      46.798  27.112  29.737  1.00  0.00     0.031 A 
ATOM     51  C   UNL A   1      41.040  29.854  29.237  1.00  0.00     0.049 A 
ATOM     52  C   UNL A   1      46.553  28.519  29.212  1.00  0.00     0.074 A 
ATOM     53  C   UNL A   1      41.464  30.181  30.515  1.00  0.00     0.029 A 
ATOM     54  N   UNL A   1      42.062  30.238  28.374  1.00  0.00    -0.354 N 
ATOM     55  N   UNL A   1      45.377  29.084  29.177  1.00  0.00    -0.248 NA
ATOM     56  C   UNL A   1      47.587  29.375  28.626  1.00  0.00     0.031 C 
ATOM     57  C   UNL A   1      42.790  30.680  30.421  1.00  0.00     0.029 A 
ATOM     58  C   UNL A   1      43.156  30.688  29.088  1.00  0.00     0.049 A 
ATOM     59  H   UNL A   1      42.012  30.194  27.392  1.00  0.00     0.167 HD
ATOM     60  C   UNL A   1      45.467  30.315  28.586  1.00  0.00     0.074 A 
ATOM     61  C   UNL A   1      46.876  30.459  28.268  1.00  0.00     0.031 C 
ATOM     62  C   UNL A   1      44.368  31.101  28.390  1.00  0.00     0.031 A 
BRANCH  49  63
ATOM     63  C   UNL A   1      38.480  29.329  28.991  1.00  0.00    -0.014 A 
ATOM     64  C   UNL A   1      37.708  29.953  27.993  1.00  0.00     0.009 A 
ATOM     65  C   UNL A   1      37.820  29.112  30.213  1.00  0.00     0.009 A 
ATOM     66  C   UNL A   1      36.406  30.421  28.234  1.00  0.00     0.001 A 
ATOM     67  C   UNL A   1      36.530  29.599  30.473  1.00  0.00     0.001 A 
ATOM     68  C   UNL A   1      35.827  30.268  29.486  1.00  0.00     0.000 A 
ENDBRANCH  49  63
BRANCH  50  69
ATOM     69  C   UNL A   1      47.604  26.087  29.021  1.00  0.00    -0.014 A 
ATOM     70  C   UNL A   1      47.313  25.830  27.668  1.00  0.00     0.009 A 
ATOM     71  C   UNL A   1      48.827  25.642  29.540  1.00  0.00     0.009 A 
ATOM     72  C   UNL A   1      48.271  25.255  26.826  1.00  0.00     0.001 A 
ATOM     73  C   UNL A   1      49.782  25.059  28.695  1.00  0.00     0.001 A 
ATOM     74  C   UNL A   1      49.517  24.902  27.334  1.00  0.00     0.000 A 
ENDBRANCH  50  69
BRANCH  62  75
ATOM     75  C   UNL A   1      44.318  32.364  27.568  1.00  0.00    -0.014 A 
ATOM     76  C   UNL A   1      44.446  32.403  26.174  1.00  0.00     0.009 A 
ATOM     77  C   UNL A   1      43.980  33.578  28.209  1.00  0.00     0.009 A 
ATOM     78  C   UNL A   1      44.283  33.600  25.461  1.00  0.00     0.001 A 
ATOM     79  C   UNL A   1      43.776  34.763  27.500  1.00  0.00     0.001 A 
ATOM     80  C   UNL A   1      43.940  34.776  26.123  1.00  0.00     0.000 A 
ENDBRANCH  62  75
ENDBRANCH  36  37
ENDBRANCH  28  31
ENDBRANCH  26  27
ENDBRANCH  25  26
ENDBRANCH   1  25
TORSDOF 13
ENDMDL
MODEL 2
REMARK VINA RESULT:     -12.4      4.144      9.010
REMARK SMILES Cc1c(NC(=O)c2ccc(I)cc2)cccc1C(=O)NCCCCNC(=O)c1ccc(-c2c3nc(c(-c4ccccc4)c4ccc([nH]4)c(-c4ccccc4)c4nc(c(-c5ccccc5)c5ccc2[nH]5)C=C4)C=C3)cc1
REMARK SMILES IDX 22 1 21 2 20 3 18 4 19 5 17 7 1 8 2 9 3 10 14 11 16 12 15 13
REMARK SMILES IDX 4 14 5 15 6 17 7 18 8 19 13 20 9 21 12 22 10 23 11 24 23 25
REMARK SMILES IDX 24 26 25 27 26 28 27 30 28 31 29 32 75 33 30 34 74 35 31 36
REMARK SMILES IDX 32 37 33 38 68 39 34 40 73 41 67 42 69 43 35 44 72 45 66 46
REMARK SMILES IDX 65 47 36 49 58 50 43 51 57 52 44 53 47 54 56 55 70 56 45 57
REMARK SMILES IDX 46 58 55 60 71 61 48 62 37 63 38 64 42 65 39 66 41 67 40 68
REMARK SMILES IDX 59 69 60 70 64 71 61 72 63 73 62 74 49 75 50 76 54 77 51 78
REMARK SMILES IDX 53 79 52 80
REMARK H PARENT 20 6 4 16 25 29 69 48 47 59
REMARK Flexibility Score: inf
ROOT
ATOM      1  C   UNL A   1      34.528  29.692  27.100  1.00  0.00     0.023 C 
ENDROOT
BRANCH   1   2
ATOM      2  C   UNL A   1      33.961  29.006  25.842  1.00  0.00     0.116 C 
BRANCH   2   3
ATOM      3  N   UNL A   1      32.762  29.686  25.389  1.00  0.00    -0.352 N 
ATOM      4  C   UNL A   1      31.551  29.297  24.880  1.00  0.00     0.251 C 
ATOM      5  O   UNL A   1      30.800  30.223  24.555  1.00  0.00    -0.269 OA
ATOM      6  H   UNL A   1      32.837  30.664  25.464  1.00  0.00     0.163 HD
BRANCH   4   7
ATOM      7  C   UNL A   1      31.027  27.894  24.756  1.00  0.00     0.044 A 
ATOM      8  C   UNL A   1      31.261  27.110  27.183  1.00  0.00     0.047 C 
ATOM      9  C   UNL A   1      30.794  26.940  25.768  1.00  0.00    -0.015 A 
ATOM     10  C   UNL A   1      30.293  25.659  25.424  1.00  0.00     0.045 A 
ATOM     11  C   UNL A   1      30.190  25.261  24.092  1.00  0.00     0.026 A 
ATOM     12  C   UNL A   1      30.891  27.464  23.417  1.00  0.00     0.014 A 
ATOM     13  C   UNL A   1      30.512  26.161  23.086  1.00  0.00     0.003 A 
BRANCH  10  14
ATOM     14  N   UNL A   1      29.876  24.809  26.463  1.00  0.00    -0.322 N 
ATOM     15  C   UNL A   1      30.281  23.543  26.803  1.00  0.00     0.255 C 
ATOM     16  H   UNL A   1      29.176  25.186  27.045  1.00  0.00     0.170 HD
ATOM     17  O   UNL A   1      29.580  22.862  27.549  1.00  0.00    -0.269 OA
BRANCH  15  18
ATOM     18  C   UNL A   1      31.622  23.036  26.409  1.00  0.00     0.040 A 
ATOM     19  C   UNL A   1      31.693  22.093  25.378  1.00  0.00     0.015 A 
ATOM     20  C   UNL A   1      32.786  23.378  27.113  1.00  0.00     0.015 A 
ATOM     21  C   UNL A   1      32.922  21.538  25.017  1.00  0.00     0.015 A 
ATOM     22  C   UNL A   1      34.018  22.834  26.742  1.00  0.00     0.015 A 
ATOM     23  C   UNL A   1      34.082  21.920  25.692  1.00  0.00     0.013 A 
ATOM     24  I   UNL A   1      35.914  21.108  25.144  1.00  0.00    -0.044 I 
ENDBRANCH  15  18
ENDBRANCH  10  14
ENDBRANCH   4   7
ENDBRANCH   2   3
ENDBRANCH   1   2
BRANCH   1  25
ATOM     25  C   UNL A   1      34.093  31.140  27.307  1.00  0.00     0.023 C 
BRANCH  25  26
ATOM     26  C   UNL A   1      34.467  31.671  28.675  1.00  0.00     0.116 C 
BRANCH  26  27
ATOM     27  N   UNL A   1      33.688  32.826  29.116  1.00  0.00    -0.352 N 
ATOM     28  C   UNL A   1      34.089  33.909  29.881  1.00  0.00     0.251 C 
ATOM     29  H   UNL A   1      32.747  32.836  28.829  1.00  0.00     0.163 HD
ATOM     30  O   UNL A   1      33.274  34.772  30.204  1.00  0.00    -0.269 OA
BRANCH  28  31
ATOM     31  C   UNL A   1      35.532  34.114  30.164  1.00  0.00     0.039 A 
ATOM     32  C   UNL A   1      36.375  34.325  29.068  1.00  0.00     0.014 A 
ATOM     33  C   UNL A   1      36.068  33.764  31.397  1.00  0.00     0.014 A 
ATOM     34  C   UNL A   1      37.683  33.860  29.125  1.00  0.00     0.010 A 
ATOM     35  C   UNL A   1      37.309  33.163  31.411  1.00  0.00     0.010 A 
ATOM     36  C   UNL A   1      38.078  33.131  30.245  1.00  0.00    -0.014 A 
BRANCH  36  37
ATOM     37  C   UNL A   1      39.188  32.185  30.222  1.00  0.00     0.031 A 
ATOM     38  C   UNL A   1      38.940  30.765  29.877  1.00  0.00     0.074 A 
ATOM     39  C   UNL A   1      40.454  32.627  30.431  1.00  0.00     0.049 A 
ATOM     40  N   UNL A   1      39.704  29.785  30.228  1.00  0.00    -0.248 NA
ATOM     41  C   UNL A   1      37.756  30.327  29.143  1.00  0.00     0.031 C 
ATOM     42  C   UNL A   1      41.688  31.874  30.207  1.00  0.00     0.029 A 
ATOM     43  N   UNL A   1      40.906  33.791  31.065  1.00  0.00    -0.354 N 
ATOM     44  C   UNL A   1      39.316  28.681  29.500  1.00  0.00     0.074 A 
ATOM     45  C   UNL A   1      38.034  29.037  28.943  1.00  0.00     0.031 C 
ATOM     46  C   UNL A   1      42.661  32.409  30.963  1.00  0.00     0.029 A 
ATOM     47  C   UNL A   1      42.034  33.408  31.811  1.00  0.00     0.049 A 
ATOM     48  H   UNL A   1      40.514  34.692  31.001  1.00  0.00     0.167 HD
ATOM     49  C   UNL A   1      40.198  27.658  29.314  1.00  0.00     0.031 A 
ATOM     50  C   UNL A   1      42.097  33.416  33.176  1.00  0.00     0.031 A 
ATOM     51  C   UNL A   1      41.411  27.840  30.116  1.00  0.00     0.049 A 
ATOM     52  C   UNL A   1      42.422  32.056  33.776  1.00  0.00     0.074 A 
ATOM     53  C   UNL A   1      42.700  28.244  29.807  1.00  0.00     0.029 A 
ATOM     54  N   UNL A   1      41.310  27.881  31.503  1.00  0.00    -0.354 N 
ATOM     55  N   UNL A   1      42.336  30.935  33.113  1.00  0.00    -0.248 NA
ATOM     56  C   UNL A   1      42.802  31.837  35.173  1.00  0.00     0.031 C 
ATOM     57  C   UNL A   1      43.344  28.616  31.016  1.00  0.00     0.029 A 
ATOM     58  C   UNL A   1      42.460  28.407  32.059  1.00  0.00     0.049 A 
ATOM     59  H   UNL A   1      40.527  27.577  32.017  1.00  0.00     0.167 HD
ATOM     60  C   UNL A   1      42.619  29.880  33.939  1.00  0.00     0.074 A 
ATOM     61  C   UNL A   1      42.918  30.497  35.218  1.00  0.00     0.031 C 
ATOM     62  C   UNL A   1      42.561  28.588  33.502  1.00  0.00     0.031 A 
BRANCH  49  63
ATOM     63  C   UNL A   1      40.096  26.660  28.176  1.00  0.00    -0.014 A 
ATOM     64  C   UNL A   1      39.358  25.474  28.357  1.00  0.00     0.009 A 
ATOM     65  C   UNL A   1      40.760  26.771  26.943  1.00  0.00     0.009 A 
ATOM     66  C   UNL A   1      39.370  24.431  27.417  1.00  0.00     0.001 A 
ATOM     67  C   UNL A   1      40.801  25.725  26.008  1.00  0.00     0.001 A 
ATOM     68  C   UNL A   1      40.117  24.547  26.253  1.00  0.00     0.000 A 
ENDBRANCH  49  63
BRANCH  50  69
ATOM     69  C   UNL A   1      41.234  34.430  33.839  1.00  0.00    -0.014 A 
ATOM     70  C   UNL A   1      39.962  34.036  34.293  1.00  0.00     0.009 A 
ATOM     71  C   UNL A   1      41.774  35.632  34.319  1.00  0.00     0.009 A 
ATOM     72  C   UNL A   1      39.302  34.757  35.294  1.00  0.00     0.001 A 
ATOM     73  C   UNL A   1      41.107  36.356  35.316  1.00  0.00     0.001 A 
ATOM     74  C   UNL A   1      39.893  35.898  35.829  1.00  0.00     0.000 A 
ENDBRANCH  50  69
BRANCH  62  75
ATOM     75  C   UNL A   1      42.644  27.357  34.369  1.00  0.00    -0.014 A 
ATOM     76  C   UNL A   1      41.713  27.028  35.362  1.00  0.00     0.009 A 
ATOM     77  C   UNL A   1      43.633  26.389  34.080  1.00  0.00     0.009 A 
ATOM     78  C   UNL A   1      41.791  25.813  36.059  1.00  0.00     0.001 A 
ATOM     79  C   UNL A   1      43.689  25.161  34.741  1.00  0.00     0.001 A 
ATOM     80  C   UNL A   1      42.771  24.877  35.742  1.00  0.00     0.000 A 
ENDBRANCH  62  75
ENDBRANCH  36  37
ENDBRANCH  28  31
ENDBRANCH  26  27
ENDBRANCH  25  26
ENDBRANCH   1  25
TORSDOF 13
ENDMDL
MODEL 3
REMARK VINA RESULT:     -12.4      3.566      8.505
REMARK SMILES Cc1c(NC(=O)c2ccc(I)cc2)cccc1C(=O)NCCCCNC(=O)c1ccc(-c2c3nc(c(-c4ccccc4)c4ccc([nH]4)c(-c4ccccc4)c4nc(c(-c5ccccc5)c5ccc2[nH]5)C=C4)C=C3)cc1
REMARK SMILES IDX 22 1 21 2 20 3 18 4 19 5 17 7 1 8 2 9 3 10 14 11 16 12 15 13
REMARK SMILES IDX 4 14 5 15 6 17 7 18 8 19 13 20 9 21 12 22 10 23 11 24 23 25
REMARK SMILES IDX 24 26 25 27 26 28 27 30 28 31 29 32 75 33 30 34 74 35 31 36
REMARK SMILES IDX 32 37 33 38 68 39 34 40 73 41 67 42 69 43 35 44 72 45 66 46
REMARK SMILES IDX 65 47 36 49 58 50 43 51 57 52 44 53 47 54 56 55 70 56 45 57
REMARK SMILES IDX 46 58 55 60 71 61 48 62 37 63 38 64 42 65 39 66 41 67 40 68
REMARK SMILES IDX 59 69 60 70 64 71 61 72 63 73 62 74 49 75 50 76 54 77 51 78
REMARK SMILES IDX 53 79 52 80
REMARK H PARENT 20 6 4 16 25 29 69 48 47 59
REMARK Flexibility Score: inf
ROOT
ATOM      1  C   UNL A   1      34.172  29.489  27.195  1.00  0.00     0.023 C 
ENDROOT
BRANCH   1   2
ATOM      2  C   UNL A   1      33.913  29.143  25.715  1.00  0.00     0.116 C 
BRANCH   2   3
ATOM      3  N   UNL A   1      32.684  29.762  25.256  1.00  0.00    -0.352 N 
ATOM      4  C   UNL A   1      31.484  29.310  24.772  1.00  0.00     0.251 C 
ATOM      5  O   UNL A   1      30.693  30.196  24.430  1.00  0.00    -0.269 OA
ATOM      6  H   UNL A   1      32.721  30.744  25.302  1.00  0.00     0.163 HD
BRANCH   4   7
ATOM      7  C   UNL A   1      31.015  27.885  24.696  1.00  0.00     0.044 A 
ATOM      8  C   UNL A   1      31.157  27.230  27.167  1.00  0.00     0.047 C 
ATOM      9  C   UNL A   1      30.766  26.974  25.743  1.00  0.00    -0.015 A 
ATOM     10  C   UNL A   1      30.326  25.660  25.440  1.00  0.00     0.045 A 
ATOM     11  C   UNL A   1      30.303  25.194  24.127  1.00  0.00     0.026 A 
ATOM     12  C   UNL A   1      30.960  27.385  23.375  1.00  0.00     0.014 A 
ATOM     13  C   UNL A   1      30.642  26.054  23.093  1.00  0.00     0.003 A 
BRANCH  10  14
ATOM     14  N   UNL A   1      29.888  24.847  26.501  1.00  0.00    -0.322 N 
ATOM     15  C   UNL A   1      30.242  23.570  26.856  1.00  0.00     0.255 C 
ATOM     16  H   UNL A   1      29.215  25.265  27.086  1.00  0.00     0.170 HD
ATOM     17  O   UNL A   1      29.523  22.934  27.626  1.00  0.00    -0.269 OA
BRANCH  15  18
ATOM     18  C   UNL A   1      31.553  22.997  26.452  1.00  0.00     0.040 A 
ATOM     19  C   UNL A   1      32.713  23.688  26.818  1.00  0.00     0.015 A 
ATOM     20  C   UNL A   1      31.653  21.871  25.622  1.00  0.00     0.015 A 
ATOM     21  C   UNL A   1      33.966  23.227  26.405  1.00  0.00     0.015 A 
ATOM     22  C   UNL A   1      32.905  21.401  25.222  1.00  0.00     0.015 A 
ATOM     23  C   UNL A   1      34.057  22.078  25.619  1.00  0.00     0.013 A 
ATOM     24  I   UNL A   1      35.920  21.381  25.019  1.00  0.00    -0.044 I 
ENDBRANCH  15  18
ENDBRANCH  10  14
ENDBRANCH   4   7
ENDBRANCH   2   3
ENDBRANCH   1   2
BRANCH   1  25
ATOM     25  C   UNL A   1      33.659  30.854  27.646  1.00  0.00     0.023 C 
BRANCH  25  26
ATOM     26  C   UNL A   1      34.739  31.917  27.628  1.00  0.00     0.116 C 
BRANCH  26  27
ATOM     27  N   UNL A   1      35.249  32.292  28.945  1.00  0.00    -0.352 N 
ATOM     28  C   UNL A   1      36.083  31.583  29.794  1.00  0.00     0.251 C 
ATOM     29  H   UNL A   1      34.960  33.173  29.275  1.00  0.00     0.163 HD
ATOM     30  O   UNL A   1      36.369  32.037  30.901  1.00  0.00    -0.269 OA
BRANCH  28  31
ATOM     31  C   UNL A   1      36.765  30.360  29.300  1.00  0.00     0.039 A 
ATOM     32  C   UNL A   1      36.877  29.287  30.190  1.00  0.00     0.014 A 
ATOM     33  C   UNL A   1      37.554  30.402  28.158  1.00  0.00     0.014 A 
ATOM     34  C   UNL A   1      37.992  28.461  30.112  1.00  0.00     0.010 A 
ATOM     35  C   UNL A   1      38.735  29.690  28.166  1.00  0.00     0.010 A 
ATOM     36  C   UNL A   1      38.993  28.785  29.198  1.00  0.00    -0.014 A 
BRANCH  36  37
ATOM     37  C   UNL A   1      40.376  28.348  29.352  1.00  0.00     0.031 A 
ATOM     38  C   UNL A   1      40.807  27.050  28.782  1.00  0.00     0.074 A 
ATOM     39  C   UNL A   1      41.281  29.171  29.939  1.00  0.00     0.049 A 
ATOM     40  N   UNL A   1      41.824  26.372  29.198  1.00  0.00    -0.248 NA
ATOM     41  C   UNL A   1      40.073  26.375  27.714  1.00  0.00     0.031 C 
ATOM     42  C   UNL A   1      42.734  28.997  29.957  1.00  0.00     0.029 A 
ATOM     43  N   UNL A   1      41.083  30.251  30.808  1.00  0.00    -0.354 N 
ATOM     44  C   UNL A   1      42.072  25.390  28.263  1.00  0.00     0.074 A 
ATOM     45  C   UNL A   1      40.891  25.357  27.436  1.00  0.00     0.031 C 
ATOM     46  C   UNL A   1      43.235  29.677  31.002  1.00  0.00     0.029 A 
ATOM     47  C   UNL A   1      42.102  30.161  31.771  1.00  0.00     0.049 A 
ATOM     48  H   UNL A   1      40.375  30.933  30.755  1.00  0.00     0.167 HD
ATOM     49  C   UNL A   1      43.315  24.834  28.191  1.00  0.00     0.031 A 
ATOM     50  C   UNL A   1      41.893  29.894  33.095  1.00  0.00     0.031 A 
ATOM     51  C   UNL A   1      44.167  25.273  29.300  1.00  0.00     0.049 A 
ATOM     52  C   UNL A   1      42.629  28.655  33.587  1.00  0.00     0.074 A 
ATOM     53  C   UNL A   1      45.208  26.183  29.392  1.00  0.00     0.029 A 
ATOM     54  N   UNL A   1      43.794  24.970  30.605  1.00  0.00    -0.354 N 
ATOM     55  N   UNL A   1      43.141  27.756  32.792  1.00  0.00    -0.248 NA
ATOM     56  C   UNL A   1      42.790  28.294  34.996  1.00  0.00     0.031 C 
ATOM     57  C   UNL A   1      45.397  26.494  30.765  1.00  0.00     0.029 A 
ATOM     58  C   UNL A   1      44.495  25.751  31.504  1.00  0.00     0.049 A 
ATOM     59  H   UNL A   1      43.124  24.294  30.854  1.00  0.00     0.167 HD
ATOM     60  C   UNL A   1      43.670  26.729  33.527  1.00  0.00     0.074 A 
ATOM     61  C   UNL A   1      43.437  27.118  34.906  1.00  0.00     0.031 C 
ATOM     62  C   UNL A   1      44.234  25.637  32.934  1.00  0.00     0.031 A 
BRANCH  49  63
ATOM     63  C   UNL A   1      43.854  24.143  26.952  1.00  0.00    -0.014 A 
ATOM     64  C   UNL A   1      44.890  24.748  26.215  1.00  0.00     0.009 A 
ATOM     65  C   UNL A   1      43.341  22.955  26.404  1.00  0.00     0.009 A 
ATOM     66  C   UNL A   1      45.310  24.256  24.969  1.00  0.00     0.001 A 
ATOM     67  C   UNL A   1      43.734  22.470  25.147  1.00  0.00     0.001 A 
ATOM     68  C   UNL A   1      44.710  23.131  24.421  1.00  0.00     0.000 A 
ENDBRANCH  49  63
BRANCH  50  69
ATOM     69  C   UNL A   1      40.580  30.345  33.628  1.00  0.00    -0.014 A 
ATOM     70  C   UNL A   1      40.423  31.702  33.967  1.00  0.00     0.009 A 
ATOM     71  C   UNL A   1      39.431  29.556  33.475  1.00  0.00     0.009 A 
ATOM     72  C   UNL A   1      39.153  32.283  34.028  1.00  0.00     0.001 A 
ATOM     73  C   UNL A   1      38.159  30.140  33.545  1.00  0.00     0.001 A 
ATOM     74  C   UNL A   1      38.023  31.508  33.782  1.00  0.00     0.000 A 
ENDBRANCH  50  69
BRANCH  62  75
ATOM     75  C   UNL A   1      44.649  24.367  33.633  1.00  0.00    -0.014 A 
ATOM     76  C   UNL A   1      43.814  23.258  33.815  1.00  0.00     0.009 A 
ATOM     77  C   UNL A   1      46.004  24.210  34.009  1.00  0.00     0.009 A 
ATOM     78  C   UNL A   1      44.296  22.068  34.380  1.00  0.00     0.001 A 
ATOM     79  C   UNL A   1      46.498  23.013  34.531  1.00  0.00     0.001 A 
ATOM     80  C   UNL A   1      45.638  21.943  34.728  1.00  0.00     0.000 A 
ENDBRANCH  62  75
ENDBRANCH  36  37
ENDBRANCH  28  31
ENDBRANCH  26  27
ENDBRANCH  25  26
ENDBRANCH   1  25
TORSDOF 13
ENDMDL
