MODEL 1
REMARK VINA RESULT:     -11.8      0.000      0.000
REMARK SMILES COc1cccc(-c2ccc(=O)n(CC(=O)N[C@@H](C(=O)NCCCCNC(=O)c3ccc(-c4c5nc(c(-c6ccccc6)c6ccc([nH]6)c(-c6ccccc6)c6nc(c(-c7ccccc7)c7ccc4[nH]7)C=C6)C=C5)cc3)C(C)C)n2)c1
REMARK SMILES IDX 22 1 21 2 19 3 20 4 18 6 17 7 15 8 16 9 14 11 13 12 8 13
REMARK SMILES IDX 9 14 80 15 10 16 11 17 12 18 7 19 3 20 4 21 81 22 5 23 6 24
REMARK SMILES IDX 2 25 1 26 77 27 78 28 79 29 23 30 24 31 25 32 26 33 27 34
REMARK SMILES IDX 28 36 29 37 30 38 76 39 31 40 75 41 32 42 33 43 34 44 69 45
REMARK SMILES IDX 35 46 74 47 68 48 70 49 36 50 73 51 67 52 66 53 37 55 59 56
REMARK SMILES IDX 44 57 58 58 45 59 48 60 57 61 71 62 46 63 47 64 56 66 72 67
REMARK SMILES IDX 49 68 38 69 39 70 43 71 40 72 42 73 41 74 60 75 61 76 65 77
REMARK SMILES IDX 62 78 64 79 63 80 50 81 51 82 55 83 52 84 54 85 53 86
REMARK H PARENT 21 5 17 10 26 35 70 54 48 65
REMARK Flexibility Score: inf
ROOT
ATOM      1  C   UNL A   1      35.223  20.915  25.326  1.00  0.00     0.116 C 
ENDROOT
BRANCH   1   2
ATOM      2  N   UNL A   1      34.037  20.095  25.393  1.00  0.00    -0.354 N 
ATOM      3  C   UNL A   1      32.730  20.466  25.210  1.00  0.00     0.242 C 
ATOM      4  O   UNL A   1      31.907  19.550  25.138  1.00  0.00    -0.273 OA
ATOM      5  H   UNL A   1      34.187  19.143  25.597  1.00  0.00     0.163 HD
BRANCH   3   6
ATOM      6  C   UNL A   1      32.345  21.968  24.996  1.00  0.00     0.173 C 
BRANCH   6   7
ATOM      7  N   UNL A   1      31.212  22.291  25.871  1.00  0.00    -0.342 N 
ATOM      8  C   UNL A   1      31.017  23.325  26.742  1.00  0.00     0.242 C 
ATOM      9  O   UNL A   1      29.927  23.356  27.321  1.00  0.00    -0.273 OA
ATOM     10  H   UNL A   1      30.464  21.653  25.822  1.00  0.00     0.164 HD
BRANCH   8  11
ATOM     11  C   UNL A   1      32.039  24.459  26.925  1.00  0.00     0.248 C 
BRANCH  11  12
ATOM     12  N   UNL A   1      32.225  25.339  25.773  1.00  0.00    -0.220 N 
ATOM     13  C   UNL A   1      31.251  26.801  24.312  1.00  0.00     0.091 A 
ATOM     14  C   UNL A   1      32.504  27.015  23.567  1.00  0.00     0.036 A 
ATOM     15  N   UNL A   1      31.111  26.026  25.337  1.00  0.00    -0.169 NA
ATOM     16  C   UNL A   1      33.585  26.399  24.049  1.00  0.00     0.075 A 
ATOM     17  C   UNL A   1      33.494  25.507  25.228  1.00  0.00     0.267 A 
ATOM     18  O   UNL A   1      34.505  24.926  25.606  1.00  0.00    -0.268 OA
BRANCH  13  19
ATOM     19  C   UNL A   1      30.102  27.587  23.844  1.00  0.00     0.006 A 
ATOM     20  C   UNL A   1      29.253  29.719  23.118  1.00  0.00     0.119 A 
ATOM     21  C   UNL A   1      27.981  29.150  23.004  1.00  0.00     0.046 A 
ATOM     22  C   UNL A   1      30.316  28.938  23.561  1.00  0.00     0.056 A 
ATOM     23  C   UNL A   1      27.774  27.798  23.297  1.00  0.00     0.005 A 
ATOM     24  C   UNL A   1      28.840  27.005  23.719  1.00  0.00     0.011 A 
BRANCH  20  25
ATOM     25  O   UNL A   1      29.341  31.048  22.804  1.00  0.00    -0.497 OA
ATOM     26  C   UNL A   1      28.180  31.607  22.193  1.00  0.00     0.278 C 
ENDBRANCH  20  25
ENDBRANCH  13  19
ENDBRANCH  11  12
ENDBRANCH   8  11
ENDBRANCH   6   7
BRANCH   6  27
ATOM     27  C   UNL A   1      32.020  22.248  23.500  1.00  0.00     0.015 C 
ATOM     28  C   UNL A   1      30.885  23.255  23.289  1.00  0.00     0.010 C 
ATOM     29  C   UNL A   1      33.265  22.764  22.763  1.00  0.00     0.010 C 
ENDBRANCH   6  27
ENDBRANCH   3   6
ENDBRANCH   1   2
BRANCH   1  30
ATOM     30  C   UNL A   1      36.478  20.137  24.950  1.00  0.00     0.023 C 
BRANCH  30  31
ATOM     31  C   UNL A   1      37.714  21.010  24.735  1.00  0.00     0.023 C 
BRANCH  31  32
ATOM     32  C   UNL A   1      38.771  20.934  25.833  1.00  0.00     0.116 C 
BRANCH  32  33
ATOM     33  N   UNL A   1      39.719  19.841  25.684  1.00  0.00    -0.352 N 
ATOM     34  C   UNL A   1      41.057  19.826  26.023  1.00  0.00     0.251 C 
ATOM     35  H   UNL A   1      39.363  19.010  25.293  1.00  0.00     0.163 HD
ATOM     36  O   UNL A   1      41.747  18.839  25.831  1.00  0.00    -0.269 OA
BRANCH  34  37
ATOM     37  C   UNL A   1      41.660  21.054  26.587  1.00  0.00     0.039 A 
ATOM     38  C   UNL A   1      42.171  22.013  25.708  1.00  0.00     0.014 A 
ATOM     39  C   UNL A   1      41.645  21.289  27.964  1.00  0.00     0.014 A 
ATOM     40  C   UNL A   1      42.584  23.251  26.205  1.00  0.00     0.010 A 
ATOM     41  C   UNL A   1      41.999  22.544  28.449  1.00  0.00     0.010 A 
ATOM     42  C   UNL A   1      42.454  23.543  27.573  1.00  0.00    -0.014 A 
BRANCH  42  43
ATOM     43  C   UNL A   1      42.746  24.900  28.100  1.00  0.00     0.031 A 
ATOM     44  C   UNL A   1      44.137  25.264  28.534  1.00  0.00     0.074 A 
ATOM     45  C   UNL A   1      41.739  25.779  28.264  1.00  0.00     0.049 A 
ATOM     46  N   UNL A   1      44.566  26.376  29.075  1.00  0.00    -0.248 NA
ATOM     47  C   UNL A   1      45.176  24.238  28.359  1.00  0.00     0.031 C 
ATOM     48  C   UNL A   1      40.334  25.534  27.931  1.00  0.00     0.029 A 
ATOM     49  N   UNL A   1      41.742  27.058  28.765  1.00  0.00    -0.354 N 
ATOM     50  C   UNL A   1      45.918  26.177  29.323  1.00  0.00     0.074 A 
ATOM     51  C   UNL A   1      46.227  24.823  28.912  1.00  0.00     0.031 C 
ATOM     52  C   UNL A   1      39.617  26.634  28.212  1.00  0.00     0.029 A 
ATOM     53  C   UNL A   1      40.501  27.648  28.776  1.00  0.00     0.049 A 
ATOM     54  H   UNL A   1      42.556  27.508  29.085  1.00  0.00     0.167 HD
ATOM     55  C   UNL A   1      46.825  27.045  29.830  1.00  0.00     0.031 A 
ATOM     56  C   UNL A   1      40.117  28.867  29.197  1.00  0.00     0.031 A 
ATOM     57  C   UNL A   1      46.525  28.395  30.225  1.00  0.00     0.049 A 
ATOM     58  C   UNL A   1      41.142  29.815  29.752  1.00  0.00     0.074 A 
ATOM     59  C   UNL A   1      47.390  29.370  30.690  1.00  0.00     0.029 A 
ATOM     60  N   UNL A   1      45.259  28.961  30.204  1.00  0.00    -0.354 N 
ATOM     61  N   UNL A   1      42.430  29.634  29.914  1.00  0.00    -0.248 NA
ATOM     62  C   UNL A   1      40.660  31.139  30.173  1.00  0.00     0.031 C 
ATOM     63  C   UNL A   1      46.641  30.513  30.991  1.00  0.00     0.029 A 
ATOM     64  C   UNL A   1      45.317  30.264  30.668  1.00  0.00     0.049 A 
ATOM     65  H   UNL A   1      44.441  28.502  29.903  1.00  0.00     0.167 HD
ATOM     66  C   UNL A   1      42.917  30.827  30.430  1.00  0.00     0.074 A 
ATOM     67  C   UNL A   1      41.789  31.728  30.543  1.00  0.00     0.031 C 
ATOM     68  C   UNL A   1      44.186  31.148  30.777  1.00  0.00     0.031 A 
BRANCH  55  69
ATOM     69  C   UNL A   1      48.234  26.551  29.989  1.00  0.00    -0.014 A 
ATOM     70  C   UNL A   1      49.189  26.739  28.977  1.00  0.00     0.009 A 
ATOM     71  C   UNL A   1      48.620  25.910  31.177  1.00  0.00     0.009 A 
ATOM     72  C   UNL A   1      50.491  26.261  29.135  1.00  0.00     0.001 A 
ATOM     73  C   UNL A   1      49.929  25.456  31.343  1.00  0.00     0.001 A 
ATOM     74  C   UNL A   1      50.861  25.622  30.319  1.00  0.00     0.000 A 
ENDBRANCH  55  69
BRANCH  56  75
ATOM     75  C   UNL A   1      38.692  29.275  29.087  1.00  0.00    -0.014 A 
ATOM     76  C   UNL A   1      37.841  29.178  30.197  1.00  0.00     0.009 A 
ATOM     77  C   UNL A   1      38.179  29.763  27.876  1.00  0.00     0.009 A 
ATOM     78  C   UNL A   1      36.495  29.540  30.090  1.00  0.00     0.001 A 
ATOM     79  C   UNL A   1      36.840  30.148  27.779  1.00  0.00     0.001 A 
ATOM     80  C   UNL A   1      35.999  30.029  28.884  1.00  0.00     0.000 A 
ENDBRANCH  56  75
BRANCH  68  81
ATOM     81  C   UNL A   1      44.428  32.541  31.283  1.00  0.00    -0.014 A 
ATOM     82  C   UNL A   1      44.369  32.836  32.653  1.00  0.00     0.009 A 
ATOM     83  C   UNL A   1      44.760  33.562  30.379  1.00  0.00     0.009 A 
ATOM     84  C   UNL A   1      44.610  34.136  33.104  1.00  0.00     0.001 A 
ATOM     85  C   UNL A   1      45.024  34.853  30.834  1.00  0.00     0.001 A 
ATOM     86  C   UNL A   1      44.941  35.141  32.196  1.00  0.00     0.000 A 
ENDBRANCH  68  81
ENDBRANCH  42  43
ENDBRANCH  34  37
ENDBRANCH  32  33
ENDBRANCH  31  32
ENDBRANCH  30  31
ENDBRANCH   1  30
TORSDOF 17
ENDMDL
MODEL 2
REMARK VINA RESULT:     -11.4      1.099      5.844
REMARK SMILES COc1cccc(-c2ccc(=O)n(CC(=O)N[C@@H](C(=O)NCCCCNC(=O)c3ccc(-c4c5nc(c(-c6ccccc6)c6ccc([nH]6)c(-c6ccccc6)c6nc(c(-c7ccccc7)c7ccc4[nH]7)C=C6)C=C5)cc3)C(C)C)n2)c1
REMARK SMILES IDX 22 1 21 2 19 3 20 4 18 6 17 7 15 8 16 9 14 11 13 12 8 13
REMARK SMILES IDX 9 14 80 15 10 16 11 17 12 18 7 19 3 20 4 21 81 22 5 23 6 24
REMARK SMILES IDX 2 25 1 26 77 27 78 28 79 29 23 30 24 31 25 32 26 33 27 34
REMARK SMILES IDX 28 36 29 37 30 38 76 39 31 40 75 41 32 42 33 43 34 44 69 45
REMARK SMILES IDX 35 46 74 47 68 48 70 49 36 50 73 51 67 52 66 53 37 55 59 56
REMARK SMILES IDX 44 57 58 58 45 59 48 60 57 61 71 62 46 63 47 64 56 66 72 67
REMARK SMILES IDX 49 68 38 69 39 70 43 71 40 72 42 73 41 74 60 75 61 76 65 77
REMARK SMILES IDX 62 78 64 79 63 80 50 81 51 82 55 83 52 84 54 85 53 86
REMARK H PARENT 21 5 17 10 26 35 70 54 48 65
REMARK Flexibility Score: inf
ROOT
ATOM      1  C   UNL A   1      36.217  23.157  25.192  1.00  0.00     0.116 C 
ENDROOT
BRANCH   1   2
ATOM      2  N   UNL A   1      35.615  22.542  26.350  1.00  0.00    -0.354 N 
ATOM      3  C   UNL A   1      34.357  22.011  26.480  1.00  0.00     0.242 C 
ATOM      4  O   UNL A   1      34.135  21.377  27.514  1.00  0.00    -0.273 OA
ATOM      5  H   UNL A   1      36.182  22.498  27.154  1.00  0.00     0.163 HD
BRANCH   3   6
ATOM      6  C   UNL A   1      33.317  22.120  25.315  1.00  0.00     0.173 C 
BRANCH   6   7
ATOM      7  N   UNL A   1      32.155  22.879  25.794  1.00  0.00    -0.342 N 
ATOM      8  C   UNL A   1      31.320  23.744  25.147  1.00  0.00     0.242 C 
ATOM      9  O   UNL A   1      30.388  24.207  25.813  1.00  0.00    -0.273 OA
ATOM     10  H   UNL A   1      31.941  22.739  26.745  1.00  0.00     0.164 HD
BRANCH   8  11
ATOM     11  C   UNL A   1      31.447  24.055  23.647  1.00  0.00     0.248 C 
BRANCH  11  12
ATOM     12  N   UNL A   1      31.724  25.449  23.308  1.00  0.00    -0.220 N 
ATOM     13  C   UNL A   1      30.853  27.516  22.872  1.00  0.00     0.091 A 
ATOM     14  C   UNL A   1      32.179  28.115  22.642  1.00  0.00     0.036 A 
ATOM     15  N   UNL A   1      30.630  26.281  23.182  1.00  0.00    -0.169 NA
ATOM     16  C   UNL A   1      33.226  27.312  22.840  1.00  0.00     0.075 A 
ATOM     17  C   UNL A   1      33.040  25.890  23.209  1.00  0.00     0.267 A 
ATOM     18  O   UNL A   1      34.031  25.180  23.335  1.00  0.00    -0.268 OA
BRANCH  13  19
ATOM     19  C   UNL A   1      29.720  28.446  22.774  1.00  0.00     0.006 A 
ATOM     20  C   UNL A   1      28.939  30.651  22.207  1.00  0.00     0.119 A 
ATOM     21  C   UNL A   1      27.652  30.275  22.604  1.00  0.00     0.046 A 
ATOM     22  C   UNL A   1      29.983  29.738  22.313  1.00  0.00     0.056 A 
ATOM     23  C   UNL A   1      27.398  28.981  23.072  1.00  0.00     0.005 A 
ATOM     24  C   UNL A   1      28.437  28.055  23.158  1.00  0.00     0.011 A 
BRANCH  20  25
ATOM     25  O   UNL A   1      29.072  31.939  21.764  1.00  0.00    -0.497 OA
ATOM     26  C   UNL A   1      28.680  32.946  22.694  1.00  0.00     0.278 C 
ENDBRANCH  20  25
ENDBRANCH  13  19
ENDBRANCH  11  12
ENDBRANCH   8  11
ENDBRANCH   6   7
BRANCH   6  27
ATOM     27  C   UNL A   1      32.914  20.709  24.798  1.00  0.00     0.015 C 
ATOM     28  C   UNL A   1      32.364  20.705  23.368  1.00  0.00     0.010 C 
ATOM     29  C   UNL A   1      34.113  19.749  24.855  1.00  0.00     0.010 C 
ENDBRANCH   6  27
ENDBRANCH   3   6
ENDBRANCH   1   2
BRANCH   1  30
ATOM     30  C   UNL A   1      36.955  22.171  24.295  1.00  0.00     0.023 C 
BRANCH  30  31
ATOM     31  C   UNL A   1      37.499  20.946  25.027  1.00  0.00     0.023 C 
BRANCH  31  32
ATOM     32  C   UNL A   1      38.864  21.128  25.686  1.00  0.00     0.116 C 
BRANCH  32  33
ATOM     33  N   UNL A   1      39.730  19.961  25.614  1.00  0.00    -0.352 N 
ATOM     34  C   UNL A   1      41.041  19.852  26.031  1.00  0.00     0.251 C 
ATOM     35  H   UNL A   1      39.334  19.152  25.218  1.00  0.00     0.163 HD
ATOM     36  O   UNL A   1      41.662  18.810  25.899  1.00  0.00    -0.269 OA
BRANCH  34  37
ATOM     37  C   UNL A   1      41.706  21.042  26.606  1.00  0.00     0.039 A 
ATOM     38  C   UNL A   1      42.252  21.990  25.737  1.00  0.00     0.014 A 
ATOM     39  C   UNL A   1      41.714  21.257  27.987  1.00  0.00     0.014 A 
ATOM     40  C   UNL A   1      42.726  23.200  26.248  1.00  0.00     0.010 A 
ATOM     41  C   UNL A   1      42.130  22.487  28.486  1.00  0.00     0.010 A 
ATOM     42  C   UNL A   1      42.622  23.477  27.620  1.00  0.00    -0.014 A 
BRANCH  42  43
ATOM     43  C   UNL A   1      42.981  24.811  28.164  1.00  0.00     0.031 A 
ATOM     44  C   UNL A   1      41.923  25.853  28.386  1.00  0.00     0.074 A 
ATOM     45  C   UNL A   1      44.277  25.112  28.380  1.00  0.00     0.049 A 
ATOM     46  N   UNL A   1      42.057  27.090  28.792  1.00  0.00    -0.248 NA
ATOM     47  C   UNL A   1      40.536  25.462  28.090  1.00  0.00     0.031 C 
ATOM     48  C   UNL A   1      45.408  24.209  28.157  1.00  0.00     0.029 A 
ATOM     49  N   UNL A   1      44.862  26.271  28.828  1.00  0.00    -0.354 N 
ATOM     50  C   UNL A   1      40.778  27.630  28.783  1.00  0.00     0.074 A 
ATOM     51  C   UNL A   1      39.888  26.600  28.290  1.00  0.00     0.031 C 
ATOM     52  C   UNL A   1      46.546  24.839  28.492  1.00  0.00     0.029 A 
ATOM     53  C   UNL A   1      46.231  26.197  28.920  1.00  0.00     0.049 A 
ATOM     54  H   UNL A   1      44.349  27.078  29.061  1.00  0.00     0.167 HD
ATOM     55  C   UNL A   1      40.376  28.866  29.165  1.00  0.00     0.031 A 
ATOM     56  C   UNL A   1      47.132  27.120  29.304  1.00  0.00     0.031 A 
ATOM     57  C   UNL A   1      41.254  29.886  29.669  1.00  0.00     0.049 A 
ATOM     58  C   UNL A   1      46.661  28.482  29.727  1.00  0.00     0.074 A 
ATOM     59  C   UNL A   1      40.930  31.147  30.141  1.00  0.00     0.029 A 
ATOM     60  N   UNL A   1      42.631  29.766  29.764  1.00  0.00    -0.354 N 
ATOM     61  N   UNL A   1      45.439  28.953  29.779  1.00  0.00    -0.248 NA
ATOM     62  C   UNL A   1      47.694  29.437  30.155  1.00  0.00     0.031 C 
ATOM     63  C   UNL A   1      42.116  31.805  30.483  1.00  0.00     0.029 A 
ATOM     64  C   UNL A   1      43.174  30.936  30.267  1.00  0.00     0.049 A 
ATOM     65  H   UNL A   1      43.147  28.966  29.511  1.00  0.00     0.167 HD
ATOM     66  C   UNL A   1      45.553  30.247  30.269  1.00  0.00     0.074 A 
ATOM     67  C   UNL A   1      46.962  30.483  30.510  1.00  0.00     0.031 C 
ATOM     68  C   UNL A   1      44.578  31.157  30.500  1.00  0.00     0.031 A 
BRANCH  55  69
ATOM     69  C   UNL A   1      38.911  29.178  29.046  1.00  0.00    -0.014 A 
ATOM     70  C   UNL A   1      38.039  28.994  30.130  1.00  0.00     0.009 A 
ATOM     71  C   UNL A   1      38.401  29.686  27.841  1.00  0.00     0.009 A 
ATOM     72  C   UNL A   1      36.677  29.275  29.998  1.00  0.00     0.001 A 
ATOM     73  C   UNL A   1      37.045  29.992  27.720  1.00  0.00     0.001 A 
ATOM     74  C   UNL A   1      36.182  29.777  28.794  1.00  0.00     0.000 A 
ENDBRANCH  55  69
BRANCH  56  75
ATOM     75  C   UNL A   1      48.578  26.780  29.328  1.00  0.00    -0.014 A 
ATOM     76  C   UNL A   1      49.382  27.025  28.205  1.00  0.00     0.009 A 
ATOM     77  C   UNL A   1      49.160  26.210  30.471  1.00  0.00     0.009 A 
ATOM     78  C   UNL A   1      50.738  26.686  28.218  1.00  0.00     0.001 A 
ATOM     79  C   UNL A   1      50.520  25.894  30.489  1.00  0.00     0.001 A 
ATOM     80  C   UNL A   1      51.305  26.126  29.361  1.00  0.00     0.000 A 
ENDBRANCH  56  75
BRANCH  68  81
ATOM     81  C   UNL A   1      44.995  32.482  31.070  1.00  0.00    -0.014 A 
ATOM     82  C   UNL A   1      45.064  32.688  32.456  1.00  0.00     0.009 A 
ATOM     83  C   UNL A   1      45.364  33.525  30.207  1.00  0.00     0.009 A 
ATOM     84  C   UNL A   1      45.467  33.924  32.966  1.00  0.00     0.001 A 
ATOM     85  C   UNL A   1      45.790  34.751  30.718  1.00  0.00     0.001 A 
ATOM     86  C   UNL A   1      45.833  34.952  32.097  1.00  0.00     0.000 A 
ENDBRANCH  68  81
ENDBRANCH  42  43
ENDBRANCH  34  37
ENDBRANCH  32  33
ENDBRANCH  31  32
ENDBRANCH  30  31
ENDBRANCH   1  30
TORSDOF 17
ENDMDL
MODEL 3
REMARK VINA RESULT:     -11.1      3.635      9.548
REMARK SMILES COc1cccc(-c2ccc(=O)n(CC(=O)N[C@@H](C(=O)NCCCCNC(=O)c3ccc(-c4c5nc(c(-c6ccccc6)c6ccc([nH]6)c(-c6ccccc6)c6nc(c(-c7ccccc7)c7ccc4[nH]7)C=C6)C=C5)cc3)C(C)C)n2)c1
REMARK SMILES IDX 22 1 21 2 19 3 20 4 18 6 17 7 15 8 16 9 14 11 13 12 8 13
REMARK SMILES IDX 9 14 80 15 10 16 11 17 12 18 7 19 3 20 4 21 81 22 5 23 6 24
REMARK SMILES IDX 2 25 1 26 77 27 78 28 79 29 23 30 24 31 25 32 26 33 27 34
REMARK SMILES IDX 28 36 29 37 30 38 76 39 31 40 75 41 32 42 33 43 34 44 69 45
REMARK SMILES IDX 35 46 74 47 68 48 70 49 36 50 73 51 67 52 66 53 37 55 59 56
REMARK SMILES IDX 44 57 58 58 45 59 48 60 57 61 71 62 46 63 47 64 56 66 72 67
REMARK SMILES IDX 49 68 38 69 39 70 43 71 40 72 42 73 41 74 60 75 61 76 65 77
REMARK SMILES IDX 62 78 64 79 63 80 50 81 51 82 55 83 52 84 54 85 53 86
REMARK H PARENT 21 5 17 10 26 35 70 54 48 65
REMARK Flexibility Score: inf
ROOT
ATOM      1  C   UNL A   1      31.750  29.471  25.688  1.00  0.00     0.116 C 
ENDROOT
BRANCH   1   2
ATOM      2  N   UNL A   1      32.678  29.567  24.587  1.00  0.00    -0.354 N 
ATOM      3  C   UNL A   1      32.775  28.767  23.478  1.00  0.00     0.242 C 
ATOM      4  O   UNL A   1      33.532  29.159  22.586  1.00  0.00    -0.273 OA
ATOM      5  H   UNL A   1      33.328  30.305  24.640  1.00  0.00     0.163 HD
BRANCH   3   6
ATOM      6  C   UNL A   1      31.879  27.492  23.328  1.00  0.00     0.173 C 
BRANCH   6   7
ATOM      7  N   UNL A   1      32.648  26.459  22.624  1.00  0.00    -0.342 N 
ATOM      8  C   UNL A   1      32.585  25.096  22.683  1.00  0.00     0.242 C 
ATOM      9  O   UNL A   1      33.345  24.478  21.931  1.00  0.00    -0.273 OA
ATOM     10  H   UNL A   1      33.326  26.809  22.001  1.00  0.00     0.164 HD
BRANCH   8  11
ATOM     11  C   UNL A   1      31.557  24.351  23.551  1.00  0.00     0.248 C 
BRANCH  11  12
ATOM     12  N   UNL A   1      32.102  23.335  24.449  1.00  0.00    -0.220 N 
ATOM     13  C   UNL A   1      32.603  21.126  24.753  1.00  0.00     0.091 A 
ATOM     14  C   UNL A   1      33.107  21.346  26.120  1.00  0.00     0.036 A 
ATOM     15  N   UNL A   1      32.135  22.042  23.970  1.00  0.00    -0.169 NA
ATOM     16  C   UNL A   1      33.135  22.613  26.537  1.00  0.00     0.075 A 
ATOM     17  C   UNL A   1      32.625  23.711  25.682  1.00  0.00     0.267 A 
ATOM     18  O   UNL A   1      32.628  24.853  26.128  1.00  0.00    -0.268 OA
BRANCH  13  19
ATOM     19  C   UNL A   1      32.699  19.745  24.264  1.00  0.00     0.006 A 
ATOM     20  C   UNL A   1      33.279  17.456  24.730  1.00  0.00     0.119 A 
ATOM     21  C   UNL A   1      32.957  17.127  23.410  1.00  0.00     0.046 A 
ATOM     22  C   UNL A   1      33.170  18.776  25.154  1.00  0.00     0.056 A 
ATOM     23  C   UNL A   1      32.493  18.104  22.523  1.00  0.00     0.005 A 
ATOM     24  C   UNL A   1      32.360  19.425  22.949  1.00  0.00     0.011 A 
BRANCH  20  25
ATOM     25  O   UNL A   1      33.721  16.422  25.510  1.00  0.00    -0.497 OA
ATOM     26  C   UNL A   1      35.055  15.992  25.252  1.00  0.00     0.278 C 
ENDBRANCH  20  25
ENDBRANCH  13  19
ENDBRANCH  11  12
ENDBRANCH   8  11
ENDBRANCH   6   7
BRANCH   6  27
ATOM     27  C   UNL A   1      30.553  27.832  22.589  1.00  0.00     0.015 C 
ATOM     28  C   UNL A   1      29.291  27.488  23.389  1.00  0.00     0.010 C 
ATOM     29  C   UNL A   1      30.501  29.324  22.226  1.00  0.00     0.010 C 
ENDBRANCH   6  27
ENDBRANCH   3   6
ENDBRANCH   1   2
BRANCH   1  30
ATOM     30  C   UNL A   1      32.205  30.222  26.933  1.00  0.00     0.023 C 
BRANCH  30  31
ATOM     31  C   UNL A   1      31.825  31.702  26.945  1.00  0.00     0.023 C 
BRANCH  31  32
ATOM     32  C   UNL A   1      32.941  32.663  27.345  1.00  0.00     0.116 C 
BRANCH  32  33
ATOM     33  N   UNL A   1      32.486  33.984  27.749  1.00  0.00    -0.352 N 
ATOM     34  C   UNL A   1      33.080  34.848  28.646  1.00  0.00     0.251 C 
ATOM     35  H   UNL A   1      31.651  34.300  27.333  1.00  0.00     0.163 HD
ATOM     36  O   UNL A   1      32.581  35.931  28.907  1.00  0.00    -0.269 OA
BRANCH  34  37
ATOM     37  C   UNL A   1      34.320  34.421  29.330  1.00  0.00     0.039 A 
ATOM     38  C   UNL A   1      34.215  33.781  30.568  1.00  0.00     0.014 A 
ATOM     39  C   UNL A   1      35.564  34.576  28.714  1.00  0.00     0.014 A 
ATOM     40  C   UNL A   1      35.352  33.214  31.148  1.00  0.00     0.010 A 
ATOM     41  C   UNL A   1      36.683  33.958  29.264  1.00  0.00     0.010 A 
ATOM     42  C   UNL A   1      36.584  33.255  30.475  1.00  0.00    -0.014 A 
BRANCH  42  43
ATOM     43  C   UNL A   1      37.770  32.533  31.001  1.00  0.00     0.031 A 
ATOM     44  C   UNL A   1      38.516  33.060  32.192  1.00  0.00     0.074 A 
ATOM     45  C   UNL A   1      38.225  31.443  30.351  1.00  0.00     0.049 A 
ATOM     46  N   UNL A   1      39.607  32.600  32.752  1.00  0.00    -0.248 NA
ATOM     47  C   UNL A   1      37.981  34.276  32.824  1.00  0.00     0.031 C 
ATOM     48  C   UNL A   1      37.623  30.856  29.152  1.00  0.00     0.029 A 
ATOM     49  N   UNL A   1      39.309  30.639  30.606  1.00  0.00    -0.354 N 
ATOM     50  C   UNL A   1      39.899  33.479  33.787  1.00  0.00     0.074 A 
ATOM     51  C   UNL A   1      38.896  34.522  33.751  1.00  0.00     0.031 C 
ATOM     52  C   UNL A   1      38.331  29.774  28.791  1.00  0.00     0.029 A 
ATOM     53  C   UNL A   1      39.453  29.609  29.709  1.00  0.00     0.049 A 
ATOM     54  H   UNL A   1      39.924  30.788  31.360  1.00  0.00     0.167 HD
ATOM     55  C   UNL A   1      40.901  33.416  34.696  1.00  0.00     0.031 A 
ATOM     56  C   UNL A   1      40.385  28.641  29.631  1.00  0.00     0.031 A 
ATOM     57  C   UNL A   1      41.890  32.374  34.744  1.00  0.00     0.049 A 
ATOM     58  C   UNL A   1      41.484  28.590  30.654  1.00  0.00     0.074 A 
ATOM     59  C   UNL A   1      42.905  32.191  35.667  1.00  0.00     0.029 A 
ATOM     60  N   UNL A   1      41.990  31.338  33.829  1.00  0.00    -0.354 N 
ATOM     61  N   UNL A   1      41.704  29.390  31.669  1.00  0.00    -0.248 NA
ATOM     62  C   UNL A   1      42.457  27.495  30.525  1.00  0.00     0.031 C 
ATOM     63  C   UNL A   1      43.647  31.067  35.286  1.00  0.00     0.029 A 
ATOM     64  C   UNL A   1      43.063  30.525  34.152  1.00  0.00     0.049 A 
ATOM     65  H   UNL A   1      41.388  31.202  33.062  1.00  0.00     0.167 HD
ATOM     66  C   UNL A   1      42.823  28.882  32.314  1.00  0.00     0.074 A 
ATOM     67  C   UNL A   1      43.229  27.698  31.584  1.00  0.00     0.031 C 
ATOM     68  C   UNL A   1      43.457  29.352  33.415  1.00  0.00     0.031 A 
BRANCH  55  69
ATOM     69  C   UNL A   1      40.973  34.518  35.714  1.00  0.00    -0.014 A 
ATOM     70  C   UNL A   1      40.219  34.465  36.897  1.00  0.00     0.009 A 
ATOM     71  C   UNL A   1      41.825  35.613  35.500  1.00  0.00     0.009 A 
ATOM     72  C   UNL A   1      40.288  35.505  37.826  1.00  0.00     0.001 A 
ATOM     73  C   UNL A   1      41.912  36.638  36.443  1.00  0.00     0.001 A 
ATOM     74  C   UNL A   1      41.135  36.589  37.600  1.00  0.00     0.000 A 
ENDBRANCH  55  69
BRANCH  56  75
ATOM     75  C   UNL A   1      40.307  27.621  28.554  1.00  0.00    -0.014 A 
ATOM     76  C   UNL A   1      39.593  26.431  28.757  1.00  0.00     0.009 A 
ATOM     77  C   UNL A   1      40.944  27.832  27.322  1.00  0.00     0.009 A 
ATOM     78  C   UNL A   1      39.537  25.460  27.753  1.00  0.00     0.001 A 
ATOM     79  C   UNL A   1      40.866  26.870  26.312  1.00  0.00     0.001 A 
ATOM     80  C   UNL A   1      40.168  25.683  26.531  1.00  0.00     0.000 A 
ENDBRANCH  56  75
BRANCH  68  81
ATOM     81  C   UNL A   1      44.637  28.570  33.915  1.00  0.00    -0.014 A 
ATOM     82  C   UNL A   1      44.476  27.515  34.826  1.00  0.00     0.009 A 
ATOM     83  C   UNL A   1      45.922  28.869  33.437  1.00  0.00     0.009 A 
ATOM     84  C   UNL A   1      45.586  26.793  35.270  1.00  0.00     0.001 A 
ATOM     85  C   UNL A   1      47.026  28.129  33.863  1.00  0.00     0.001 A 
ATOM     86  C   UNL A   1      46.857  27.097  34.785  1.00  0.00     0.000 A 
ENDBRANCH  68  81
ENDBRANCH  42  43
ENDBRANCH  34  37
ENDBRANCH  32  33
ENDBRANCH  31  32
ENDBRANCH  30  31
ENDBRANCH   1  30
TORSDOF 17
ENDMDL
