MODEL 1
REMARK VINA RESULT:     -11.7      0.000      0.000
REMARK SMILES CC1CCN(S(=O)(=O)c2ccc3c(ccn3CC(=O)NCCCCNC(=O)c3ccc(-c4c5nc(c(-c6ccccc6)c6ccc([nH]6)c(-c6ccccc6)c6nc(c(-c7ccccc7)c7ccc4[nH]7)C=C6)C=C5)cc3)c2)CC1
REMARK SMILES IDX 22 1 21 2 20 3 18 4 19 5 17 7 16 8 9 9 10 10 76 11 11 12
REMARK SMILES IDX 13 13 12 14 14 15 15 16 6 17 7 18 8 19 5 20 1 21 2 22 3 23
REMARK SMILES IDX 78 24 4 25 77 26 23 27 24 28 25 29 26 30 27 32 28 33 29 34
REMARK SMILES IDX 75 35 30 36 74 37 31 38 32 39 33 40 68 41 34 42 73 43 67 44
REMARK SMILES IDX 69 45 35 46 72 47 66 48 65 49 36 51 58 52 43 53 57 54 44 55
REMARK SMILES IDX 47 56 56 57 70 58 45 59 46 60 55 62 71 63 48 64 37 65 38 66
REMARK SMILES IDX 42 67 39 68 41 69 40 70 59 71 60 72 64 73 61 74 63 75 62 76
REMARK SMILES IDX 49 77 50 78 54 79 51 80 53 81 52 82
REMARK H PARENT 20 6 25 31 69 50 47 61
REMARK Flexibility Score: inf
ROOT
ATOM      1  C   UNL A   1      41.231  20.135  26.515  1.00  0.00     0.023 C 
ENDROOT
BRANCH   1   2
ATOM      2  C   UNL A   1      40.010  20.612  25.730  1.00  0.00     0.116 C 
BRANCH   2   3
ATOM      3  N   UNL A   1      39.407  21.795  26.313  1.00  0.00    -0.355 N 
ATOM      4  C   UNL A   1      38.314  22.502  25.895  1.00  0.00     0.239 C 
ATOM      5  O   UNL A   1      37.980  23.490  26.555  1.00  0.00    -0.273 OA
ATOM      6  H   UNL A   1      39.846  22.137  27.124  1.00  0.00     0.163 HD
BRANCH   4   7
ATOM      7  C   UNL A   1      37.496  22.047  24.702  1.00  0.00     0.222 C 
BRANCH   7   8
ATOM      8  N   UNL A   1      36.079  21.893  24.996  1.00  0.00    -0.338 N 
ATOM      9  C   UNL A   1      32.888  24.514  25.187  1.00  0.00     0.083 A 
ATOM     10  C   UNL A   1      34.123  25.072  24.860  1.00  0.00     0.024 A 
ATOM     11  C   UNL A   1      32.765  23.140  25.432  1.00  0.00     0.032 A 
ATOM     12  C   UNL A   1      35.244  24.268  24.669  1.00  0.00     0.028 A 
ATOM     13  C   UNL A   1      33.913  22.325  25.343  1.00  0.00     0.001 A 
ATOM     14  C   UNL A   1      35.129  22.898  24.958  1.00  0.00     0.049 A 
ATOM     15  C   UNL A   1      34.158  20.948  25.593  1.00  0.00     0.028 A 
ATOM     16  C   UNL A   1      35.492  20.708  25.360  1.00  0.00     0.087 A 
BRANCH   9  17
ATOM     17  S   UNL A   1      31.497  25.581  25.486  1.00  0.00     0.243 S 
ATOM     18  O   UNL A   1      32.018  26.941  25.477  1.00  0.00    -0.207 OA
ATOM     19  O   UNL A   1      30.801  25.082  26.644  1.00  0.00    -0.207 OA
BRANCH  17  20
ATOM     20  N   UNL A   1      30.446  25.381  24.143  1.00  0.00    -0.198 NA
ATOM     21  C   UNL A   1      30.932  29.218  22.331  1.00  0.00     0.008 C 
ATOM     22  C   UNL A   1      30.349  27.814  22.491  1.00  0.00    -0.012 C 
ATOM     23  C   UNL A   1      29.596  27.698  23.829  1.00  0.00     0.020 C 
ATOM     24  C   UNL A   1      31.458  26.760  22.338  1.00  0.00     0.020 C 
ATOM     25  C   UNL A   1      29.238  26.258  24.192  1.00  0.00     0.103 C 
ATOM     26  C   UNL A   1      30.986  25.374  22.762  1.00  0.00     0.103 C 
ENDBRANCH  17  20
ENDBRANCH   9  17
ENDBRANCH   7   8
ENDBRANCH   4   7
ENDBRANCH   2   3
ENDBRANCH   1   2
BRANCH   1  27
ATOM     27  C   UNL A   1      41.866  18.840  25.988  1.00  0.00     0.023 C 
BRANCH  27  28
ATOM     28  C   UNL A   1      43.371  18.707  26.234  1.00  0.00     0.116 C 
BRANCH  28  29
ATOM     29  N   UNL A   1      44.189  19.094  25.102  1.00  0.00    -0.352 N 
ATOM     30  C   UNL A   1      44.826  20.242  24.720  1.00  0.00     0.251 C 
ATOM     31  H   UNL A   1      44.315  18.359  24.459  1.00  0.00     0.163 HD
ATOM     32  O   UNL A   1      45.633  20.124  23.792  1.00  0.00    -0.269 OA
BRANCH  30  33
ATOM     33  C   UNL A   1      44.581  21.600  25.281  1.00  0.00     0.039 A 
ATOM     34  C   UNL A   1      45.294  22.186  26.324  1.00  0.00     0.014 A 
ATOM     35  C   UNL A   1      43.475  22.300  24.752  1.00  0.00     0.014 A 
ATOM     36  C   UNL A   1      44.864  23.392  26.874  1.00  0.00     0.010 A 
ATOM     37  C   UNL A   1      43.043  23.509  25.298  1.00  0.00     0.010 A 
ATOM     38  C   UNL A   1      43.717  24.036  26.389  1.00  0.00    -0.014 A 
BRANCH  38  39
ATOM     39  C   UNL A   1      43.350  25.308  27.010  1.00  0.00     0.031 A 
ATOM     40  C   UNL A   1      44.308  26.417  26.757  1.00  0.00     0.074 A 
ATOM     41  C   UNL A   1      42.247  25.536  27.750  1.00  0.00     0.049 A 
ATOM     42  N   UNL A   1      45.094  26.982  27.613  1.00  0.00    -0.248 NA
ATOM     43  C   UNL A   1      44.495  26.873  25.374  1.00  0.00     0.031 C 
ATOM     44  C   UNL A   1      41.059  24.699  27.920  1.00  0.00     0.029 A 
ATOM     45  N   UNL A   1      41.944  26.650  28.482  1.00  0.00    -0.354 N 
ATOM     46  C   UNL A   1      45.792  27.963  26.916  1.00  0.00     0.074 A 
ATOM     47  C   UNL A   1      45.456  27.787  25.525  1.00  0.00     0.031 C 
ATOM     48  C   UNL A   1      40.086  25.418  28.530  1.00  0.00     0.029 A 
ATOM     49  C   UNL A   1      40.635  26.700  28.939  1.00  0.00     0.049 A 
ATOM     50  H   UNL A   1      42.602  27.358  28.670  1.00  0.00     0.167 HD
ATOM     51  C   UNL A   1      46.481  28.946  27.559  1.00  0.00     0.031 A 
ATOM     52  C   UNL A   1      40.049  27.734  29.590  1.00  0.00     0.031 A 
ATOM     53  C   UNL A   1      46.713  28.621  28.940  1.00  0.00     0.049 A 
ATOM     54  C   UNL A   1      41.119  28.542  30.211  1.00  0.00     0.074 A 
ATOM     55  C   UNL A   1      47.431  27.645  29.601  1.00  0.00     0.029 A 
ATOM     56  N   UNL A   1      45.853  29.156  29.867  1.00  0.00    -0.354 N 
ATOM     57  N   UNL A   1      41.849  28.134  31.207  1.00  0.00    -0.248 NA
ATOM     58  C   UNL A   1      41.637  29.686  29.482  1.00  0.00     0.031 C 
ATOM     59  C   UNL A   1      46.650  27.326  30.748  1.00  0.00     0.029 A 
ATOM     60  C   UNL A   1      45.533  28.166  30.759  1.00  0.00     0.049 A 
ATOM     61  H   UNL A   1      45.526  30.084  29.888  1.00  0.00     0.167 HD
ATOM     62  C   UNL A   1      43.105  28.662  30.959  1.00  0.00     0.074 A 
ATOM     63  C   UNL A   1      42.883  29.704  29.959  1.00  0.00     0.031 C 
ATOM     64  C   UNL A   1      44.234  28.022  31.382  1.00  0.00     0.031 A 
BRANCH  51  65
ATOM     65  C   UNL A   1      46.664  30.343  27.024  1.00  0.00    -0.014 A 
ATOM     66  C   UNL A   1      45.590  31.179  26.667  1.00  0.00     0.009 A 
ATOM     67  C   UNL A   1      47.930  30.951  27.122  1.00  0.00     0.009 A 
ATOM     68  C   UNL A   1      45.760  32.547  26.439  1.00  0.00     0.001 A 
ATOM     69  C   UNL A   1      48.098  32.328  26.933  1.00  0.00     0.001 A 
ATOM     70  C   UNL A   1      47.010  33.127  26.597  1.00  0.00     0.000 A 
ENDBRANCH  51  65
BRANCH  52  71
ATOM     71  C   UNL A   1      38.678  28.273  29.446  1.00  0.00    -0.014 A 
ATOM     72  C   UNL A   1      38.273  28.829  28.220  1.00  0.00     0.009 A 
ATOM     73  C   UNL A   1      37.900  28.552  30.583  1.00  0.00     0.009 A 
ATOM     74  C   UNL A   1      37.168  29.685  28.145  1.00  0.00     0.001 A 
ATOM     75  C   UNL A   1      36.795  29.410  30.507  1.00  0.00     0.001 A 
ATOM     76  C   UNL A   1      36.443  29.992  29.292  1.00  0.00     0.000 A 
ENDBRANCH  52  71
BRANCH  64  77
ATOM     77  C   UNL A   1      44.091  26.885  32.372  1.00  0.00    -0.014 A 
ATOM     78  C   UNL A   1      44.018  27.205  33.738  1.00  0.00     0.009 A 
ATOM     79  C   UNL A   1      44.201  25.529  32.016  1.00  0.00     0.009 A 
ATOM     80  C   UNL A   1      44.074  26.211  34.716  1.00  0.00     0.001 A 
ATOM     81  C   UNL A   1      44.225  24.529  32.996  1.00  0.00     0.001 A 
ATOM     82  C   UNL A   1      44.175  24.873  34.345  1.00  0.00     0.000 A 
ENDBRANCH  64  77
ENDBRANCH  38  39
ENDBRANCH  30  33
ENDBRANCH  28  29
ENDBRANCH  27  28
ENDBRANCH   1  27
TORSDOF 14
ENDMDL
MODEL 2
REMARK VINA RESULT:     -11.3      3.307      8.911
REMARK SMILES CC1CCN(S(=O)(=O)c2ccc3c(ccn3CC(=O)NCCCCNC(=O)c3ccc(-c4c5nc(c(-c6ccccc6)c6ccc([nH]6)c(-c6ccccc6)c6nc(c(-c7ccccc7)c7ccc4[nH]7)C=C6)C=C5)cc3)c2)CC1
REMARK SMILES IDX 22 1 21 2 20 3 18 4 19 5 17 7 16 8 9 9 10 10 76 11 11 12
REMARK SMILES IDX 13 13 12 14 14 15 15 16 6 17 7 18 8 19 5 20 1 21 2 22 3 23
REMARK SMILES IDX 78 24 4 25 77 26 23 27 24 28 25 29 26 30 27 32 28 33 29 34
REMARK SMILES IDX 75 35 30 36 74 37 31 38 32 39 33 40 68 41 34 42 73 43 67 44
REMARK SMILES IDX 69 45 35 46 72 47 66 48 65 49 36 51 58 52 43 53 57 54 44 55
REMARK SMILES IDX 47 56 56 57 70 58 45 59 46 60 55 62 71 63 48 64 37 65 38 66
REMARK SMILES IDX 42 67 39 68 41 69 40 70 59 71 60 72 64 73 61 74 63 75 62 76
REMARK SMILES IDX 49 77 50 78 54 79 51 80 53 81 52 82
REMARK H PARENT 20 6 25 31 69 50 47 61
REMARK Flexibility Score: inf
ROOT
ATOM      1  C   UNL A   1      34.041  34.943  31.532  1.00  0.00     0.023 C 
ENDROOT
BRANCH   1   2
ATOM      2  C   UNL A   1      33.378  35.103  30.165  1.00  0.00     0.116 C 
BRANCH   2   3
ATOM      3  N   UNL A   1      34.330  35.008  29.075  1.00  0.00    -0.355 N 
ATOM      4  C   UNL A   1      34.437  34.055  28.102  1.00  0.00     0.239 C 
ATOM      5  O   UNL A   1      35.337  34.180  27.268  1.00  0.00    -0.273 OA
ATOM      6  H   UNL A   1      34.993  35.734  29.030  1.00  0.00     0.163 HD
BRANCH   4   7
ATOM      7  C   UNL A   1      33.437  32.919  28.006  1.00  0.00     0.222 C 
BRANCH   7   8
ATOM      8  N   UNL A   1      34.050  31.628  27.730  1.00  0.00    -0.338 N 
ATOM      9  C   UNL A   1      32.635  28.039  26.246  1.00  0.00     0.083 A 
ATOM     10  C   UNL A   1      31.701  29.068  26.359  1.00  0.00     0.024 A 
ATOM     11  C   UNL A   1      33.970  28.238  26.621  1.00  0.00     0.032 A 
ATOM     12  C   UNL A   1      32.089  30.346  26.751  1.00  0.00     0.028 A 
ATOM     13  C   UNL A   1      34.359  29.500  27.118  1.00  0.00     0.001 A 
ATOM     14  C   UNL A   1      33.417  30.533  27.168  1.00  0.00     0.049 A 
ATOM     15  C   UNL A   1      35.575  30.013  27.645  1.00  0.00     0.028 A 
ATOM     16  C   UNL A   1      35.360  31.324  28.000  1.00  0.00     0.087 A 
BRANCH   9  17
ATOM     17  S   UNL A   1      32.088  26.405  25.805  1.00  0.00     0.243 S 
ATOM     18  O   UNL A   1      30.825  26.197  26.501  1.00  0.00    -0.207 OA
ATOM     19  O   UNL A   1      33.187  25.500  26.019  1.00  0.00    -0.207 OA
BRANCH  17  20
ATOM     20  N   UNL A   1      31.789  26.443  24.114  1.00  0.00    -0.198 NA
ATOM     21  C   UNL A   1      33.158  22.526  23.102  1.00  0.00     0.008 C 
ATOM     22  C   UNL A   1      32.602  23.924  22.830  1.00  0.00    -0.012 C 
ATOM     23  C   UNL A   1      33.622  24.995  23.255  1.00  0.00     0.020 C 
ATOM     24  C   UNL A   1      31.237  24.093  23.517  1.00  0.00     0.020 C 
ATOM     25  C   UNL A   1      33.032  26.404  23.286  1.00  0.00     0.103 C 
ATOM     26  C   UNL A   1      30.775  25.545  23.510  1.00  0.00     0.103 C 
ENDBRANCH  17  20
ENDBRANCH   9  17
ENDBRANCH   7   8
ENDBRANCH   4   7
ENDBRANCH   2   3
ENDBRANCH   1   2
BRANCH   1  27
ATOM     27  C   UNL A   1      34.715  33.582  31.762  1.00  0.00     0.023 C 
BRANCH  27  28
ATOM     28  C   UNL A   1      36.220  33.640  32.037  1.00  0.00     0.116 C 
BRANCH  28  29
ATOM     29  N   UNL A   1      36.991  34.242  30.968  1.00  0.00    -0.352 N 
ATOM     30  C   UNL A   1      37.947  33.795  30.098  1.00  0.00     0.251 C 
ATOM     31  H   UNL A   1      36.776  35.194  30.838  1.00  0.00     0.163 HD
ATOM     32  O   UNL A   1      38.212  34.550  29.158  1.00  0.00    -0.269 OA
BRANCH  30  33
ATOM     33  C   UNL A   1      38.718  32.527  30.230  1.00  0.00     0.039 A 
ATOM     34  C   UNL A   1      40.097  32.431  30.398  1.00  0.00     0.014 A 
ATOM     35  C   UNL A   1      37.979  31.333  30.086  1.00  0.00     0.014 A 
ATOM     36  C   UNL A   1      40.724  31.189  30.340  1.00  0.00     0.010 A 
ATOM     37  C   UNL A   1      38.602  30.087  30.029  1.00  0.00     0.010 A 
ATOM     38  C   UNL A   1      39.985  30.019  30.117  1.00  0.00    -0.014 A 
BRANCH  38  39
ATOM     39  C   UNL A   1      40.720  28.756  30.092  1.00  0.00     0.031 A 
ATOM     40  C   UNL A   1      41.297  28.351  31.402  1.00  0.00     0.074 A 
ATOM     41  C   UNL A   1      40.892  27.963  29.015  1.00  0.00     0.049 A 
ATOM     42  N   UNL A   1      42.547  28.312  31.727  1.00  0.00    -0.248 NA
ATOM     43  C   UNL A   1      40.376  28.068  32.509  1.00  0.00     0.031 C 
ATOM     44  C   UNL A   1      40.223  28.014  27.715  1.00  0.00     0.029 A 
ATOM     45  N   UNL A   1      41.701  26.868  28.901  1.00  0.00    -0.354 N 
ATOM     46  C   UNL A   1      42.594  27.871  33.045  1.00  0.00     0.074 A 
ATOM     47  C   UNL A   1      41.230  27.830  33.508  1.00  0.00     0.031 C 
ATOM     48  C   UNL A   1      40.498  26.881  27.024  1.00  0.00     0.029 A 
ATOM     49  C   UNL A   1      41.487  26.110  27.758  1.00  0.00     0.049 A 
ATOM     50  H   UNL A   1      42.380  26.636  29.575  1.00  0.00     0.167 HD
ATOM     51  C   UNL A   1      43.751  27.428  33.613  1.00  0.00     0.031 A 
ATOM     52  C   UNL A   1      42.073  24.926  27.456  1.00  0.00     0.031 A 
ATOM     53  C   UNL A   1      44.905  27.831  32.856  1.00  0.00     0.049 A 
ATOM     54  C   UNL A   1      43.335  24.838  28.221  1.00  0.00     0.074 A 
ATOM     55  C   UNL A   1      45.488  29.043  32.545  1.00  0.00     0.029 A 
ATOM     56  N   UNL A   1      45.439  26.916  31.984  1.00  0.00    -0.354 N 
ATOM     57  N   UNL A   1      44.375  25.583  27.988  1.00  0.00    -0.248 NA
ATOM     58  C   UNL A   1      43.322  24.162  29.505  1.00  0.00     0.031 C 
ATOM     59  C   UNL A   1      45.979  28.886  31.218  1.00  0.00     0.029 A 
ATOM     60  C   UNL A   1      45.726  27.572  30.815  1.00  0.00     0.049 A 
ATOM     61  H   UNL A   1      45.590  25.960  32.165  1.00  0.00     0.167 HD
ATOM     62  C   UNL A   1      44.916  25.827  29.239  1.00  0.00     0.074 A 
ATOM     63  C   UNL A   1      44.303  24.831  30.114  1.00  0.00     0.031 C 
ATOM     64  C   UNL A   1      45.596  26.982  29.498  1.00  0.00     0.031 A 
BRANCH  51  65
ATOM     65  C   UNL A   1      43.822  26.357  34.670  1.00  0.00    -0.014 A 
ATOM     66  C   UNL A   1      43.992  26.634  36.039  1.00  0.00     0.009 A 
ATOM     67  C   UNL A   1      43.446  25.042  34.335  1.00  0.00     0.009 A 
ATOM     68  C   UNL A   1      43.782  25.665  37.023  1.00  0.00     0.001 A 
ATOM     69  C   UNL A   1      43.196  24.079  35.321  1.00  0.00     0.001 A 
ATOM     70  C   UNL A   1      43.359  24.393  36.665  1.00  0.00     0.000 A 
ENDBRANCH  51  65
BRANCH  52  71
ATOM     71  C   UNL A   1      41.482  23.724  26.828  1.00  0.00    -0.014 A 
ATOM     72  C   UNL A   1      40.149  23.376  27.107  1.00  0.00     0.009 A 
ATOM     73  C   UNL A   1      42.306  22.749  26.241  1.00  0.00     0.009 A 
ATOM     74  C   UNL A   1      39.676  22.080  26.869  1.00  0.00     0.001 A 
ATOM     75  C   UNL A   1      41.833  21.451  26.005  1.00  0.00     0.001 A 
ATOM     76  C   UNL A   1      40.524  21.112  26.339  1.00  0.00     0.000 A 
ENDBRANCH  52  71
BRANCH  64  77
ATOM     77  C   UNL A   1      46.001  27.859  28.332  1.00  0.00    -0.014 A 
ATOM     78  C   UNL A   1      47.340  27.815  27.909  1.00  0.00     0.009 A 
ATOM     79  C   UNL A   1      45.160  28.834  27.766  1.00  0.00     0.009 A 
ATOM     80  C   UNL A   1      47.830  28.725  26.971  1.00  0.00     0.001 A 
ATOM     81  C   UNL A   1      45.644  29.726  26.801  1.00  0.00     0.001 A 
ATOM     82  C   UNL A   1      46.982  29.678  26.415  1.00  0.00     0.000 A 
ENDBRANCH  64  77
ENDBRANCH  38  39
ENDBRANCH  30  33
ENDBRANCH  28  29
ENDBRANCH  27  28
ENDBRANCH   1  27
TORSDOF 14
ENDMDL
MODEL 3
REMARK VINA RESULT:     -11.2      2.970      4.507
REMARK SMILES CC1CCN(S(=O)(=O)c2ccc3c(ccn3CC(=O)NCCCCNC(=O)c3ccc(-c4c5nc(c(-c6ccccc6)c6ccc([nH]6)c(-c6ccccc6)c6nc(c(-c7ccccc7)c7ccc4[nH]7)C=C6)C=C5)cc3)c2)CC1
REMARK SMILES IDX 22 1 21 2 20 3 18 4 19 5 17 7 16 8 9 9 10 10 76 11 11 12
REMARK SMILES IDX 13 13 12 14 14 15 15 16 6 17 7 18 8 19 5 20 1 21 2 22 3 23
REMARK SMILES IDX 78 24 4 25 77 26 23 27 24 28 25 29 26 30 27 32 28 33 29 34
REMARK SMILES IDX 75 35 30 36 74 37 31 38 32 39 33 40 68 41 34 42 73 43 67 44
REMARK SMILES IDX 69 45 35 46 72 47 66 48 65 49 36 51 58 52 43 53 57 54 44 55
REMARK SMILES IDX 47 56 56 57 70 58 45 59 46 60 55 62 71 63 48 64 37 65 38 66
REMARK SMILES IDX 42 67 39 68 41 69 40 70 59 71 60 72 64 73 61 74 63 75 62 76
REMARK SMILES IDX 49 77 50 78 54 79 51 80 53 81 52 82
REMARK H PARENT 20 6 25 31 69 50 47 61
REMARK Flexibility Score: inf
ROOT
ATOM      1  C   UNL A   1      44.142  22.269  25.277  1.00  0.00     0.023 C 
ENDROOT
BRANCH   1   2
ATOM      2  C   UNL A   1      42.623  22.246  25.442  1.00  0.00     0.116 C 
BRANCH   2   3
ATOM      3  N   UNL A   1      42.207  21.513  26.623  1.00  0.00    -0.355 N 
ATOM      4  C   UNL A   1      40.984  20.982  26.924  1.00  0.00     0.239 C 
ATOM      5  O   UNL A   1      40.860  20.394  28.001  1.00  0.00    -0.273 OA
ATOM      6  H   UNL A   1      42.905  21.380  27.304  1.00  0.00     0.163 HD
BRANCH   4   7
ATOM      7  C   UNL A   1      39.837  21.049  25.934  1.00  0.00     0.222 C 
BRANCH   7   8
ATOM      8  N   UNL A   1      38.994  22.224  26.102  1.00  0.00    -0.338 N 
ATOM      9  C   UNL A   1      35.411  23.444  24.441  1.00  0.00     0.083 A 
ATOM     10  C   UNL A   1      35.903  22.214  24.006  1.00  0.00     0.024 A 
ATOM     11  C   UNL A   1      36.112  24.202  25.389  1.00  0.00     0.032 A 
ATOM     12  C   UNL A   1      37.048  21.661  24.573  1.00  0.00     0.028 A 
ATOM     13  C   UNL A   1      37.329  23.701  25.898  1.00  0.00     0.001 A 
ATOM     14  C   UNL A   1      37.772  22.440  25.489  1.00  0.00     0.049 A 
ATOM     15  C   UNL A   1      38.307  24.224  26.786  1.00  0.00     0.028 A 
ATOM     16  C   UNL A   1      39.311  23.292  26.903  1.00  0.00     0.087 A 
BRANCH   9  17
ATOM     17  S   UNL A   1      33.983  24.146  23.647  1.00  0.00     0.243 S 
ATOM     18  O   UNL A   1      33.974  23.622  22.288  1.00  0.00    -0.207 OA
ATOM     19  O   UNL A   1      34.010  25.568  23.871  1.00  0.00    -0.207 OA
BRANCH  17  20
ATOM     20  N   UNL A   1      32.618  23.530  24.488  1.00  0.00    -0.198 NA
ATOM     21  C   UNL A   1      30.040  26.920  24.161  1.00  0.00     0.008 C 
ATOM     22  C   UNL A   1      30.455  25.520  24.615  1.00  0.00    -0.012 C 
ATOM     23  C   UNL A   1      31.698  25.599  25.520  1.00  0.00     0.020 C 
ATOM     24  C   UNL A   1      30.662  24.608  23.395  1.00  0.00     0.020 C 
ATOM     25  C   UNL A   1      32.340  24.237  25.775  1.00  0.00     0.103 C 
ATOM     26  C   UNL A   1      31.339  23.297  23.775  1.00  0.00     0.103 C 
ENDBRANCH  17  20
ENDBRANCH   9  17
ENDBRANCH   7   8
ENDBRANCH   4   7
ENDBRANCH   2   3
ENDBRANCH   1   2
BRANCH   1  27
ATOM     27  C   UNL A   1      44.783  23.654  25.437  1.00  0.00     0.023 C 
BRANCH  27  28
ATOM     28  C   UNL A   1      45.647  23.830  26.689  1.00  0.00     0.116 C 
BRANCH  28  29
ATOM     29  N   UNL A   1      45.124  23.161  27.864  1.00  0.00    -0.352 N 
ATOM     30  C   UNL A   1      44.085  23.392  28.723  1.00  0.00     0.251 C 
ATOM     31  H   UNL A   1      45.637  22.353  28.098  1.00  0.00     0.163 HD
ATOM     32  O   UNL A   1      43.803  22.462  29.485  1.00  0.00    -0.269 OA
BRANCH  30  33
ATOM     33  C   UNL A   1      43.328  24.669  28.848  1.00  0.00     0.039 A 
ATOM     34  C   UNL A   1      42.302  25.088  28.006  1.00  0.00     0.014 A 
ATOM     35  C   UNL A   1      43.762  25.550  29.862  1.00  0.00     0.014 A 
ATOM     36  C   UNL A   1      41.784  26.377  28.122  1.00  0.00     0.010 A 
ATOM     37  C   UNL A   1      43.245  26.840  29.984  1.00  0.00     0.010 A 
ATOM     38  C   UNL A   1      42.280  27.268  29.083  1.00  0.00    -0.014 A 
BRANCH  38  39
ATOM     39  C   UNL A   1      41.665  28.592  29.150  1.00  0.00     0.031 A 
ATOM     40  C   UNL A   1      42.537  29.702  28.680  1.00  0.00     0.074 A 
ATOM     41  C   UNL A   1      40.415  28.863  29.576  1.00  0.00     0.049 A 
ATOM     42  N   UNL A   1      43.068  30.637  29.397  1.00  0.00    -0.248 NA
ATOM     43  C   UNL A   1      42.960  29.706  27.274  1.00  0.00     0.031 C 
ATOM     44  C   UNL A   1      39.309  27.941  29.838  1.00  0.00     0.029 A 
ATOM     45  N   UNL A   1      39.856  30.088  29.812  1.00  0.00    -0.354 N 
ATOM     46  C   UNL A   1      43.791  31.439  28.520  1.00  0.00     0.074 A 
ATOM     47  C   UNL A   1      43.771  30.766  27.245  1.00  0.00     0.031 C 
ATOM     48  C   UNL A   1      38.163  28.648  29.992  1.00  0.00     0.029 A 
ATOM     49  C   UNL A   1      38.483  30.066  30.007  1.00  0.00     0.049 A 
ATOM     50  H   UNL A   1      40.386  30.917  29.841  1.00  0.00     0.167 HD
ATOM     51  C   UNL A   1      44.230  32.678  28.877  1.00  0.00     0.031 A 
ATOM     52  C   UNL A   1      37.673  31.143  30.150  1.00  0.00     0.031 A 
ATOM     53  C   UNL A   1      44.202  32.864  30.303  1.00  0.00     0.049 A 
ATOM     54  C   UNL A   1      38.504  32.275  30.610  1.00  0.00     0.074 A 
ATOM     55  C   UNL A   1      44.863  32.291  31.370  1.00  0.00     0.029 A 
ATOM     56  N   UNL A   1      43.119  33.521  30.832  1.00  0.00    -0.354 N 
ATOM     57  N   UNL A   1      39.050  32.341  31.789  1.00  0.00    -0.248 NA
ATOM     58  C   UNL A   1      39.042  33.188  29.618  1.00  0.00     0.031 C 
ATOM     59  C   UNL A   1      43.898  32.238  32.415  1.00  0.00     0.029 A 
ATOM     60  C   UNL A   1      42.724  32.837  31.952  1.00  0.00     0.049 A 
ATOM     61  H   UNL A   1      42.703  34.337  30.473  1.00  0.00     0.167 HD
ATOM     62  C   UNL A   1      40.269  32.961  31.574  1.00  0.00     0.074 A 
ATOM     63  C   UNL A   1      40.154  33.568  30.251  1.00  0.00     0.031 C 
ATOM     64  C   UNL A   1      41.345  32.690  32.370  1.00  0.00     0.031 A 
BRANCH  51  65
ATOM     65  C   UNL A   1      44.376  33.835  27.922  1.00  0.00    -0.014 A 
ATOM     66  C   UNL A   1      43.314  34.690  27.577  1.00  0.00     0.009 A 
ATOM     67  C   UNL A   1      45.668  34.253  27.552  1.00  0.00     0.009 A 
ATOM     68  C   UNL A   1      43.524  35.904  26.917  1.00  0.00     0.001 A 
ATOM     69  C   UNL A   1      45.887  35.487  26.926  1.00  0.00     0.001 A 
ATOM     70  C   UNL A   1      44.814  36.314  26.614  1.00  0.00     0.000 A 
ENDBRANCH  51  65
BRANCH  52  71
ATOM     71  C   UNL A   1      36.314  31.369  29.609  1.00  0.00    -0.014 A 
ATOM     72  C   UNL A   1      35.979  30.873  28.337  1.00  0.00     0.009 A 
ATOM     73  C   UNL A   1      35.477  32.345  30.175  1.00  0.00     0.009 A 
ATOM     74  C   UNL A   1      34.883  31.381  27.630  1.00  0.00     0.001 A 
ATOM     75  C   UNL A   1      34.381  32.854  29.465  1.00  0.00     0.001 A 
ATOM     76  C   UNL A   1      34.098  32.387  28.185  1.00  0.00     0.000 A 
ENDBRANCH  52  71
BRANCH  64  77
ATOM     77  C   UNL A   1      41.116  31.931  33.660  1.00  0.00    -0.014 A 
ATOM     78  C   UNL A   1      41.111  32.659  34.861  1.00  0.00     0.009 A 
ATOM     79  C   UNL A   1      41.083  30.527  33.738  1.00  0.00     0.009 A 
ATOM     80  C   UNL A   1      41.094  32.011  36.098  1.00  0.00     0.001 A 
ATOM     81  C   UNL A   1      41.034  29.878  34.977  1.00  0.00     0.001 A 
ATOM     82  C   UNL A   1      41.053  30.621  36.156  1.00  0.00     0.000 A 
ENDBRANCH  64  77
ENDBRANCH  38  39
ENDBRANCH  30  33
ENDBRANCH  28  29
ENDBRANCH  27  28
ENDBRANCH   1  27
TORSDOF 14
ENDMDL
