MODEL 1
REMARK VINA RESULT:     -10.9      0.000      0.000
REMARK SMILES CCOc1cccc(-c2ccc([C@@H](C)C(=O)NCCCCNC(=O)c3ccc(-c4c5nc(c(-c6ccccc6)c6ccc([nH]6)c(-c6ccccc6)c6nc(c(-c7ccccc7)c7ccc4[nH]7)C=C6)C=C5)cc3)cc2F)c1
REMARK SMILES IDX 18 1 17 2 15 3 16 4 13 6 14 7 12 8 9 9 10 10 74 11 11 12
REMARK SMILES IDX 73 13 75 14 8 15 4 16 5 17 76 18 6 19 7 20 3 21 2 22 1 23
REMARK SMILES IDX 19 24 20 25 21 26 22 27 23 28 24 30 25 31 26 32 72 33 27 34
REMARK SMILES IDX 71 35 28 36 29 37 30 38 65 39 31 40 70 41 64 42 66 43 32 44
REMARK SMILES IDX 69 45 63 46 62 47 33 49 55 50 40 51 54 52 41 53 44 54 53 55
REMARK SMILES IDX 67 56 42 57 43 58 52 60 68 61 45 62 34 63 35 64 39 65 36 66
REMARK SMILES IDX 38 67 37 68 56 69 57 70 61 71 58 72 60 73 59 74 46 75 47 76
REMARK SMILES IDX 51 77 48 78 50 79 49 80
REMARK H PARENT 17 5 22 29 66 48 44 59
REMARK Flexibility Score: inf
ROOT
ATOM      1  C   UNL A   1      31.489  29.818  25.406  1.00  0.00     0.116 C 
ENDROOT
BRANCH   1   2
ATOM      2  N   UNL A   1      30.977  28.835  24.475  1.00  0.00    -0.356 N 
ATOM      3  C   UNL A   1      31.617  27.971  23.640  1.00  0.00     0.227 C 
ATOM      4  O   UNL A   1      30.898  27.308  22.883  1.00  0.00    -0.274 OA
ATOM      5  H   UNL A   1      29.995  28.783  24.438  1.00  0.00     0.163 HD
BRANCH   3   6
ATOM      6  C   UNL A   1      33.143  27.781  23.610  1.00  0.00     0.105 C 
ATOM      7  C   UNL A   1      33.847  28.551  22.494  1.00  0.00     0.023 C 
BRANCH   6   8
ATOM      8  C   UNL A   1      33.579  26.337  23.804  1.00  0.00    -0.033 A 
ATOM      9  C   UNL A   1      34.154  23.562  24.277  1.00  0.00     0.018 A 
ATOM     10  C   UNL A   1      34.111  24.103  22.980  1.00  0.00     0.012 A 
ATOM     11  C   UNL A   1      33.974  24.480  25.327  1.00  0.00     0.131 A 
ATOM     12  C   UNL A   1      33.867  25.468  22.751  1.00  0.00     0.005 A 
ATOM     13  C   UNL A   1      33.666  25.824  25.103  1.00  0.00     0.044 A 
ATOM     14  F   UNL A   1      34.083  24.094  26.608  1.00  0.00    -0.206 F 
BRANCH   9  15
ATOM     15  C   UNL A   1      34.329  22.102  24.503  1.00  0.00    -0.012 A 
ATOM     16  C   UNL A   1      33.386  19.840  24.597  1.00  0.00     0.119 A 
ATOM     17  C   UNL A   1      34.634  19.300  24.868  1.00  0.00     0.046 A 
ATOM     18  C   UNL A   1      33.236  21.218  24.431  1.00  0.00     0.055 A 
ATOM     19  C   UNL A   1      35.740  20.143  24.944  1.00  0.00     0.004 A 
ATOM     20  C   UNL A   1      35.586  21.525  24.768  1.00  0.00     0.009 A 
BRANCH  16  21
ATOM     21  O   UNL A   1      32.296  19.014  24.624  1.00  0.00    -0.494 OA
BRANCH  21  22
ATOM     22  C   UNL A   1      32.447  17.851  23.799  1.00  0.00     0.226 C 
ATOM     23  C   UNL A   1      32.295  18.179  22.320  1.00  0.00     0.049 C 
ENDBRANCH  21  22
ENDBRANCH  16  21
ENDBRANCH   9  15
ENDBRANCH   6   8
ENDBRANCH   3   6
ENDBRANCH   1   2
BRANCH   1  24
ATOM     24  C   UNL A   1      31.738  29.218  26.790  1.00  0.00     0.023 C 
BRANCH  24  25
ATOM     25  C   UNL A   1      33.209  29.052  27.165  1.00  0.00     0.023 C 
BRANCH  25  26
ATOM     26  C   UNL A   1      34.092  30.261  26.880  1.00  0.00     0.116 C 
BRANCH  26  27
ATOM     27  N   UNL A   1      33.889  31.374  27.793  1.00  0.00    -0.352 N 
ATOM     28  C   UNL A   1      34.682  31.767  28.851  1.00  0.00     0.251 C 
ATOM     29  H   UNL A   1      33.083  31.917  27.637  1.00  0.00     0.163 HD
ATOM     30  O   UNL A   1      34.340  32.685  29.578  1.00  0.00    -0.269 OA
BRANCH  28  31
ATOM     31  C   UNL A   1      35.933  31.026  29.119  1.00  0.00     0.039 A 
ATOM     32  C   UNL A   1      37.138  31.546  28.639  1.00  0.00     0.014 A 
ATOM     33  C   UNL A   1      35.921  29.858  29.884  1.00  0.00     0.014 A 
ATOM     34  C   UNL A   1      38.341  30.932  28.992  1.00  0.00     0.010 A 
ATOM     35  C   UNL A   1      37.122  29.296  30.300  1.00  0.00     0.010 A 
ATOM     36  C   UNL A   1      38.344  29.825  29.857  1.00  0.00    -0.014 A 
BRANCH  36  37
ATOM     37  C   UNL A   1      39.613  29.202  30.303  1.00  0.00     0.031 A 
ATOM     38  C   UNL A   1      40.322  29.727  31.520  1.00  0.00     0.074 A 
ATOM     39  C   UNL A   1      40.162  28.210  29.577  1.00  0.00     0.049 A 
ATOM     40  N   UNL A   1      41.462  29.348  32.040  1.00  0.00    -0.248 NA
ATOM     41  C   UNL A   1      39.681  30.847  32.230  1.00  0.00     0.031 C 
ATOM     42  C   UNL A   1      39.603  27.646  28.345  1.00  0.00     0.029 A 
ATOM     43  N   UNL A   1      41.320  27.499  29.770  1.00  0.00    -0.354 N 
ATOM     44  C   UNL A   1      41.682  30.194  33.119  1.00  0.00     0.074 A 
ATOM     45  C   UNL A   1      40.588  31.138  33.149  1.00  0.00     0.031 C 
ATOM     46  C   UNL A   1      40.401  26.657  27.913  1.00  0.00     0.029 A 
ATOM     47  C   UNL A   1      41.542  26.537  28.815  1.00  0.00     0.049 A 
ATOM     48  H   UNL A   1      41.934  27.664  30.522  1.00  0.00     0.167 HD
ATOM     49  C   UNL A   1      42.692  30.172  34.021  1.00  0.00     0.031 A 
ATOM     50  C   UNL A   1      42.549  25.654  28.683  1.00  0.00     0.031 A 
ATOM     51  C   UNL A   1      43.767  29.219  34.007  1.00  0.00     0.049 A 
ATOM     52  C   UNL A   1      43.650  25.638  29.707  1.00  0.00     0.074 A 
ATOM     53  C   UNL A   1      44.802  29.072  34.914  1.00  0.00     0.029 A 
ATOM     54  N   UNL A   1      43.942  28.245  33.036  1.00  0.00    -0.354 N 
ATOM     55  N   UNL A   1      43.805  26.397  30.764  1.00  0.00    -0.248 NA
ATOM     56  C   UNL A   1      44.708  24.634  29.524  1.00  0.00     0.031 C 
ATOM     57  C   UNL A   1      45.627  28.033  34.469  1.00  0.00     0.029 A 
ATOM     58  C   UNL A   1      45.078  27.504  33.312  1.00  0.00     0.049 A 
ATOM     59  H   UNL A   1      43.347  28.102  32.265  1.00  0.00     0.167 HD
ATOM     60  C   UNL A   1      44.961  25.945  31.388  1.00  0.00     0.074 A 
ATOM     61  C   UNL A   1      45.458  24.837  30.598  1.00  0.00     0.031 C 
ATOM     62  C   UNL A   1      45.556  26.405  32.515  1.00  0.00     0.031 A 
BRANCH  49  63
ATOM     63  C   UNL A   1      42.672  31.217  35.100  1.00  0.00    -0.014 A 
ATOM     64  C   UNL A   1      42.025  30.984  36.324  1.00  0.00     0.009 A 
ATOM     65  C   UNL A   1      43.322  32.444  34.899  1.00  0.00     0.009 A 
ATOM     66  C   UNL A   1      41.996  31.973  37.310  1.00  0.00     0.001 A 
ATOM     67  C   UNL A   1      43.316  33.421  35.896  1.00  0.00     0.001 A 
ATOM     68  C   UNL A   1      42.643  33.189  37.095  1.00  0.00     0.000 A 
ENDBRANCH  49  63
BRANCH  50  69
ATOM     69  C   UNL A   1      42.550  24.686  27.556  1.00  0.00    -0.014 A 
ATOM     70  C   UNL A   1      41.919  23.439  27.693  1.00  0.00     0.009 A 
ATOM     71  C   UNL A   1      43.183  24.996  26.344  1.00  0.00     0.009 A 
ATOM     72  C   UNL A   1      41.946  22.513  26.649  1.00  0.00     0.001 A 
ATOM     73  C   UNL A   1      43.186  24.078  25.291  1.00  0.00     0.001 A 
ATOM     74  C   UNL A   1      42.576  22.835  25.447  1.00  0.00     0.000 A 
ENDBRANCH  50  69
BRANCH  62  75
ATOM     75  C   UNL A   1      46.793  25.690  32.977  1.00  0.00    -0.014 A 
ATOM     76  C   UNL A   1      46.722  24.642  33.906  1.00  0.00     0.009 A 
ATOM     77  C   UNL A   1      48.041  26.046  32.442  1.00  0.00     0.009 A 
ATOM     78  C   UNL A   1      47.884  23.982  34.314  1.00  0.00     0.001 A 
ATOM     79  C   UNL A   1      49.196  25.368  32.831  1.00  0.00     0.001 A 
ATOM     80  C   UNL A   1      49.119  24.343  33.773  1.00  0.00     0.000 A 
ENDBRANCH  62  75
ENDBRANCH  36  37
ENDBRANCH  28  31
ENDBRANCH  26  27
ENDBRANCH  25  26
ENDBRANCH  24  25
ENDBRANCH   1  24
TORSDOF 15
ENDMDL
MODEL 2
REMARK VINA RESULT:     -10.9      2.137      2.609
REMARK SMILES CCOc1cccc(-c2ccc([C@@H](C)C(=O)NCCCCNC(=O)c3ccc(-c4c5nc(c(-c6ccccc6)c6ccc([nH]6)c(-c6ccccc6)c6nc(c(-c7ccccc7)c7ccc4[nH]7)C=C6)C=C5)cc3)cc2F)c1
REMARK SMILES IDX 18 1 17 2 15 3 16 4 13 6 14 7 12 8 9 9 10 10 74 11 11 12
REMARK SMILES IDX 73 13 75 14 8 15 4 16 5 17 76 18 6 19 7 20 3 21 2 22 1 23
REMARK SMILES IDX 19 24 20 25 21 26 22 27 23 28 24 30 25 31 26 32 72 33 27 34
REMARK SMILES IDX 71 35 28 36 29 37 30 38 65 39 31 40 70 41 64 42 66 43 32 44
REMARK SMILES IDX 69 45 63 46 62 47 33 49 55 50 40 51 54 52 41 53 44 54 53 55
REMARK SMILES IDX 67 56 42 57 43 58 52 60 68 61 45 62 34 63 35 64 39 65 36 66
REMARK SMILES IDX 38 67 37 68 56 69 57 70 61 71 58 72 60 73 59 74 46 75 47 76
REMARK SMILES IDX 51 77 48 78 50 79 49 80
REMARK H PARENT 17 5 22 29 66 48 44 59
REMARK Flexibility Score: inf
ROOT
ATOM      1  C   UNL A   1      31.509  29.756  25.348  1.00  0.00     0.116 C 
ENDROOT
BRANCH   1   2
ATOM      2  N   UNL A   1      31.023  28.814  24.362  1.00  0.00    -0.356 N 
ATOM      3  C   UNL A   1      31.684  28.001  23.494  1.00  0.00     0.227 C 
ATOM      4  O   UNL A   1      30.984  27.368  22.695  1.00  0.00    -0.274 OA
ATOM      5  H   UNL A   1      30.041  28.751  24.310  1.00  0.00     0.163 HD
BRANCH   3   6
ATOM      6  C   UNL A   1      33.213  27.833  23.475  1.00  0.00     0.105 C 
ATOM      7  C   UNL A   1      33.899  28.489  22.278  1.00  0.00     0.023 C 
BRANCH   6   8
ATOM      8  C   UNL A   1      33.674  26.426  23.820  1.00  0.00    -0.033 A 
ATOM      9  C   UNL A   1      34.751  23.805  24.298  1.00  0.00     0.018 A 
ATOM     10  C   UNL A   1      34.686  24.780  25.310  1.00  0.00     0.012 A 
ATOM     11  C   UNL A   1      34.187  24.170  23.063  1.00  0.00     0.131 A 
ATOM     12  C   UNL A   1      34.125  26.048  25.086  1.00  0.00     0.005 A 
ATOM     13  C   UNL A   1      33.688  25.451  22.816  1.00  0.00     0.044 A 
ATOM     14  F   UNL A   1      34.111  23.291  22.051  1.00  0.00    -0.206 F 
BRANCH   9  15
ATOM     15  C   UNL A   1      35.424  22.497  24.523  1.00  0.00    -0.012 A 
ATOM     16  C   UNL A   1      35.300  20.063  24.787  1.00  0.00     0.119 A 
ATOM     17  C   UNL A   1      36.680  19.975  24.893  1.00  0.00     0.046 A 
ATOM     18  C   UNL A   1      34.684  21.304  24.619  1.00  0.00     0.055 A 
ATOM     19  C   UNL A   1      37.446  21.135  24.801  1.00  0.00     0.004 A 
ATOM     20  C   UNL A   1      36.824  22.378  24.623  1.00  0.00     0.009 A 
BRANCH  16  21
ATOM     21  O   UNL A   1      34.557  18.931  24.978  1.00  0.00    -0.494 OA
BRANCH  21  22
ATOM     22  C   UNL A   1      33.172  19.100  24.651  1.00  0.00     0.226 C 
ATOM     23  C   UNL A   1      32.395  17.797  24.767  1.00  0.00     0.049 C 
ENDBRANCH  21  22
ENDBRANCH  16  21
ENDBRANCH   9  15
ENDBRANCH   6   8
ENDBRANCH   3   6
ENDBRANCH   1   2
BRANCH   1  24
ATOM     24  C   UNL A   1      31.438  29.186  26.765  1.00  0.00     0.023 C 
BRANCH  24  25
ATOM     25  C   UNL A   1      32.591  28.261  27.147  1.00  0.00     0.023 C 
BRANCH  25  26
ATOM     26  C   UNL A   1      33.946  28.941  27.296  1.00  0.00     0.116 C 
BRANCH  26  27
ATOM     27  N   UNL A   1      33.894  30.232  27.964  1.00  0.00    -0.352 N 
ATOM     28  C   UNL A   1      34.893  30.873  28.666  1.00  0.00     0.251 C 
ATOM     29  H   UNL A   1      33.036  30.710  27.908  1.00  0.00     0.163 HD
ATOM     30  O   UNL A   1      34.675  31.928  29.238  1.00  0.00    -0.269 OA
BRANCH  28  31
ATOM     31  C   UNL A   1      36.225  30.234  28.755  1.00  0.00     0.039 A 
ATOM     32  C   UNL A   1      37.077  30.304  27.650  1.00  0.00     0.014 A 
ATOM     33  C   UNL A   1      36.645  29.623  29.937  1.00  0.00     0.014 A 
ATOM     34  C   UNL A   1      38.383  29.823  27.759  1.00  0.00     0.010 A 
ATOM     35  C   UNL A   1      37.968  29.218  30.069  1.00  0.00     0.010 A 
ATOM     36  C   UNL A   1      38.850  29.313  28.981  1.00  0.00    -0.014 A 
BRANCH  36  37
ATOM     37  C   UNL A   1      40.254  28.864  29.140  1.00  0.00     0.031 A 
ATOM     38  C   UNL A   1      41.283  29.799  29.712  1.00  0.00     0.074 A 
ATOM     39  C   UNL A   1      40.618  27.641  28.709  1.00  0.00     0.049 A 
ATOM     40  N   UNL A   1      42.566  29.608  29.886  1.00  0.00    -0.248 NA
ATOM     41  C   UNL A   1      40.814  31.136  30.114  1.00  0.00     0.031 C 
ATOM     42  C   UNL A   1      39.728  26.658  28.085  1.00  0.00     0.029 A 
ATOM     43  N   UNL A   1      41.840  27.016  28.727  1.00  0.00    -0.354 N 
ATOM     44  C   UNL A   1      43.058  30.804  30.395  1.00  0.00     0.074 A 
ATOM     45  C   UNL A   1      41.948  31.729  30.452  1.00  0.00     0.031 C 
ATOM     46  C   UNL A   1      40.426  25.544  27.811  1.00  0.00     0.029 A 
ATOM     47  C   UNL A   1      41.816  25.744  28.209  1.00  0.00     0.049 A 
ATOM     48  H   UNL A   1      42.656  27.439  29.079  1.00  0.00     0.167 HD
ATOM     49  C   UNL A   1      44.315  31.099  30.802  1.00  0.00     0.031 A 
ATOM     50  C   UNL A   1      42.802  24.838  28.073  1.00  0.00     0.031 A 
ATOM     51  C   UNL A   1      45.413  30.173  30.768  1.00  0.00     0.049 A 
ATOM     52  C   UNL A   1      44.186  25.184  28.548  1.00  0.00     0.074 A 
ATOM     53  C   UNL A   1      46.708  30.354  31.219  1.00  0.00     0.029 A 
ATOM     54  N   UNL A   1      45.341  28.886  30.258  1.00  0.00    -0.354 N 
ATOM     55  N   UNL A   1      44.618  26.293  29.096  1.00  0.00    -0.248 NA
ATOM     56  C   UNL A   1      45.214  24.144  28.398  1.00  0.00     0.031 C 
ATOM     57  C   UNL A   1      47.433  29.188  30.944  1.00  0.00     0.029 A 
ATOM     58  C   UNL A   1      46.575  28.267  30.367  1.00  0.00     0.049 A 
ATOM     59  H   UNL A   1      44.533  28.474  29.875  1.00  0.00     0.167 HD
ATOM     60  C   UNL A   1      45.960  26.077  29.380  1.00  0.00     0.074 A 
ATOM     61  C   UNL A   1      46.266  24.725  28.958  1.00  0.00     0.031 C 
ATOM     62  C   UNL A   1      46.859  26.921  29.942  1.00  0.00     0.031 A 
BRANCH  49  63
ATOM     63  C   UNL A   1      44.561  32.487  31.320  1.00  0.00    -0.014 A 
ATOM     64  C   UNL A   1      44.395  32.794  32.680  1.00  0.00     0.009 A 
ATOM     65  C   UNL A   1      44.981  33.498  30.442  1.00  0.00     0.009 A 
ATOM     66  C   UNL A   1      44.605  34.095  33.143  1.00  0.00     0.001 A 
ATOM     67  C   UNL A   1      45.219  34.791  30.913  1.00  0.00     0.001 A 
ATOM     68  C   UNL A   1      45.020  35.090  32.260  1.00  0.00     0.000 A 
ENDBRANCH  49  63
BRANCH  50  69
ATOM     69  C   UNL A   1      42.513  23.502  27.492  1.00  0.00    -0.014 A 
ATOM     70  C   UNL A   1      42.036  22.463  28.307  1.00  0.00     0.009 A 
ATOM     71  C   UNL A   1      42.717  23.254  26.127  1.00  0.00     0.009 A 
ATOM     72  C   UNL A   1      41.794  21.197  27.771  1.00  0.00     0.001 A 
ATOM     73  C   UNL A   1      42.450  21.993  25.588  1.00  0.00     0.001 A 
ATOM     74  C   UNL A   1      41.998  20.964  26.412  1.00  0.00     0.000 A 
ENDBRANCH  50  69
BRANCH  62  75
ATOM     75  C   UNL A   1      48.249  26.396  30.162  1.00  0.00    -0.014 A 
ATOM     76  C   UNL A   1      49.269  26.625  29.227  1.00  0.00     0.009 A 
ATOM     77  C   UNL A   1      48.547  25.697  31.342  1.00  0.00     0.009 A 
ATOM     78  C   UNL A   1      50.557  26.137  29.458  1.00  0.00     0.001 A 
ATOM     79  C   UNL A   1      49.841  25.234  31.581  1.00  0.00     0.001 A 
ATOM     80  C   UNL A   1      50.842  25.446  30.635  1.00  0.00     0.000 A 
ENDBRANCH  62  75
ENDBRANCH  36  37
ENDBRANCH  28  31
ENDBRANCH  26  27
ENDBRANCH  25  26
ENDBRANCH  24  25
ENDBRANCH   1  24
TORSDOF 15
ENDMDL
MODEL 3
REMARK VINA RESULT:     -10.9      3.038      8.383
REMARK SMILES CCOc1cccc(-c2ccc([C@@H](C)C(=O)NCCCCNC(=O)c3ccc(-c4c5nc(c(-c6ccccc6)c6ccc([nH]6)c(-c6ccccc6)c6nc(c(-c7ccccc7)c7ccc4[nH]7)C=C6)C=C5)cc3)cc2F)c1
REMARK SMILES IDX 18 1 17 2 15 3 16 4 13 6 14 7 12 8 9 9 10 10 74 11 11 12
REMARK SMILES IDX 73 13 75 14 8 15 4 16 5 17 76 18 6 19 7 20 3 21 2 22 1 23
REMARK SMILES IDX 19 24 20 25 21 26 22 27 23 28 24 30 25 31 26 32 72 33 27 34
REMARK SMILES IDX 71 35 28 36 29 37 30 38 65 39 31 40 70 41 64 42 66 43 32 44
REMARK SMILES IDX 69 45 63 46 62 47 33 49 55 50 40 51 54 52 41 53 44 54 53 55
REMARK SMILES IDX 67 56 42 57 43 58 52 60 68 61 45 62 34 63 35 64 39 65 36 66
REMARK SMILES IDX 38 67 37 68 56 69 57 70 61 71 58 72 60 73 59 74 46 75 47 76
REMARK SMILES IDX 51 77 48 78 50 79 49 80
REMARK H PARENT 17 5 22 29 66 48 44 59
REMARK Flexibility Score: inf
ROOT
ATOM      1  C   UNL A   1      35.246  20.552  24.613  1.00  0.00     0.116 C 
ENDROOT
BRANCH   1   2
ATOM      2  N   UNL A   1      34.387  19.604  25.289  1.00  0.00    -0.356 N 
ATOM      3  C   UNL A   1      33.042  19.406  25.225  1.00  0.00     0.227 C 
ATOM      4  O   UNL A   1      32.575  18.567  26.006  1.00  0.00    -0.274 OA
ATOM      5  H   UNL A   1      34.859  18.997  25.904  1.00  0.00     0.163 HD
BRANCH   3   6
ATOM      6  C   UNL A   1      32.114  20.146  24.248  1.00  0.00     0.105 C 
ATOM      7  C   UNL A   1      32.204  19.653  22.806  1.00  0.00     0.023 C 
BRANCH   6   8
ATOM      8  C   UNL A   1      32.109  21.655  24.440  1.00  0.00    -0.033 A 
ATOM      9  C   UNL A   1      32.320  24.472  24.964  1.00  0.00     0.018 A 
ATOM     10  C   UNL A   1      32.487  23.939  23.673  1.00  0.00     0.012 A 
ATOM     11  C   UNL A   1      31.969  23.548  25.964  1.00  0.00     0.131 A 
ATOM     12  C   UNL A   1      32.347  22.567  23.410  1.00  0.00     0.005 A 
ATOM     13  C   UNL A   1      31.893  22.174  25.721  1.00  0.00     0.044 A 
ATOM     14  F   UNL A   1      31.697  23.954  27.214  1.00  0.00    -0.206 F 
BRANCH   9  15
ATOM     15  C   UNL A   1      32.556  25.914  25.244  1.00  0.00    -0.012 A 
ATOM     16  C   UNL A   1      31.810  28.248  25.136  1.00  0.00     0.119 A 
ATOM     17  C   UNL A   1      32.943  28.671  25.814  1.00  0.00     0.046 A 
ATOM     18  C   UNL A   1      31.628  26.894  24.845  1.00  0.00     0.055 A 
ATOM     19  C   UNL A   1      33.883  27.729  26.227  1.00  0.00     0.004 A 
ATOM     20  C   UNL A   1      33.691  26.371  25.940  1.00  0.00     0.009 A 
BRANCH  16  21
ATOM     21  O   UNL A   1      30.947  29.192  24.652  1.00  0.00    -0.494 OA
BRANCH  21  22
ATOM     22  C   UNL A   1      30.798  29.145  23.227  1.00  0.00     0.226 C 
ATOM     23  C   UNL A   1      29.493  29.781  22.770  1.00  0.00     0.049 C 
ENDBRANCH  21  22
ENDBRANCH  16  21
ENDBRANCH   9  15
ENDBRANCH   6   8
ENDBRANCH   3   6
ENDBRANCH   1   2
BRANCH   1  24
ATOM     24  C   UNL A   1      36.500  20.870  25.427  1.00  0.00     0.023 C 
BRANCH  24  25
ATOM     25  C   UNL A   1      37.746  20.083  25.028  1.00  0.00     0.023 C 
BRANCH  25  26
ATOM     26  C   UNL A   1      39.024  20.474  25.760  1.00  0.00     0.116 C 
BRANCH  26  27
ATOM     27  N   UNL A   1      40.065  19.459  25.721  1.00  0.00    -0.352 N 
ATOM     28  C   UNL A   1      41.391  19.581  26.079  1.00  0.00     0.251 C 
ATOM     29  H   UNL A   1      39.789  18.572  25.397  1.00  0.00     0.163 HD
ATOM     30  O   UNL A   1      42.168  18.654  25.920  1.00  0.00    -0.269 OA
BRANCH  28  31
ATOM     31  C   UNL A   1      41.869  20.874  26.617  1.00  0.00     0.039 A 
ATOM     32  C   UNL A   1      42.325  21.845  25.723  1.00  0.00     0.014 A 
ATOM     33  C   UNL A   1      41.813  21.142  27.986  1.00  0.00     0.014 A 
ATOM     34  C   UNL A   1      42.657  23.115  26.198  1.00  0.00     0.010 A 
ATOM     35  C   UNL A   1      42.066  22.429  28.446  1.00  0.00     0.010 A 
ATOM     36  C   UNL A   1      42.493  23.428  27.557  1.00  0.00    -0.014 A 
BRANCH  36  37
ATOM     37  C   UNL A   1      42.769  24.791  28.071  1.00  0.00     0.031 A 
ATOM     38  C   UNL A   1      44.166  25.175  28.471  1.00  0.00     0.074 A 
ATOM     39  C   UNL A   1      41.754  25.659  28.243  1.00  0.00     0.049 A 
ATOM     40  N   UNL A   1      44.599  26.299  28.984  1.00  0.00    -0.248 NA
ATOM     41  C   UNL A   1      45.211  24.152  28.298  1.00  0.00     0.031 C 
ATOM     42  C   UNL A   1      40.344  25.391  27.946  1.00  0.00     0.029 A 
ATOM     43  N   UNL A   1      41.753  26.948  28.714  1.00  0.00    -0.354 N 
ATOM     44  C   UNL A   1      45.955  26.109  29.214  1.00  0.00     0.074 A 
ATOM     45  C   UNL A   1      46.264  24.748  28.836  1.00  0.00     0.031 C 
ATOM     46  C   UNL A   1      39.622  26.491  28.211  1.00  0.00     0.029 A 
ATOM     47  C   UNL A   1      40.509  27.530  28.725  1.00  0.00     0.049 A 
ATOM     48  H   UNL A   1      42.568  27.412  29.015  1.00  0.00     0.167 HD
ATOM     49  C   UNL A   1      46.869  26.994  29.676  1.00  0.00     0.031 A 
ATOM     50  C   UNL A   1      40.126  28.764  29.103  1.00  0.00     0.031 A 
ATOM     51  C   UNL A   1      46.569  28.354  30.030  1.00  0.00     0.049 A 
ATOM     52  C   UNL A   1      41.162  29.735  29.597  1.00  0.00     0.074 A 
ATOM     53  C   UNL A   1      47.436  29.349  30.445  1.00  0.00     0.029 A 
ATOM     54  N   UNL A   1      45.300  28.912  30.004  1.00  0.00    -0.354 N 
ATOM     55  N   UNL A   1      42.454  29.563  29.739  1.00  0.00    -0.248 NA
ATOM     56  C   UNL A   1      40.687  31.075  29.970  1.00  0.00     0.031 C 
ATOM     57  C   UNL A   1      46.685  30.500  30.710  1.00  0.00     0.029 A 
ATOM     58  C   UNL A   1      45.358  30.233  30.413  1.00  0.00     0.049 A 
ATOM     59  H   UNL A   1      44.480  28.438  29.735  1.00  0.00     0.167 HD
ATOM     60  C   UNL A   1      42.949  30.779  30.191  1.00  0.00     0.074 A 
ATOM     61  C   UNL A   1      41.822  31.684  30.285  1.00  0.00     0.031 C 
ATOM     62  C   UNL A   1      44.225  31.117  30.499  1.00  0.00     0.031 A 
BRANCH  49  63
ATOM     63  C   UNL A   1      48.283  26.509  29.822  1.00  0.00    -0.014 A 
ATOM     64  C   UNL A   1      48.720  25.892  31.006  1.00  0.00     0.009 A 
ATOM     65  C   UNL A   1      49.187  26.653  28.759  1.00  0.00     0.009 A 
ATOM     66  C   UNL A   1      50.043  25.466  31.137  1.00  0.00     0.001 A 
ATOM     67  C   UNL A   1      50.502  26.200  28.881  1.00  0.00     0.001 A 
ATOM     68  C   UNL A   1      50.932  25.618  30.073  1.00  0.00     0.000 A 
ENDBRANCH  49  63
BRANCH  50  69
ATOM     69  C   UNL A   1      38.700  29.167  28.998  1.00  0.00    -0.014 A 
ATOM     70  C   UNL A   1      37.850  29.057  30.110  1.00  0.00     0.009 A 
ATOM     71  C   UNL A   1      38.179  29.656  27.791  1.00  0.00     0.009 A 
ATOM     72  C   UNL A   1      36.501  29.403  30.006  1.00  0.00     0.001 A 
ATOM     73  C   UNL A   1      36.836  30.026  27.698  1.00  0.00     0.001 A 
ATOM     74  C   UNL A   1      35.996  29.891  28.802  1.00  0.00     0.000 A 
ENDBRANCH  50  69
BRANCH  62  75
ATOM     75  C   UNL A   1      44.473  32.533  30.935  1.00  0.00    -0.014 A 
ATOM     76  C   UNL A   1      44.443  32.892  32.290  1.00  0.00     0.009 A 
ATOM     77  C   UNL A   1      44.779  33.510  29.976  1.00  0.00     0.009 A 
ATOM     78  C   UNL A   1      44.687  34.212  32.675  1.00  0.00     0.001 A 
ATOM     79  C   UNL A   1      45.049  34.822  30.365  1.00  0.00     0.001 A 
ATOM     80  C   UNL A   1      44.994  35.174  31.712  1.00  0.00     0.000 A 
ENDBRANCH  62  75
ENDBRANCH  36  37
ENDBRANCH  28  31
ENDBRANCH  26  27
ENDBRANCH  25  26
ENDBRANCH  24  25
ENDBRANCH   1  24
TORSDOF 15
ENDMDL
