MODEL 1
REMARK VINA RESULT:     -12.4      0.000      0.000
REMARK SMILES C[C@@H](C(=O)NCCCCNC(=O)c1ccc(-c2c3nc(c(-c4ccccc4)c4ccc([nH]4)c(-c4ccccc4)c4nc(c(-c5ccccc5)c5ccc2[nH]5)C=C4)C=C3)cc1)c1ccc2c3cc(Cl)ccc3n(C(=O)c3ccc(Cl)cc3)c2c1
REMARK SMILES IDX 7 1 6 2 5 3 3 4 4 5 2 7 1 8 61 9 62 10 83 11 63 12 82 13
REMARK SMILES IDX 64 14 72 15 65 16 71 17 66 18 70 19 67 20 69 21 68 22 73 23
REMARK SMILES IDX 74 24 75 25 76 26 81 27 77 28 80 29 78 30 79 31 8 32 9 33
REMARK SMILES IDX 10 34 11 35 12 37 13 38 14 39 60 40 15 41 59 42 16 43 17 44
REMARK SMILES IDX 18 45 53 46 19 47 58 48 52 49 54 50 20 51 57 52 51 53 50 54
REMARK SMILES IDX 21 56 43 57 28 58 42 59 29 60 32 61 41 62 55 63 30 64 31 65
REMARK SMILES IDX 40 67 56 68 33 69 22 70 23 71 27 72 24 73 26 74 25 75 44 76
REMARK SMILES IDX 45 77 49 78 46 79 48 80 47 81 34 82 35 83 39 84 36 85 38 86
REMARK SMILES IDX 37 87
REMARK H PARENT 5 6 10 36 54 55 32 66
REMARK Flexibility Score: inf
ROOT
ATOM      1  C   UNL A   1      36.139  20.243  25.103  1.00  0.00     0.023 C 
ENDROOT
BRANCH   1   2
ATOM      2  C   UNL A   1      34.993  21.258  25.039  1.00  0.00     0.116 C 
BRANCH   2   3
ATOM      3  N   UNL A   1      35.202  22.173  23.940  1.00  0.00    -0.356 N 
ATOM      4  C   UNL A   1      34.288  22.990  23.330  1.00  0.00     0.227 C 
ATOM      5  O   UNL A   1      34.554  23.355  22.186  1.00  0.00    -0.274 OA
ATOM      6  H   UNL A   1      36.119  22.213  23.583  1.00  0.00     0.163 HD
BRANCH   4   7
ATOM      7  C   UNL A   1      33.017  23.413  24.099  1.00  0.00     0.105 C 
ATOM      8  C   UNL A   1      31.785  23.130  23.231  1.00  0.00     0.023 C 
BRANCH   7   9
ATOM      9  C   UNL A   1      33.059  24.856  24.621  1.00  0.00    -0.034 A 
ATOM     10  C   UNL A   1      34.028  25.285  25.532  1.00  0.00     0.005 A 
ATOM     11  C   UNL A   1      32.133  25.804  24.143  1.00  0.00     0.032 A 
ATOM     12  C   UNL A   1      34.084  26.608  25.973  1.00  0.00     0.011 A 
ATOM     13  C   UNL A   1      32.108  27.111  24.681  1.00  0.00     0.057 A 
ATOM     14  C   UNL A   1      33.107  27.526  25.549  1.00  0.00     0.008 A 
ATOM     15  N   UNL A   1      31.197  28.173  24.507  1.00  0.00    -0.276 N 
ATOM     16  C   UNL A   1      32.869  28.885  25.860  1.00  0.00     0.009 A 
ATOM     17  C   UNL A   1      31.623  29.238  25.322  1.00  0.00     0.057 A 
ATOM     18  C   UNL A   1      33.594  29.803  26.650  1.00  0.00     0.031 A 
ATOM     19  C   UNL A   1      31.019  30.450  25.714  1.00  0.00     0.029 A 
ATOM     20  C   UNL A   1      33.021  31.026  26.970  1.00  0.00     0.041 A 
ATOM     21  C   UNL A   1      31.738  31.332  26.537  1.00  0.00     0.023 A 
ATOM     22  Cl  UNL A   1      33.895  32.133  27.954  1.00  0.00    -0.084 Cl
BRANCH  15  23
ATOM     23  C   UNL A   1      30.029  28.067  23.698  1.00  0.00     0.262 C 
ATOM     24  O   UNL A   1      29.537  26.940  23.602  1.00  0.00    -0.268 OA
BRANCH  23  25
ATOM     25  C   UNL A   1      29.312  29.098  22.894  1.00  0.00     0.040 A 
ATOM     26  C   UNL A   1      30.076  29.779  21.921  1.00  0.00     0.015 A 
ATOM     27  C   UNL A   1      28.017  29.551  23.158  1.00  0.00     0.015 A 
ATOM     28  C   UNL A   1      29.568  30.880  21.229  1.00  0.00     0.021 A 
ATOM     29  C   UNL A   1      27.493  30.638  22.438  1.00  0.00     0.021 A 
ATOM     30  C   UNL A   1      28.273  31.304  21.491  1.00  0.00     0.041 A 
ATOM     31  Cl  UNL A   1      27.648  32.680  20.669  1.00  0.00    -0.084 Cl
ENDBRANCH  23  25
ENDBRANCH  15  23
ENDBRANCH   7   9
ENDBRANCH   4   7
ENDBRANCH   2   3
ENDBRANCH   1   2
BRANCH   1  32
ATOM     32  C   UNL A   1      37.473  20.756  24.559  1.00  0.00     0.023 C 
BRANCH  32  33
ATOM     33  C   UNL A   1      38.537  20.999  25.617  1.00  0.00     0.116 C 
BRANCH  33  34
ATOM     34  N   UNL A   1      39.535  19.943  25.653  1.00  0.00    -0.352 N 
ATOM     35  C   UNL A   1      40.854  20.003  26.022  1.00  0.00     0.251 C 
ATOM     36  H   UNL A   1      39.217  19.054  25.371  1.00  0.00     0.163 HD
ATOM     37  O   UNL A   1      41.584  19.038  25.834  1.00  0.00    -0.269 OA
BRANCH  35  38
ATOM     38  C   UNL A   1      41.398  21.242  26.616  1.00  0.00     0.039 A 
ATOM     39  C   UNL A   1      41.844  22.247  25.756  1.00  0.00     0.014 A 
ATOM     40  C   UNL A   1      41.474  21.416  28.001  1.00  0.00     0.014 A 
ATOM     41  C   UNL A   1      42.320  23.444  26.287  1.00  0.00     0.010 A 
ATOM     42  C   UNL A   1      41.867  22.643  28.527  1.00  0.00     0.010 A 
ATOM     43  C   UNL A   1      42.303  23.666  27.675  1.00  0.00    -0.014 A 
BRANCH  43  44
ATOM     44  C   UNL A   1      42.730  24.976  28.226  1.00  0.00     0.031 A 
ATOM     45  C   UNL A   1      41.726  26.060  28.500  1.00  0.00     0.074 A 
ATOM     46  C   UNL A   1      44.038  25.187  28.476  1.00  0.00     0.049 A 
ATOM     47  N   UNL A   1      41.914  27.237  29.043  1.00  0.00    -0.248 NA
ATOM     48  C   UNL A   1      40.333  25.804  28.097  1.00  0.00     0.031 C 
ATOM     49  C   UNL A   1      45.116  24.235  28.195  1.00  0.00     0.029 A 
ATOM     50  N   UNL A   1      44.680  26.261  29.036  1.00  0.00    -0.354 N 
ATOM     51  C   UNL A   1      40.669  27.854  29.052  1.00  0.00     0.074 A 
ATOM     52  C   UNL A   1      39.747  26.952  28.400  1.00  0.00     0.031 C 
ATOM     53  C   UNL A   1      46.278  24.750  28.626  1.00  0.00     0.029 A 
ATOM     54  C   UNL A   1      46.033  26.077  29.180  1.00  0.00     0.049 A 
ATOM     55  H   UNL A   1      44.214  27.085  29.309  1.00  0.00     0.167 HD
ATOM     56  C   UNL A   1      40.319  29.050  29.582  1.00  0.00     0.031 A 
ATOM     57  C   UNL A   1      46.972  26.885  29.706  1.00  0.00     0.031 A 
ATOM     58  C   UNL A   1      41.239  29.953  30.221  1.00  0.00     0.049 A 
ATOM     59  C   UNL A   1      46.557  28.210  30.280  1.00  0.00     0.074 A 
ATOM     60  C   UNL A   1      40.977  31.174  30.819  1.00  0.00     0.029 A 
ATOM     61  N   UNL A   1      42.602  29.734  30.343  1.00  0.00    -0.354 N 
ATOM     62  N   UNL A   1      45.361  28.743  30.352  1.00  0.00    -0.248 NA
ATOM     63  C   UNL A   1      47.621  29.035  30.866  1.00  0.00     0.031 C 
ATOM     64  C   UNL A   1      42.190  31.718  31.255  1.00  0.00     0.029 A 
ATOM     65  C   UNL A   1      43.198  30.807  30.988  1.00  0.00     0.049 A 
ATOM     66  H   UNL A   1      43.078  28.934  30.019  1.00  0.00     0.167 HD
ATOM     67  C   UNL A   1      45.526  29.956  31.007  1.00  0.00     0.074 A 
ATOM     68  C   UNL A   1      46.932  30.060  31.342  1.00  0.00     0.031 C 
ATOM     69  C   UNL A   1      44.601  30.903  31.299  1.00  0.00     0.031 A 
BRANCH  56  70
ATOM     70  C   UNL A   1      38.870  29.447  29.495  1.00  0.00    -0.014 A 
ATOM     71  C   UNL A   1      38.371  30.123  28.368  1.00  0.00     0.009 A 
ATOM     72  C   UNL A   1      37.983  29.105  30.526  1.00  0.00     0.009 A 
ATOM     73  C   UNL A   1      37.023  30.477  28.292  1.00  0.00     0.001 A 
ATOM     74  C   UNL A   1      36.628  29.433  30.434  1.00  0.00     0.001 A 
ATOM     75  C   UNL A   1      36.151  30.126  29.322  1.00  0.00     0.000 A 
ENDBRANCH  56  70
BRANCH  57  76
ATOM     76  C   UNL A   1      48.396  26.459  29.726  1.00  0.00    -0.014 A 
ATOM     77  C   UNL A   1      49.255  26.759  28.656  1.00  0.00     0.009 A 
ATOM     78  C   UNL A   1      48.903  25.732  30.815  1.00  0.00     0.009 A 
ATOM     79  C   UNL A   1      50.576  26.306  28.660  1.00  0.00     0.001 A 
ATOM     80  C   UNL A   1      50.233  25.311  30.833  1.00  0.00     0.001 A 
ATOM     81  C   UNL A   1      51.065  25.587  29.749  1.00  0.00     0.000 A 
ENDBRANCH  57  76
BRANCH  69  82
ATOM     82  C   UNL A   1      45.086  32.121  32.036  1.00  0.00    -0.014 A 
ATOM     83  C   UNL A   1      45.051  32.188  33.439  1.00  0.00     0.009 A 
ATOM     84  C   UNL A   1      45.585  33.217  31.317  1.00  0.00     0.009 A 
ATOM     85  C   UNL A   1      45.453  33.349  34.101  1.00  0.00     0.001 A 
ATOM     86  C   UNL A   1      46.021  34.364  31.984  1.00  0.00     0.001 A 
ATOM     87  C   UNL A   1      45.940  34.434  33.373  1.00  0.00     0.000 A 
ENDBRANCH  69  82
ENDBRANCH  43  44
ENDBRANCH  35  38
ENDBRANCH  33  34
ENDBRANCH  32  33
ENDBRANCH   1  32
TORSDOF 14
ENDMDL
MODEL 2
REMARK VINA RESULT:     -12.4      1.633      3.485
REMARK SMILES C[C@@H](C(=O)NCCCCNC(=O)c1ccc(-c2c3nc(c(-c4ccccc4)c4ccc([nH]4)c(-c4ccccc4)c4nc(c(-c5ccccc5)c5ccc2[nH]5)C=C4)C=C3)cc1)c1ccc2c3cc(Cl)ccc3n(C(=O)c3ccc(Cl)cc3)c2c1
REMARK SMILES IDX 7 1 6 2 5 3 3 4 4 5 2 7 1 8 61 9 62 10 83 11 63 12 82 13
REMARK SMILES IDX 64 14 72 15 65 16 71 17 66 18 70 19 67 20 69 21 68 22 73 23
REMARK SMILES IDX 74 24 75 25 76 26 81 27 77 28 80 29 78 30 79 31 8 32 9 33
REMARK SMILES IDX 10 34 11 35 12 37 13 38 14 39 60 40 15 41 59 42 16 43 17 44
REMARK SMILES IDX 18 45 53 46 19 47 58 48 52 49 54 50 20 51 57 52 51 53 50 54
REMARK SMILES IDX 21 56 43 57 28 58 42 59 29 60 32 61 41 62 55 63 30 64 31 65
REMARK SMILES IDX 40 67 56 68 33 69 22 70 23 71 27 72 24 73 26 74 25 75 44 76
REMARK SMILES IDX 45 77 49 78 46 79 48 80 47 81 34 82 35 83 39 84 36 85 38 86
REMARK SMILES IDX 37 87
REMARK H PARENT 5 6 10 36 54 55 32 66
REMARK Flexibility Score: inf
ROOT
ATOM      1  C   UNL A   1      36.491  20.314  25.009  1.00  0.00     0.023 C 
ENDROOT
BRANCH   1   2
ATOM      2  C   UNL A   1      36.100  21.689  25.560  1.00  0.00     0.116 C 
BRANCH   2   3
ATOM      3  N   UNL A   1      36.118  22.672  24.499  1.00  0.00    -0.356 N 
ATOM      4  C   UNL A   1      35.058  23.201  23.815  1.00  0.00     0.227 C 
ATOM      5  O   UNL A   1      35.300  23.679  22.707  1.00  0.00    -0.274 OA
ATOM      6  H   UNL A   1      37.007  23.001  24.234  1.00  0.00     0.163 HD
BRANCH   4   7
ATOM      7  C   UNL A   1      33.654  23.188  24.462  1.00  0.00     0.105 C 
ATOM      8  C   UNL A   1      32.978  21.842  24.172  1.00  0.00     0.023 C 
BRANCH   7   9
ATOM      9  C   UNL A   1      32.781  24.389  24.072  1.00  0.00    -0.034 A 
ATOM     10  C   UNL A   1      32.201  24.500  22.805  1.00  0.00     0.005 A 
ATOM     11  C   UNL A   1      32.503  25.394  25.019  1.00  0.00     0.032 A 
ATOM     12  C   UNL A   1      31.378  25.576  22.469  1.00  0.00     0.011 A 
ATOM     13  C   UNL A   1      31.774  26.545  24.644  1.00  0.00     0.057 A 
ATOM     14  C   UNL A   1      31.171  26.612  23.397  1.00  0.00     0.008 A 
ATOM     15  N   UNL A   1      31.512  27.747  25.333  1.00  0.00    -0.276 N 
ATOM     16  C   UNL A   1      30.455  27.831  23.331  1.00  0.00     0.009 A 
ATOM     17  C   UNL A   1      30.776  28.580  24.471  1.00  0.00     0.057 A 
ATOM     18  C   UNL A   1      29.634  28.377  22.321  1.00  0.00     0.031 A 
ATOM     19  C   UNL A   1      30.417  29.943  24.526  1.00  0.00     0.029 A 
ATOM     20  C   UNL A   1      29.222  29.698  22.421  1.00  0.00     0.041 A 
ATOM     21  C   UNL A   1      29.636  30.482  23.490  1.00  0.00     0.023 A 
ATOM     22  Cl  UNL A   1      28.242  30.371  21.177  1.00  0.00    -0.084 Cl
BRANCH  15  23
ATOM     23  C   UNL A   1      32.018  28.020  26.637  1.00  0.00     0.262 C 
ATOM     24  O   UNL A   1      31.502  27.387  27.561  1.00  0.00    -0.268 OA
BRANCH  23  25
ATOM     25  C   UNL A   1      33.053  28.994  27.089  1.00  0.00     0.040 A 
ATOM     26  C   UNL A   1      32.622  30.326  27.277  1.00  0.00     0.015 A 
ATOM     27  C   UNL A   1      34.421  28.722  27.160  1.00  0.00     0.015 A 
ATOM     28  C   UNL A   1      33.527  31.359  27.528  1.00  0.00     0.021 A 
ATOM     29  C   UNL A   1      35.329  29.755  27.446  1.00  0.00     0.021 A 
ATOM     30  C   UNL A   1      34.881  31.067  27.613  1.00  0.00     0.041 A 
ATOM     31  Cl  UNL A   1      36.007  32.338  27.889  1.00  0.00    -0.084 Cl
ENDBRANCH  23  25
ENDBRANCH  15  23
ENDBRANCH   7   9
ENDBRANCH   4   7
ENDBRANCH   2   3
ENDBRANCH   1   2
BRANCH   1  32
ATOM     32  C   UNL A   1      37.973  20.168  24.660  1.00  0.00     0.023 C 
BRANCH  32  33
ATOM     33  C   UNL A   1      38.917  20.285  25.846  1.00  0.00     0.116 C 
BRANCH  33  34
ATOM     34  N   UNL A   1      39.915  19.229  25.867  1.00  0.00    -0.352 N 
ATOM     35  C   UNL A   1      41.270  19.315  26.061  1.00  0.00     0.251 C 
ATOM     36  H   UNL A   1      39.568  18.319  25.722  1.00  0.00     0.163 HD
ATOM     37  O   UNL A   1      41.975  18.329  25.885  1.00  0.00    -0.269 OA
BRANCH  35  38
ATOM     38  C   UNL A   1      41.879  20.604  26.450  1.00  0.00     0.039 A 
ATOM     39  C   UNL A   1      42.184  21.522  25.444  1.00  0.00     0.014 A 
ATOM     40  C   UNL A   1      42.153  20.908  27.787  1.00  0.00     0.014 A 
ATOM     41  C   UNL A   1      42.717  22.763  25.784  1.00  0.00     0.010 A 
ATOM     42  C   UNL A   1      42.603  22.179  28.132  1.00  0.00     0.010 A 
ATOM     43  C   UNL A   1      42.899  23.116  27.133  1.00  0.00    -0.014 A 
BRANCH  43  44
ATOM     44  C   UNL A   1      43.386  24.471  27.490  1.00  0.00     0.031 A 
ATOM     45  C   UNL A   1      42.466  25.477  28.124  1.00  0.00     0.074 A 
ATOM     46  C   UNL A   1      44.669  24.795  27.235  1.00  0.00     0.049 A 
ATOM     47  N   UNL A   1      42.741  26.681  28.562  1.00  0.00    -0.248 NA
ATOM     48  C   UNL A   1      41.052  25.097  28.269  1.00  0.00     0.031 C 
ATOM     49  C   UNL A   1      45.643  23.928  26.566  1.00  0.00     0.029 A 
ATOM     50  N   UNL A   1      45.378  25.934  27.518  1.00  0.00    -0.354 N 
ATOM     51  C   UNL A   1      41.540  27.194  29.038  1.00  0.00     0.074 A 
ATOM     52  C   UNL A   1      40.523  26.201  28.774  1.00  0.00     0.031 C 
ATOM     53  C   UNL A   1      46.833  24.548  26.535  1.00  0.00     0.029 A 
ATOM     54  C   UNL A   1      46.698  25.866  27.146  1.00  0.00     0.049 A 
ATOM     55  H   UNL A   1      44.978  26.724  27.949  1.00  0.00     0.167 HD
ATOM     56  C   UNL A   1      41.310  28.372  29.665  1.00  0.00     0.031 A 
ATOM     57  C   UNL A   1      47.692  26.762  27.286  1.00  0.00     0.031 A 
ATOM     58  C   UNL A   1      42.320  29.364  29.919  1.00  0.00     0.049 A 
ATOM     59  C   UNL A   1      47.407  28.064  27.979  1.00  0.00     0.074 A 
ATOM     60  C   UNL A   1      42.195  30.576  30.576  1.00  0.00     0.029 A 
ATOM     61  N   UNL A   1      43.645  29.262  29.522  1.00  0.00    -0.354 N 
ATOM     62  N   UNL A   1      46.283  28.500  28.495  1.00  0.00    -0.248 NA
ATOM     63  C   UNL A   1      48.538  28.991  28.129  1.00  0.00     0.031 C 
ATOM     64  C   UNL A   1      43.432  31.230  30.530  1.00  0.00     0.029 A 
ATOM     65  C   UNL A   1      44.343  30.397  29.901  1.00  0.00     0.049 A 
ATOM     66  H   UNL A   1      44.033  28.494  29.040  1.00  0.00     0.167 HD
ATOM     67  C   UNL A   1      46.574  29.741  29.046  1.00  0.00     0.074 A 
ATOM     68  C   UNL A   1      47.989  29.969  28.832  1.00  0.00     0.031 C 
ATOM     69  C   UNL A   1      45.747  30.616  29.666  1.00  0.00     0.031 A 
BRANCH  56  70
ATOM     70  C   UNL A   1      39.905  28.646  30.127  1.00  0.00    -0.014 A 
ATOM     71  C   UNL A   1      39.450  28.185  31.374  1.00  0.00     0.009 A 
ATOM     72  C   UNL A   1      39.038  29.410  29.332  1.00  0.00     0.009 A 
ATOM     73  C   UNL A   1      38.147  28.454  31.798  1.00  0.00     0.001 A 
ATOM     74  C   UNL A   1      37.746  29.706  29.772  1.00  0.00     0.001 A 
ATOM     75  C   UNL A   1      37.298  29.220  31.000  1.00  0.00     0.000 A 
ENDBRANCH  56  70
BRANCH  57  76
ATOM     76  C   UNL A   1      49.052  26.455  26.771  1.00  0.00    -0.014 A 
ATOM     77  C   UNL A   1      49.455  26.882  25.495  1.00  0.00     0.009 A 
ATOM     78  C   UNL A   1      49.954  25.714  27.552  1.00  0.00     0.009 A 
ATOM     79  C   UNL A   1      50.714  26.540  25.000  1.00  0.00     0.001 A 
ATOM     80  C   UNL A   1      51.226  25.405  27.067  1.00  0.00     0.001 A 
ATOM     81  C   UNL A   1      51.600  25.806  25.786  1.00  0.00     0.000 A 
ENDBRANCH  57  76
BRANCH  69  82
ATOM     82  C   UNL A   1      46.364  31.890  30.174  1.00  0.00    -0.014 A 
ATOM     83  C   UNL A   1      46.355  33.065  29.405  1.00  0.00     0.009 A 
ATOM     84  C   UNL A   1      46.965  31.915  31.442  1.00  0.00     0.009 A 
ATOM     85  C   UNL A   1      46.983  34.221  29.872  1.00  0.00     0.001 A 
ATOM     86  C   UNL A   1      47.561  33.082  31.922  1.00  0.00     0.001 A 
ATOM     87  C   UNL A   1      47.583  34.229  31.130  1.00  0.00     0.000 A 
ENDBRANCH  69  82
ENDBRANCH  43  44
ENDBRANCH  35  38
ENDBRANCH  33  34
ENDBRANCH  32  33
ENDBRANCH   1  32
TORSDOF 14
ENDMDL
MODEL 3
REMARK VINA RESULT:     -12.3      1.765      6.470
REMARK SMILES C[C@@H](C(=O)NCCCCNC(=O)c1ccc(-c2c3nc(c(-c4ccccc4)c4ccc([nH]4)c(-c4ccccc4)c4nc(c(-c5ccccc5)c5ccc2[nH]5)C=C4)C=C3)cc1)c1ccc2c3cc(Cl)ccc3n(C(=O)c3ccc(Cl)cc3)c2c1
REMARK SMILES IDX 7 1 6 2 5 3 3 4 4 5 2 7 1 8 61 9 62 10 83 11 63 12 82 13
REMARK SMILES IDX 64 14 72 15 65 16 71 17 66 18 70 19 67 20 69 21 68 22 73 23
REMARK SMILES IDX 74 24 75 25 76 26 81 27 77 28 80 29 78 30 79 31 8 32 9 33
REMARK SMILES IDX 10 34 11 35 12 37 13 38 14 39 60 40 15 41 59 42 16 43 17 44
REMARK SMILES IDX 18 45 53 46 19 47 58 48 52 49 54 50 20 51 57 52 51 53 50 54
REMARK SMILES IDX 21 56 43 57 28 58 42 59 29 60 32 61 41 62 55 63 30 64 31 65
REMARK SMILES IDX 40 67 56 68 33 69 22 70 23 71 27 72 24 73 26 74 25 75 44 76
REMARK SMILES IDX 45 77 49 78 46 79 48 80 47 81 34 82 35 83 39 84 36 85 38 86
REMARK SMILES IDX 37 87
REMARK H PARENT 5 6 10 36 54 55 32 66
REMARK Flexibility Score: inf
ROOT
ATOM      1  C   UNL A   1      36.632  20.318  25.026  1.00  0.00     0.023 C 
ENDROOT
BRANCH   1   2
ATOM      2  C   UNL A   1      36.023  21.637  25.514  1.00  0.00     0.116 C 
BRANCH   2   3
ATOM      3  N   UNL A   1      36.064  22.623  24.457  1.00  0.00    -0.356 N 
ATOM      4  C   UNL A   1      35.023  23.121  23.721  1.00  0.00     0.227 C 
ATOM      5  O   UNL A   1      35.306  23.609  22.627  1.00  0.00    -0.274 OA
ATOM      6  H   UNL A   1      36.954  22.981  24.238  1.00  0.00     0.163 HD
BRANCH   4   7
ATOM      7  C   UNL A   1      33.590  23.062  24.296  1.00  0.00     0.105 C 
ATOM      8  C   UNL A   1      32.937  21.736  23.888  1.00  0.00     0.023 C 
BRANCH   7   9
ATOM      9  C   UNL A   1      32.729  24.283  23.941  1.00  0.00    -0.034 A 
ATOM     10  C   UNL A   1      32.126  24.422  22.687  1.00  0.00     0.005 A 
ATOM     11  C   UNL A   1      32.488  25.278  24.908  1.00  0.00     0.032 A 
ATOM     12  C   UNL A   1      31.314  25.516  22.384  1.00  0.00     0.011 A 
ATOM     13  C   UNL A   1      31.771  26.447  24.564  1.00  0.00     0.057 A 
ATOM     14  C   UNL A   1      31.143  26.542  23.331  1.00  0.00     0.008 A 
ATOM     15  N   UNL A   1      31.543  27.643  25.275  1.00  0.00    -0.276 N 
ATOM     16  C   UNL A   1      30.447  27.773  23.296  1.00  0.00     0.009 A 
ATOM     17  C   UNL A   1      30.804  28.501  24.441  1.00  0.00     0.057 A 
ATOM     18  C   UNL A   1      29.615  28.347  22.312  1.00  0.00     0.031 A 
ATOM     19  C   UNL A   1      30.469  29.868  24.522  1.00  0.00     0.029 A 
ATOM     20  C   UNL A   1      29.228  29.674  22.439  1.00  0.00     0.041 A 
ATOM     21  C   UNL A   1      29.676  30.435  23.510  1.00  0.00     0.023 A 
ATOM     22  Cl  UNL A   1      28.234  30.381  21.225  1.00  0.00    -0.084 Cl
BRANCH  15  23
ATOM     23  C   UNL A   1      32.080  27.888  26.572  1.00  0.00     0.262 C 
ATOM     24  O   UNL A   1      31.609  27.211  27.490  1.00  0.00    -0.268 OA
BRANCH  23  25
ATOM     25  C   UNL A   1      33.100  28.876  27.026  1.00  0.00     0.040 A 
ATOM     26  C   UNL A   1      32.633  30.179  27.306  1.00  0.00     0.015 A 
ATOM     27  C   UNL A   1      34.479  28.653  27.016  1.00  0.00     0.015 A 
ATOM     28  C   UNL A   1      33.512  31.232  27.568  1.00  0.00     0.021 A 
ATOM     29  C   UNL A   1      35.363  29.705  27.313  1.00  0.00     0.021 A 
ATOM     30  C   UNL A   1      34.877  30.988  27.573  1.00  0.00     0.041 A 
ATOM     31  Cl  UNL A   1      35.970  32.284  27.862  1.00  0.00    -0.084 Cl
ENDBRANCH  23  25
ENDBRANCH  15  23
ENDBRANCH   7   9
ENDBRANCH   4   7
ENDBRANCH   2   3
ENDBRANCH   1   2
BRANCH   1  32
ATOM     32  C   UNL A   1      38.132  20.382  24.736  1.00  0.00     0.023 C 
BRANCH  32  33
ATOM     33  C   UNL A   1      39.017  20.372  25.972  1.00  0.00     0.116 C 
BRANCH  33  34
ATOM     34  N   UNL A   1      40.031  19.332  25.920  1.00  0.00    -0.352 N 
ATOM     35  C   UNL A   1      41.390  19.432  26.070  1.00  0.00     0.251 C 
ATOM     36  H   UNL A   1      39.692  18.422  25.755  1.00  0.00     0.163 HD
ATOM     37  O   UNL A   1      42.103  18.464  25.834  1.00  0.00    -0.269 OA
BRANCH  35  38
ATOM     38  C   UNL A   1      41.994  20.716  26.483  1.00  0.00     0.039 A 
ATOM     39  C   UNL A   1      42.287  21.657  25.495  1.00  0.00     0.014 A 
ATOM     40  C   UNL A   1      42.275  20.993  27.824  1.00  0.00     0.014 A 
ATOM     41  C   UNL A   1      42.814  22.894  25.859  1.00  0.00     0.010 A 
ATOM     42  C   UNL A   1      42.719  22.259  28.194  1.00  0.00     0.010 A 
ATOM     43  C   UNL A   1      43.003  23.219  27.214  1.00  0.00    -0.014 A 
BRANCH  43  44
ATOM     44  C   UNL A   1      43.484  24.570  27.598  1.00  0.00     0.031 A 
ATOM     45  C   UNL A   1      44.915  24.970  27.372  1.00  0.00     0.074 A 
ATOM     46  C   UNL A   1      42.619  25.438  28.159  1.00  0.00     0.049 A 
ATOM     47  N   UNL A   1      45.488  26.129  27.583  1.00  0.00    -0.248 NA
ATOM     48  C   UNL A   1      45.829  23.936  26.861  1.00  0.00     0.031 C 
ATOM     49  C   UNL A   1      41.221  25.146  28.487  1.00  0.00     0.029 A 
ATOM     50  N   UNL A   1      42.784  26.744  28.540  1.00  0.00    -0.354 N 
ATOM     51  C   UNL A   1      46.820  25.964  27.227  1.00  0.00     0.074 A 
ATOM     52  C   UNL A   1      46.988  24.578  26.851  1.00  0.00     0.031 C 
ATOM     53  C   UNL A   1      40.645  26.255  28.975  1.00  0.00     0.029 A 
ATOM     54  C   UNL A   1      41.638  27.322  29.028  1.00  0.00     0.049 A 
ATOM     55  H   UNL A   1      43.642  27.222  28.468  1.00  0.00     0.167 HD
ATOM     56  C   UNL A   1      47.808  26.889  27.187  1.00  0.00     0.031 A 
ATOM     57  C   UNL A   1      41.410  28.575  29.465  1.00  0.00     0.031 A 
ATOM     58  C   UNL A   1      47.645  28.265  27.571  1.00  0.00     0.049 A 
ATOM     59  C   UNL A   1      42.526  29.579  29.416  1.00  0.00     0.074 A 
ATOM     60  C   UNL A   1      48.576  29.289  27.536  1.00  0.00     0.029 A 
ATOM     61  N   UNL A   1      46.470  28.812  28.066  1.00  0.00    -0.354 N 
ATOM     62  N   UNL A   1      43.761  29.426  29.001  1.00  0.00    -0.248 NA
ATOM     63  C   UNL A   1      42.210  30.937  29.878  1.00  0.00     0.031 C 
ATOM     64  C   UNL A   1      47.980  30.442  28.060  1.00  0.00     0.029 A 
ATOM     65  C   UNL A   1      46.659  30.153  28.359  1.00  0.00     0.049 A 
ATOM     66  H   UNL A   1      45.626  28.320  28.191  1.00  0.00     0.167 HD
ATOM     67  C   UNL A   1      44.362  30.670  29.133  1.00  0.00     0.074 A 
ATOM     68  C   UNL A   1      43.345  31.573  29.633  1.00  0.00     0.031 C 
ATOM     69  C   UNL A   1      45.641  31.034  28.873  1.00  0.00     0.031 A 
BRANCH  56  70
ATOM     70  C   UNL A   1      49.159  26.436  26.703  1.00  0.00    -0.014 A 
ATOM     71  C   UNL A   1      50.048  25.763  27.559  1.00  0.00     0.009 A 
ATOM     72  C   UNL A   1      49.535  26.643  25.367  1.00  0.00     0.009 A 
ATOM     73  C   UNL A   1      51.294  25.338  27.097  1.00  0.00     0.001 A 
ATOM     74  C   UNL A   1      50.770  26.189  24.898  1.00  0.00     0.001 A 
ATOM     75  C   UNL A   1      51.652  25.545  25.765  1.00  0.00     0.000 A 
ENDBRANCH  56  70
BRANCH  57  76
ATOM     76  C   UNL A   1      40.066  28.955  29.974  1.00  0.00    -0.014 A 
ATOM     77  C   UNL A   1      39.102  29.514  29.120  1.00  0.00     0.009 A 
ATOM     78  C   UNL A   1      39.745  28.774  31.329  1.00  0.00     0.009 A 
ATOM     79  C   UNL A   1      37.863  29.918  29.620  1.00  0.00     0.001 A 
ATOM     80  C   UNL A   1      38.493  29.147  31.819  1.00  0.00     0.001 A 
ATOM     81  C   UNL A   1      37.557  29.732  30.967  1.00  0.00     0.000 A 
ENDBRANCH  57  76
BRANCH  69  82
ATOM     82  C   UNL A   1      45.998  32.476  29.106  1.00  0.00    -0.014 A 
ATOM     83  C   UNL A   1      46.505  32.914  30.340  1.00  0.00     0.009 A 
ATOM     84  C   UNL A   1      45.823  33.412  28.075  1.00  0.00     0.009 A 
ATOM     85  C   UNL A   1      46.777  34.266  30.554  1.00  0.00     0.001 A 
ATOM     86  C   UNL A   1      46.130  34.758  28.280  1.00  0.00     0.001 A 
ATOM     87  C   UNL A   1      46.591  35.186  29.523  1.00  0.00     0.000 A 
ENDBRANCH  69  82
ENDBRANCH  43  44
ENDBRANCH  35  38
ENDBRANCH  33  34
ENDBRANCH  32  33
ENDBRANCH   1  32
TORSDOF 14
ENDMDL
