MODEL 1
REMARK VINA RESULT:     -10.3      0.000      0.000
REMARK SMILES CC(C)[C@H]([NH2+]Cc1ccc(N(C)C)cc1)C(=O)NCCCCNC(=O)c1ccc(-c2c3nc(c(-c4ccccc4)c4ccc([nH]4)c(-c4ccccc4)c4nc(c(-c5ccccc5)c5ccc2[nH]5)C=C4)C=C3)cc1
REMARK SMILES IDX 19 1 18 2 16 3 17 4 4 6 2 7 1 8 3 9 5 10 6 13 7 14 8 15
REMARK SMILES IDX 15 16 9 17 14 18 10 19 11 20 12 21 13 22 20 23 21 24 22 25
REMARK SMILES IDX 23 26 24 27 25 29 26 30 27 31 73 32 28 33 72 34 29 35 30 36
REMARK SMILES IDX 31 37 66 38 32 39 71 40 65 41 67 42 33 43 70 44 64 45 63 46
REMARK SMILES IDX 34 48 56 49 41 50 55 51 42 52 45 53 54 54 68 55 43 56 44 57
REMARK SMILES IDX 53 59 69 60 46 61 35 62 36 63 40 64 37 65 39 66 38 67 57 68
REMARK SMILES IDX 58 69 62 70 59 71 61 72 60 73 47 74 48 75 52 76 49 77 51 78
REMARK SMILES IDX 50 79
REMARK H PARENT 18 5 5 11 5 12 23 28 67 47 45 58
REMARK Flexibility Score: inf
ROOT
ATOM      1  C   UNL A   1      33.078  23.616  24.378  1.00  0.00     0.116 C 
ENDROOT
BRANCH   1   2
ATOM      2  N   UNL A   1      32.337  23.671  25.623  1.00  0.00    -0.351 N 
ATOM      3  C   UNL A   1      31.518  24.652  26.104  1.00  0.00     0.278 C 
ATOM      4  O   UNL A   1      30.939  24.433  27.174  1.00  0.00    -0.268 OA
ATOM      5  H   UNL A   1      32.439  22.884  26.207  1.00  0.00     0.163 HD
BRANCH   3   6
ATOM      6  C   UNL A   1      31.288  25.986  25.344  1.00  0.00     0.275 C 
BRANCH   6   7
ATOM      7  C   UNL A   1      32.115  27.203  25.893  1.00  0.00     0.051 C 
ATOM      8  C   UNL A   1      31.622  27.773  27.231  1.00  0.00     0.014 C 
ATOM      9  C   UNL A   1      33.635  27.019  25.972  1.00  0.00     0.014 C 
ENDBRANCH   6   7
BRANCH   6  10
ATOM     10  N   UNL A   1      29.840  26.241  25.163  1.00  0.00    -0.332 N 
ATOM     11  H   UNL A   1      29.625  27.163  25.542  1.00  0.00     0.347 HD
ATOM     12  H   UNL A   1      29.341  25.497  25.651  1.00  0.00     0.347 HD
BRANCH  10  13
ATOM     13  C   UNL A   1      29.413  26.202  23.758  1.00  0.00     0.297 C 
BRANCH  13  14
ATOM     14  C   UNL A   1      29.150  27.607  23.265  1.00  0.00     0.006 A 
ATOM     15  C   UNL A   1      30.198  28.375  22.762  1.00  0.00     0.012 A 
ATOM     16  C   UNL A   1      27.888  28.193  23.305  1.00  0.00     0.012 A 
ATOM     17  C   UNL A   1      30.002  29.681  22.300  1.00  0.00     0.026 A 
ATOM     18  C   UNL A   1      27.700  29.509  22.837  1.00  0.00     0.026 A 
ATOM     19  C   UNL A   1      28.747  30.296  22.315  1.00  0.00     0.036 A 
BRANCH  19  20
ATOM     20  N   UNL A   1      28.547  31.594  21.866  1.00  0.00    -0.378 N 
ATOM     21  C   UNL A   1      28.015  31.921  20.546  1.00  0.00     0.143 C 
ATOM     22  C   UNL A   1      28.671  32.720  22.784  1.00  0.00     0.143 C 
ENDBRANCH  19  20
ENDBRANCH  13  14
ENDBRANCH  10  13
ENDBRANCH   6  10
ENDBRANCH   3   6
ENDBRANCH   1   2
BRANCH   1  23
ATOM     23  C   UNL A   1      34.504  23.110  24.567  1.00  0.00     0.023 C 
BRANCH  23  24
ATOM     24  C   UNL A   1      35.224  23.610  25.817  1.00  0.00     0.023 C 
BRANCH  24  25
ATOM     25  C   UNL A   1      36.678  24.014  25.625  1.00  0.00     0.116 C 
BRANCH  25  26
ATOM     26  N   UNL A   1      37.603  22.892  25.692  1.00  0.00    -0.352 N 
ATOM     27  C   UNL A   1      38.890  22.849  26.177  1.00  0.00     0.251 C 
ATOM     28  H   UNL A   1      37.256  22.040  25.340  1.00  0.00     0.163 HD
ATOM     29  O   UNL A   1      39.564  21.837  26.054  1.00  0.00    -0.269 OA
BRANCH  27  30
ATOM     30  C   UNL A   1      39.469  24.052  26.814  1.00  0.00     0.039 A 
ATOM     31  C   UNL A   1      40.178  24.957  26.021  1.00  0.00     0.014 A 
ATOM     32  C   UNL A   1      39.285  24.302  28.175  1.00  0.00     0.014 A 
ATOM     33  C   UNL A   1      40.633  26.154  26.578  1.00  0.00     0.010 A 
ATOM     34  C   UNL A   1      39.662  25.532  28.708  1.00  0.00     0.010 A 
ATOM     35  C   UNL A   1      40.339  26.471  27.915  1.00  0.00    -0.014 A 
BRANCH  35  36
ATOM     36  C   UNL A   1      40.727  27.780  28.499  1.00  0.00     0.031 A 
ATOM     37  C   UNL A   1      42.136  28.011  28.971  1.00  0.00     0.074 A 
ATOM     38  C   UNL A   1      39.794  28.737  28.670  1.00  0.00     0.049 A 
ATOM     39  N   UNL A   1      42.648  29.064  29.556  1.00  0.00    -0.248 NA
ATOM     40  C   UNL A   1      43.089  26.903  28.789  1.00  0.00     0.031 C 
ATOM     41  C   UNL A   1      38.380  28.622  28.306  1.00  0.00     0.029 A 
ATOM     42  N   UNL A   1      39.896  29.998  29.205  1.00  0.00    -0.354 N 
ATOM     43  C   UNL A   1      43.970  28.738  29.831  1.00  0.00     0.074 A 
ATOM     44  C   UNL A   1      44.169  27.373  29.394  1.00  0.00     0.031 C 
ATOM     45  C   UNL A   1      37.754  29.773  28.603  1.00  0.00     0.029 A 
ATOM     46  C   UNL A   1      38.710  30.692  29.211  1.00  0.00     0.049 A 
ATOM     47  H   UNL A   1      40.739  30.370  29.550  1.00  0.00     0.167 HD
ATOM     48  C   UNL A   1      44.938  29.510  30.379  1.00  0.00     0.031 A 
ATOM     49  C   UNL A   1      38.422  31.928  29.660  1.00  0.00     0.031 A 
ATOM     50  C   UNL A   1      44.748  30.873  30.796  1.00  0.00     0.049 A 
ATOM     51  C   UNL A   1      39.518  32.769  30.254  1.00  0.00     0.074 A 
ATOM     52  C   UNL A   1      45.686  31.759  31.298  1.00  0.00     0.029 A 
ATOM     53  N   UNL A   1      43.538  31.546  30.761  1.00  0.00    -0.354 N 
ATOM     54  N   UNL A   1      40.783  32.473  30.431  1.00  0.00    -0.248 NA
ATOM     55  C   UNL A   1      39.148  34.120  30.698  1.00  0.00     0.031 C 
ATOM     56  C   UNL A   1      45.032  32.954  31.613  1.00  0.00     0.029 A 
ATOM     57  C   UNL A   1      43.700  32.831  31.254  1.00  0.00     0.049 A 
ATOM     58  H   UNL A   1      42.690  31.169  30.435  1.00  0.00     0.167 HD
ATOM     59  C   UNL A   1      41.364  33.609  30.978  1.00  0.00     0.074 A 
ATOM     60  C   UNL A   1      40.318  34.605  31.087  1.00  0.00     0.031 C 
ATOM     61  C   UNL A   1      42.650  33.810  31.356  1.00  0.00     0.031 A 
BRANCH  48  62
ATOM     62  C   UNL A   1      46.296  28.890  30.564  1.00  0.00    -0.014 A 
ATOM     63  C   UNL A   1      46.632  28.213  31.748  1.00  0.00     0.009 A 
ATOM     64  C   UNL A   1      47.236  28.949  29.525  1.00  0.00     0.009 A 
ATOM     65  C   UNL A   1      47.896  27.641  31.900  1.00  0.00     0.001 A 
ATOM     66  C   UNL A   1      48.489  28.350  29.668  1.00  0.00     0.001 A 
ATOM     67  C   UNL A   1      48.821  27.705  30.859  1.00  0.00     0.000 A 
ENDBRANCH  48  62
BRANCH  49  68
ATOM     68  C   UNL A   1      37.038  32.459  29.552  1.00  0.00    -0.014 A 
ATOM     69  C   UNL A   1      36.119  32.272  30.596  1.00  0.00     0.009 A 
ATOM     70  C   UNL A   1      36.624  33.145  28.399  1.00  0.00     0.009 A 
ATOM     71  C   UNL A   1      34.806  32.732  30.474  1.00  0.00     0.001 A 
ATOM     72  C   UNL A   1      35.319  33.630  28.292  1.00  0.00     0.001 A 
ATOM     73  C   UNL A   1      34.408  33.413  29.324  1.00  0.00     0.000 A 
ENDBRANCH  49  68
BRANCH  61  74
ATOM     74  C   UNL A   1      43.005  35.171  31.887  1.00  0.00    -0.014 A 
ATOM     75  C   UNL A   1      42.838  35.493  33.242  1.00  0.00     0.009 A 
ATOM     76  C   UNL A   1      43.549  36.132  31.020  1.00  0.00     0.009 A 
ATOM     77  C   UNL A   1      43.174  36.764  33.711  1.00  0.00     0.001 A 
ATOM     78  C   UNL A   1      43.912  37.392  31.498  1.00  0.00     0.001 A 
ATOM     79  C   UNL A   1      43.715  37.711  32.840  1.00  0.00     0.000 A 
ENDBRANCH  61  74
ENDBRANCH  35  36
ENDBRANCH  27  30
ENDBRANCH  25  26
ENDBRANCH  24  25
ENDBRANCH  23  24
ENDBRANCH   1  23
TORSDOF 16
ENDMDL
MODEL 2
REMARK VINA RESULT:     -10.3      2.187      6.806
REMARK SMILES CC(C)[C@H]([NH2+]Cc1ccc(N(C)C)cc1)C(=O)NCCCCNC(=O)c1ccc(-c2c3nc(c(-c4ccccc4)c4ccc([nH]4)c(-c4ccccc4)c4nc(c(-c5ccccc5)c5ccc2[nH]5)C=C4)C=C3)cc1
REMARK SMILES IDX 19 1 18 2 16 3 17 4 4 6 2 7 1 8 3 9 5 10 6 13 7 14 8 15
REMARK SMILES IDX 15 16 9 17 14 18 10 19 11 20 12 21 13 22 20 23 21 24 22 25
REMARK SMILES IDX 23 26 24 27 25 29 26 30 27 31 73 32 28 33 72 34 29 35 30 36
REMARK SMILES IDX 31 37 66 38 32 39 71 40 65 41 67 42 33 43 70 44 64 45 63 46
REMARK SMILES IDX 34 48 56 49 41 50 55 51 42 52 45 53 54 54 68 55 43 56 44 57
REMARK SMILES IDX 53 59 69 60 46 61 35 62 36 63 40 64 37 65 39 66 38 67 57 68
REMARK SMILES IDX 58 69 62 70 59 71 61 72 60 73 47 74 48 75 52 76 49 77 51 78
REMARK SMILES IDX 50 79
REMARK H PARENT 18 5 5 11 5 12 23 28 67 47 45 58
REMARK Flexibility Score: inf
ROOT
ATOM      1  C   UNL A   1      32.630  28.374  25.839  1.00  0.00     0.116 C 
ENDROOT
BRANCH   1   2
ATOM      2  N   UNL A   1      33.230  27.639  24.744  1.00  0.00    -0.351 N 
ATOM      3  C   UNL A   1      32.755  26.554  24.063  1.00  0.00     0.278 C 
ATOM      4  O   UNL A   1      33.429  26.143  23.111  1.00  0.00    -0.268 OA
ATOM      5  H   UNL A   1      34.108  27.972  24.445  1.00  0.00     0.163 HD
BRANCH   3   6
ATOM      6  C   UNL A   1      31.417  25.862  24.436  1.00  0.00     0.275 C 
BRANCH   6   7
ATOM      7  C   UNL A   1      31.572  24.430  25.063  1.00  0.00     0.051 C 
ATOM      8  C   UNL A   1      31.498  23.270  24.060  1.00  0.00     0.014 C 
ATOM      9  C   UNL A   1      32.784  24.209  25.976  1.00  0.00     0.014 C 
ENDBRANCH   6   7
BRANCH   6  10
ATOM     10  N   UNL A   1      30.451  25.957  23.318  1.00  0.00    -0.332 N 
ATOM     11  H   UNL A   1      30.297  25.021  22.944  1.00  0.00     0.347 HD
ATOM     12  H   UNL A   1      30.854  26.587  22.625  1.00  0.00     0.347 HD
BRANCH  10  13
ATOM     13  C   UNL A   1      29.153  26.520  23.715  1.00  0.00     0.297 C 
BRANCH  13  14
ATOM     14  C   UNL A   1      29.019  27.925  23.172  1.00  0.00     0.006 A 
ATOM     15  C   UNL A   1      27.798  28.591  23.264  1.00  0.00     0.012 A 
ATOM     16  C   UNL A   1      30.070  28.596  22.556  1.00  0.00     0.012 A 
ATOM     17  C   UNL A   1      27.626  29.889  22.771  1.00  0.00     0.026 A 
ATOM     18  C   UNL A   1      29.889  29.904  22.063  1.00  0.00     0.026 A 
ATOM     19  C   UNL A   1      28.664  30.596  22.157  1.00  0.00     0.036 A 
BRANCH  19  20
ATOM     20  N   UNL A   1      28.498  31.881  21.658  1.00  0.00    -0.378 N 
ATOM     21  C   UNL A   1      27.866  32.175  20.375  1.00  0.00     0.143 C 
ATOM     22  C   UNL A   1      28.768  33.041  22.501  1.00  0.00     0.143 C 
ENDBRANCH  19  20
ENDBRANCH  13  14
ENDBRANCH  10  13
ENDBRANCH   6  10
ENDBRANCH   3   6
ENDBRANCH   1   2
BRANCH   1  23
ATOM     23  C   UNL A   1      32.012  29.695  25.389  1.00  0.00     0.023 C 
BRANCH  23  24
ATOM     24  C   UNL A   1      31.676  30.681  26.505  1.00  0.00     0.023 C 
BRANCH  24  25
ATOM     25  C   UNL A   1      32.832  31.541  26.996  1.00  0.00     0.116 C 
BRANCH  25  26
ATOM     26  N   UNL A   1      32.430  32.888  27.373  1.00  0.00    -0.352 N 
ATOM     27  C   UNL A   1      33.071  33.796  28.185  1.00  0.00     0.251 C 
ATOM     28  H   UNL A   1      31.576  33.195  26.990  1.00  0.00     0.163 HD
ATOM     29  O   UNL A   1      32.529  34.851  28.481  1.00  0.00    -0.269 OA
BRANCH  27  30
ATOM     30  C   UNL A   1      34.405  33.468  28.734  1.00  0.00     0.039 A 
ATOM     31  C   UNL A   1      34.481  32.736  29.921  1.00  0.00     0.014 A 
ATOM     32  C   UNL A   1      35.569  33.850  28.065  1.00  0.00     0.014 A 
ATOM     33  C   UNL A   1      35.727  32.316  30.393  1.00  0.00     0.010 A 
ATOM     34  C   UNL A   1      36.801  33.360  28.489  1.00  0.00     0.010 A 
ATOM     35  C   UNL A   1      36.893  32.587  29.657  1.00  0.00    -0.014 A 
BRANCH  35  36
ATOM     36  C   UNL A   1      38.214  32.067  30.089  1.00  0.00     0.031 A 
ATOM     37  C   UNL A   1      38.726  30.758  29.553  1.00  0.00     0.074 A 
ATOM     38  C   UNL A   1      38.925  32.737  31.019  1.00  0.00     0.049 A 
ATOM     39  N   UNL A   1      39.826  30.116  29.852  1.00  0.00    -0.248 NA
ATOM     40  C   UNL A   1      37.875  30.063  28.572  1.00  0.00     0.031 C 
ATOM     41  C   UNL A   1      38.518  33.989  31.660  1.00  0.00     0.029 A 
ATOM     42  N   UNL A   1      40.139  32.449  31.593  1.00  0.00    -0.354 N 
ATOM     43  C   UNL A   1      39.789  28.938  29.118  1.00  0.00     0.074 A 
ATOM     44  C   UNL A   1      38.535  28.929  28.396  1.00  0.00     0.031 C 
ATOM     45  C   UNL A   1      39.477  34.375  32.518  1.00  0.00     0.029 A 
ATOM     46  C   UNL A   1      40.546  33.382  32.517  1.00  0.00     0.049 A 
ATOM     47  H   UNL A   1      40.667  31.651  31.364  1.00  0.00     0.167 HD
ATOM     48  C   UNL A   1      40.721  27.959  29.035  1.00  0.00     0.031 A 
ATOM     49  C   UNL A   1      41.654  33.431  33.280  1.00  0.00     0.031 A 
ATOM     50  C   UNL A   1      41.976  27.976  29.736  1.00  0.00     0.049 A 
ATOM     51  C   UNL A   1      42.679  32.337  33.160  1.00  0.00     0.074 A 
ATOM     52  C   UNL A   1      43.016  27.064  29.662  1.00  0.00     0.029 A 
ATOM     53  N   UNL A   1      42.361  28.951  30.641  1.00  0.00    -0.354 N 
ATOM     54  N   UNL A   1      42.664  31.271  32.398  1.00  0.00    -0.248 NA
ATOM     55  C   UNL A   1      43.880  32.463  33.996  1.00  0.00     0.031 C 
ATOM     56  C   UNL A   1      44.010  27.463  30.560  1.00  0.00     0.029 A 
ATOM     57  C   UNL A   1      43.615  28.652  31.150  1.00  0.00     0.049 A 
ATOM     58  H   UNL A   1      41.825  29.739  30.886  1.00  0.00     0.167 HD
ATOM     59  C   UNL A   1      43.864  30.615  32.641  1.00  0.00     0.074 A 
ATOM     60  C   UNL A   1      44.589  31.413  33.608  1.00  0.00     0.031 C 
ATOM     61  C   UNL A   1      44.324  29.456  32.111  1.00  0.00     0.031 A 
BRANCH  48  62
ATOM     62  C   UNL A   1      40.412  26.782  28.152  1.00  0.00    -0.014 A 
ATOM     63  C   UNL A   1      40.889  26.715  26.834  1.00  0.00     0.009 A 
ATOM     64  C   UNL A   1      39.666  25.707  28.661  1.00  0.00     0.009 A 
ATOM     65  C   UNL A   1      40.594  25.611  26.031  1.00  0.00     0.001 A 
ATOM     66  C   UNL A   1      39.398  24.592  27.865  1.00  0.00     0.001 A 
ATOM     67  C   UNL A   1      39.854  24.549  26.548  1.00  0.00     0.000 A 
ENDBRANCH  48  62
BRANCH  49  68
ATOM     68  C   UNL A   1      41.866  34.564  34.217  1.00  0.00    -0.014 A 
ATOM     69  C   UNL A   1      41.422  34.484  35.546  1.00  0.00     0.009 A 
ATOM     70  C   UNL A   1      42.502  35.739  33.785  1.00  0.00     0.009 A 
ATOM     71  C   UNL A   1      41.581  35.567  36.413  1.00  0.00     0.001 A 
ATOM     72  C   UNL A   1      42.687  36.809  34.663  1.00  0.00     0.001 A 
ATOM     73  C   UNL A   1      42.217  36.727  35.972  1.00  0.00     0.000 A 
ENDBRANCH  49  68
BRANCH  61  74
ATOM     74  C   UNL A   1      45.692  29.002  32.536  1.00  0.00    -0.014 A 
ATOM     75  C   UNL A   1      45.871  28.161  33.645  1.00  0.00     0.009 A 
ATOM     76  C   UNL A   1      46.815  29.394  31.791  1.00  0.00     0.009 A 
ATOM     77  C   UNL A   1      47.152  27.754  34.022  1.00  0.00     0.001 A 
ATOM     78  C   UNL A   1      48.091  28.960  32.151  1.00  0.00     0.001 A 
ATOM     79  C   UNL A   1      48.260  28.149  33.272  1.00  0.00     0.000 A 
ENDBRANCH  61  74
ENDBRANCH  35  36
ENDBRANCH  27  30
ENDBRANCH  25  26
ENDBRANCH  24  25
ENDBRANCH  23  24
ENDBRANCH   1  23
TORSDOF 16
ENDMDL
MODEL 3
REMARK VINA RESULT:     -10.3      3.750      6.449
REMARK SMILES CC(C)[C@H]([NH2+]Cc1ccc(N(C)C)cc1)C(=O)NCCCCNC(=O)c1ccc(-c2c3nc(c(-c4ccccc4)c4ccc([nH]4)c(-c4ccccc4)c4nc(c(-c5ccccc5)c5ccc2[nH]5)C=C4)C=C3)cc1
REMARK SMILES IDX 19 1 18 2 16 3 17 4 4 6 2 7 1 8 3 9 5 10 6 13 7 14 8 15
REMARK SMILES IDX 15 16 9 17 14 18 10 19 11 20 12 21 13 22 20 23 21 24 22 25
REMARK SMILES IDX 23 26 24 27 25 29 26 30 27 31 73 32 28 33 72 34 29 35 30 36
REMARK SMILES IDX 31 37 66 38 32 39 71 40 65 41 67 42 33 43 70 44 64 45 63 46
REMARK SMILES IDX 34 48 56 49 41 50 55 51 42 52 45 53 54 54 68 55 43 56 44 57
REMARK SMILES IDX 53 59 69 60 46 61 35 62 36 63 40 64 37 65 39 66 38 67 57 68
REMARK SMILES IDX 58 69 62 70 59 71 61 72 60 73 47 74 48 75 52 76 49 77 51 78
REMARK SMILES IDX 50 79
REMARK H PARENT 18 5 5 11 5 12 23 28 67 47 45 58
REMARK Flexibility Score: inf
ROOT
ATOM      1  C   UNL A   1      35.923  20.827  25.091  1.00  0.00     0.116 C 
ENDROOT
BRANCH   1   2
ATOM      2  N   UNL A   1      35.559  21.496  26.323  1.00  0.00    -0.351 N 
ATOM      3  C   UNL A   1      34.594  22.437  26.548  1.00  0.00     0.278 C 
ATOM      4  O   UNL A   1      34.429  22.811  27.715  1.00  0.00    -0.268 OA
ATOM      5  H   UNL A   1      36.083  21.234  27.115  1.00  0.00     0.163 HD
BRANCH   3   6
ATOM      6  C   UNL A   1      33.714  23.011  25.406  1.00  0.00     0.275 C 
BRANCH   6   7
ATOM      7  C   UNL A   1      33.752  24.576  25.272  1.00  0.00     0.051 C 
ATOM      8  C   UNL A   1      33.839  25.103  23.833  1.00  0.00     0.014 C 
ATOM      9  C   UNL A   1      32.658  25.354  26.012  1.00  0.00     0.014 C 
ENDBRANCH   6   7
BRANCH   6  10
ATOM     10  N   UNL A   1      32.358  22.417  25.443  1.00  0.00    -0.332 N 
ATOM     11  H   UNL A   1      31.676  23.172  25.512  1.00  0.00     0.347 HD
ATOM     12  H   UNL A   1      32.325  21.794  26.250  1.00  0.00     0.347 HD
BRANCH  10  13
ATOM     13  C   UNL A   1      32.042  21.610  24.257  1.00  0.00     0.297 C 
BRANCH  13  14
ATOM     14  C   UNL A   1      32.442  20.172  24.497  1.00  0.00     0.006 A 
ATOM     15  C   UNL A   1      32.688  19.329  23.415  1.00  0.00     0.012 A 
ATOM     16  C   UNL A   1      32.563  19.628  25.772  1.00  0.00     0.012 A 
ATOM     17  C   UNL A   1      33.055  17.991  23.589  1.00  0.00     0.026 A 
ATOM     18  C   UNL A   1      32.935  18.279  25.939  1.00  0.00     0.026 A 
ATOM     19  C   UNL A   1      33.198  17.416  24.856  1.00  0.00     0.036 A 
BRANCH  19  20
ATOM     20  N   UNL A   1      33.554  16.086  25.035  1.00  0.00    -0.378 N 
ATOM     21  C   UNL A   1      34.936  15.625  25.133  1.00  0.00     0.143 C 
ATOM     22  C   UNL A   1      32.539  15.085  25.345  1.00  0.00     0.143 C 
ENDBRANCH  19  20
ENDBRANCH  13  14
ENDBRANCH  10  13
ENDBRANCH   6  10
ENDBRANCH   3   6
ENDBRANCH   1   2
BRANCH   1  23
ATOM     23  C   UNL A   1      37.399  20.999  24.744  1.00  0.00     0.023 C 
BRANCH  23  24
ATOM     24  C   UNL A   1      38.281  19.776  24.979  1.00  0.00     0.023 C 
BRANCH  24  25
ATOM     25  C   UNL A   1      39.365  19.936  26.033  1.00  0.00     0.116 C 
BRANCH  25  26
ATOM     26  N   UNL A   1      40.431  18.951  25.919  1.00  0.00    -0.352 N 
ATOM     27  C   UNL A   1      41.791  19.118  26.047  1.00  0.00     0.251 C 
ATOM     28  H   UNL A   1      40.136  18.033  25.723  1.00  0.00     0.163 HD
ATOM     29  O   UNL A   1      42.553  18.191  25.810  1.00  0.00    -0.269 OA
BRANCH  27  30
ATOM     30  C   UNL A   1      42.331  20.440  26.434  1.00  0.00     0.039 A 
ATOM     31  C   UNL A   1      42.845  21.274  25.438  1.00  0.00     0.014 A 
ATOM     32  C   UNL A   1      42.299  20.867  27.763  1.00  0.00     0.014 A 
ATOM     33  C   UNL A   1      43.251  22.570  25.765  1.00  0.00     0.010 A 
ATOM     34  C   UNL A   1      42.622  22.185  28.072  1.00  0.00     0.010 A 
ATOM     35  C   UNL A   1      43.101  23.050  27.077  1.00  0.00    -0.014 A 
BRANCH  35  36
ATOM     36  C   UNL A   1      43.434  24.455  27.425  1.00  0.00     0.031 A 
ATOM     37  C   UNL A   1      44.865  24.919  27.414  1.00  0.00     0.074 A 
ATOM     38  C   UNL A   1      42.457  25.295  27.820  1.00  0.00     0.049 A 
ATOM     39  N   UNL A   1      45.355  26.088  27.740  1.00  0.00    -0.248 NA
ATOM     40  C   UNL A   1      45.881  23.932  27.012  1.00  0.00     0.031 C 
ATOM     41  C   UNL A   1      41.036  24.956  27.928  1.00  0.00     0.029 A 
ATOM     42  N   UNL A   1      42.514  26.609  28.214  1.00  0.00    -0.354 N 
ATOM     43  C   UNL A   1      46.733  25.970  27.604  1.00  0.00     0.074 A 
ATOM     44  C   UNL A   1      47.005  24.603  27.215  1.00  0.00     0.031 C 
ATOM     45  C   UNL A   1      40.355  26.040  28.333  1.00  0.00     0.029 A 
ATOM     46  C   UNL A   1      41.291  27.138  28.550  1.00  0.00     0.049 A 
ATOM     47  H   UNL A   1      43.352  27.124  28.252  1.00  0.00     0.167 HD
ATOM     48  C   UNL A   1      47.686  26.917  27.770  1.00  0.00     0.031 A 
ATOM     49  C   UNL A   1      40.960  28.368  28.987  1.00  0.00     0.031 A 
ATOM     50  C   UNL A   1      47.417  28.281  28.138  1.00  0.00     0.049 A 
ATOM     51  C   UNL A   1      42.036  29.404  29.151  1.00  0.00     0.074 A 
ATOM     52  C   UNL A   1      48.310  29.332  28.262  1.00  0.00     0.029 A 
ATOM     53  N   UNL A   1      46.162  28.782  28.443  1.00  0.00    -0.354 N 
ATOM     54  N   UNL A   1      43.326  29.298  28.939  1.00  0.00    -0.248 NA
ATOM     55  C   UNL A   1      41.608  30.736  29.602  1.00  0.00     0.031 C 
ATOM     56  C   UNL A   1      47.601  30.458  28.690  1.00  0.00     0.029 A 
ATOM     57  C   UNL A   1      46.260  30.123  28.777  1.00  0.00     0.049 A 
ATOM     58  H   UNL A   1      45.326  28.264  28.425  1.00  0.00     0.167 HD
ATOM     59  C   UNL A   1      43.857  30.554  29.202  1.00  0.00     0.074 A 
ATOM     60  C   UNL A   1      42.749  31.409  29.572  1.00  0.00     0.031 C 
ATOM     61  C   UNL A   1      45.148  30.962  29.142  1.00  0.00     0.031 A 
BRANCH  48  62
ATOM     62  C   UNL A   1      49.117  26.504  27.557  1.00  0.00    -0.014 A 
ATOM     63  C   UNL A   1      49.920  26.084  28.629  1.00  0.00     0.009 A 
ATOM     64  C   UNL A   1      49.655  26.498  26.261  1.00  0.00     0.009 A 
ATOM     65  C   UNL A   1      51.245  25.701  28.411  1.00  0.00     0.001 A 
ATOM     66  C   UNL A   1      50.970  26.087  26.042  1.00  0.00     0.001 A 
ATOM     67  C   UNL A   1      51.767  25.697  27.119  1.00  0.00     0.000 A 
ENDBRANCH  48  62
BRANCH  49  68
ATOM     68  C   UNL A   1      39.542  28.697  29.286  1.00  0.00    -0.014 A 
ATOM     69  C   UNL A   1      38.707  29.226  28.290  1.00  0.00     0.009 A 
ATOM     70  C   UNL A   1      39.019  28.499  30.574  1.00  0.00     0.009 A 
ATOM     71  C   UNL A   1      37.388  29.578  28.584  1.00  0.00     0.001 A 
ATOM     72  C   UNL A   1      37.691  28.824  30.858  1.00  0.00     0.001 A 
ATOM     73  C   UNL A   1      36.880  29.373  29.867  1.00  0.00     0.000 A 
ENDBRANCH  49  68
BRANCH  61  74
ATOM     74  C   UNL A   1      45.426  32.407  29.447  1.00  0.00    -0.014 A 
ATOM     75  C   UNL A   1      45.401  33.384  28.440  1.00  0.00     0.009 A 
ATOM     76  C   UNL A   1      45.683  32.799  30.770  1.00  0.00     0.009 A 
ATOM     77  C   UNL A   1      45.664  34.720  28.747  1.00  0.00     0.001 A 
ATOM     78  C   UNL A   1      45.915  34.140  31.079  1.00  0.00     0.001 A 
ATOM     79  C   UNL A   1      45.916  35.098  30.067  1.00  0.00     0.000 A 
ENDBRANCH  61  74
ENDBRANCH  35  36
ENDBRANCH  27  30
ENDBRANCH  25  26
ENDBRANCH  24  25
ENDBRANCH  23  24
ENDBRANCH   1  23
TORSDOF 16
ENDMDL
