MODEL 1
REMARK VINA RESULT:     -11.2      0.000      0.000
REMARK SMILES Cc1sc2[nH]c(SCC(=O)NCCCCNC(=O)c3ccc(-c4c5nc(c(-c6ccccc6)c6ccc([nH]6)c(-c6ccccc6)c6nc(c(-c7ccccc7)c7ccc4[nH]7)C=C6)C=C5)cc3)nc(=O)c2c1C
REMARK SMILES IDX 13 1 12 2 11 3 9 4 10 5 8 7 7 8 6 9 1 10 2 11 3 12 71 13
REMARK SMILES IDX 4 14 70 15 72 16 5 17 68 18 67 20 69 21 14 22 15 23 16 24
REMARK SMILES IDX 17 25 18 27 19 28 20 29 66 30 21 31 65 32 22 33 23 34 24 35
REMARK SMILES IDX 59 36 25 37 64 38 58 39 60 40 26 41 63 42 57 43 56 44 27 46
REMARK SMILES IDX 49 47 34 48 48 49 35 50 38 51 47 52 61 53 36 54 37 55 46 57
REMARK SMILES IDX 62 58 39 59 28 60 29 61 33 62 30 63 32 64 31 65 50 66 51 67
REMARK SMILES IDX 55 68 52 69 54 70 53 71 40 72 41 73 45 74 42 75 44 76 43 77
REMARK H PARENT 11 6 5 19 16 26 60 45 38 56
REMARK Flexibility Score: inf
ROOT
ATOM      1  C   UNL A   1      36.685  20.573  25.003  1.00  0.00     0.023 C 
ENDROOT
BRANCH   1   2
ATOM      2  C   UNL A   1      35.264  20.765  25.538  1.00  0.00     0.116 C 
BRANCH   2   3
ATOM      3  N   UNL A   1      34.360  19.780  24.979  1.00  0.00    -0.355 N 
ATOM      4  C   UNL A   1      33.093  19.909  24.491  1.00  0.00     0.230 C 
ATOM      5  O   UNL A   1      32.579  18.896  24.009  1.00  0.00    -0.274 OA
ATOM      6  H   UNL A   1      34.722  18.865  24.944  1.00  0.00     0.163 HD
BRANCH   4   7
ATOM      7  C   UNL A   1      32.398  21.257  24.418  1.00  0.00     0.178 C 
BRANCH   7   8
ATOM      8  S   UNL A   1      32.239  21.945  22.753  1.00  0.00    -0.078 SA
BRANCH   8   9
ATOM      9  C   UNL A   1      32.521  23.649  23.002  1.00  0.00     0.170 A 
ATOM     10  C   UNL A   1      32.237  28.778  26.421  1.00  0.00     0.057 C 
ATOM     11  C   UNL A   1      32.358  27.625  25.478  1.00  0.00     0.007 A 
ATOM     12  S   UNL A   1      31.686  26.116  25.945  1.00  0.00    -0.122 S 
ATOM     13  C   UNL A   1      32.941  27.571  24.215  1.00  0.00    -0.022 A 
ATOM     14  C   UNL A   1      32.197  25.386  24.516  1.00  0.00     0.108 A 
ATOM     15  C   UNL A   1      32.853  26.236  23.664  1.00  0.00     0.080 A 
ATOM     16  C   UNL A   1      33.589  28.718  23.503  1.00  0.00     0.046 C 
ATOM     17  N   UNL A   1      32.017  24.099  24.187  1.00  0.00    -0.326 N 
ATOM     18  C   UNL A   1      33.357  25.715  22.377  1.00  0.00     0.282 A 
ATOM     19  H   UNL A   1      31.531  23.491  24.789  1.00  0.00     0.169 HD
ATOM     20  N   UNL A   1      33.158  24.358  22.136  1.00  0.00    -0.185 NA
ATOM     21  O   UNL A   1      33.922  26.443  21.582  1.00  0.00    -0.267 OA
ENDBRANCH   8   9
ENDBRANCH   7   8
ENDBRANCH   4   7
ENDBRANCH   2   3
ENDBRANCH   1   2
BRANCH   1  22
ATOM     22  C   UNL A   1      37.363  21.862  24.501  1.00  0.00     0.023 C 
BRANCH  22  23
ATOM     23  C   UNL A   1      38.192  22.622  25.547  1.00  0.00     0.116 C 
BRANCH  23  24
ATOM     24  N   UNL A   1      38.872  21.691  26.428  1.00  0.00    -0.352 N 
ATOM     25  C   UNL A   1      40.065  21.791  27.083  1.00  0.00     0.251 C 
ATOM     26  H   UNL A   1      38.393  20.845  26.578  1.00  0.00     0.163 HD
ATOM     27  O   UNL A   1      40.620  20.759  27.457  1.00  0.00    -0.269 OA
BRANCH  25  28
ATOM     28  C   UNL A   1      40.684  23.090  27.408  1.00  0.00     0.039 A 
ATOM     29  C   UNL A   1      39.866  24.062  27.994  1.00  0.00     0.014 A 
ATOM     30  C   UNL A   1      41.964  23.426  26.956  1.00  0.00     0.014 A 
ATOM     31  C   UNL A   1      40.318  25.368  28.121  1.00  0.00     0.010 A 
ATOM     32  C   UNL A   1      42.416  24.740  27.083  1.00  0.00     0.010 A 
ATOM     33  C   UNL A   1      41.594  25.717  27.664  1.00  0.00    -0.014 A 
BRANCH  33  34
ATOM     34  C   UNL A   1      42.013  27.110  27.899  1.00  0.00     0.031 A 
ATOM     35  C   UNL A   1      40.907  28.118  27.781  1.00  0.00     0.074 A 
ATOM     36  C   UNL A   1      42.971  27.353  28.819  1.00  0.00     0.049 A 
ATOM     37  N   UNL A   1      40.030  28.340  28.712  1.00  0.00    -0.248 NA
ATOM     38  C   UNL A   1      40.564  28.748  26.506  1.00  0.00     0.031 C 
ATOM     39  C   UNL A   1      43.082  26.724  30.141  1.00  0.00     0.029 A 
ATOM     40  N   UNL A   1      43.977  28.288  28.799  1.00  0.00    -0.354 N 
ATOM     41  C   UNL A   1      39.014  29.112  28.163  1.00  0.00     0.074 A 
ATOM     42  C   UNL A   1      39.381  29.323  26.784  1.00  0.00     0.031 C 
ATOM     43  C   UNL A   1      43.981  27.415  30.871  1.00  0.00     0.029 A 
ATOM     44  C   UNL A   1      44.568  28.465  30.044  1.00  0.00     0.049 A 
ATOM     45  H   UNL A   1      44.249  28.781  27.991  1.00  0.00     0.167 HD
ATOM     46  C   UNL A   1      37.987  29.597  28.922  1.00  0.00     0.031 A 
ATOM     47  C   UNL A   1      45.066  29.656  30.472  1.00  0.00     0.031 A 
ATOM     48  C   UNL A   1      38.134  29.395  30.343  1.00  0.00     0.049 A 
ATOM     49  C   UNL A   1      43.820  30.282  31.060  1.00  0.00     0.074 A 
ATOM     50  C   UNL A   1      37.420  28.974  31.440  1.00  0.00     0.029 A 
ATOM     51  N   UNL A   1      39.380  29.714  30.802  1.00  0.00    -0.354 N 
ATOM     52  N   UNL A   1      43.254  29.968  32.197  1.00  0.00    -0.248 NA
ATOM     53  C   UNL A   1      42.977  31.114  30.185  1.00  0.00     0.031 C 
ATOM     54  C   UNL A   1      38.319  29.023  32.563  1.00  0.00     0.029 A 
ATOM     55  C   UNL A   1      39.549  29.508  32.131  1.00  0.00     0.049 A 
ATOM     56  H   UNL A   1      40.092  30.064  30.219  1.00  0.00     0.167 HD
ATOM     57  C   UNL A   1      41.905  30.275  32.030  1.00  0.00     0.074 A 
ATOM     58  C   UNL A   1      41.838  31.145  30.871  1.00  0.00     0.031 C 
ATOM     59  C   UNL A   1      40.892  29.608  32.664  1.00  0.00     0.031 A 
BRANCH  46  60
ATOM     60  C   UNL A   1      37.000  30.601  28.447  1.00  0.00    -0.014 A 
ATOM     61  C   UNL A   1      37.253  31.952  28.747  1.00  0.00     0.009 A 
ATOM     62  C   UNL A   1      35.767  30.256  27.886  1.00  0.00     0.009 A 
ATOM     63  C   UNL A   1      36.292  32.936  28.514  1.00  0.00     0.001 A 
ATOM     64  C   UNL A   1      34.803  31.248  27.649  1.00  0.00     0.001 A 
ATOM     65  C   UNL A   1      35.062  32.582  27.969  1.00  0.00     0.000 A 
ENDBRANCH  46  60
BRANCH  47  66
ATOM     66  C   UNL A   1      45.993  30.340  29.510  1.00  0.00    -0.014 A 
ATOM     67  C   UNL A   1      47.056  29.583  28.968  1.00  0.00     0.009 A 
ATOM     68  C   UNL A   1      45.867  31.661  29.067  1.00  0.00     0.009 A 
ATOM     69  C   UNL A   1      47.835  30.062  27.910  1.00  0.00     0.001 A 
ATOM     70  C   UNL A   1      46.629  32.136  27.991  1.00  0.00     0.001 A 
ATOM     71  C   UNL A   1      47.590  31.326  27.392  1.00  0.00     0.000 A 
ENDBRANCH  47  66
BRANCH  59  72
ATOM     72  C   UNL A   1      41.249  28.816  33.870  1.00  0.00    -0.014 A 
ATOM     73  C   UNL A   1      41.528  27.451  33.731  1.00  0.00     0.009 A 
ATOM     74  C   UNL A   1      41.420  29.429  35.121  1.00  0.00     0.009 A 
ATOM     75  C   UNL A   1      41.993  26.714  34.815  1.00  0.00     0.001 A 
ATOM     76  C   UNL A   1      41.894  28.689  36.204  1.00  0.00     0.001 A 
ATOM     77  C   UNL A   1      42.188  27.335  36.047  1.00  0.00     0.000 A 
ENDBRANCH  59  72
ENDBRANCH  33  34
ENDBRANCH  25  28
ENDBRANCH  23  24
ENDBRANCH  22  23
ENDBRANCH   1  22
TORSDOF 13
ENDMDL
MODEL 2
REMARK VINA RESULT:     -11.1      2.856      7.576
REMARK SMILES Cc1sc2[nH]c(SCC(=O)NCCCCNC(=O)c3ccc(-c4c5nc(c(-c6ccccc6)c6ccc([nH]6)c(-c6ccccc6)c6nc(c(-c7ccccc7)c7ccc4[nH]7)C=C6)C=C5)cc3)nc(=O)c2c1C
REMARK SMILES IDX 13 1 12 2 11 3 9 4 10 5 8 7 7 8 6 9 1 10 2 11 3 12 71 13
REMARK SMILES IDX 4 14 70 15 72 16 5 17 68 18 67 20 69 21 14 22 15 23 16 24
REMARK SMILES IDX 17 25 18 27 19 28 20 29 66 30 21 31 65 32 22 33 23 34 24 35
REMARK SMILES IDX 59 36 25 37 64 38 58 39 60 40 26 41 63 42 57 43 56 44 27 46
REMARK SMILES IDX 49 47 34 48 48 49 35 50 38 51 47 52 61 53 36 54 37 55 46 57
REMARK SMILES IDX 62 58 39 59 28 60 29 61 33 62 30 63 32 64 31 65 50 66 51 67
REMARK SMILES IDX 55 68 52 69 54 70 53 71 40 72 41 73 45 74 42 75 44 76 43 77
REMARK H PARENT 11 6 5 19 16 26 60 45 38 56
REMARK Flexibility Score: inf
ROOT
ATOM      1  C   UNL A   1      31.741  30.461  25.724  1.00  0.00     0.023 C 
ENDROOT
BRANCH   1   2
ATOM      2  C   UNL A   1      31.760  29.309  24.718  1.00  0.00     0.116 C 
BRANCH   2   3
ATOM      3  N   UNL A   1      30.957  29.623  23.552  1.00  0.00    -0.355 N 
ATOM      4  C   UNL A   1      30.402  28.811  22.608  1.00  0.00     0.230 C 
ATOM      5  O   UNL A   1      29.701  29.356  21.751  1.00  0.00    -0.274 OA
ATOM      6  H   UNL A   1      30.781  30.583  23.423  1.00  0.00     0.163 HD
BRANCH   4   7
ATOM      7  C   UNL A   1      30.526  27.300  22.680  1.00  0.00     0.178 C 
BRANCH   7   8
ATOM      8  S   UNL A   1      29.465  26.505  23.910  1.00  0.00    -0.078 SA
BRANCH   8   9
ATOM      9  C   UNL A   1      30.582  25.508  24.809  1.00  0.00     0.170 A 
ATOM     10  C   UNL A   1      36.255  23.400  26.008  1.00  0.00     0.057 C 
ATOM     11  C   UNL A   1      34.830  23.808  25.822  1.00  0.00     0.007 A 
ATOM     12  S   UNL A   1      34.447  24.862  24.522  1.00  0.00    -0.122 S 
ATOM     13  C   UNL A   1      33.702  23.448  26.554  1.00  0.00    -0.022 A 
ATOM     14  C   UNL A   1      32.818  24.879  24.945  1.00  0.00     0.108 A 
ATOM     15  C   UNL A   1      32.520  24.101  26.034  1.00  0.00     0.080 A 
ATOM     16  C   UNL A   1      33.685  22.521  27.730  1.00  0.00     0.046 C 
ATOM     17  N   UNL A   1      31.855  25.573  24.323  1.00  0.00    -0.326 N 
ATOM     18  C   UNL A   1      31.123  24.036  26.510  1.00  0.00     0.282 A 
ATOM     19  H   UNL A   1      32.062  26.118  23.530  1.00  0.00     0.169 HD
ATOM     20  N   UNL A   1      30.197  24.818  25.826  1.00  0.00    -0.185 NA
ATOM     21  O   UNL A   1      30.814  23.337  27.458  1.00  0.00    -0.267 OA
ENDBRANCH   8   9
ENDBRANCH   7   8
ENDBRANCH   4   7
ENDBRANCH   2   3
ENDBRANCH   1   2
BRANCH   1  22
ATOM     22  C   UNL A   1      32.232  30.089  27.137  1.00  0.00     0.023 C 
BRANCH  22  23
ATOM     23  C   UNL A   1      33.640  30.585  27.498  1.00  0.00     0.116 C 
BRANCH  23  24
ATOM     24  N   UNL A   1      33.662  32.034  27.575  1.00  0.00    -0.352 N 
ATOM     25  C   UNL A   1      34.252  32.870  28.478  1.00  0.00     0.251 C 
ATOM     26  H   UNL A   1      33.169  32.490  26.856  1.00  0.00     0.163 HD
ATOM     27  O   UNL A   1      33.833  34.023  28.573  1.00  0.00    -0.269 OA
BRANCH  25  28
ATOM     28  C   UNL A   1      35.405  32.462  29.301  1.00  0.00     0.039 A 
ATOM     29  C   UNL A   1      36.594  32.153  28.631  1.00  0.00     0.014 A 
ATOM     30  C   UNL A   1      35.271  32.179  30.664  1.00  0.00     0.014 A 
ATOM     31  C   UNL A   1      37.643  31.554  29.315  1.00  0.00     0.010 A 
ATOM     32  C   UNL A   1      36.326  31.574  31.349  1.00  0.00     0.010 A 
ATOM     33  C   UNL A   1      37.515  31.258  30.677  1.00  0.00    -0.014 A 
BRANCH  33  34
ATOM     34  C   UNL A   1      38.702  30.681  31.333  1.00  0.00     0.031 A 
ATOM     35  C   UNL A   1      39.073  29.310  30.850  1.00  0.00     0.074 A 
ATOM     36  C   UNL A   1      39.713  31.505  31.683  1.00  0.00     0.049 A 
ATOM     37  N   UNL A   1      39.711  29.083  29.742  1.00  0.00    -0.248 NA
ATOM     38  C   UNL A   1      38.518  28.098  31.452  1.00  0.00     0.031 C 
ATOM     39  C   UNL A   1      40.256  32.603  30.873  1.00  0.00     0.029 A 
ATOM     40  N   UNL A   1      40.528  31.458  32.787  1.00  0.00    -0.354 N 
ATOM     41  C   UNL A   1      39.635  27.720  29.479  1.00  0.00     0.074 A 
ATOM     42  C   UNL A   1      38.866  27.154  30.561  1.00  0.00     0.031 C 
ATOM     43  C   UNL A   1      41.421  33.005  31.421  1.00  0.00     0.029 A 
ATOM     44  C   UNL A   1      41.654  32.263  32.657  1.00  0.00     0.049 A 
ATOM     45  H   UNL A   1      40.337  30.914  33.585  1.00  0.00     0.167 HD
ATOM     46  C   UNL A   1      40.296  27.151  28.429  1.00  0.00     0.031 A 
ATOM     47  C   UNL A   1      42.859  31.958  33.209  1.00  0.00     0.031 A 
ATOM     48  C   UNL A   1      41.204  28.031  27.734  1.00  0.00     0.049 A 
ATOM     49  C   UNL A   1      43.449  31.086  32.121  1.00  0.00     0.074 A 
ATOM     50  C   UNL A   1      41.561  28.404  26.459  1.00  0.00     0.029 A 
ATOM     51  N   UNL A   1      41.995  28.757  28.577  1.00  0.00    -0.354 N 
ATOM     52  N   UNL A   1      43.936  31.494  30.977  1.00  0.00    -0.248 NA
ATOM     53  C   UNL A   1      43.215  29.634  32.185  1.00  0.00     0.031 C 
ATOM     54  C   UNL A   1      42.574  29.417  26.593  1.00  0.00     0.029 A 
ATOM     55  C   UNL A   1      42.838  29.610  27.946  1.00  0.00     0.049 A 
ATOM     56  H   UNL A   1      41.956  28.668  29.556  1.00  0.00     0.167 HD
ATOM     57  C   UNL A   1      43.753  30.425  30.102  1.00  0.00     0.074 A 
ATOM     58  C   UNL A   1      43.497  29.268  30.938  1.00  0.00     0.031 C 
ATOM     59  C   UNL A   1      43.554  30.573  28.756  1.00  0.00     0.031 A 
BRANCH  46  60
ATOM     60  C   UNL A   1      40.434  25.685  28.225  1.00  0.00    -0.014 A 
ATOM     61  C   UNL A   1      41.687  25.106  28.499  1.00  0.00     0.009 A 
ATOM     62  C   UNL A   1      39.450  24.902  27.615  1.00  0.00     0.009 A 
ATOM     63  C   UNL A   1      41.963  23.784  28.154  1.00  0.00     0.001 A 
ATOM     64  C   UNL A   1      39.729  23.570  27.271  1.00  0.00     0.001 A 
ATOM     65  C   UNL A   1      40.983  23.016  27.533  1.00  0.00     0.000 A 
ENDBRANCH  46  60
BRANCH  47  66
ATOM     66  C   UNL A   1      42.817  31.595  34.665  1.00  0.00    -0.014 A 
ATOM     67  C   UNL A   1      43.815  30.723  35.155  1.00  0.00     0.009 A 
ATOM     68  C   UNL A   1      41.892  32.086  35.593  1.00  0.00     0.009 A 
ATOM     69  C   UNL A   1      43.988  30.500  36.524  1.00  0.00     0.001 A 
ATOM     70  C   UNL A   1      42.077  31.885  36.968  1.00  0.00     0.001 A 
ATOM     71  C   UNL A   1      43.142  31.119  37.435  1.00  0.00     0.000 A 
ENDBRANCH  47  66
BRANCH  59  72
ATOM     72  C   UNL A   1      43.955  31.869  28.148  1.00  0.00    -0.014 A 
ATOM     73  C   UNL A   1      43.259  33.032  28.503  1.00  0.00     0.009 A 
ATOM     74  C   UNL A   1      45.080  31.968  27.315  1.00  0.00     0.009 A 
ATOM     75  C   UNL A   1      43.694  34.276  28.055  1.00  0.00     0.001 A 
ATOM     76  C   UNL A   1      45.517  33.217  26.874  1.00  0.00     0.001 A 
ATOM     77  C   UNL A   1      44.828  34.369  27.252  1.00  0.00     0.000 A 
ENDBRANCH  59  72
ENDBRANCH  33  34
ENDBRANCH  25  28
ENDBRANCH  23  24
ENDBRANCH  22  23
ENDBRANCH   1  22
TORSDOF 13
ENDMDL
MODEL 3
REMARK VINA RESULT:     -11.1      1.592      2.053
REMARK SMILES Cc1sc2[nH]c(SCC(=O)NCCCCNC(=O)c3ccc(-c4c5nc(c(-c6ccccc6)c6ccc([nH]6)c(-c6ccccc6)c6nc(c(-c7ccccc7)c7ccc4[nH]7)C=C6)C=C5)cc3)nc(=O)c2c1C
REMARK SMILES IDX 13 1 12 2 11 3 9 4 10 5 8 7 7 8 6 9 1 10 2 11 3 12 71 13
REMARK SMILES IDX 4 14 70 15 72 16 5 17 68 18 67 20 69 21 14 22 15 23 16 24
REMARK SMILES IDX 17 25 18 27 19 28 20 29 66 30 21 31 65 32 22 33 23 34 24 35
REMARK SMILES IDX 59 36 25 37 64 38 58 39 60 40 26 41 63 42 57 43 56 44 27 46
REMARK SMILES IDX 49 47 34 48 48 49 35 50 38 51 47 52 61 53 36 54 37 55 46 57
REMARK SMILES IDX 62 58 39 59 28 60 29 61 33 62 30 63 32 64 31 65 50 66 51 67
REMARK SMILES IDX 55 68 52 69 54 70 53 71 40 72 41 73 45 74 42 75 44 76 43 77
REMARK H PARENT 11 6 5 19 16 26 60 45 38 56
REMARK Flexibility Score: inf
ROOT
ATOM      1  C   UNL A   1      35.501  22.279  26.443  1.00  0.00     0.023 C 
ENDROOT
BRANCH   1   2
ATOM      2  C   UNL A   1      34.267  21.495  26.893  1.00  0.00     0.116 C 
BRANCH   2   3
ATOM      3  N   UNL A   1      33.250  22.383  27.420  1.00  0.00    -0.355 N 
ATOM      4  C   UNL A   1      32.185  22.979  26.810  1.00  0.00     0.230 C 
ATOM      5  O   UNL A   1      31.435  23.643  27.530  1.00  0.00    -0.274 OA
ATOM      6  H   UNL A   1      33.342  22.590  28.378  1.00  0.00     0.163 HD
BRANCH   4   7
ATOM      7  C   UNL A   1      31.859  22.731  25.348  1.00  0.00     0.178 C 
BRANCH   7   8
ATOM      8  S   UNL A   1      32.923  23.599  24.171  1.00  0.00    -0.078 SA
BRANCH   8   9
ATOM      9  C   UNL A   1      32.587  25.279  24.501  1.00  0.00     0.170 A 
ATOM     10  C   UNL A   1      29.457  30.506  23.525  1.00  0.00     0.057 C 
ATOM     11  C   UNL A   1      30.305  29.322  23.857  1.00  0.00     0.007 A 
ATOM     12  S   UNL A   1      30.101  27.888  22.935  1.00  0.00    -0.122 S 
ATOM     13  C   UNL A   1      31.292  29.183  24.829  1.00  0.00    -0.022 A 
ATOM     14  C   UNL A   1      31.271  27.079  23.836  1.00  0.00     0.108 A 
ATOM     15  C   UNL A   1      31.844  27.846  24.816  1.00  0.00     0.080 A 
ATOM     16  C   UNL A   1      31.735  30.252  25.780  1.00  0.00     0.046 C 
ATOM     17  N   UNL A   1      31.645  25.803  23.665  1.00  0.00    -0.326 N 
ATOM     18  C   UNL A   1      32.882  27.249  25.681  1.00  0.00     0.282 A 
ATOM     19  H   UNL A   1      31.248  25.255  22.951  1.00  0.00     0.169 HD
ATOM     20  N   UNL A   1      33.181  25.908  25.457  1.00  0.00    -0.185 NA
ATOM     21  O   UNL A   1      33.433  27.904  26.546  1.00  0.00    -0.267 OA
ENDBRANCH   8   9
ENDBRANCH   7   8
ENDBRANCH   4   7
ENDBRANCH   2   3
ENDBRANCH   1   2
BRANCH   1  22
ATOM     22  C   UNL A   1      36.319  21.606  25.324  1.00  0.00     0.023 C 
BRANCH  22  23
ATOM     23  C   UNL A   1      37.775  22.077  25.196  1.00  0.00     0.116 C 
BRANCH  23  24
ATOM     24  N   UNL A   1      38.603  21.445  26.207  1.00  0.00    -0.352 N 
ATOM     25  C   UNL A   1      39.723  21.889  26.847  1.00  0.00     0.251 C 
ATOM     26  H   UNL A   1      38.307  20.546  26.474  1.00  0.00     0.163 HD
ATOM     27  O   UNL A   1      40.469  21.061  27.369  1.00  0.00    -0.269 OA
BRANCH  25  28
ATOM     28  C   UNL A   1      40.044  23.322  26.983  1.00  0.00     0.039 A 
ATOM     29  C   UNL A   1      41.321  23.733  26.585  1.00  0.00     0.014 A 
ATOM     30  C   UNL A   1      39.207  24.198  27.680  1.00  0.00     0.014 A 
ATOM     31  C   UNL A   1      41.766  25.013  26.889  1.00  0.00     0.010 A 
ATOM     32  C   UNL A   1      39.657  25.483  27.986  1.00  0.00     0.010 A 
ATOM     33  C   UNL A   1      40.938  25.895  27.594  1.00  0.00    -0.014 A 
BRANCH  33  34
ATOM     34  C   UNL A   1      41.470  27.251  27.815  1.00  0.00     0.031 A 
ATOM     35  C   UNL A   1      40.428  28.330  27.840  1.00  0.00     0.074 A 
ATOM     36  C   UNL A   1      42.535  27.405  28.631  1.00  0.00     0.049 A 
ATOM     37  N   UNL A   1      39.671  28.579  28.866  1.00  0.00    -0.248 NA
ATOM     38  C   UNL A   1      39.993  29.019  26.625  1.00  0.00     0.031 C 
ATOM     39  C   UNL A   1      42.744  26.731  29.919  1.00  0.00     0.029 A 
ATOM     40  N   UNL A   1      43.592  28.275  28.525  1.00  0.00    -0.354 N 
ATOM     41  C   UNL A   1      38.655  29.430  28.447  1.00  0.00     0.074 A 
ATOM     42  C   UNL A   1      38.887  29.659  27.042  1.00  0.00     0.031 C 
ATOM     43  C   UNL A   1      43.759  27.341  30.564  1.00  0.00     0.029 A 
ATOM     44  C   UNL A   1      44.323  28.377  29.702  1.00  0.00     0.049 A 
ATOM     45  H   UNL A   1      43.809  28.774  27.704  1.00  0.00     0.167 HD
ATOM     46  C   UNL A   1      37.749  29.956  29.323  1.00  0.00     0.031 A 
ATOM     47  C   UNL A   1      44.941  29.520  30.102  1.00  0.00     0.031 A 
ATOM     48  C   UNL A   1      38.033  29.702  30.715  1.00  0.00     0.049 A 
ATOM     49  C   UNL A   1      43.808  30.206  30.835  1.00  0.00     0.074 A 
ATOM     50  C   UNL A   1      37.412  29.294  31.873  1.00  0.00     0.029 A 
ATOM     51  N   UNL A   1      39.339  29.928  31.045  1.00  0.00    -0.354 N 
ATOM     52  N   UNL A   1      43.347  29.894  32.019  1.00  0.00    -0.248 NA
ATOM     53  C   UNL A   1      42.934  31.115  30.076  1.00  0.00     0.031 C 
ATOM     54  C   UNL A   1      38.427  29.252  32.893  1.00  0.00     0.029 A 
ATOM     55  C   UNL A   1      39.634  29.671  32.342  1.00  0.00     0.049 A 
ATOM     56  H   UNL A   1      40.006  30.249  30.397  1.00  0.00     0.167 HD
ATOM     57  C   UNL A   1      42.011  30.291  32.006  1.00  0.00     0.074 A 
ATOM     58  C   UNL A   1      41.879  31.198  30.882  1.00  0.00     0.031 C 
ATOM     59  C   UNL A   1      41.030  29.670  32.729  1.00  0.00     0.031 A 
BRANCH  46  60
ATOM     60  C   UNL A   1      36.786  31.034  28.981  1.00  0.00    -0.014 A 
ATOM     61  C   UNL A   1      35.550  30.649  28.430  1.00  0.00     0.009 A 
ATOM     62  C   UNL A   1      37.114  32.392  29.012  1.00  0.00     0.009 A 
ATOM     63  C   UNL A   1      34.669  31.592  27.901  1.00  0.00     0.001 A 
ATOM     64  C   UNL A   1      36.225  33.340  28.484  1.00  0.00     0.001 A 
ATOM     65  C   UNL A   1      35.010  32.941  27.923  1.00  0.00     0.000 A 
ENDBRANCH  46  60
BRANCH  47  66
ATOM     66  C   UNL A   1      45.804  30.173  29.061  1.00  0.00    -0.014 A 
ATOM     67  C   UNL A   1      47.203  30.012  29.170  1.00  0.00     0.009 A 
ATOM     68  C   UNL A   1      45.333  30.898  27.960  1.00  0.00     0.009 A 
ATOM     69  C   UNL A   1      48.070  30.394  28.141  1.00  0.00     0.001 A 
ATOM     70  C   UNL A   1      46.195  31.261  26.916  1.00  0.00     0.001 A 
ATOM     71  C   UNL A   1      47.556  30.981  26.992  1.00  0.00     0.000 A 
ENDBRANCH  47  66
BRANCH  59  72
ATOM     72  C   UNL A   1      41.460  28.822  33.871  1.00  0.00    -0.014 A 
ATOM     73  C   UNL A   1      41.609  29.404  35.135  1.00  0.00     0.009 A 
ATOM     74  C   UNL A   1      41.611  27.433  33.732  1.00  0.00     0.009 A 
ATOM     75  C   UNL A   1      41.880  28.613  36.247  1.00  0.00     0.001 A 
ATOM     76  C   UNL A   1      41.874  26.642  34.850  1.00  0.00     0.001 A 
ATOM     77  C   UNL A   1      42.000  27.232  36.107  1.00  0.00     0.000 A 
ENDBRANCH  59  72
ENDBRANCH  33  34
ENDBRANCH  25  28
ENDBRANCH  23  24
ENDBRANCH  22  23
ENDBRANCH   1  22
TORSDOF 13
ENDMDL
