MODEL 1
REMARK VINA RESULT:     -12.0      0.000      0.000
REMARK SMILES Cc1cccc(-c2cc(C(=O)NCCCCNC(=O)c3ccc(-c4c5nc(c(-c6ccccc6)c6ccc([nH]6)c(-c6ccccc6)c6nc(c(-c7ccccc7)c7ccc4[nH]7)C=C6)C=C5)cc3)ccn2)c1
REMARK SMILES IDX 15 1 14 2 13 3 12 4 10 5 11 6 9 8 7 9 8 10 70 11 69 12 68 13
REMARK SMILES IDX 6 14 1 15 2 16 3 17 71 18 4 19 5 20 16 21 17 22 18 23 19 25
REMARK SMILES IDX 20 26 21 27 67 28 22 29 66 30 23 31 24 32 25 33 60 34 26 35
REMARK SMILES IDX 65 36 59 37 61 38 27 39 64 40 58 41 57 42 28 44 50 45 35 46
REMARK SMILES IDX 49 47 36 48 39 49 48 50 62 51 37 52 38 53 47 55 63 56 40 57
REMARK SMILES IDX 29 58 30 59 34 60 31 61 33 62 32 63 51 64 52 65 56 66 53 67
REMARK SMILES IDX 55 68 54 69 41 70 42 71 46 72 43 73 45 74 44 75
REMARK H PARENT 12 7 17 24 61 43 39 54
REMARK Flexibility Score: inf
ROOT
ATOM      1  C   UNL A   1      38.335  22.134  25.905  1.00  0.00     0.023 C 
ENDROOT
BRANCH   1   2
ATOM      2  C   UNL A   1      37.787  23.559  25.753  1.00  0.00     0.023 C 
BRANCH   2   3
ATOM      3  C   UNL A   1      36.250  23.653  25.738  1.00  0.00     0.116 C 
BRANCH   3   4
ATOM      4  N   UNL A   1      35.715  23.833  24.397  1.00  0.00    -0.352 N 
ATOM      5  C   UNL A   1      34.669  23.284  23.698  1.00  0.00     0.251 C 
ATOM      6  O   UNL A   1      34.466  23.732  22.568  1.00  0.00    -0.269 OA
ATOM      7  H   UNL A   1      36.217  24.498  23.873  1.00  0.00     0.163 HD
BRANCH   5   8
ATOM      8  C   UNL A   1      33.763  22.218  24.211  1.00  0.00     0.043 A 
ATOM      9  C   UNL A   1      33.138  19.950  24.711  1.00  0.00     0.071 A 
ATOM     10  C   UNL A   1      34.032  20.860  24.152  1.00  0.00     0.042 A 
ATOM     11  N   UNL A   1      31.959  20.322  25.252  1.00  0.00    -0.256 NA
ATOM     12  C   UNL A   1      31.687  21.645  25.267  1.00  0.00     0.112 A 
ATOM     13  C   UNL A   1      32.547  22.615  24.779  1.00  0.00     0.034 A 
BRANCH   9  14
ATOM     14  C   UNL A   1      33.507  18.535  24.790  1.00  0.00     0.000 A 
ATOM     15  C   UNL A   1      31.931  15.289  26.050  1.00  0.00     0.044 C 
ATOM     16  C   UNL A   1      32.929  16.262  25.497  1.00  0.00    -0.050 A 
ATOM     17  C   UNL A   1      34.222  15.845  25.169  1.00  0.00     0.003 A 
ATOM     18  C   UNL A   1      32.582  17.603  25.300  1.00  0.00     0.013 A 
ATOM     19  C   UNL A   1      35.145  16.752  24.642  1.00  0.00     0.001 A 
ATOM     20  C   UNL A   1      34.789  18.088  24.448  1.00  0.00     0.010 A 
ENDBRANCH   9  14
ENDBRANCH   5   8
ENDBRANCH   3   4
ENDBRANCH   2   3
ENDBRANCH   1   2
BRANCH   1  21
ATOM     21  C   UNL A   1      39.723  22.078  26.533  1.00  0.00     0.116 C 
BRANCH  21  22
ATOM     22  N   UNL A   1      40.579  21.007  26.035  1.00  0.00    -0.352 N 
ATOM     23  C   UNL A   1      41.962  20.905  26.090  1.00  0.00     0.251 C 
ATOM     24  H   UNL A   1      40.114  20.255  25.602  1.00  0.00     0.163 HD
ATOM     25  O   UNL A   1      42.538  19.956  25.582  1.00  0.00    -0.269 OA
BRANCH  23  26
ATOM     26  C   UNL A   1      42.722  21.895  26.894  1.00  0.00     0.039 A 
ATOM     27  C   UNL A   1      42.553  21.862  28.282  1.00  0.00     0.014 A 
ATOM     28  C   UNL A   1      43.362  22.972  26.286  1.00  0.00     0.014 A 
ATOM     29  C   UNL A   1      42.766  23.024  29.017  1.00  0.00     0.010 A 
ATOM     30  C   UNL A   1      43.487  24.152  26.994  1.00  0.00     0.010 A 
ATOM     31  C   UNL A   1      43.104  24.195  28.339  1.00  0.00    -0.014 A 
BRANCH  31  32
ATOM     32  C   UNL A   1      42.902  25.518  28.916  1.00  0.00     0.031 A 
ATOM     33  C   UNL A   1      41.753  26.352  28.525  1.00  0.00     0.074 A 
ATOM     34  C   UNL A   1      43.779  25.979  29.836  1.00  0.00     0.049 A 
ATOM     35  N   UNL A   1      41.728  27.639  28.627  1.00  0.00    -0.248 NA
ATOM     36  C   UNL A   1      40.559  25.800  27.892  1.00  0.00     0.031 C 
ATOM     37  C   UNL A   1      43.640  27.144  30.707  1.00  0.00     0.029 A 
ATOM     38  N   UNL A   1      45.108  25.596  29.989  1.00  0.00    -0.354 N 
ATOM     39  C   UNL A   1      40.435  28.037  28.398  1.00  0.00     0.074 A 
ATOM     40  C   UNL A   1      39.797  26.893  27.794  1.00  0.00     0.031 C 
ATOM     41  C   UNL A   1      44.860  27.530  31.113  1.00  0.00     0.029 A 
ATOM     42  C   UNL A   1      45.835  26.722  30.399  1.00  0.00     0.049 A 
ATOM     43  H   UNL A   1      45.473  24.694  29.837  1.00  0.00     0.167 HD
ATOM     44  C   UNL A   1      40.010  29.228  28.907  1.00  0.00     0.031 A 
ATOM     45  C   UNL A   1      46.841  27.223  29.622  1.00  0.00     0.031 A 
ATOM     46  C   UNL A   1      41.130  30.048  29.380  1.00  0.00     0.049 A 
ATOM     47  C   UNL A   1      46.591  28.630  29.119  1.00  0.00     0.074 A 
ATOM     48  C   UNL A   1      41.589  30.408  30.636  1.00  0.00     0.029 A 
ATOM     49  N   UNL A   1      42.128  30.412  28.481  1.00  0.00    -0.354 N 
ATOM     50  N   UNL A   1      45.438  29.237  29.179  1.00  0.00    -0.248 NA
ATOM     51  C   UNL A   1      47.608  29.441  28.454  1.00  0.00     0.031 C 
ATOM     52  C   UNL A   1      42.915  30.901  30.494  1.00  0.00     0.029 A 
ATOM     53  C   UNL A   1      43.244  30.878  29.149  1.00  0.00     0.049 A 
ATOM     54  H   UNL A   1      42.050  30.346  27.502  1.00  0.00     0.167 HD
ATOM     55  C   UNL A   1      45.523  30.453  28.554  1.00  0.00     0.074 A 
ATOM     56  C   UNL A   1      46.913  30.550  28.144  1.00  0.00     0.031 C 
ATOM     57  C   UNL A   1      44.434  31.264  28.400  1.00  0.00     0.031 A 
BRANCH  44  58
ATOM     58  C   UNL A   1      38.558  29.540  29.220  1.00  0.00    -0.014 A 
ATOM     59  C   UNL A   1      38.104  29.470  30.551  1.00  0.00     0.009 A 
ATOM     60  C   UNL A   1      37.561  29.789  28.258  1.00  0.00     0.009 A 
ATOM     61  C   UNL A   1      36.745  29.590  30.885  1.00  0.00     0.001 A 
ATOM     62  C   UNL A   1      36.205  29.924  28.582  1.00  0.00     0.001 A 
ATOM     63  C   UNL A   1      35.793  29.810  29.899  1.00  0.00     0.000 A 
ENDBRANCH  44  58
BRANCH  45  64
ATOM     64  C   UNL A   1      47.589  26.177  28.868  1.00  0.00    -0.014 A 
ATOM     65  C   UNL A   1      47.260  25.968  27.513  1.00  0.00     0.009 A 
ATOM     66  C   UNL A   1      48.804  25.666  29.347  1.00  0.00     0.009 A 
ATOM     67  C   UNL A   1      48.168  25.368  26.637  1.00  0.00     0.001 A 
ATOM     68  C   UNL A   1      49.706  25.052  28.467  1.00  0.00     0.001 A 
ATOM     69  C   UNL A   1      49.404  24.935  27.110  1.00  0.00     0.000 A 
ENDBRANCH  45  64
BRANCH  57  70
ATOM     70  C   UNL A   1      44.379  32.522  27.565  1.00  0.00    -0.014 A 
ATOM     71  C   UNL A   1      44.350  32.547  26.164  1.00  0.00     0.009 A 
ATOM     72  C   UNL A   1      44.215  33.764  28.220  1.00  0.00     0.009 A 
ATOM     73  C   UNL A   1      44.218  33.751  25.456  1.00  0.00     0.001 A 
ATOM     74  C   UNL A   1      44.038  34.960  27.521  1.00  0.00     0.001 A 
ATOM     75  C   UNL A   1      44.051  34.955  26.134  1.00  0.00     0.000 A 
ENDBRANCH  57  70
ENDBRANCH  31  32
ENDBRANCH  23  26
ENDBRANCH  21  22
ENDBRANCH   1  21
TORSDOF 12
ENDMDL
MODEL 2
REMARK VINA RESULT:     -11.8      2.223      3.960
REMARK SMILES Cc1cccc(-c2cc(C(=O)NCCCCNC(=O)c3ccc(-c4c5nc(c(-c6ccccc6)c6ccc([nH]6)c(-c6ccccc6)c6nc(c(-c7ccccc7)c7ccc4[nH]7)C=C6)C=C5)cc3)ccn2)c1
REMARK SMILES IDX 15 1 14 2 13 3 12 4 10 5 11 6 9 8 7 9 8 10 70 11 69 12 68 13
REMARK SMILES IDX 6 14 1 15 2 16 3 17 71 18 4 19 5 20 16 21 17 22 18 23 19 25
REMARK SMILES IDX 20 26 21 27 67 28 22 29 66 30 23 31 24 32 25 33 60 34 26 35
REMARK SMILES IDX 65 36 59 37 61 38 27 39 64 40 58 41 57 42 28 44 50 45 35 46
REMARK SMILES IDX 49 47 36 48 39 49 48 50 62 51 37 52 38 53 47 55 63 56 40 57
REMARK SMILES IDX 29 58 30 59 34 60 31 61 33 62 32 63 51 64 52 65 56 66 53 67
REMARK SMILES IDX 55 68 54 69 41 70 42 71 46 72 43 73 45 74 44 75
REMARK H PARENT 12 7 17 24 61 43 39 54
REMARK Flexibility Score: inf
ROOT
ATOM      1  C   UNL A   1      38.460  22.161  25.762  1.00  0.00     0.023 C 
ENDROOT
BRANCH   1   2
ATOM      2  C   UNL A   1      37.866  23.567  25.918  1.00  0.00     0.023 C 
BRANCH   2   3
ATOM      3  C   UNL A   1      36.334  23.631  25.779  1.00  0.00     0.116 C 
BRANCH   3   4
ATOM      4  N   UNL A   1      35.659  22.616  26.573  1.00  0.00    -0.352 N 
ATOM      5  C   UNL A   1      34.355  22.387  26.932  1.00  0.00     0.251 C 
ATOM      6  O   UNL A   1      34.133  21.363  27.582  1.00  0.00    -0.269 OA
ATOM      7  H   UNL A   1      36.279  21.941  26.934  1.00  0.00     0.163 HD
BRANCH   5   8
ATOM      8  C   UNL A   1      33.203  23.263  26.577  1.00  0.00     0.043 A 
ATOM      9  C   UNL A   1      32.136  25.365  26.101  1.00  0.00     0.071 A 
ATOM     10  C   UNL A   1      33.261  24.645  26.495  1.00  0.00     0.042 A 
ATOM     11  N   UNL A   1      30.942  24.783  25.865  1.00  0.00    -0.256 NA
ATOM     12  C   UNL A   1      30.885  23.440  25.989  1.00  0.00     0.112 A 
ATOM     13  C   UNL A   1      31.972  22.649  26.324  1.00  0.00     0.034 A 
BRANCH   9  14
ATOM     14  C   UNL A   1      32.252  26.805  25.858  1.00  0.00     0.000 A 
ATOM     15  C   UNL A   1      30.393  29.472  23.848  1.00  0.00     0.044 C 
ATOM     16  C   UNL A   1      31.422  28.802  24.709  1.00  0.00    -0.050 A 
ATOM     17  C   UNL A   1      32.529  29.515  25.177  1.00  0.00     0.003 A 
ATOM     18  C   UNL A   1      31.292  27.454  25.058  1.00  0.00     0.013 A 
ATOM     19  C   UNL A   1      33.479  28.893  25.990  1.00  0.00     0.001 A 
ATOM     20  C   UNL A   1      33.339  27.546  26.334  1.00  0.00     0.010 A 
ENDBRANCH   9  14
ENDBRANCH   5   8
ENDBRANCH   3   4
ENDBRANCH   2   3
ENDBRANCH   1   2
BRANCH   1  21
ATOM     21  C   UNL A   1      39.747  21.950  26.552  1.00  0.00     0.116 C 
BRANCH  21  22
ATOM     22  N   UNL A   1      40.624  20.908  26.030  1.00  0.00    -0.352 N 
ATOM     23  C   UNL A   1      42.009  20.844  26.064  1.00  0.00     0.251 C 
ATOM     24  H   UNL A   1      40.173  20.149  25.595  1.00  0.00     0.163 HD
ATOM     25  O   UNL A   1      42.604  19.916  25.538  1.00  0.00    -0.269 OA
BRANCH  23  26
ATOM     26  C   UNL A   1      42.755  21.845  26.869  1.00  0.00     0.039 A 
ATOM     27  C   UNL A   1      42.571  21.822  28.255  1.00  0.00     0.014 A 
ATOM     28  C   UNL A   1      43.394  22.922  26.258  1.00  0.00     0.014 A 
ATOM     29  C   UNL A   1      42.768  22.992  28.983  1.00  0.00     0.010 A 
ATOM     30  C   UNL A   1      43.503  24.108  26.958  1.00  0.00     0.010 A 
ATOM     31  C   UNL A   1      43.105  24.159  28.298  1.00  0.00    -0.014 A 
BRANCH  31  32
ATOM     32  C   UNL A   1      42.888  25.486  28.863  1.00  0.00     0.031 A 
ATOM     33  C   UNL A   1      41.756  26.321  28.428  1.00  0.00     0.074 A 
ATOM     34  C   UNL A   1      43.735  25.948  29.811  1.00  0.00     0.049 A 
ATOM     35  N   UNL A   1      41.733  27.609  28.524  1.00  0.00    -0.248 NA
ATOM     36  C   UNL A   1      40.584  25.771  27.756  1.00  0.00     0.031 C 
ATOM     37  C   UNL A   1      43.569  27.116  30.672  1.00  0.00     0.029 A 
ATOM     38  N   UNL A   1      45.056  25.560  30.011  1.00  0.00    -0.354 N 
ATOM     39  C   UNL A   1      40.450  28.011  28.249  1.00  0.00     0.074 A 
ATOM     40  C   UNL A   1      39.830  26.867  27.628  1.00  0.00     0.031 C 
ATOM     41  C   UNL A   1      44.776  27.500  31.118  1.00  0.00     0.029 A 
ATOM     42  C   UNL A   1      45.773  26.686  30.442  1.00  0.00     0.049 A 
ATOM     43  H   UNL A   1      45.423  24.656  29.876  1.00  0.00     0.167 HD
ATOM     44  C   UNL A   1      40.012  29.206  28.737  1.00  0.00     0.031 A 
ATOM     45  C   UNL A   1      46.806  27.179  29.698  1.00  0.00     0.031 A 
ATOM     46  C   UNL A   1      41.118  30.023  29.246  1.00  0.00     0.049 A 
ATOM     47  C   UNL A   1      46.579  28.585  29.181  1.00  0.00     0.074 A 
ATOM     48  C   UNL A   1      41.534  30.388  30.515  1.00  0.00     0.029 A 
ATOM     49  N   UNL A   1      42.148  30.381  28.380  1.00  0.00    -0.354 N 
ATOM     50  N   UNL A   1      45.427  29.196  29.198  1.00  0.00    -0.248 NA
ATOM     51  C   UNL A   1      47.622  29.390  28.549  1.00  0.00     0.031 C 
ATOM     52  C   UNL A   1      42.866  30.875  30.417  1.00  0.00     0.029 A 
ATOM     53  C   UNL A   1      43.242  30.845  29.085  1.00  0.00     0.049 A 
ATOM     54  H   UNL A   1      42.104  30.310  27.399  1.00  0.00     0.167 HD
ATOM     55  C   UNL A   1      45.538  30.410  28.571  1.00  0.00     0.074 A 
ATOM     56  C   UNL A   1      46.942  30.500  28.210  1.00  0.00     0.031 C 
ATOM     57  C   UNL A   1      44.459  31.224  28.376  1.00  0.00     0.031 A 
BRANCH  44  58
ATOM     58  C   UNL A   1      38.552  29.524  28.998  1.00  0.00    -0.014 A 
ATOM     59  C   UNL A   1      38.018  29.332  30.287  1.00  0.00     0.009 A 
ATOM     60  C   UNL A   1      37.619  29.897  28.011  1.00  0.00     0.009 A 
ATOM     61  C   UNL A   1      36.644  29.455  30.554  1.00  0.00     0.001 A 
ATOM     62  C   UNL A   1      36.248  30.035  28.271  1.00  0.00     0.001 A 
ATOM     63  C   UNL A   1      35.758  29.800  29.543  1.00  0.00     0.000 A 
ENDBRANCH  44  58
BRANCH  45  64
ATOM     64  C   UNL A   1      47.577  26.128  28.975  1.00  0.00    -0.014 A 
ATOM     65  C   UNL A   1      47.290  25.910  27.612  1.00  0.00     0.009 A 
ATOM     66  C   UNL A   1      48.775  25.619  29.495  1.00  0.00     0.009 A 
ATOM     67  C   UNL A   1      48.224  25.302  26.769  1.00  0.00     0.001 A 
ATOM     68  C   UNL A   1      49.704  24.998  28.649  1.00  0.00     0.001 A 
ATOM     69  C   UNL A   1      49.443  24.872  27.284  1.00  0.00     0.000 A 
ENDBRANCH  45  64
BRANCH  57  70
ATOM     70  C   UNL A   1      44.437  32.478  27.535  1.00  0.00    -0.014 A 
ATOM     71  C   UNL A   1      44.599  32.506  26.143  1.00  0.00     0.009 A 
ATOM     72  C   UNL A   1      44.105  33.705  28.154  1.00  0.00     0.009 A 
ATOM     73  C   UNL A   1      44.487  33.701  25.416  1.00  0.00     0.001 A 
ATOM     74  C   UNL A   1      43.948  34.889  27.430  1.00  0.00     0.001 A 
ATOM     75  C   UNL A   1      44.152  34.890  26.058  1.00  0.00     0.000 A 
ENDBRANCH  57  70
ENDBRANCH  31  32
ENDBRANCH  23  26
ENDBRANCH  21  22
ENDBRANCH   1  21
TORSDOF 12
ENDMDL
MODEL 3
REMARK VINA RESULT:     -11.8      3.396      8.305
REMARK SMILES Cc1cccc(-c2cc(C(=O)NCCCCNC(=O)c3ccc(-c4c5nc(c(-c6ccccc6)c6ccc([nH]6)c(-c6ccccc6)c6nc(c(-c7ccccc7)c7ccc4[nH]7)C=C6)C=C5)cc3)ccn2)c1
REMARK SMILES IDX 15 1 14 2 13 3 12 4 10 5 11 6 9 8 7 9 8 10 70 11 69 12 68 13
REMARK SMILES IDX 6 14 1 15 2 16 3 17 71 18 4 19 5 20 16 21 17 22 18 23 19 25
REMARK SMILES IDX 20 26 21 27 67 28 22 29 66 30 23 31 24 32 25 33 60 34 26 35
REMARK SMILES IDX 65 36 59 37 61 38 27 39 64 40 58 41 57 42 28 44 50 45 35 46
REMARK SMILES IDX 49 47 36 48 39 49 48 50 62 51 37 52 38 53 47 55 63 56 40 57
REMARK SMILES IDX 29 58 30 59 34 60 31 61 33 62 32 63 51 64 52 65 56 66 53 67
REMARK SMILES IDX 55 68 54 69 41 70 42 71 46 72 43 73 45 74 44 75
REMARK H PARENT 12 7 17 24 61 43 39 54
REMARK Flexibility Score: inf
ROOT
ATOM      1  C   UNL A   1      32.388  31.189  27.044  1.00  0.00     0.023 C 
ENDROOT
BRANCH   1   2
ATOM      2  C   UNL A   1      31.929  30.454  25.777  1.00  0.00     0.023 C 
BRANCH   2   3
ATOM      3  C   UNL A   1      32.525  29.045  25.605  1.00  0.00     0.116 C 
BRANCH   3   4
ATOM      4  N   UNL A   1      31.528  27.996  25.749  1.00  0.00    -0.352 N 
ATOM      5  C   UNL A   1      31.389  26.727  25.246  1.00  0.00     0.251 C 
ATOM      6  O   UNL A   1      30.417  26.080  25.642  1.00  0.00    -0.269 OA
ATOM      7  H   UNL A   1      30.784  28.256  26.340  1.00  0.00     0.163 HD
BRANCH   5   8
ATOM      8  C   UNL A   1      32.329  26.078  24.288  1.00  0.00     0.043 A 
ATOM      9  C   UNL A   1      33.988  24.471  23.621  1.00  0.00     0.071 A 
ATOM     10  C   UNL A   1      33.189  25.041  24.609  1.00  0.00     0.042 A 
ATOM     11  N   UNL A   1      34.028  24.936  22.356  1.00  0.00    -0.256 NA
ATOM     12  C   UNL A   1      33.217  25.975  22.063  1.00  0.00     0.112 A 
ATOM     13  C   UNL A   1      32.355  26.561  22.975  1.00  0.00     0.034 A 
BRANCH   9  14
ATOM     14  C   UNL A   1      34.770  23.272  23.932  1.00  0.00     0.000 A 
ATOM     15  C   UNL A   1      34.078  19.668  24.999  1.00  0.00     0.044 C 
ATOM     16  C   UNL A   1      34.807  20.933  24.657  1.00  0.00    -0.050 A 
ATOM     17  C   UNL A   1      36.200  20.995  24.743  1.00  0.00     0.003 A 
ATOM     18  C   UNL A   1      34.105  22.071  24.248  1.00  0.00     0.013 A 
ATOM     19  C   UNL A   1      36.877  22.171  24.413  1.00  0.00     0.001 A 
ATOM     20  C   UNL A   1      36.167  23.302  24.003  1.00  0.00     0.010 A 
ENDBRANCH   9  14
ENDBRANCH   5   8
ENDBRANCH   3   4
ENDBRANCH   2   3
ENDBRANCH   1   2
BRANCH   1  21
ATOM     21  C   UNL A   1      33.699  30.662  27.614  1.00  0.00     0.116 C 
BRANCH  21  22
ATOM     22  N   UNL A   1      34.412  31.596  28.479  1.00  0.00    -0.352 N 
ATOM     23  C   UNL A   1      35.610  31.411  29.153  1.00  0.00     0.251 C 
ATOM     24  H   UNL A   1      33.986  32.475  28.601  1.00  0.00     0.163 HD
ATOM     25  O   UNL A   1      36.057  32.283  29.882  1.00  0.00    -0.269 OA
BRANCH  23  26
ATOM     26  C   UNL A   1      36.412  30.194  28.871  1.00  0.00     0.039 A 
ATOM     27  C   UNL A   1      36.666  29.328  29.940  1.00  0.00     0.014 A 
ATOM     28  C   UNL A   1      37.103  30.054  27.670  1.00  0.00     0.014 A 
ATOM     29  C   UNL A   1      37.797  28.519  29.901  1.00  0.00     0.010 A 
ATOM     30  C   UNL A   1      38.276  29.323  27.663  1.00  0.00     0.010 A 
ATOM     31  C   UNL A   1      38.663  28.627  28.814  1.00  0.00    -0.014 A 
BRANCH  31  32
ATOM     32  C   UNL A   1      40.055  28.198  28.877  1.00  0.00     0.031 A 
ATOM     33  C   UNL A   1      40.459  26.856  28.425  1.00  0.00     0.074 A 
ATOM     34  C   UNL A   1      40.990  29.054  29.348  1.00  0.00     0.049 A 
ATOM     35  N   UNL A   1      41.521  26.248  28.834  1.00  0.00    -0.248 NA
ATOM     36  C   UNL A   1      39.635  26.045  27.535  1.00  0.00     0.031 C 
ATOM     37  C   UNL A   1      42.443  28.928  29.273  1.00  0.00     0.029 A 
ATOM     38  N   UNL A   1      40.784  30.119  30.220  1.00  0.00    -0.354 N 
ATOM     39  C   UNL A   1      41.691  25.148  28.031  1.00  0.00     0.074 A 
ATOM     40  C   UNL A   1      40.425  24.980  27.361  1.00  0.00     0.031 C 
ATOM     41  C   UNL A   1      42.995  29.697  30.226  1.00  0.00     0.029 A 
ATOM     42  C   UNL A   1      41.915  30.225  31.042  1.00  0.00     0.049 A 
ATOM     43  H   UNL A   1      39.987  30.697  30.253  1.00  0.00     0.167 HD
ATOM     44  C   UNL A   1      42.937  24.613  27.896  1.00  0.00     0.031 A 
ATOM     45  C   UNL A   1      41.809  30.061  32.394  1.00  0.00     0.031 A 
ATOM     46  C   UNL A   1      43.868  25.144  28.897  1.00  0.00     0.049 A 
ATOM     47  C   UNL A   1      42.585  28.877  32.935  1.00  0.00     0.074 A 
ATOM     48  C   UNL A   1      44.939  26.021  28.838  1.00  0.00     0.029 A 
ATOM     49  N   UNL A   1      43.581  24.968  30.247  1.00  0.00    -0.354 N 
ATOM     50  N   UNL A   1      43.098  27.934  32.194  1.00  0.00    -0.248 NA
ATOM     51  C   UNL A   1      42.792  28.633  34.361  1.00  0.00     0.031 C 
ATOM     52  C   UNL A   1      45.227  26.449  30.163  1.00  0.00     0.029 A 
ATOM     53  C   UNL A   1      44.360  25.801  31.026  1.00  0.00     0.049 A 
ATOM     54  H   UNL A   1      42.912  24.337  30.599  1.00  0.00     0.167 HD
ATOM     55  C   UNL A   1      43.647  26.966  32.992  1.00  0.00     0.074 A 
ATOM     56  C   UNL A   1      43.460  27.465  34.343  1.00  0.00     0.031 C 
ATOM     57  C   UNL A   1      44.183  25.821  32.474  1.00  0.00     0.031 A 
BRANCH  44  58
ATOM     58  C   UNL A   1      43.382  23.808  26.688  1.00  0.00    -0.014 A 
ATOM     59  C   UNL A   1      44.119  22.623  26.877  1.00  0.00     0.009 A 
ATOM     60  C   UNL A   1      43.222  24.209  25.348  1.00  0.00     0.009 A 
ATOM     61  C   UNL A   1      44.695  21.921  25.804  1.00  0.00     0.001 A 
ATOM     62  C   UNL A   1      43.780  23.508  24.271  1.00  0.00     0.001 A 
ATOM     63  C   UNL A   1      44.531  22.368  24.501  1.00  0.00     0.000 A 
ENDBRANCH  44  58
BRANCH  45  64
ATOM     64  C   UNL A   1      40.520  30.554  32.957  1.00  0.00    -0.014 A 
ATOM     65  C   UNL A   1      40.251  31.937  32.895  1.00  0.00     0.009 A 
ATOM     66  C   UNL A   1      39.456  29.677  33.210  1.00  0.00     0.009 A 
ATOM     67  C   UNL A   1      38.942  32.418  32.970  1.00  0.00     0.001 A 
ATOM     68  C   UNL A   1      38.145  30.166  33.298  1.00  0.00     0.001 A 
ATOM     69  C   UNL A   1      37.886  31.528  33.144  1.00  0.00     0.000 A 
ENDBRANCH  45  64
BRANCH  57  70
ATOM     70  C   UNL A   1      44.633  24.617  33.268  1.00  0.00    -0.014 A 
ATOM     71  C   UNL A   1      45.960  24.356  33.634  1.00  0.00     0.009 A 
ATOM     72  C   UNL A   1      43.651  23.748  33.797  1.00  0.00     0.009 A 
ATOM     73  C   UNL A   1      46.295  23.258  34.441  1.00  0.00     0.001 A 
ATOM     74  C   UNL A   1      43.974  22.681  34.638  1.00  0.00     0.001 A 
ATOM     75  C   UNL A   1      45.301  22.427  34.951  1.00  0.00     0.000 A 
ENDBRANCH  57  70
ENDBRANCH  31  32
ENDBRANCH  23  26
ENDBRANCH  21  22
ENDBRANCH   1  21
TORSDOF 12
ENDMDL
