MODEL 1
REMARK VINA RESULT:     -12.2      0.000      0.000
REMARK SMILES Cc1nc(-c2ccccc2Cl)sc1C(=O)NC[C@H]1CC[C@@H](C(=O)NCCCCNC(=O)c2ccc(-c3c4nc(c(-c5ccccc5)c5ccc([nH]5)c(-c5ccccc5)c5nc(c(-c6ccccc6)c6ccc3[nH]6)C=C5)C=C4)cc2)CC1
REMARK SMILES IDX 25 1 24 2 22 3 23 4 21 6 18 7 19 8 81 9 20 10 80 11 17 12
REMARK SMILES IDX 16 13 14 14 15 15 13 17 1 18 2 19 3 20 4 21 12 22 5 23 6 24
REMARK SMILES IDX 10 25 7 26 9 27 11 28 8 29 26 30 27 31 28 32 29 33 30 34
REMARK SMILES IDX 31 36 32 37 33 38 79 39 34 40 78 41 35 42 36 43 37 44 72 45
REMARK SMILES IDX 38 46 77 47 71 48 73 49 39 50 76 51 70 52 69 53 40 55 62 56
REMARK SMILES IDX 47 57 61 58 48 59 51 60 60 61 74 62 49 63 50 64 59 66 75 67
REMARK SMILES IDX 52 68 41 69 42 70 46 71 43 72 45 73 44 74 63 75 64 76 68 77
REMARK SMILES IDX 65 78 67 79 66 80 53 81 54 82 58 83 55 84 57 85 56 86
REMARK H PARENT 24 5 16 16 29 35 73 54 51 65
REMARK Flexibility Score: inf
ROOT
ATOM      1  C   UNL A   1      31.763  29.554  25.024  1.00  0.00     0.116 C 
ENDROOT
BRANCH   1   2
ATOM      2  N   UNL A   1      30.718  30.459  24.613  1.00  0.00    -0.356 N 
ATOM      3  C   UNL A   1      29.636  30.328  23.808  1.00  0.00     0.223 C 
ATOM      4  O   UNL A   1      28.845  31.280  23.833  1.00  0.00    -0.275 OA
ATOM      5  H   UNL A   1      30.810  31.361  24.997  1.00  0.00     0.163 HD
BRANCH   3   6
ATOM      6  C   UNL A   1      29.336  29.139  22.880  1.00  0.00     0.078 C 
ATOM      7  C   UNL A   1      30.854  26.526  23.156  1.00  0.00     0.008 C 
ATOM      8  C   UNL A   1      29.592  26.817  23.998  1.00  0.00     0.006 C 
ATOM      9  C   UNL A   1      31.396  27.713  22.335  1.00  0.00     0.006 C 
ATOM     10  C   UNL A   1      28.666  27.907  23.476  1.00  0.00     0.014 C 
ATOM     11  C   UNL A   1      30.420  28.778  21.881  1.00  0.00     0.014 C 
BRANCH   7  12
ATOM     12  C   UNL A   1      31.976  25.942  24.066  1.00  0.00     0.119 C 
BRANCH  12  13
ATOM     13  N   UNL A   1      31.485  25.410  25.310  1.00  0.00    -0.351 N 
ATOM     14  C   UNL A   1      31.795  24.343  26.114  1.00  0.00     0.263 C 
ATOM     15  O   UNL A   1      31.260  24.457  27.227  1.00  0.00    -0.268 OA
ATOM     16  H   UNL A   1      30.744  25.945  25.674  1.00  0.00     0.163 HD
BRANCH  14  17
ATOM     17  C   UNL A   1      32.606  23.176  25.761  1.00  0.00     0.115 A 
ATOM     18  C   UNL A   1      35.206  23.585  25.729  1.00  0.00     0.068 C 
ATOM     19  C   UNL A   1      33.945  22.830  25.580  1.00  0.00     0.062 A 
ATOM     20  N   UNL A   1      34.175  21.538  25.126  1.00  0.00    -0.240 NA
ATOM     21  C   UNL A   1      33.054  20.907  24.891  1.00  0.00     0.125 A 
ATOM     22  S   UNL A   1      31.659  21.736  25.395  1.00  0.00    -0.108 S 
BRANCH  21  23
ATOM     23  C   UNL A   1      33.013  19.565  24.314  1.00  0.00     0.029 A 
ATOM     24  C   UNL A   1      33.608  18.523  25.049  1.00  0.00     0.013 A 
ATOM     25  C   UNL A   1      32.533  19.287  23.024  1.00  0.00     0.051 A 
ATOM     26  C   UNL A   1      33.710  17.235  24.520  1.00  0.00     0.001 A 
ATOM     27  C   UNL A   1      32.634  17.993  22.499  1.00  0.00     0.021 A 
ATOM     28  Cl  UNL A   1      31.873  20.504  21.985  1.00  0.00    -0.084 Cl
ATOM     29  C   UNL A   1      33.222  16.971  23.243  1.00  0.00     0.002 A 
ENDBRANCH  21  23
ENDBRANCH  14  17
ENDBRANCH  12  13
ENDBRANCH   7  12
ENDBRANCH   3   6
ENDBRANCH   1   2
BRANCH   1  30
ATOM     30  C   UNL A   1      31.489  28.868  26.362  1.00  0.00     0.023 C 
BRANCH  30  31
ATOM     31  C   UNL A   1      32.680  28.804  27.311  1.00  0.00     0.023 C 
BRANCH  31  32
ATOM     32  C   UNL A   1      33.788  29.819  27.045  1.00  0.00     0.116 C 
BRANCH  32  33
ATOM     33  N   UNL A   1      33.825  30.947  27.964  1.00  0.00    -0.352 N 
ATOM     34  C   UNL A   1      34.852  31.305  28.817  1.00  0.00     0.251 C 
ATOM     35  H   UNL A   1      33.026  31.522  27.980  1.00  0.00     0.163 HD
ATOM     36  O   UNL A   1      34.738  32.262  29.570  1.00  0.00    -0.269 OA
BRANCH  34  37
ATOM     37  C   UNL A   1      36.067  30.463  28.848  1.00  0.00     0.039 A 
ATOM     38  C   UNL A   1      36.933  30.489  27.753  1.00  0.00     0.014 A 
ATOM     39  C   UNL A   1      36.406  29.760  30.006  1.00  0.00     0.014 A 
ATOM     40  C   UNL A   1      38.195  29.902  27.864  1.00  0.00     0.010 A 
ATOM     41  C   UNL A   1      37.693  29.252  30.143  1.00  0.00     0.010 A 
ATOM     42  C   UNL A   1      38.607  29.334  29.080  1.00  0.00    -0.014 A 
BRANCH  42  43
ATOM     43  C   UNL A   1      39.996  28.845  29.280  1.00  0.00     0.031 A 
ATOM     44  C   UNL A   1      41.037  29.752  29.873  1.00  0.00     0.074 A 
ATOM     45  C   UNL A   1      40.344  27.619  28.842  1.00  0.00     0.049 A 
ATOM     46  N   UNL A   1      42.318  29.540  30.040  1.00  0.00    -0.248 NA
ATOM     47  C   UNL A   1      40.586  31.085  30.303  1.00  0.00     0.031 C 
ATOM     48  C   UNL A   1      39.447  26.657  28.194  1.00  0.00     0.029 A 
ATOM     49  N   UNL A   1      41.555  26.972  28.869  1.00  0.00    -0.354 N 
ATOM     50  C   UNL A   1      42.828  30.720  30.566  1.00  0.00     0.074 A 
ATOM     51  C   UNL A   1      41.730  31.659  30.644  1.00  0.00     0.031 C 
ATOM     52  C   UNL A   1      40.130  25.534  27.918  1.00  0.00     0.029 A 
ATOM     53  C   UNL A   1      41.518  25.707  28.334  1.00  0.00     0.049 A 
ATOM     54  H   UNL A   1      42.373  27.377  29.238  1.00  0.00     0.167 HD
ATOM     55  C   UNL A   1      44.091  30.994  30.968  1.00  0.00     0.031 A 
ATOM     56  C   UNL A   1      42.492  24.788  28.194  1.00  0.00     0.031 A 
ATOM     57  C   UNL A   1      45.179  30.057  30.922  1.00  0.00     0.049 A 
ATOM     58  C   UNL A   1      43.881  25.105  28.672  1.00  0.00     0.074 A 
ATOM     59  C   UNL A   1      46.478  30.219  31.369  1.00  0.00     0.029 A 
ATOM     60  N   UNL A   1      45.090  28.775  30.404  1.00  0.00    -0.354 N 
ATOM     61  N   UNL A   1      44.331  26.205  29.227  1.00  0.00    -0.248 NA
ATOM     62  C   UNL A   1      44.892  24.051  28.515  1.00  0.00     0.031 C 
ATOM     63  C   UNL A   1      47.186  29.044  31.091  1.00  0.00     0.029 A 
ATOM     64  C   UNL A   1      46.315  28.139  30.507  1.00  0.00     0.049 A 
ATOM     65  H   UNL A   1      44.277  28.376  30.017  1.00  0.00     0.167 HD
ATOM     66  C   UNL A   1      45.670  25.965  29.508  1.00  0.00     0.074 A 
ATOM     67  C   UNL A   1      45.955  24.613  29.075  1.00  0.00     0.031 C 
ATOM     68  C   UNL A   1      46.580  26.791  30.076  1.00  0.00     0.031 A 
BRANCH  55  69
ATOM     69  C   UNL A   1      44.355  32.375  31.501  1.00  0.00    -0.014 A 
ATOM     70  C   UNL A   1      44.866  33.385  30.671  1.00  0.00     0.009 A 
ATOM     71  C   UNL A   1      44.082  32.670  32.844  1.00  0.00     0.009 A 
ATOM     72  C   UNL A   1      45.138  34.654  31.187  1.00  0.00     0.001 A 
ATOM     73  C   UNL A   1      44.328  33.948  33.351  1.00  0.00     0.001 A 
ATOM     74  C   UNL A   1      44.866  34.934  32.526  1.00  0.00     0.000 A 
ENDBRANCH  55  69
BRANCH  56  75
ATOM     75  C   UNL A   1      42.186  23.459  27.605  1.00  0.00    -0.014 A 
ATOM     76  C   UNL A   1      42.333  23.246  26.227  1.00  0.00     0.009 A 
ATOM     77  C   UNL A   1      41.736  22.402  28.412  1.00  0.00     0.009 A 
ATOM     78  C   UNL A   1      42.013  22.009  25.662  1.00  0.00     0.001 A 
ATOM     79  C   UNL A   1      41.440  21.159  27.848  1.00  0.00     0.001 A 
ATOM     80  C   UNL A   1      41.569  20.967  26.473  1.00  0.00     0.000 A 
ENDBRANCH  56  75
BRANCH  68  81
ATOM     81  C   UNL A   1      47.960  26.243  30.295  1.00  0.00    -0.014 A 
ATOM     82  C   UNL A   1      48.345  25.722  31.539  1.00  0.00     0.009 A 
ATOM     83  C   UNL A   1      48.870  26.210  29.227  1.00  0.00     0.009 A 
ATOM     84  C   UNL A   1      49.630  25.204  31.717  1.00  0.00     0.001 A 
ATOM     85  C   UNL A   1      50.145  25.670  29.401  1.00  0.00     0.001 A 
ATOM     86  C   UNL A   1      50.526  25.174  30.648  1.00  0.00     0.000 A 
ENDBRANCH  68  81
ENDBRANCH  42  43
ENDBRANCH  34  37
ENDBRANCH  32  33
ENDBRANCH  31  32
ENDBRANCH  30  31
ENDBRANCH   1  30
TORSDOF 15
ENDMDL
MODEL 2
REMARK VINA RESULT:     -12.2      2.234      6.953
REMARK SMILES Cc1nc(-c2ccccc2Cl)sc1C(=O)NC[C@H]1CC[C@@H](C(=O)NCCCCNC(=O)c2ccc(-c3c4nc(c(-c5ccccc5)c5ccc([nH]5)c(-c5ccccc5)c5nc(c(-c6ccccc6)c6ccc3[nH]6)C=C5)C=C4)cc2)CC1
REMARK SMILES IDX 25 1 24 2 22 3 23 4 21 6 18 7 19 8 81 9 20 10 80 11 17 12
REMARK SMILES IDX 16 13 14 14 15 15 13 17 1 18 2 19 3 20 4 21 12 22 5 23 6 24
REMARK SMILES IDX 10 25 7 26 9 27 11 28 8 29 26 30 27 31 28 32 29 33 30 34
REMARK SMILES IDX 31 36 32 37 33 38 79 39 34 40 78 41 35 42 36 43 37 44 72 45
REMARK SMILES IDX 38 46 77 47 71 48 73 49 39 50 76 51 70 52 69 53 40 55 62 56
REMARK SMILES IDX 47 57 61 58 48 59 51 60 60 61 74 62 49 63 50 64 59 66 75 67
REMARK SMILES IDX 52 68 41 69 42 70 46 71 43 72 45 73 44 74 63 75 64 76 68 77
REMARK SMILES IDX 65 78 67 79 66 80 53 81 54 82 58 83 55 84 57 85 56 86
REMARK H PARENT 24 5 16 16 29 35 73 54 51 65
REMARK Flexibility Score: inf
ROOT
ATOM      1  C   UNL A   1      35.505  23.275  24.686  1.00  0.00     0.116 C 
ENDROOT
BRANCH   1   2
ATOM      2  N   UNL A   1      34.756  23.789  23.565  1.00  0.00    -0.356 N 
ATOM      3  C   UNL A   1      34.196  24.992  23.293  1.00  0.00     0.223 C 
ATOM      4  O   UNL A   1      33.783  25.127  22.133  1.00  0.00    -0.275 OA
ATOM      5  H   UNL A   1      34.625  23.127  22.849  1.00  0.00     0.163 HD
BRANCH   3   6
ATOM      6  C   UNL A   1      34.018  26.154  24.284  1.00  0.00     0.078 C 
ATOM      7  C   UNL A   1      31.335  26.681  25.599  1.00  0.00     0.008 C 
ATOM      8  C   UNL A   1      32.344  25.679  26.201  1.00  0.00     0.006 C 
ATOM      9  C   UNL A   1      31.691  27.228  24.203  1.00  0.00     0.006 C 
ATOM     10  C   UNL A   1      33.792  25.823  25.754  1.00  0.00     0.014 C 
ATOM     11  C   UNL A   1      33.152  27.309  23.813  1.00  0.00     0.014 C 
BRANCH   7  12
ATOM     12  C   UNL A   1      29.908  26.054  25.587  1.00  0.00     0.119 C 
BRANCH  12  13
ATOM     13  N   UNL A   1      29.777  24.912  26.452  1.00  0.00    -0.351 N 
ATOM     14  C   UNL A   1      30.296  23.643  26.492  1.00  0.00     0.263 C 
ATOM     15  O   UNL A   1      30.085  23.113  27.593  1.00  0.00    -0.268 OA
ATOM     16  H   UNL A   1      29.161  25.084  27.200  1.00  0.00     0.163 HD
BRANCH  14  17
ATOM     17  C   UNL A   1      30.982  22.934  25.410  1.00  0.00     0.115 A 
ATOM     18  C   UNL A   1      30.684  23.984  23.014  1.00  0.00     0.068 C 
ATOM     19  C   UNL A   1      31.154  23.018  24.028  1.00  0.00     0.062 A 
ATOM     20  N   UNL A   1      31.865  21.975  23.448  1.00  0.00    -0.240 NA
ATOM     21  C   UNL A   1      32.186  21.065  24.331  1.00  0.00     0.125 A 
ATOM     22  S   UNL A   1      31.847  21.493  25.940  1.00  0.00    -0.108 S 
BRANCH  21  23
ATOM     23  C   UNL A   1      32.853  19.818  23.967  1.00  0.00     0.029 A 
ATOM     24  C   UNL A   1      32.213  18.988  23.028  1.00  0.00     0.013 A 
ATOM     25  C   UNL A   1      34.019  19.348  24.593  1.00  0.00     0.051 A 
ATOM     26  C   UNL A   1      32.728  17.729  22.710  1.00  0.00     0.001 A 
ATOM     27  C   UNL A   1      34.533  18.087  24.268  1.00  0.00     0.021 A 
ATOM     28  Cl  UNL A   1      34.839  20.230  25.835  1.00  0.00    -0.084 Cl
ATOM     29  C   UNL A   1      33.888  17.279  23.331  1.00  0.00     0.002 A 
ENDBRANCH  21  23
ENDBRANCH  14  17
ENDBRANCH  12  13
ENDBRANCH   7  12
ENDBRANCH   3   6
ENDBRANCH   1   2
BRANCH   1  30
ATOM     30  C   UNL A   1      36.986  23.050  24.382  1.00  0.00     0.023 C 
BRANCH  30  31
ATOM     31  C   UNL A   1      37.466  21.612  24.542  1.00  0.00     0.023 C 
BRANCH  31  32
ATOM     32  C   UNL A   1      38.438  21.367  25.693  1.00  0.00     0.116 C 
BRANCH  32  33
ATOM     33  N   UNL A   1      39.257  20.169  25.565  1.00  0.00    -0.352 N 
ATOM     34  C   UNL A   1      40.573  20.004  25.952  1.00  0.00     0.251 C 
ATOM     35  H   UNL A   1      38.822  19.387  25.157  1.00  0.00     0.163 HD
ATOM     36  O   UNL A   1      41.158  18.949  25.753  1.00  0.00    -0.269 OA
BRANCH  34  37
ATOM     37  C   UNL A   1      41.280  21.156  26.553  1.00  0.00     0.039 A 
ATOM     38  C   UNL A   1      41.912  22.073  25.711  1.00  0.00     0.014 A 
ATOM     39  C   UNL A   1      41.198  21.391  27.927  1.00  0.00     0.014 A 
ATOM     40  C   UNL A   1      42.366  23.285  26.236  1.00  0.00     0.010 A 
ATOM     41  C   UNL A   1      41.573  22.632  28.430  1.00  0.00     0.010 A 
ATOM     42  C   UNL A   1      42.143  23.599  27.586  1.00  0.00    -0.014 A 
BRANCH  42  43
ATOM     43  C   UNL A   1      42.469  24.940  28.137  1.00  0.00     0.031 A 
ATOM     44  C   UNL A   1      43.869  25.254  28.582  1.00  0.00     0.074 A 
ATOM     45  C   UNL A   1      41.486  25.844  28.325  1.00  0.00     0.049 A 
ATOM     46  N   UNL A   1      44.327  26.330  29.170  1.00  0.00    -0.248 NA
ATOM     47  C   UNL A   1      44.882  24.207  28.368  1.00  0.00     0.031 C 
ATOM     48  C   UNL A   1      40.072  25.648  27.993  1.00  0.00     0.029 A 
ATOM     49  N   UNL A   1      41.528  27.111  28.852  1.00  0.00    -0.354 N 
ATOM     50  C   UNL A   1      45.670  26.077  29.421  1.00  0.00     0.074 A 
ATOM     51  C   UNL A   1      45.940  24.730  28.967  1.00  0.00     0.031 C 
ATOM     52  C   UNL A   1      39.390  26.767  28.291  1.00  0.00     0.029 A 
ATOM     53  C   UNL A   1      40.308  27.743  28.868  1.00  0.00     0.049 A 
ATOM     54  H   UNL A   1      42.355  27.528  29.186  1.00  0.00     0.167 HD
ATOM     55  C   UNL A   1      46.601  26.897  29.962  1.00  0.00     0.031 A 
ATOM     56  C   UNL A   1      39.966  28.972  29.300  1.00  0.00     0.031 A 
ATOM     57  C   UNL A   1      46.347  28.246  30.386  1.00  0.00     0.049 A 
ATOM     58  C   UNL A   1      41.023  29.874  29.871  1.00  0.00     0.074 A 
ATOM     59  C   UNL A   1      47.241  29.178  30.884  1.00  0.00     0.029 A 
ATOM     60  N   UNL A   1      45.104  28.858  30.355  1.00  0.00    -0.354 N 
ATOM     61  N   UNL A   1      42.302  29.641  30.042  1.00  0.00    -0.248 NA
ATOM     62  C   UNL A   1      40.590  31.212  30.299  1.00  0.00     0.031 C 
ATOM     63  C   UNL A   1      46.531  30.347  31.184  1.00  0.00     0.029 A 
ATOM     64  C   UNL A   1      45.204  30.152  30.836  1.00  0.00     0.049 A 
ATOM     65  H   UNL A   1      44.273  28.436  30.038  1.00  0.00     0.167 HD
ATOM     66  C   UNL A   1      42.831  30.811  30.573  1.00  0.00     0.074 A 
ATOM     67  C   UNL A   1      41.737  31.755  30.683  1.00  0.00     0.031 C 
ATOM     68  C   UNL A   1      44.108  31.079  30.934  1.00  0.00     0.031 A 
BRANCH  55  69
ATOM     69  C   UNL A   1      47.991  26.346  30.117  1.00  0.00    -0.014 A 
ATOM     70  C   UNL A   1      48.909  26.387  29.055  1.00  0.00     0.009 A 
ATOM     71  C   UNL A   1      48.390  25.788  31.340  1.00  0.00     0.009 A 
ATOM     72  C   UNL A   1      50.186  25.841  29.203  1.00  0.00     0.001 A 
ATOM     73  C   UNL A   1      49.677  25.269  31.494  1.00  0.00     0.001 A 
ATOM     74  C   UNL A   1      50.569  25.286  30.423  1.00  0.00     0.000 A 
ENDBRANCH  55  69
BRANCH  56  75
ATOM     75  C   UNL A   1      38.563  29.443  29.175  1.00  0.00    -0.014 A 
ATOM     76  C   UNL A   1      37.671  29.296  30.248  1.00  0.00     0.009 A 
ATOM     77  C   UNL A   1      38.105  30.030  27.985  1.00  0.00     0.009 A 
ATOM     78  C   UNL A   1      36.341  29.705  30.125  1.00  0.00     0.001 A 
ATOM     79  C   UNL A   1      36.780  30.459  27.874  1.00  0.00     0.001 A 
ATOM     80  C   UNL A   1      35.897  30.288  28.940  1.00  0.00     0.000 A 
ENDBRANCH  56  75
BRANCH  68  81
ATOM     81  C   UNL A   1      44.399  32.459  31.448  1.00  0.00    -0.014 A 
ATOM     82  C   UNL A   1      44.369  32.743  32.822  1.00  0.00     0.009 A 
ATOM     83  C   UNL A   1      44.748  33.475  30.546  1.00  0.00     0.009 A 
ATOM     84  C   UNL A   1      44.655  34.031  33.280  1.00  0.00     0.001 A 
ATOM     85  C   UNL A   1      45.058  34.755  31.009  1.00  0.00     0.001 A 
ATOM     86  C   UNL A   1      45.004  35.034  32.374  1.00  0.00     0.000 A 
ENDBRANCH  68  81
ENDBRANCH  42  43
ENDBRANCH  34  37
ENDBRANCH  32  33
ENDBRANCH  31  32
ENDBRANCH  30  31
ENDBRANCH   1  30
TORSDOF 15
ENDMDL
MODEL 3
REMARK VINA RESULT:     -12.2      2.651      7.173
REMARK SMILES Cc1nc(-c2ccccc2Cl)sc1C(=O)NC[C@H]1CC[C@@H](C(=O)NCCCCNC(=O)c2ccc(-c3c4nc(c(-c5ccccc5)c5ccc([nH]5)c(-c5ccccc5)c5nc(c(-c6ccccc6)c6ccc3[nH]6)C=C5)C=C4)cc2)CC1
REMARK SMILES IDX 25 1 24 2 22 3 23 4 21 6 18 7 19 8 81 9 20 10 80 11 17 12
REMARK SMILES IDX 16 13 14 14 15 15 13 17 1 18 2 19 3 20 4 21 12 22 5 23 6 24
REMARK SMILES IDX 10 25 7 26 9 27 11 28 8 29 26 30 27 31 28 32 29 33 30 34
REMARK SMILES IDX 31 36 32 37 33 38 79 39 34 40 78 41 35 42 36 43 37 44 72 45
REMARK SMILES IDX 38 46 77 47 71 48 73 49 39 50 76 51 70 52 69 53 40 55 62 56
REMARK SMILES IDX 47 57 61 58 48 59 51 60 60 61 74 62 49 63 50 64 59 66 75 67
REMARK SMILES IDX 52 68 41 69 42 70 46 71 43 72 45 73 44 74 63 75 64 76 68 77
REMARK SMILES IDX 65 78 67 79 66 80 53 81 54 82 58 83 55 84 57 85 56 86
REMARK H PARENT 24 5 16 16 29 35 73 54 51 65
REMARK Flexibility Score: inf
ROOT
ATOM      1  C   UNL A   1      34.340  24.275  23.553  1.00  0.00     0.116 C 
ENDROOT
BRANCH   1   2
ATOM      2  N   UNL A   1      33.790  24.466  22.233  1.00  0.00    -0.356 N 
ATOM      3  C   UNL A   1      33.253  25.533  21.594  1.00  0.00     0.223 C 
ATOM      4  O   UNL A   1      33.051  25.371  20.383  1.00  0.00    -0.275 OA
ATOM      5  H   UNL A   1      33.809  23.651  21.682  1.00  0.00     0.163 HD
BRANCH   3   6
ATOM      6  C   UNL A   1      32.867  26.876  22.237  1.00  0.00     0.078 C 
ATOM      7  C   UNL A   1      32.422  27.096  25.230  1.00  0.00     0.008 C 
ATOM      8  C   UNL A   1      33.831  27.241  24.612  1.00  0.00     0.006 C 
ATOM      9  C   UNL A   1      31.314  26.636  24.263  1.00  0.00     0.006 C 
ATOM     10  C   UNL A   1      33.889  27.571  23.127  1.00  0.00     0.014 C 
ATOM     11  C   UNL A   1      31.458  26.971  22.793  1.00  0.00     0.014 C 
BRANCH   7  12
ATOM     12  C   UNL A   1      32.481  26.156  26.471  1.00  0.00     0.119 C 
BRANCH  12  13
ATOM     13  N   UNL A   1      31.266  25.416  26.687  1.00  0.00    -0.351 N 
ATOM     14  C   UNL A   1      30.934  24.093  26.838  1.00  0.00     0.263 C 
ATOM     15  O   UNL A   1      29.778  23.974  27.270  1.00  0.00    -0.268 OA
ATOM     16  H   UNL A   1      30.479  26.004  26.739  1.00  0.00     0.163 HD
BRANCH  14  17
ATOM     17  C   UNL A   1      31.764  22.931  26.517  1.00  0.00     0.115 A 
ATOM     18  C   UNL A   1      34.204  22.988  27.502  1.00  0.00     0.068 C 
ATOM     19  C   UNL A   1      33.057  22.456  26.739  1.00  0.00     0.062 A 
ATOM     20  N   UNL A   1      33.380  21.271  26.092  1.00  0.00    -0.240 NA
ATOM     21  C   UNL A   1      32.400  20.859  25.330  1.00  0.00     0.125 A 
ATOM     22  S   UNL A   1      30.957  21.740  25.499  1.00  0.00    -0.108 S 
BRANCH  21  23
ATOM     23  C   UNL A   1      32.515  19.687  24.465  1.00  0.00     0.029 A 
ATOM     24  C   UNL A   1      32.944  18.483  25.053  1.00  0.00     0.013 A 
ATOM     25  C   UNL A   1      32.349  19.731  23.071  1.00  0.00     0.051 A 
ATOM     26  C   UNL A   1      33.187  17.348  24.278  1.00  0.00     0.001 A 
ATOM     27  C   UNL A   1      32.590  18.589  22.297  1.00  0.00     0.021 A 
ATOM     28  Cl  UNL A   1      31.924  21.176  22.220  1.00  0.00    -0.084 Cl
ATOM     29  C   UNL A   1      33.010  17.402  22.899  1.00  0.00     0.002 A 
ENDBRANCH  21  23
ENDBRANCH  14  17
ENDBRANCH  12  13
ENDBRANCH   7  12
ENDBRANCH   3   6
ENDBRANCH   1   2
BRANCH   1  30
ATOM     30  C   UNL A   1      35.159  22.992  23.695  1.00  0.00     0.023 C 
BRANCH  30  31
ATOM     31  C   UNL A   1      36.662  23.199  23.849  1.00  0.00     0.023 C 
BRANCH  31  32
ATOM     32  C   UNL A   1      37.178  23.221  25.285  1.00  0.00     0.116 C 
BRANCH  32  33
ATOM     33  N   UNL A   1      38.425  22.500  25.503  1.00  0.00    -0.352 N 
ATOM     34  C   UNL A   1      39.546  22.942  26.179  1.00  0.00     0.251 C 
ATOM     35  H   UNL A   1      38.475  21.593  25.125  1.00  0.00     0.163 HD
ATOM     36  O   UNL A   1      40.547  22.245  26.258  1.00  0.00    -0.269 OA
BRANCH  34  37
ATOM     37  C   UNL A   1      39.530  24.307  26.750  1.00  0.00     0.039 A 
ATOM     38  C   UNL A   1      39.010  24.496  28.032  1.00  0.00     0.014 A 
ATOM     39  C   UNL A   1      40.148  25.360  26.071  1.00  0.00     0.014 A 
ATOM     40  C   UNL A   1      39.211  25.716  28.680  1.00  0.00     0.010 A 
ATOM     41  C   UNL A   1      40.421  26.542  26.750  1.00  0.00     0.010 A 
ATOM     42  C   UNL A   1      39.972  26.725  28.068  1.00  0.00    -0.014 A 
BRANCH  42  43
ATOM     43  C   UNL A   1      40.339  27.970  28.792  1.00  0.00     0.031 A 
ATOM     44  C   UNL A   1      41.685  28.093  29.448  1.00  0.00     0.074 A 
ATOM     45  C   UNL A   1      39.427  28.953  28.939  1.00  0.00     0.049 A 
ATOM     46  N   UNL A   1      42.152  29.058  30.199  1.00  0.00    -0.248 NA
ATOM     47  C   UNL A   1      42.615  26.968  29.264  1.00  0.00     0.031 C 
ATOM     48  C   UNL A   1      38.062  28.939  28.403  1.00  0.00     0.029 A 
ATOM     49  N   UNL A   1      39.511  30.157  29.593  1.00  0.00    -0.354 N 
ATOM     50  C   UNL A   1      43.416  28.643  30.598  1.00  0.00     0.074 A 
ATOM     51  C   UNL A   1      43.622  27.320  30.049  1.00  0.00     0.031 C 
ATOM     52  C   UNL A   1      37.452  30.092  28.722  1.00  0.00     0.029 A 
ATOM     53  C   UNL A   1      38.365  30.911  29.512  1.00  0.00     0.049 A 
ATOM     54  H   UNL A   1      40.317  30.452  30.075  1.00  0.00     0.167 HD
ATOM     55  C   UNL A   1      44.333  29.308  31.339  1.00  0.00     0.031 A 
ATOM     56  C   UNL A   1      38.081  32.126  30.019  1.00  0.00     0.031 A 
ATOM     57  C   UNL A   1      44.147  30.634  31.862  1.00  0.00     0.049 A 
ATOM     58  C   UNL A   1      39.125  32.857  30.815  1.00  0.00     0.074 A 
ATOM     59  C   UNL A   1      45.044  31.418  32.567  1.00  0.00     0.029 A 
ATOM     60  N   UNL A   1      42.984  31.375  31.729  1.00  0.00    -0.354 N 
ATOM     61  N   UNL A   1      40.339  32.476  31.130  1.00  0.00    -0.248 NA
ATOM     62  C   UNL A   1      38.761  34.190  31.316  1.00  0.00     0.031 C 
ATOM     63  C   UNL A   1      44.410  32.624  32.888  1.00  0.00     0.029 A 
ATOM     64  C   UNL A   1      43.134  32.603  32.349  1.00  0.00     0.049 A 
ATOM     65  H   UNL A   1      42.171  31.073  31.264  1.00  0.00     0.167 HD
ATOM     66  C   UNL A   1      40.893  33.531  31.843  1.00  0.00     0.074 A 
ATOM     67  C   UNL A   1      39.888  34.572  31.903  1.00  0.00     0.031 C 
ATOM     68  C   UNL A   1      42.126  33.629  32.396  1.00  0.00     0.031 A 
BRANCH  55  69
ATOM     69  C   UNL A   1      45.629  28.601  31.620  1.00  0.00    -0.014 A 
ATOM     70  C   UNL A   1      46.744  28.775  30.785  1.00  0.00     0.009 A 
ATOM     71  C   UNL A   1      45.740  27.760  32.737  1.00  0.00     0.009 A 
ATOM     72  C   UNL A   1      47.932  28.086  31.039  1.00  0.00     0.001 A 
ATOM     73  C   UNL A   1      46.938  27.095  33.005  1.00  0.00     0.001 A 
ATOM     74  C   UNL A   1      48.028  27.249  32.150  1.00  0.00     0.000 A 
ENDBRANCH  55  69
BRANCH  56  75
ATOM     75  C   UNL A   1      36.759  32.752  29.758  1.00  0.00    -0.014 A 
ATOM     76  C   UNL A   1      36.523  33.425  28.549  1.00  0.00     0.009 A 
ATOM     77  C   UNL A   1      35.734  32.690  30.714  1.00  0.00     0.009 A 
ATOM     78  C   UNL A   1      35.295  34.047  28.313  1.00  0.00     0.001 A 
ATOM     79  C   UNL A   1      34.498  33.292  30.463  1.00  0.00     0.001 A 
ATOM     80  C   UNL A   1      34.283  33.977  29.268  1.00  0.00     0.000 A 
ENDBRANCH  56  75
BRANCH  68  81
ATOM     81  C   UNL A   1      42.467  34.919  33.082  1.00  0.00    -0.014 A 
ATOM     82  C   UNL A   1      42.058  35.170  34.401  1.00  0.00     0.009 A 
ATOM     83  C   UNL A   1      43.244  35.876  32.413  1.00  0.00     0.009 A 
ATOM     84  C   UNL A   1      42.398  36.371  35.026  1.00  0.00     0.001 A 
ATOM     85  C   UNL A   1      43.603  37.066  33.049  1.00  0.00     0.001 A 
ATOM     86  C   UNL A   1      43.173  37.315  34.352  1.00  0.00     0.000 A 
ENDBRANCH  68  81
ENDBRANCH  42  43
ENDBRANCH  34  37
ENDBRANCH  32  33
ENDBRANCH  31  32
ENDBRANCH  30  31
ENDBRANCH   1  30
TORSDOF 15
ENDMDL
