MODEL 1
REMARK VINA RESULT:     -10.2      0.000      0.000
REMARK SMILES O=C(NCCCCNC(=O)[C@H]1CSC2(CCCCC2)[NH2+]1)c1ccc(-c2c3nc(c(-c4ccccc4)c4ccc([nH]4)c(-c4ccccc4)c4nc(c(-c5ccccc5)c5ccc2[nH]5)C=C4)C=C3)cc1
REMARK SMILES IDX 4 1 3 2 1 3 2 4 21 6 22 7 68 8 23 9 67 10 24 11 25 12 26 13
REMARK SMILES IDX 61 14 27 15 66 16 60 17 62 18 28 19 65 20 59 21 58 22 29 24
REMARK SMILES IDX 51 25 36 26 50 27 37 28 40 29 49 30 63 31 38 32 39 33 48 35
REMARK SMILES IDX 64 36 41 37 30 38 31 39 35 40 32 41 34 42 33 43 52 44 53 45
REMARK SMILES IDX 57 46 54 47 56 48 55 49 42 50 43 51 47 52 44 53 46 54 45 55
REMARK SMILES IDX 5 56 6 57 7 58 8 59 9 60 10 62 11 63 12 64 20 65 13 66 14 67
REMARK SMILES IDX 15 70 19 71 16 72 18 73 17 74
REMARK H PARENT 3 5 62 23 40 34 8 61 20 68 20 69
REMARK Flexibility Score: inf
ROOT
ATOM      1  C   UNL A   1      34.320  32.449  28.417  1.00  0.00     0.116 C 
ENDROOT
BRANCH   1   2
ATOM      2  N   UNL A   1      33.729  31.194  27.971  1.00  0.00    -0.352 N 
ATOM      3  O   UNL A   1      33.791  28.974  27.478  1.00  0.00    -0.269 OA
ATOM      4  C   UNL A   1      34.361  29.964  27.897  1.00  0.00     0.251 C 
ATOM      5  H   UNL A   1      32.785  31.224  27.695  1.00  0.00     0.163 HD
BRANCH   4   6
ATOM      6  C   UNL A   1      35.785  29.904  28.299  1.00  0.00     0.039 A 
ATOM      7  C   UNL A   1      36.777  30.142  27.349  1.00  0.00     0.014 A 
ATOM      8  C   UNL A   1      36.116  29.459  29.581  1.00  0.00     0.014 A 
ATOM      9  C   UNL A   1      38.080  29.751  27.619  1.00  0.00     0.010 A 
ATOM     10  C   UNL A   1      37.450  29.160  29.882  1.00  0.00     0.010 A 
ATOM     11  C   UNL A   1      38.435  29.255  28.887  1.00  0.00    -0.014 A 
BRANCH  11  12
ATOM     12  C   UNL A   1      39.851  28.884  29.135  1.00  0.00     0.031 A 
ATOM     13  C   UNL A   1      40.772  29.764  29.939  1.00  0.00     0.074 A 
ATOM     14  C   UNL A   1      40.281  27.688  28.690  1.00  0.00     0.049 A 
ATOM     15  N   UNL A   1      42.013  29.540  30.297  1.00  0.00    -0.248 NA
ATOM     16  C   UNL A   1      40.243  31.058  30.399  1.00  0.00     0.031 C 
ATOM     17  C   UNL A   1      39.482  26.748  27.899  1.00  0.00     0.029 A 
ATOM     18  N   UNL A   1      41.474  27.038  28.872  1.00  0.00    -0.354 N 
ATOM     19  C   UNL A   1      42.420  30.669  30.999  1.00  0.00     0.074 A 
ATOM     20  C   UNL A   1      41.299  31.584  31.008  1.00  0.00     0.031 C 
ATOM     21  C   UNL A   1      40.176  25.614  27.731  1.00  0.00     0.029 A 
ATOM     22  C   UNL A   1      41.492  25.773  28.336  1.00  0.00     0.049 A 
ATOM     23  H   UNL A   1      42.242  27.438  29.341  1.00  0.00     0.167 HD
ATOM     24  C   UNL A   1      43.618  30.917  31.581  1.00  0.00     0.031 A 
ATOM     25  C   UNL A   1      42.462  24.843  28.322  1.00  0.00     0.031 A 
ATOM     26  C   UNL A   1      44.732  30.003  31.580  1.00  0.00     0.049 A 
ATOM     27  C   UNL A   1      43.775  25.148  28.973  1.00  0.00     0.074 A 
ATOM     28  C   UNL A   1      45.983  30.166  32.151  1.00  0.00     0.029 A 
ATOM     29  N   UNL A   1      44.725  28.752  30.985  1.00  0.00    -0.354 N 
ATOM     30  N   UNL A   1      44.138  26.224  29.628  1.00  0.00    -0.248 NA
ATOM     31  C   UNL A   1      44.814  24.115  28.874  1.00  0.00     0.031 C 
ATOM     32  C   UNL A   1      46.746  29.028  31.869  1.00  0.00     0.029 A 
ATOM     33  C   UNL A   1      45.955  28.138  31.162  1.00  0.00     0.049 A 
ATOM     34  H   UNL A   1      43.960  28.357  30.507  1.00  0.00     0.167 HD
ATOM     35  C   UNL A   1      45.451  25.999  30.016  1.00  0.00     0.074 A 
ATOM     36  C   UNL A   1      45.806  24.671  29.556  1.00  0.00     0.031 C 
ATOM     37  C   UNL A   1      46.294  26.825  30.680  1.00  0.00     0.031 A 
BRANCH  24  38
ATOM     38  C   UNL A   1      43.807  32.247  32.257  1.00  0.00    -0.014 A 
ATOM     39  C   UNL A   1      43.538  32.413  33.625  1.00  0.00     0.009 A 
ATOM     40  C   UNL A   1      44.335  33.328  31.534  1.00  0.00     0.009 A 
ATOM     41  C   UNL A   1      43.777  33.640  34.249  1.00  0.00     0.001 A 
ATOM     42  C   UNL A   1      44.593  34.546  32.164  1.00  0.00     0.001 A 
ATOM     43  C   UNL A   1      44.311  34.704  33.520  1.00  0.00     0.000 A 
ENDBRANCH  24  38
BRANCH  25  44
ATOM     44  C   UNL A   1      42.225  23.545  27.642  1.00  0.00    -0.014 A 
ATOM     45  C   UNL A   1      42.605  23.357  26.305  1.00  0.00     0.009 A 
ATOM     46  C   UNL A   1      41.634  22.479  28.339  1.00  0.00     0.009 A 
ATOM     47  C   UNL A   1      42.380  22.131  25.675  1.00  0.00     0.001 A 
ATOM     48  C   UNL A   1      41.439  21.247  27.716  1.00  0.00     0.001 A 
ATOM     49  C   UNL A   1      41.804  21.076  26.383  1.00  0.00     0.000 A 
ENDBRANCH  25  44
BRANCH  37  50
ATOM     50  C   UNL A   1      47.675  26.302  30.944  1.00  0.00    -0.014 A 
ATOM     51  C   UNL A   1      48.003  25.734  32.185  1.00  0.00     0.009 A 
ATOM     52  C   UNL A   1      48.656  26.381  29.945  1.00  0.00     0.009 A 
ATOM     53  C   UNL A   1      49.304  25.291  32.434  1.00  0.00     0.001 A 
ATOM     54  C   UNL A   1      49.949  25.916  30.190  1.00  0.00     0.001 A 
ATOM     55  C   UNL A   1      50.274  25.382  31.437  1.00  0.00     0.000 A 
ENDBRANCH  37  50
ENDBRANCH  11  12
ENDBRANCH   4   6
ENDBRANCH   1   2
BRANCH   1  56
ATOM     56  C   UNL A   1      33.507  33.703  28.123  1.00  0.00     0.023 C 
BRANCH  56  57
ATOM     57  C   UNL A   1      34.223  35.024  28.377  1.00  0.00     0.023 C 
BRANCH  57  58
ATOM     58  C   UNL A   1      33.450  36.025  29.234  1.00  0.00     0.116 C 
BRANCH  58  59
ATOM     59  N   UNL A   1      32.755  35.461  30.365  1.00  0.00    -0.351 N 
ATOM     60  C   UNL A   1      33.116  35.391  31.678  1.00  0.00     0.279 C 
ATOM     61  H   UNL A   1      31.880  35.063  30.156  1.00  0.00     0.163 HD
ATOM     62  O   UNL A   1      32.196  35.155  32.472  1.00  0.00    -0.268 OA
BRANCH  60  63
ATOM     63  C   UNL A   1      34.572  35.505  32.203  1.00  0.00     0.283 C 
ATOM     64  C   UNL A   1      34.635  35.497  33.719  1.00  0.00     0.151 C 
ATOM     65  N   UNL A   1      35.561  34.591  31.574  1.00  0.00    -0.322 N 
ATOM     66  S   UNL A   1      35.297  33.880  34.137  1.00  0.00    -0.089 SA
ATOM     67  C   UNL A   1      36.201  33.699  32.555  1.00  0.00     0.143 C 
ATOM     68  H   UNL A   1      36.283  35.151  31.119  1.00  0.00     0.348 HD
ATOM     69  H   UNL A   1      35.063  34.009  30.900  1.00  0.00     0.348 HD
ATOM     70  C   UNL A   1      36.244  32.250  32.008  1.00  0.00     0.081 C 
ATOM     71  C   UNL A   1      37.671  34.107  32.817  1.00  0.00     0.081 C 
ATOM     72  C   UNL A   1      36.857  31.257  32.986  1.00  0.00     0.007 C 
ATOM     73  C   UNL A   1      38.400  33.134  33.767  1.00  0.00     0.007 C 
ATOM     74  C   UNL A   1      38.276  31.666  33.355  1.00  0.00     0.001 C 
ENDBRANCH  60  63
ENDBRANCH  58  59
ENDBRANCH  57  58
ENDBRANCH  56  57
ENDBRANCH   1  56
TORSDOF 11
ENDMDL
MODEL 2
REMARK VINA RESULT:     -10.2      3.772      9.097
REMARK SMILES O=C(NCCCCNC(=O)[C@H]1CSC2(CCCCC2)[NH2+]1)c1ccc(-c2c3nc(c(-c4ccccc4)c4ccc([nH]4)c(-c4ccccc4)c4nc(c(-c5ccccc5)c5ccc2[nH]5)C=C4)C=C3)cc1
REMARK SMILES IDX 4 1 3 2 1 3 2 4 21 6 22 7 68 8 23 9 67 10 24 11 25 12 26 13
REMARK SMILES IDX 61 14 27 15 66 16 60 17 62 18 28 19 65 20 59 21 58 22 29 24
REMARK SMILES IDX 51 25 36 26 50 27 37 28 40 29 49 30 63 31 38 32 39 33 48 35
REMARK SMILES IDX 64 36 41 37 30 38 31 39 35 40 32 41 34 42 33 43 52 44 53 45
REMARK SMILES IDX 57 46 54 47 56 48 55 49 42 50 43 51 47 52 44 53 46 54 45 55
REMARK SMILES IDX 5 56 6 57 7 58 8 59 9 60 10 62 11 63 12 64 20 65 13 66 14 67
REMARK SMILES IDX 15 70 19 71 16 72 18 73 17 74
REMARK H PARENT 3 5 62 23 40 34 8 61 20 68 20 69
REMARK Flexibility Score: inf
ROOT
ATOM      1  C   UNL A   1      38.638  21.134  25.702  1.00  0.00     0.116 C 
ENDROOT
BRANCH   1   2
ATOM      2  N   UNL A   1      39.471  19.948  25.553  1.00  0.00    -0.352 N 
ATOM      3  O   UNL A   1      41.423  18.794  25.733  1.00  0.00    -0.269 OA
ATOM      4  C   UNL A   1      40.797  19.819  25.929  1.00  0.00     0.251 C 
ATOM      5  H   UNL A   1      39.047  19.160  25.145  1.00  0.00     0.163 HD
BRANCH   4   6
ATOM      6  C   UNL A   1      41.452  21.001  26.535  1.00  0.00     0.039 A 
ATOM      7  C   UNL A   1      41.419  21.169  27.919  1.00  0.00     0.014 A 
ATOM      8  C   UNL A   1      41.956  22.006  25.706  1.00  0.00     0.014 A 
ATOM      9  C   UNL A   1      41.708  22.415  28.457  1.00  0.00     0.010 A 
ATOM     10  C   UNL A   1      42.342  23.229  26.265  1.00  0.00     0.010 A 
ATOM     11  C   UNL A   1      42.173  23.461  27.639  1.00  0.00    -0.014 A 
BRANCH  11  12
ATOM     12  C   UNL A   1      42.504  24.764  28.270  1.00  0.00     0.031 A 
ATOM     13  C   UNL A   1      43.917  25.130  28.641  1.00  0.00     0.074 A 
ATOM     14  C   UNL A   1      41.511  25.660  28.432  1.00  0.00     0.049 A 
ATOM     15  N   UNL A   1      44.367  26.257  29.135  1.00  0.00    -0.248 NA
ATOM     16  C   UNL A   1      44.957  24.109  28.438  1.00  0.00     0.031 C 
ATOM     17  C   UNL A   1      40.102  25.421  28.110  1.00  0.00     0.029 A 
ATOM     18  N   UNL A   1      41.537  26.961  28.863  1.00  0.00    -0.354 N 
ATOM     19  C   UNL A   1      45.733  26.074  29.325  1.00  0.00     0.074 A 
ATOM     20  C   UNL A   1      46.038  24.723  28.905  1.00  0.00     0.031 C 
ATOM     21  C   UNL A   1      39.413  26.558  28.282  1.00  0.00     0.029 A 
ATOM     22  C   UNL A   1      40.315  27.582  28.792  1.00  0.00     0.049 A 
ATOM     23  H   UNL A   1      42.352  27.406  29.191  1.00  0.00     0.167 HD
ATOM     24  C   UNL A   1      46.646  26.953  29.805  1.00  0.00     0.031 A 
ATOM     25  C   UNL A   1      39.951  28.836  29.111  1.00  0.00     0.031 A 
ATOM     26  C   UNL A   1      46.345  28.301  30.216  1.00  0.00     0.049 A 
ATOM     27  C   UNL A   1      40.983  29.782  29.641  1.00  0.00     0.074 A 
ATOM     28  C   UNL A   1      47.207  29.266  30.709  1.00  0.00     0.029 A 
ATOM     29  N   UNL A   1      45.085  28.876  30.173  1.00  0.00    -0.354 N 
ATOM     30  N   UNL A   1      42.267  29.586  29.816  1.00  0.00    -0.248 NA
ATOM     31  C   UNL A   1      40.513  31.119  30.027  1.00  0.00     0.031 C 
ATOM     32  C   UNL A   1      46.461  30.413  31.000  1.00  0.00     0.029 A 
ATOM     33  C   UNL A   1      45.144  30.178  30.645  1.00  0.00     0.049 A 
ATOM     34  H   UNL A   1      44.269  28.427  29.855  1.00  0.00     0.167 HD
ATOM     35  C   UNL A   1      42.758  30.774  30.337  1.00  0.00     0.074 A 
ATOM     36  C   UNL A   1      41.642  31.696  30.413  1.00  0.00     0.031 C 
ATOM     37  C   UNL A   1      44.020  31.071  30.731  1.00  0.00     0.031 A 
BRANCH  24  38
ATOM     38  C   UNL A   1      48.068  26.482  29.941  1.00  0.00    -0.014 A 
ATOM     39  C   UNL A   1      48.516  25.851  31.111  1.00  0.00     0.009 A 
ATOM     40  C   UNL A   1      48.948  26.603  28.855  1.00  0.00     0.009 A 
ATOM     41  C   UNL A   1      49.824  25.365  31.196  1.00  0.00     0.001 A 
ATOM     42  C   UNL A   1      50.248  26.099  28.934  1.00  0.00     0.001 A 
ATOM     43  C   UNL A   1      50.687  25.484  30.106  1.00  0.00     0.000 A 
ENDBRANCH  24  38
BRANCH  25  44
ATOM     44  C   UNL A   1      38.534  29.251  28.959  1.00  0.00    -0.014 A 
ATOM     45  C   UNL A   1      38.049  29.707  27.725  1.00  0.00     0.009 A 
ATOM     46  C   UNL A   1      37.653  29.173  30.050  1.00  0.00     0.009 A 
ATOM     47  C   UNL A   1      36.714  30.093  27.591  1.00  0.00     0.001 A 
ATOM     48  C   UNL A   1      36.313  29.530  29.906  1.00  0.00     0.001 A 
ATOM     49  C   UNL A   1      35.846  29.997  28.680  1.00  0.00     0.000 A 
ENDBRANCH  25  44
BRANCH  37  50
ATOM     50  C   UNL A   1      44.244  32.451  31.276  1.00  0.00    -0.014 A 
ATOM     51  C   UNL A   1      44.590  33.512  30.424  1.00  0.00     0.009 A 
ATOM     52  C   UNL A   1      44.110  32.692  32.650  1.00  0.00     0.009 A 
ATOM     53  C   UNL A   1      44.840  34.782  30.947  1.00  0.00     0.001 A 
ATOM     54  C   UNL A   1      44.338  33.968  33.167  1.00  0.00     0.001 A 
ATOM     55  C   UNL A   1      44.713  35.008  32.317  1.00  0.00     0.000 A 
ENDBRANCH  37  50
ENDBRANCH  11  12
ENDBRANCH   4   6
ENDBRANCH   1   2
BRANCH   1  56
ATOM     56  C   UNL A   1      37.447  21.228  24.755  1.00  0.00     0.023 C 
BRANCH  56  57
ATOM     57  C   UNL A   1      37.027  22.641  24.369  1.00  0.00     0.023 C 
BRANCH  57  58
ATOM     58  C   UNL A   1      36.958  23.634  25.528  1.00  0.00     0.116 C 
BRANCH  58  59
ATOM     59  N   UNL A   1      35.934  23.369  26.509  1.00  0.00    -0.351 N 
ATOM     60  C   UNL A   1      34.580  23.504  26.431  1.00  0.00     0.279 C 
ATOM     61  H   UNL A   1      36.267  23.036  27.373  1.00  0.00     0.163 HD
ATOM     62  O   UNL A   1      33.932  22.898  27.294  1.00  0.00    -0.268 OA
BRANCH  60  63
ATOM     63  C   UNL A   1      33.839  24.407  25.409  1.00  0.00     0.283 C 
ATOM     64  C   UNL A   1      32.338  24.185  25.434  1.00  0.00     0.151 C 
ATOM     65  N   UNL A   1      34.216  25.845  25.422  1.00  0.00    -0.322 N 
ATOM     66  S   UNL A   1      31.676  25.652  26.232  1.00  0.00    -0.089 SA
ATOM     67  C   UNL A   1      33.068  26.721  25.712  1.00  0.00     0.143 C 
ATOM     68  H   UNL A   1      34.595  26.094  24.508  1.00  0.00     0.348 HD
ATOM     69  H   UNL A   1      34.906  25.980  26.161  1.00  0.00     0.348 HD
ATOM     70  C   UNL A   1      33.469  27.797  26.753  1.00  0.00     0.081 C 
ATOM     71  C   UNL A   1      32.609  27.490  24.450  1.00  0.00     0.081 C 
ATOM     72  C   UNL A   1      32.320  28.719  27.137  1.00  0.00     0.007 C 
ATOM     73  C   UNL A   1      31.471  28.490  24.741  1.00  0.00     0.007 C 
ATOM     74  C   UNL A   1      31.765  29.431  25.911  1.00  0.00     0.001 C 
ENDBRANCH  60  63
ENDBRANCH  58  59
ENDBRANCH  57  58
ENDBRANCH  56  57
ENDBRANCH   1  56
TORSDOF 11
ENDMDL
MODEL 3
REMARK VINA RESULT:     -10.1      0.583      6.217
REMARK SMILES O=C(NCCCCNC(=O)[C@H]1CSC2(CCCCC2)[NH2+]1)c1ccc(-c2c3nc(c(-c4ccccc4)c4ccc([nH]4)c(-c4ccccc4)c4nc(c(-c5ccccc5)c5ccc2[nH]5)C=C4)C=C3)cc1
REMARK SMILES IDX 4 1 3 2 1 3 2 4 21 6 22 7 68 8 23 9 67 10 24 11 25 12 26 13
REMARK SMILES IDX 61 14 27 15 66 16 60 17 62 18 28 19 65 20 59 21 58 22 29 24
REMARK SMILES IDX 51 25 36 26 50 27 37 28 40 29 49 30 63 31 38 32 39 33 48 35
REMARK SMILES IDX 64 36 41 37 30 38 31 39 35 40 32 41 34 42 33 43 52 44 53 45
REMARK SMILES IDX 57 46 54 47 56 48 55 49 42 50 43 51 47 52 44 53 46 54 45 55
REMARK SMILES IDX 5 56 6 57 7 58 8 59 9 60 10 62 11 63 12 64 20 65 13 66 14 67
REMARK SMILES IDX 15 70 19 71 16 72 18 73 17 74
REMARK H PARENT 3 5 62 23 40 34 8 61 20 68 20 69
REMARK Flexibility Score: inf
ROOT
ATOM      1  C   UNL A   1      34.475  32.464  28.159  1.00  0.00     0.116 C 
ENDROOT
BRANCH   1   2
ATOM      2  N   UNL A   1      33.850  31.195  27.811  1.00  0.00    -0.352 N 
ATOM      3  O   UNL A   1      33.850  28.941  27.502  1.00  0.00    -0.269 OA
ATOM      4  C   UNL A   1      34.446  29.945  27.845  1.00  0.00     0.251 C 
ATOM      5  H   UNL A   1      32.910  31.230  27.523  1.00  0.00     0.163 HD
BRANCH   4   6
ATOM      6  C   UNL A   1      35.864  29.877  28.267  1.00  0.00     0.039 A 
ATOM      7  C   UNL A   1      36.870  30.095  27.326  1.00  0.00     0.014 A 
ATOM      8  C   UNL A   1      36.174  29.444  29.558  1.00  0.00     0.014 A 
ATOM      9  C   UNL A   1      38.166  29.695  27.618  1.00  0.00     0.010 A 
ATOM     10  C   UNL A   1      37.501  29.136  29.879  1.00  0.00     0.010 A 
ATOM     11  C   UNL A   1      38.500  29.210  28.896  1.00  0.00    -0.014 A 
BRANCH  11  12
ATOM     12  C   UNL A   1      39.909  28.830  29.168  1.00  0.00     0.031 A 
ATOM     13  C   UNL A   1      40.471  27.503  28.729  1.00  0.00     0.074 A 
ATOM     14  C   UNL A   1      40.711  29.741  29.751  1.00  0.00     0.049 A 
ATOM     15  N   UNL A   1      41.700  27.060  28.835  1.00  0.00    -0.248 NA
ATOM     16  C   UNL A   1      39.545  26.551  28.096  1.00  0.00     0.031 C 
ATOM     17  C   UNL A   1      40.282  31.061  30.221  1.00  0.00     0.029 A 
ATOM     18  N   UNL A   1      42.057  29.719  30.010  1.00  0.00    -0.354 N 
ATOM     19  C   UNL A   1      41.690  25.773  28.307  1.00  0.00     0.074 A 
ATOM     20  C   UNL A   1      40.331  25.500  27.891  1.00  0.00     0.031 C 
ATOM     21  C   UNL A   1      41.353  31.749  30.638  1.00  0.00     0.029 A 
ATOM     22  C   UNL A   1      42.530  30.897  30.533  1.00  0.00     0.049 A 
ATOM     23  H   UNL A   1      42.628  28.935  29.836  1.00  0.00     0.167 HD
ATOM     24  C   UNL A   1      42.721  24.902  28.181  1.00  0.00     0.031 A 
ATOM     25  C   UNL A   1      43.773  31.255  30.900  1.00  0.00     0.031 A 
ATOM     26  C   UNL A   1      44.076  25.176  28.587  1.00  0.00     0.049 A 
ATOM     27  C   UNL A   1      44.889  30.269  30.751  1.00  0.00     0.074 A 
ATOM     28  C   UNL A   1      45.188  24.356  28.492  1.00  0.00     0.029 A 
ATOM     29  N   UNL A   1      44.504  26.364  29.157  1.00  0.00    -0.354 N 
ATOM     30  N   UNL A   1      44.856  29.057  30.252  1.00  0.00    -0.248 NA
ATOM     31  C   UNL A   1      46.212  30.697  31.223  1.00  0.00     0.031 C 
ATOM     32  C   UNL A   1      46.282  25.035  29.039  1.00  0.00     0.029 A 
ATOM     33  C   UNL A   1      45.861  26.293  29.433  1.00  0.00     0.049 A 
ATOM     34  H   UNL A   1      43.930  27.143  29.339  1.00  0.00     0.167 HD
ATOM     35  C   UNL A   1      46.153  28.575  30.355  1.00  0.00     0.074 A 
ATOM     36  C   UNL A   1      46.954  29.639  30.927  1.00  0.00     0.031 C 
ATOM     37  C   UNL A   1      46.635  27.354  30.020  1.00  0.00     0.031 A 
BRANCH  24  38
ATOM     38  C   UNL A   1      42.426  23.547  27.599  1.00  0.00    -0.014 A 
ATOM     39  C   UNL A   1      41.868  22.525  28.381  1.00  0.00     0.009 A 
ATOM     40  C   UNL A   1      42.639  23.315  26.231  1.00  0.00     0.009 A 
ATOM     41  C   UNL A   1      41.544  21.292  27.808  1.00  0.00     0.001 A 
ATOM     42  C   UNL A   1      42.296  22.090  25.656  1.00  0.00     0.001 A 
ATOM     43  C   UNL A   1      41.752  21.078  26.446  1.00  0.00     0.000 A 
ENDBRANCH  24  38
BRANCH  25  44
ATOM     44  C   UNL A   1      44.011  32.604  31.470  1.00  0.00    -0.014 A 
ATOM     45  C   UNL A   1      44.328  33.687  30.638  1.00  0.00     0.009 A 
ATOM     46  C   UNL A   1      43.902  32.817  32.854  1.00  0.00     0.009 A 
ATOM     47  C   UNL A   1      44.547  34.954  31.184  1.00  0.00     0.001 A 
ATOM     48  C   UNL A   1      44.092  34.089  33.392  1.00  0.00     0.001 A 
ATOM     49  C   UNL A   1      44.422  35.154  32.558  1.00  0.00     0.000 A 
ENDBRANCH  25  44
BRANCH  37  50
ATOM     50  C   UNL A   1      48.096  27.120  30.267  1.00  0.00    -0.014 A 
ATOM     51  C   UNL A   1      49.052  27.464  29.299  1.00  0.00     0.009 A 
ATOM     52  C   UNL A   1      48.519  26.549  31.475  1.00  0.00     0.009 A 
ATOM     53  C   UNL A   1      50.405  27.200  29.521  1.00  0.00     0.001 A 
ATOM     54  C   UNL A   1      49.875  26.308  31.704  1.00  0.00     0.001 A 
ATOM     55  C   UNL A   1      50.814  26.624  30.723  1.00  0.00     0.000 A 
ENDBRANCH  37  50
ENDBRANCH  11  12
ENDBRANCH   4   6
ENDBRANCH   1   2
BRANCH   1  56
ATOM     56  C   UNL A   1      33.593  33.698  28.007  1.00  0.00     0.023 C 
BRANCH  56  57
ATOM     57  C   UNL A   1      34.255  35.024  28.361  1.00  0.00     0.023 C 
BRANCH  57  58
ATOM     58  C   UNL A   1      33.375  35.997  29.144  1.00  0.00     0.116 C 
BRANCH  58  59
ATOM     59  N   UNL A   1      32.692  35.432  30.282  1.00  0.00    -0.351 N 
ATOM     60  C   UNL A   1      33.064  35.367  31.592  1.00  0.00     0.279 C 
ATOM     61  H   UNL A   1      31.817  35.030  30.080  1.00  0.00     0.163 HD
ATOM     62  O   UNL A   1      32.152  35.128  32.394  1.00  0.00    -0.268 OA
BRANCH  60  63
ATOM     63  C   UNL A   1      34.524  35.489  32.105  1.00  0.00     0.283 C 
ATOM     64  C   UNL A   1      34.599  35.486  33.620  1.00  0.00     0.151 C 
ATOM     65  N   UNL A   1      35.512  34.578  31.470  1.00  0.00    -0.322 N 
ATOM     66  S   UNL A   1      35.272  33.874  34.038  1.00  0.00    -0.089 SA
ATOM     67  C   UNL A   1      36.164  33.692  32.449  1.00  0.00     0.143 C 
ATOM     68  H   UNL A   1      36.227  35.140  31.008  1.00  0.00     0.348 HD
ATOM     69  H   UNL A   1      35.011  33.992  30.803  1.00  0.00     0.348 HD
ATOM     70  C   UNL A   1      36.210  32.242  31.906  1.00  0.00     0.081 C 
ATOM     71  C   UNL A   1      37.634  34.108  32.698  1.00  0.00     0.081 C 
ATOM     72  C   UNL A   1      36.835  31.254  32.882  1.00  0.00     0.007 C 
ATOM     73  C   UNL A   1      38.375  33.142  33.644  1.00  0.00     0.007 C 
ATOM     74  C   UNL A   1      38.255  31.671  33.238  1.00  0.00     0.001 C 
ENDBRANCH  60  63
ENDBRANCH  58  59
ENDBRANCH  57  58
ENDBRANCH  56  57
ENDBRANCH   1  56
TORSDOF 11
ENDMDL
