MODEL 1
REMARK VINA RESULT:     -11.5      0.000      0.000
REMARK SMILES O=C(NCCCCNC(=O)c1ccc(-c2c3nc(c(-c4ccccc4)c4ccc([nH]4)c(-c4ccccc4)c4nc(c(-c5ccccc5)c5ccc2[nH]5)C=C4)C=C3)cc1)C1=Cc2c(Cl)cc(Cl)cc2O[C@@H]1C(F)(F)F
REMARK SMILES IDX 6 1 5 2 4 3 3 4 1 5 2 6 59 8 60 9 70 10 61 11 69 12 62 13
REMARK SMILES IDX 68 14 63 15 64 16 67 17 65 18 66 19 71 20 72 21 73 22 74 23
REMARK SMILES IDX 7 24 8 25 9 26 10 28 11 29 12 30 58 31 13 32 57 33 14 34
REMARK SMILES IDX 15 35 16 36 51 37 17 38 56 39 50 40 52 41 18 42 55 43 49 44
REMARK SMILES IDX 48 45 19 47 41 48 26 49 40 50 27 51 30 52 39 53 53 54 28 55
REMARK SMILES IDX 29 56 38 58 54 59 31 60 20 61 21 62 25 63 22 64 24 65 23 66
REMARK SMILES IDX 42 67 43 68 47 69 44 70 46 71 45 72 32 73 33 74 37 75 34 76
REMARK SMILES IDX 36 77 35 78
REMARK H PARENT 3 7 8 27 52 46 30 57
REMARK Flexibility Score: inf
ROOT
ATOM      1  C   UNL A   1      37.404  20.925  24.709  1.00  0.00     0.023 C 
ENDROOT
BRANCH   1   2
ATOM      2  C   UNL A   1      36.296  19.898  24.925  1.00  0.00     0.023 C 
BRANCH   2   3
ATOM      3  C   UNL A   1      34.908  20.485  25.180  1.00  0.00     0.116 C 
BRANCH   3   4
ATOM      4  N   UNL A   1      34.735  21.080  26.504  1.00  0.00    -0.352 N 
ATOM      5  O   UNL A   1      33.889  22.534  28.024  1.00  0.00    -0.270 OA
ATOM      6  C   UNL A   1      34.185  22.293  26.860  1.00  0.00     0.251 C 
ATOM      7  H   UNL A   1      35.058  20.531  27.255  1.00  0.00     0.163 HD
BRANCH   6   8
ATOM      8  C   UNL A   1      33.819  23.236  25.780  1.00  0.00     0.067 C 
ATOM      9  C   UNL A   1      32.553  23.640  25.605  1.00  0.00     0.027 C 
ATOM     10  C   UNL A   1      34.941  23.953  25.100  1.00  0.00     0.314 C 
ATOM     11  C   UNL A   1      32.444  25.122  25.650  1.00  0.00     0.036 A 
ATOM     12  O   UNL A   1      34.882  25.374  25.357  1.00  0.00    -0.475 OA
ATOM     13  C   UNL A   1      31.267  25.747  26.117  1.00  0.00     0.053 A 
ATOM     14  C   UNL A   1      33.634  25.889  25.627  1.00  0.00     0.130 A 
ATOM     15  Cl  UNL A   1      29.779  24.884  26.323  1.00  0.00    -0.083 Cl
ATOM     16  C   UNL A   1      31.297  27.065  26.588  1.00  0.00     0.042 A 
ATOM     17  C   UNL A   1      33.651  27.212  26.072  1.00  0.00     0.067 A 
ATOM     18  C   UNL A   1      32.488  27.784  26.573  1.00  0.00     0.046 A 
ATOM     19  Cl  UNL A   1      32.543  29.361  27.253  1.00  0.00    -0.084 Cl
BRANCH  10  20
ATOM     20  C   UNL A   1      34.955  23.666  23.586  1.00  0.00     0.429 C 
ATOM     21  F   UNL A   1      34.472  24.721  22.886  1.00  0.00    -0.167 F 
ATOM     22  F   UNL A   1      36.207  23.429  23.128  1.00  0.00    -0.167 F 
ATOM     23  F   UNL A   1      34.199  22.591  23.257  1.00  0.00    -0.167 F 
ENDBRANCH  10  20
ENDBRANCH   6   8
ENDBRANCH   3   4
ENDBRANCH   2   3
ENDBRANCH   1   2
BRANCH   1  24
ATOM     24  C   UNL A   1      38.522  20.949  25.750  1.00  0.00     0.116 C 
BRANCH  24  25
ATOM     25  N   UNL A   1      39.449  19.828  25.678  1.00  0.00    -0.352 N 
ATOM     26  C   UNL A   1      40.779  19.787  26.041  1.00  0.00     0.251 C 
ATOM     27  H   UNL A   1      39.078  18.987  25.323  1.00  0.00     0.163 HD
ATOM     28  O   UNL A   1      41.445  18.769  25.865  1.00  0.00    -0.269 OA
BRANCH  26  29
ATOM     29  C   UNL A   1      41.418  21.004  26.587  1.00  0.00     0.039 A 
ATOM     30  C   UNL A   1      42.005  21.913  25.704  1.00  0.00     0.014 A 
ATOM     31  C   UNL A   1      41.347  21.290  27.953  1.00  0.00     0.014 A 
ATOM     32  C   UNL A   1      42.418  23.161  26.175  1.00  0.00     0.010 A 
ATOM     33  C   UNL A   1      41.683  22.562  28.403  1.00  0.00     0.010 A 
ATOM     34  C   UNL A   1      42.204  23.518  27.517  1.00  0.00    -0.014 A 
BRANCH  34  35
ATOM     35  C   UNL A   1      42.491  24.890  28.008  1.00  0.00     0.031 A 
ATOM     36  C   UNL A   1      43.887  25.266  28.419  1.00  0.00     0.074 A 
ATOM     37  C   UNL A   1      41.482  25.772  28.160  1.00  0.00     0.049 A 
ATOM     38  N   UNL A   1      44.318  26.380  28.955  1.00  0.00    -0.248 NA
ATOM     39  C   UNL A   1      44.932  24.247  28.229  1.00  0.00     0.031 C 
ATOM     40  C   UNL A   1      40.072  25.518  27.848  1.00  0.00     0.029 A 
ATOM     41  N   UNL A   1      41.488  27.064  28.628  1.00  0.00    -0.354 N 
ATOM     42  C   UNL A   1      45.675  26.187  29.184  1.00  0.00     0.074 A 
ATOM     43  C   UNL A   1      45.985  24.834  28.777  1.00  0.00     0.031 C 
ATOM     44  C   UNL A   1      39.357  26.626  28.105  1.00  0.00     0.029 A 
ATOM     45  C   UNL A   1      40.245  27.655  28.634  1.00  0.00     0.049 A 
ATOM     46  H   UNL A   1      42.303  27.524  28.929  1.00  0.00     0.167 HD
ATOM     47  C   UNL A   1      46.587  27.062  29.668  1.00  0.00     0.031 A 
ATOM     48  C   UNL A   1      39.866  28.886  29.027  1.00  0.00     0.031 A 
ATOM     49  C   UNL A   1      46.286  28.414  30.054  1.00  0.00     0.049 A 
ATOM     50  C   UNL A   1      40.901  29.843  29.547  1.00  0.00     0.074 A 
ATOM     51  C   UNL A   1      47.151  29.391  30.518  1.00  0.00     0.029 A 
ATOM     52  N   UNL A   1      45.023  28.983  30.010  1.00  0.00    -0.354 N 
ATOM     53  N   UNL A   1      42.189  29.660  29.706  1.00  0.00    -0.248 NA
ATOM     54  C   UNL A   1      40.432  31.182  29.930  1.00  0.00     0.031 C 
ATOM     55  C   UNL A   1      46.404  30.543  30.783  1.00  0.00     0.029 A 
ATOM     56  C   UNL A   1      45.084  30.296  30.443  1.00  0.00     0.049 A 
ATOM     57  H   UNL A   1      44.206  28.522  29.714  1.00  0.00     0.167 HD
ATOM     58  C   UNL A   1      42.687  30.868  30.176  1.00  0.00     0.074 A 
ATOM     59  C   UNL A   1      41.567  31.780  30.263  1.00  0.00     0.031 C 
ATOM     60  C   UNL A   1      43.960  31.192  30.507  1.00  0.00     0.031 A 
BRANCH  47  61
ATOM     61  C   UNL A   1      48.003  26.581  29.796  1.00  0.00    -0.014 A 
ATOM     62  C   UNL A   1      48.449  25.954  30.971  1.00  0.00     0.009 A 
ATOM     63  C   UNL A   1      48.893  26.722  28.721  1.00  0.00     0.009 A 
ATOM     64  C   UNL A   1      49.768  25.511  31.079  1.00  0.00     0.001 A 
ATOM     65  C   UNL A   1      50.204  26.251  28.821  1.00  0.00     0.001 A 
ATOM     66  C   UNL A   1      50.642  25.655  30.003  1.00  0.00     0.000 A 
ENDBRANCH  47  61
BRANCH  48  67
ATOM     67  C   UNL A   1      38.441  29.301  28.928  1.00  0.00    -0.014 A 
ATOM     68  C   UNL A   1      37.916  29.753  27.706  1.00  0.00     0.009 A 
ATOM     69  C   UNL A   1      37.607  29.278  30.056  1.00  0.00     0.009 A 
ATOM     70  C   UNL A   1      36.598  30.205  27.625  1.00  0.00     0.001 A 
ATOM     71  C   UNL A   1      36.280  29.705  29.965  1.00  0.00     0.001 A 
ATOM     72  C   UNL A   1      35.780  30.179  28.754  1.00  0.00     0.000 A 
ENDBRANCH  48  67
BRANCH  60  73
ATOM     73  C   UNL A   1      44.216  32.605  30.946  1.00  0.00    -0.014 A 
ATOM     74  C   UNL A   1      44.519  33.613  30.018  1.00  0.00     0.009 A 
ATOM     75  C   UNL A   1      44.110  32.936  32.306  1.00  0.00     0.009 A 
ATOM     76  C   UNL A   1      44.741  34.922  30.449  1.00  0.00     0.001 A 
ATOM     77  C   UNL A   1      44.307  34.250  32.730  1.00  0.00     0.001 A 
ATOM     78  C   UNL A   1      44.631  35.240  31.803  1.00  0.00     0.000 A 
ENDBRANCH  60  73
ENDBRANCH  34  35
ENDBRANCH  26  29
ENDBRANCH  24  25
ENDBRANCH   1  24
TORSDOF 12
ENDMDL
MODEL 2
REMARK VINA RESULT:     -11.5      0.386      5.941
REMARK SMILES O=C(NCCCCNC(=O)c1ccc(-c2c3nc(c(-c4ccccc4)c4ccc([nH]4)c(-c4ccccc4)c4nc(c(-c5ccccc5)c5ccc2[nH]5)C=C4)C=C3)cc1)C1=Cc2c(Cl)cc(Cl)cc2O[C@@H]1C(F)(F)F
REMARK SMILES IDX 6 1 5 2 4 3 3 4 1 5 2 6 59 8 60 9 70 10 61 11 69 12 62 13
REMARK SMILES IDX 68 14 63 15 64 16 67 17 65 18 66 19 71 20 72 21 73 22 74 23
REMARK SMILES IDX 7 24 8 25 9 26 10 28 11 29 12 30 58 31 13 32 57 33 14 34
REMARK SMILES IDX 15 35 16 36 51 37 17 38 56 39 50 40 52 41 18 42 55 43 49 44
REMARK SMILES IDX 48 45 19 47 41 48 26 49 40 50 27 51 30 52 39 53 53 54 28 55
REMARK SMILES IDX 29 56 38 58 54 59 31 60 20 61 21 62 25 63 22 64 24 65 23 66
REMARK SMILES IDX 42 67 43 68 47 69 44 70 46 71 45 72 32 73 33 74 37 75 34 76
REMARK SMILES IDX 36 77 35 78
REMARK H PARENT 3 7 8 27 52 46 30 57
REMARK Flexibility Score: inf
ROOT
ATOM      1  C   UNL A   1      37.416  21.233  24.808  1.00  0.00     0.023 C 
ENDROOT
BRANCH   1   2
ATOM      2  C   UNL A   1      36.344  20.157  24.963  1.00  0.00     0.023 C 
BRANCH   2   3
ATOM      3  C   UNL A   1      34.919  20.682  25.137  1.00  0.00     0.116 C 
BRANCH   3   4
ATOM      4  N   UNL A   1      34.627  21.214  26.467  1.00  0.00    -0.352 N 
ATOM      5  O   UNL A   1      33.618  22.572  27.975  1.00  0.00    -0.270 OA
ATOM      6  C   UNL A   1      34.008  22.392  26.828  1.00  0.00     0.251 C 
ATOM      7  H   UNL A   1      34.914  20.645  27.217  1.00  0.00     0.163 HD
BRANCH   6   8
ATOM      8  C   UNL A   1      33.688  23.367  25.761  1.00  0.00     0.067 C 
ATOM      9  C   UNL A   1      32.438  23.814  25.575  1.00  0.00     0.027 C 
ATOM     10  C   UNL A   1      34.843  24.062  25.114  1.00  0.00     0.314 C 
ATOM     11  C   UNL A   1      32.374  25.297  25.649  1.00  0.00     0.036 A 
ATOM     12  O   UNL A   1      34.822  25.478  25.399  1.00  0.00    -0.475 OA
ATOM     13  C   UNL A   1      31.210  25.948  26.111  1.00  0.00     0.053 A 
ATOM     14  C   UNL A   1      33.587  26.027  25.660  1.00  0.00     0.130 A 
ATOM     15  Cl  UNL A   1      29.692  25.128  26.275  1.00  0.00    -0.083 Cl
ATOM     16  C   UNL A   1      31.272  27.255  26.608  1.00  0.00     0.042 A 
ATOM     17  C   UNL A   1      33.638  27.340  26.132  1.00  0.00     0.067 A 
ATOM     18  C   UNL A   1      32.484  27.937  26.626  1.00  0.00     0.046 A 
ATOM     19  Cl  UNL A   1      32.577  29.498  27.339  1.00  0.00    -0.084 Cl
BRANCH  10  20
ATOM     20  C   UNL A   1      34.872  23.805  23.595  1.00  0.00     0.429 C 
ATOM     21  F   UNL A   1      36.127  23.521  23.172  1.00  0.00    -0.167 F 
ATOM     22  F   UNL A   1      34.091  22.756  23.245  1.00  0.00    -0.167 F 
ATOM     23  F   UNL A   1      34.446  24.875  22.882  1.00  0.00    -0.167 F 
ENDBRANCH  10  20
ENDBRANCH   6   8
ENDBRANCH   3   4
ENDBRANCH   2   3
ENDBRANCH   1   2
BRANCH   1  24
ATOM     24  C   UNL A   1      38.586  21.175  25.789  1.00  0.00     0.116 C 
BRANCH  24  25
ATOM     25  N   UNL A   1      39.454  20.015  25.638  1.00  0.00    -0.352 N 
ATOM     26  C   UNL A   1      40.785  19.888  25.976  1.00  0.00     0.251 C 
ATOM     27  H   UNL A   1      39.037  19.216  25.242  1.00  0.00     0.163 HD
ATOM     28  O   UNL A   1      41.397  18.850  25.731  1.00  0.00    -0.269 OA
BRANCH  26  29
ATOM     29  C   UNL A   1      41.491  21.038  26.580  1.00  0.00     0.039 A 
ATOM     30  C   UNL A   1      42.087  21.983  25.739  1.00  0.00     0.014 A 
ATOM     31  C   UNL A   1      41.478  21.233  27.963  1.00  0.00     0.014 A 
ATOM     32  C   UNL A   1      42.567  23.178  26.278  1.00  0.00     0.010 A 
ATOM     33  C   UNL A   1      41.881  22.457  28.486  1.00  0.00     0.010 A 
ATOM     34  C   UNL A   1      42.412  23.450  27.647  1.00  0.00    -0.014 A 
BRANCH  34  35
ATOM     35  C   UNL A   1      42.772  24.773  28.219  1.00  0.00     0.031 A 
ATOM     36  C   UNL A   1      41.715  25.825  28.406  1.00  0.00     0.074 A 
ATOM     37  C   UNL A   1      44.061  25.056  28.496  1.00  0.00     0.049 A 
ATOM     38  N   UNL A   1      41.846  27.065  28.804  1.00  0.00    -0.248 NA
ATOM     39  C   UNL A   1      40.332  25.443  28.075  1.00  0.00     0.031 C 
ATOM     40  C   UNL A   1      45.193  24.142  28.313  1.00  0.00     0.029 A 
ATOM     41  N   UNL A   1      44.640  26.202  28.984  1.00  0.00    -0.354 N 
ATOM     42  C   UNL A   1      40.570  27.614  28.751  1.00  0.00     0.074 A 
ATOM     43  C   UNL A   1      39.689  26.589  28.235  1.00  0.00     0.031 C 
ATOM     44  C   UNL A   1      46.322  24.754  28.710  1.00  0.00     0.029 A 
ATOM     45  C   UNL A   1      46.003  26.110  29.139  1.00  0.00     0.049 A 
ATOM     46  H   UNL A   1      44.127  27.013  29.203  1.00  0.00     0.167 HD
ATOM     47  C   UNL A   1      40.162  28.851  29.120  1.00  0.00     0.031 A 
ATOM     48  C   UNL A   1      46.896  27.020  29.574  1.00  0.00     0.031 A 
ATOM     49  C   UNL A   1      41.031  29.865  29.652  1.00  0.00     0.049 A 
ATOM     50  C   UNL A   1      46.415  28.381  29.991  1.00  0.00     0.074 A 
ATOM     51  C   UNL A   1      40.705  31.136  30.092  1.00  0.00     0.029 A 
ATOM     52  N   UNL A   1      42.398  29.717  29.827  1.00  0.00    -0.354 N 
ATOM     53  N   UNL A   1      45.196  28.864  29.984  1.00  0.00    -0.248 NA
ATOM     54  C   UNL A   1      47.431  29.320  30.487  1.00  0.00     0.031 C 
ATOM     55  C   UNL A   1      41.881  31.769  30.506  1.00  0.00     0.029 A 
ATOM     56  C   UNL A   1      42.930  30.876  30.364  1.00  0.00     0.049 A 
ATOM     57  H   UNL A   1      42.912  28.909  29.603  1.00  0.00     0.167 HD
ATOM     58  C   UNL A   1      45.295  30.147  30.504  1.00  0.00     0.074 A 
ATOM     59  C   UNL A   1      46.689  30.364  30.829  1.00  0.00     0.031 C 
ATOM     60  C   UNL A   1      44.318  31.066  30.695  1.00  0.00     0.031 A 
BRANCH  47  61
ATOM     61  C   UNL A   1      38.703  29.169  28.966  1.00  0.00    -0.014 A 
ATOM     62  C   UNL A   1      37.815  29.019  30.045  1.00  0.00     0.009 A 
ATOM     63  C   UNL A   1      38.213  29.655  27.745  1.00  0.00     0.009 A 
ATOM     64  C   UNL A   1      36.460  29.317  29.891  1.00  0.00     0.001 A 
ATOM     65  C   UNL A   1      36.863  29.979  27.603  1.00  0.00     0.001 A 
ATOM     66  C   UNL A   1      35.986  29.801  28.672  1.00  0.00     0.000 A 
ENDBRANCH  47  61
BRANCH  48  67
ATOM     67  C   UNL A   1      48.340  26.675  29.662  1.00  0.00    -0.014 A 
ATOM     68  C   UNL A   1      49.203  26.953  28.590  1.00  0.00     0.009 A 
ATOM     69  C   UNL A   1      48.858  26.041  30.802  1.00  0.00     0.009 A 
ATOM     70  C   UNL A   1      50.545  26.570  28.643  1.00  0.00     0.001 A 
ATOM     71  C   UNL A   1      50.208  25.685  30.863  1.00  0.00     0.001 A 
ATOM     72  C   UNL A   1      51.048  25.939  29.780  1.00  0.00     0.000 A 
ENDBRANCH  48  67
BRANCH  60  73
ATOM     73  C   UNL A   1      44.715  32.369  31.326  1.00  0.00    -0.014 A 
ATOM     74  C   UNL A   1      45.110  33.466  30.545  1.00  0.00     0.009 A 
ATOM     75  C   UNL A   1      44.649  32.510  32.721  1.00  0.00     0.009 A 
ATOM     76  C   UNL A   1      45.463  34.672  31.154  1.00  0.00     0.001 A 
ATOM     77  C   UNL A   1      44.977  33.724  33.324  1.00  0.00     0.001 A 
ATOM     78  C   UNL A   1      45.392  34.801  32.541  1.00  0.00     0.000 A 
ENDBRANCH  60  73
ENDBRANCH  34  35
ENDBRANCH  26  29
ENDBRANCH  24  25
ENDBRANCH   1  24
TORSDOF 12
ENDMDL
MODEL 3
REMARK VINA RESULT:     -11.4      2.451      7.506
REMARK SMILES O=C(NCCCCNC(=O)c1ccc(-c2c3nc(c(-c4ccccc4)c4ccc([nH]4)c(-c4ccccc4)c4nc(c(-c5ccccc5)c5ccc2[nH]5)C=C4)C=C3)cc1)C1=Cc2c(Cl)cc(Cl)cc2O[C@@H]1C(F)(F)F
REMARK SMILES IDX 6 1 5 2 4 3 3 4 1 5 2 6 59 8 60 9 70 10 61 11 69 12 62 13
REMARK SMILES IDX 68 14 63 15 64 16 67 17 65 18 66 19 71 20 72 21 73 22 74 23
REMARK SMILES IDX 7 24 8 25 9 26 10 28 11 29 12 30 58 31 13 32 57 33 14 34
REMARK SMILES IDX 15 35 16 36 51 37 17 38 56 39 50 40 52 41 18 42 55 43 49 44
REMARK SMILES IDX 48 45 19 47 41 48 26 49 40 50 27 51 30 52 39 53 53 54 28 55
REMARK SMILES IDX 29 56 38 58 54 59 31 60 20 61 21 62 25 63 22 64 24 65 23 66
REMARK SMILES IDX 42 67 43 68 47 69 44 70 46 71 45 72 32 73 33 74 37 75 34 76
REMARK SMILES IDX 36 77 35 78
REMARK H PARENT 3 7 8 27 52 46 30 57
REMARK Flexibility Score: inf
ROOT
ATOM      1  C   UNL A   1      32.599  29.878  25.920  1.00  0.00     0.023 C 
ENDROOT
BRANCH   1   2
ATOM      2  C   UNL A   1      31.702  28.660  25.718  1.00  0.00     0.023 C 
BRANCH   2   3
ATOM      3  C   UNL A   1      31.883  27.544  26.746  1.00  0.00     0.116 C 
BRANCH   3   4
ATOM      4  N   UNL A   1      30.831  26.528  26.730  1.00  0.00    -0.352 N 
ATOM      5  O   UNL A   1      29.982  24.434  26.552  1.00  0.00    -0.270 OA
ATOM      6  C   UNL A   1      30.868  25.230  26.267  1.00  0.00     0.251 C 
ATOM      7  H   UNL A   1      29.968  26.813  27.108  1.00  0.00     0.163 HD
BRANCH   6   8
ATOM      8  C   UNL A   1      32.080  24.780  25.547  1.00  0.00     0.067 C 
ATOM      9  C   UNL A   1      32.982  23.977  26.131  1.00  0.00     0.027 C 
ATOM     10  C   UNL A   1      32.105  24.994  24.068  1.00  0.00     0.314 C 
ATOM     11  C   UNL A   1      33.197  22.737  25.340  1.00  0.00     0.036 A 
ATOM     12  O   UNL A   1      32.112  23.734  23.361  1.00  0.00    -0.475 OA
ATOM     13  C   UNL A   1      33.550  21.527  25.976  1.00  0.00     0.053 A 
ATOM     14  C   UNL A   1      32.652  22.662  24.035  1.00  0.00     0.130 A 
ATOM     15  Cl  UNL A   1      34.099  21.468  27.618  1.00  0.00    -0.083 Cl
ATOM     16  C   UNL A   1      33.319  20.296  25.349  1.00  0.00     0.042 A 
ATOM     17  C   UNL A   1      32.449  21.434  23.405  1.00  0.00     0.067 A 
ATOM     18  C   UNL A   1      32.761  20.258  24.075  1.00  0.00     0.046 A 
ATOM     19  Cl  UNL A   1      32.377  18.745  23.356  1.00  0.00    -0.084 Cl
BRANCH  10  20
ATOM     20  C   UNL A   1      33.303  25.869  23.648  1.00  0.00     0.429 C 
ATOM     21  F   UNL A   1      34.059  26.207  24.719  1.00  0.00    -0.167 F 
ATOM     22  F   UNL A   1      34.117  25.226  22.778  1.00  0.00    -0.167 F 
ATOM     23  F   UNL A   1      32.916  27.024  23.054  1.00  0.00    -0.167 F 
ENDBRANCH  10  20
ENDBRANCH   6   8
ENDBRANCH   3   4
ENDBRANCH   2   3
ENDBRANCH   1   2
BRANCH   1  24
ATOM     24  C   UNL A   1      33.663  29.765  27.011  1.00  0.00     0.116 C 
BRANCH  24  25
ATOM     25  N   UNL A   1      33.722  30.895  27.929  1.00  0.00    -0.352 N 
ATOM     26  C   UNL A   1      34.746  31.261  28.777  1.00  0.00     0.251 C 
ATOM     27  H   UNL A   1      32.926  31.474  27.947  1.00  0.00     0.163 HD
ATOM     28  O   UNL A   1      34.617  32.219  29.536  1.00  0.00    -0.269 OA
BRANCH  26  29
ATOM     29  C   UNL A   1      35.982  30.450  28.812  1.00  0.00     0.039 A 
ATOM     30  C   UNL A   1      36.825  30.454  27.698  1.00  0.00     0.014 A 
ATOM     31  C   UNL A   1      36.351  29.771  29.975  1.00  0.00     0.014 A 
ATOM     32  C   UNL A   1      38.091  29.873  27.791  1.00  0.00     0.010 A 
ATOM     33  C   UNL A   1      37.642  29.266  30.092  1.00  0.00     0.010 A 
ATOM     34  C   UNL A   1      38.533  29.328  29.008  1.00  0.00    -0.014 A 
BRANCH  34  35
ATOM     35  C   UNL A   1      39.926  28.844  29.179  1.00  0.00     0.031 A 
ATOM     36  C   UNL A   1      40.980  29.763  29.729  1.00  0.00     0.074 A 
ATOM     37  C   UNL A   1      40.261  27.605  28.765  1.00  0.00     0.049 A 
ATOM     38  N   UNL A   1      42.265  29.556  29.869  1.00  0.00    -0.248 NA
ATOM     39  C   UNL A   1      40.538  31.102  30.153  1.00  0.00     0.031 C 
ATOM     40  C   UNL A   1      39.346  26.629  28.165  1.00  0.00     0.029 A 
ATOM     41  N   UNL A   1      41.472  26.955  28.778  1.00  0.00    -0.354 N 
ATOM     42  C   UNL A   1      42.785  30.741  30.375  1.00  0.00     0.074 A 
ATOM     43  C   UNL A   1      41.687  31.678  30.470  1.00  0.00     0.031 C 
ATOM     44  C   UNL A   1      40.021  25.499  27.896  1.00  0.00     0.029 A 
ATOM     45  C   UNL A   1      41.420  25.680  28.266  1.00  0.00     0.049 A 
ATOM     46  H   UNL A   1      42.298  27.363  29.122  1.00  0.00     0.167 HD
ATOM     47  C   UNL A   1      44.056  31.020  30.750  1.00  0.00     0.031 A 
ATOM     48  C   UNL A   1      42.392  24.761  28.109  1.00  0.00     0.031 A 
ATOM     49  C   UNL A   1      45.144  30.084  30.677  1.00  0.00     0.049 A 
ATOM     50  C   UNL A   1      43.792  25.091  28.546  1.00  0.00     0.074 A 
ATOM     51  C   UNL A   1      46.460  30.260  31.070  1.00  0.00     0.029 A 
ATOM     52  N   UNL A   1      45.040  28.792  30.187  1.00  0.00    -0.354 N 
ATOM     53  N   UNL A   1      44.253  26.199  29.072  1.00  0.00    -0.248 NA
ATOM     54  C   UNL A   1      44.803  24.037  28.380  1.00  0.00     0.031 C 
ATOM     55  C   UNL A   1      47.160  29.081  30.790  1.00  0.00     0.029 A 
ATOM     56  C   UNL A   1      46.269  28.160  30.263  1.00  0.00     0.049 A 
ATOM     57  H   UNL A   1      44.215  28.385  29.837  1.00  0.00     0.167 HD
ATOM     58  C   UNL A   1      45.597  25.965  29.329  1.00  0.00     0.074 A 
ATOM     59  C   UNL A   1      45.875  24.606  28.914  1.00  0.00     0.031 C 
ATOM     60  C   UNL A   1      46.521  26.802  29.859  1.00  0.00     0.031 A 
BRANCH  47  61
ATOM     61  C   UNL A   1      44.330  32.396  31.284  1.00  0.00    -0.014 A 
ATOM     62  C   UNL A   1      44.684  33.447  30.421  1.00  0.00     0.009 A 
ATOM     63  C   UNL A   1      44.201  32.656  32.656  1.00  0.00     0.009 A 
ATOM     64  C   UNL A   1      44.938  34.722  30.929  1.00  0.00     0.001 A 
ATOM     65  C   UNL A   1      44.428  33.940  33.156  1.00  0.00     0.001 A 
ATOM     66  C   UNL A   1      44.804  34.968  32.294  1.00  0.00     0.000 A 
ENDBRANCH  47  61
BRANCH  48  67
ATOM     67  C   UNL A   1      42.081  23.427  27.529  1.00  0.00    -0.014 A 
ATOM     68  C   UNL A   1      41.576  22.399  28.342  1.00  0.00     0.009 A 
ATOM     69  C   UNL A   1      42.314  23.164  26.171  1.00  0.00     0.009 A 
ATOM     70  C   UNL A   1      41.345  21.127  27.815  1.00  0.00     0.001 A 
ATOM     71  C   UNL A   1      42.055  21.898  25.640  1.00  0.00     0.001 A 
ATOM     72  C   UNL A   1      41.583  20.878  26.464  1.00  0.00     0.000 A 
ENDBRANCH  48  67
BRANCH  60  73
ATOM     73  C   UNL A   1      47.904  26.255  30.067  1.00  0.00    -0.014 A 
ATOM     74  C   UNL A   1      48.842  26.234  29.024  1.00  0.00     0.009 A 
ATOM     75  C   UNL A   1      48.283  25.796  31.337  1.00  0.00     0.009 A 
ATOM     76  C   UNL A   1      50.126  25.732  29.243  1.00  0.00     0.001 A 
ATOM     77  C   UNL A   1      49.574  25.319  31.560  1.00  0.00     0.001 A 
ATOM     78  C   UNL A   1      50.493  25.280  30.511  1.00  0.00     0.000 A 
ENDBRANCH  60  73
ENDBRANCH  34  35
ENDBRANCH  26  29
ENDBRANCH  24  25
ENDBRANCH   1  24
TORSDOF 12
ENDMDL
