MODEL 1
REMARK VINA RESULT:     -12.3      0.000      0.000
REMARK SMILES CC(C)=Cc1c(C(=O)NCCCCNC(=O)c2ccc(-c3c4nc(c(-c5ccccc5)c5ccc([nH]5)c(-c5ccccc5)c5nc(c(-c6ccccc6)c6ccc3[nH]6)C=C5)C=C4)cc2)nnn1-c1ccc(C(C)C)cc1
REMARK SMILES IDX 11 1 10 2 9 3 7 4 8 5 6 7 5 8 67 9 65 10 66 11 4 12 1 13
REMARK SMILES IDX 2 14 3 15 68 16 69 17 76 18 70 19 75 20 71 21 72 22 73 23
REMARK SMILES IDX 74 24 12 25 13 26 14 27 15 28 16 30 17 31 18 32 64 33 19 34
REMARK SMILES IDX 63 35 20 36 21 37 22 38 57 39 23 40 62 41 56 42 58 43 24 44
REMARK SMILES IDX 61 45 55 46 54 47 25 49 47 50 32 51 46 52 33 53 36 54 45 55
REMARK SMILES IDX 59 56 34 57 35 58 44 60 60 61 37 62 26 63 27 64 31 65 28 66
REMARK SMILES IDX 30 67 29 68 48 69 49 70 53 71 50 72 52 73 51 74 38 75 39 76
REMARK SMILES IDX 43 77 40 78 42 79 41 80
REMARK H PARENT 9 6 14 29 58 48 36 59
REMARK Flexibility Score: inf
ROOT
ATOM      1  C   UNL A   1      33.173  27.858  25.786  1.00  0.00     0.023 C 
ENDROOT
BRANCH   1   2
ATOM      2  C   UNL A   1      31.664  27.707  25.600  1.00  0.00     0.116 C 
BRANCH   2   3
ATOM      3  N   UNL A   1      31.245  27.801  24.223  1.00  0.00    -0.351 N 
ATOM      4  C   UNL A   1      31.316  26.982  23.124  1.00  0.00     0.274 C 
ATOM      5  O   UNL A   1      30.768  27.462  22.125  1.00  0.00    -0.267 OA
ATOM      6  H   UNL A   1      30.805  28.658  24.023  1.00  0.00     0.163 HD
BRANCH   4   7
ATOM      7  C   UNL A   1      31.954  25.660  23.048  1.00  0.00     0.178 A 
ATOM      8  C   UNL A   1      31.731  24.403  23.605  1.00  0.00     0.100 A 
ATOM      9  N   UNL A   1      32.695  23.588  23.002  1.00  0.00    -0.213 N 
ATOM     10  N   UNL A   1      33.099  25.567  22.267  1.00  0.00    -0.124 NA
ATOM     11  N   UNL A   1      33.586  24.341  22.334  1.00  0.00    -0.061 NA
BRANCH   8  12
ATOM     12  C   UNL A   1      30.857  23.834  24.565  1.00  0.00     0.029 C 
ATOM     13  C   UNL A   1      32.425  24.225  26.531  1.00  0.00     0.039 C 
ATOM     14  C   UNL A   1      31.149  23.754  25.879  1.00  0.00    -0.074 C 
ATOM     15  C   UNL A   1      30.167  23.125  26.833  1.00  0.00     0.039 C 
ENDBRANCH   8  12
BRANCH   9  16
ATOM     16  C   UNL A   1      32.868  22.188  23.136  1.00  0.00     0.067 A 
ATOM     17  C   UNL A   1      33.651  21.700  24.184  1.00  0.00     0.029 A 
ATOM     18  C   UNL A   1      32.134  21.312  22.330  1.00  0.00     0.029 A 
ATOM     19  C   UNL A   1      33.570  20.346  24.514  1.00  0.00     0.006 A 
ATOM     20  C   UNL A   1      32.085  19.957  22.646  1.00  0.00     0.006 A 
ATOM     21  C   UNL A   1      32.761  19.468  23.770  1.00  0.00    -0.045 A 
BRANCH  21  22
ATOM     22  C   UNL A   1      32.552  18.024  24.187  1.00  0.00     0.013 C 
ATOM     23  C   UNL A   1      33.452  17.068  23.407  1.00  0.00     0.012 C 
ATOM     24  C   UNL A   1      32.745  17.867  25.697  1.00  0.00     0.012 C 
ENDBRANCH  21  22
ENDBRANCH   9  16
ENDBRANCH   4   7
ENDBRANCH   2   3
ENDBRANCH   1   2
BRANCH   1  25
ATOM     25  C   UNL A   1      33.601  29.081  26.614  1.00  0.00     0.023 C 
BRANCH  25  26
ATOM     26  C   UNL A   1      34.952  28.949  27.318  1.00  0.00     0.116 C 
BRANCH  26  27
ATOM     27  N   UNL A   1      35.154  29.926  28.387  1.00  0.00    -0.352 N 
ATOM     28  C   UNL A   1      36.202  29.990  29.291  1.00  0.00     0.251 C 
ATOM     29  H   UNL A   1      34.463  30.621  28.474  1.00  0.00     0.163 HD
ATOM     30  O   UNL A   1      36.099  30.583  30.349  1.00  0.00    -0.269 OA
BRANCH  28  31
ATOM     31  C   UNL A   1      37.471  29.337  28.924  1.00  0.00     0.039 A 
ATOM     32  C   UNL A   1      38.158  29.667  27.752  1.00  0.00     0.014 A 
ATOM     33  C   UNL A   1      37.989  28.411  29.824  1.00  0.00     0.014 A 
ATOM     34  C   UNL A   1      39.422  29.119  27.538  1.00  0.00     0.010 A 
ATOM     35  C   UNL A   1      39.283  27.984  29.683  1.00  0.00     0.010 A 
ATOM     36  C   UNL A   1      39.987  28.292  28.520  1.00  0.00    -0.014 A 
BRANCH  36  37
ATOM     37  C   UNL A   1      41.366  27.825  28.415  1.00  0.00     0.031 A 
ATOM     38  C   UNL A   1      41.545  26.509  27.738  1.00  0.00     0.074 A 
ATOM     39  C   UNL A   1      42.416  28.646  28.646  1.00  0.00     0.049 A 
ATOM     40  N   UNL A   1      42.046  25.423  28.224  1.00  0.00    -0.248 NA
ATOM     41  C   UNL A   1      41.007  26.355  26.374  1.00  0.00     0.031 C 
ATOM     42  C   UNL A   1      42.386  30.077  28.978  1.00  0.00     0.029 A 
ATOM     43  N   UNL A   1      43.744  28.409  28.479  1.00  0.00    -0.354 N 
ATOM     44  C   UNL A   1      42.070  24.502  27.177  1.00  0.00     0.074 A 
ATOM     45  C   UNL A   1      41.263  25.070  26.127  1.00  0.00     0.031 C 
ATOM     46  C   UNL A   1      43.595  30.624  28.730  1.00  0.00     0.029 A 
ATOM     47  C   UNL A   1      44.523  29.557  28.403  1.00  0.00     0.049 A 
ATOM     48  H   UNL A   1      44.121  27.501  28.418  1.00  0.00     0.167 HD
ATOM     49  C   UNL A   1      42.956  23.466  27.157  1.00  0.00     0.031 A 
ATOM     50  C   UNL A   1      45.831  29.634  28.058  1.00  0.00     0.031 A 
ATOM     51  C   UNL A   1      43.555  23.256  28.450  1.00  0.00     0.049 A 
ATOM     52  C   UNL A   1      46.407  28.280  28.206  1.00  0.00     0.074 A 
ATOM     53  C   UNL A   1      43.078  22.965  29.713  1.00  0.00     0.029 A 
ATOM     54  N   UNL A   1      44.831  23.733  28.632  1.00  0.00    -0.354 N 
ATOM     55  N   UNL A   1      46.547  27.682  29.354  1.00  0.00    -0.248 NA
ATOM     56  C   UNL A   1      46.413  27.409  27.041  1.00  0.00     0.031 C 
ATOM     57  C   UNL A   1      43.887  23.745  30.593  1.00  0.00     0.029 A 
ATOM     58  C   UNL A   1      44.853  24.400  29.827  1.00  0.00     0.049 A 
ATOM     59  H   UNL A   1      45.590  23.618  28.015  1.00  0.00     0.167 HD
ATOM     60  C   UNL A   1      46.207  26.360  29.104  1.00  0.00     0.074 A 
ATOM     61  C   UNL A   1      46.244  26.231  27.648  1.00  0.00     0.031 C 
ATOM     62  C   UNL A   1      45.649  25.580  30.076  1.00  0.00     0.031 A 
BRANCH  49  63
ATOM     63  C   UNL A   1      43.604  22.937  25.893  1.00  0.00    -0.014 A 
ATOM     64  C   UNL A   1      43.660  21.543  25.701  1.00  0.00     0.009 A 
ATOM     65  C   UNL A   1      44.411  23.717  25.046  1.00  0.00     0.009 A 
ATOM     66  C   UNL A   1      44.549  20.965  24.786  1.00  0.00     0.001 A 
ATOM     67  C   UNL A   1      45.268  23.146  24.101  1.00  0.00     0.001 A 
ATOM     68  C   UNL A   1      45.363  21.767  23.995  1.00  0.00     0.000 A 
ENDBRANCH  49  63
BRANCH  50  69
ATOM     69  C   UNL A   1      46.556  30.727  27.376  1.00  0.00    -0.014 A 
ATOM     70  C   UNL A   1      45.860  31.798  26.796  1.00  0.00     0.009 A 
ATOM     71  C   UNL A   1      47.949  30.857  27.532  1.00  0.00     0.009 A 
ATOM     72  C   UNL A   1      46.527  32.974  26.426  1.00  0.00     0.001 A 
ATOM     73  C   UNL A   1      48.615  32.030  27.160  1.00  0.00     0.001 A 
ATOM     74  C   UNL A   1      47.900  33.095  26.622  1.00  0.00     0.000 A 
ENDBRANCH  50  69
BRANCH  62  75
ATOM     75  C   UNL A   1      45.630  26.112  31.490  1.00  0.00    -0.014 A 
ATOM     76  C   UNL A   1      44.664  27.020  31.960  1.00  0.00     0.009 A 
ATOM     77  C   UNL A   1      46.520  25.552  32.417  1.00  0.00     0.009 A 
ATOM     78  C   UNL A   1      44.612  27.376  33.313  1.00  0.00     0.001 A 
ATOM     79  C   UNL A   1      46.454  25.890  33.770  1.00  0.00     0.001 A 
ATOM     80  C   UNL A   1      45.503  26.804  34.218  1.00  0.00     0.000 A 
ENDBRANCH  62  75
ENDBRANCH  36  37
ENDBRANCH  28  31
ENDBRANCH  26  27
ENDBRANCH  25  26
ENDBRANCH   1  25
TORSDOF 14
ENDMDL
MODEL 2
REMARK VINA RESULT:     -12.0      2.134      6.028
REMARK SMILES CC(C)=Cc1c(C(=O)NCCCCNC(=O)c2ccc(-c3c4nc(c(-c5ccccc5)c5ccc([nH]5)c(-c5ccccc5)c5nc(c(-c6ccccc6)c6ccc3[nH]6)C=C5)C=C4)cc2)nnn1-c1ccc(C(C)C)cc1
REMARK SMILES IDX 11 1 10 2 9 3 7 4 8 5 6 7 5 8 67 9 65 10 66 11 4 12 1 13
REMARK SMILES IDX 2 14 3 15 68 16 69 17 76 18 70 19 75 20 71 21 72 22 73 23
REMARK SMILES IDX 74 24 12 25 13 26 14 27 15 28 16 30 17 31 18 32 64 33 19 34
REMARK SMILES IDX 63 35 20 36 21 37 22 38 57 39 23 40 62 41 56 42 58 43 24 44
REMARK SMILES IDX 61 45 55 46 54 47 25 49 47 50 32 51 46 52 33 53 36 54 45 55
REMARK SMILES IDX 59 56 34 57 35 58 44 60 60 61 37 62 26 63 27 64 31 65 28 66
REMARK SMILES IDX 30 67 29 68 48 69 49 70 53 71 50 72 52 73 51 74 38 75 39 76
REMARK SMILES IDX 43 77 40 78 42 79 41 80
REMARK H PARENT 9 6 14 29 58 48 36 59
REMARK Flexibility Score: inf
ROOT
ATOM      1  C   UNL A   1      33.654  27.724  25.216  1.00  0.00     0.023 C 
ENDROOT
BRANCH   1   2
ATOM      2  C   UNL A   1      33.871  28.026  23.733  1.00  0.00     0.116 C 
BRANCH   2   3
ATOM      3  N   UNL A   1      32.775  27.600  22.897  1.00  0.00    -0.351 N 
ATOM      4  C   UNL A   1      32.252  26.389  22.516  1.00  0.00     0.274 C 
ATOM      5  O   UNL A   1      31.247  26.498  21.804  1.00  0.00    -0.267 OA
ATOM      6  H   UNL A   1      32.287  28.359  22.504  1.00  0.00     0.163 HD
BRANCH   4   7
ATOM      7  C   UNL A   1      32.764  25.057  22.867  1.00  0.00     0.178 A 
ATOM      8  C   UNL A   1      32.334  23.991  23.652  1.00  0.00     0.100 A 
ATOM      9  N   UNL A   1      33.300  23.001  23.440  1.00  0.00    -0.213 N 
ATOM     10  N   UNL A   1      34.006  24.713  22.349  1.00  0.00    -0.124 NA
ATOM     11  N   UNL A   1      34.355  23.517  22.788  1.00  0.00    -0.061 NA
BRANCH   8  12
ATOM     12  C   UNL A   1      31.264  23.724  24.544  1.00  0.00     0.029 C 
ATOM     13  C   UNL A   1      32.633  24.161  26.645  1.00  0.00     0.039 C 
ATOM     14  C   UNL A   1      31.379  23.803  25.885  1.00  0.00    -0.074 C 
ATOM     15  C   UNL A   1      30.195  23.494  26.763  1.00  0.00     0.039 C 
ENDBRANCH   8  12
BRANCH   9  16
ATOM     16  C   UNL A   1      33.312  21.670  23.926  1.00  0.00     0.067 A 
ATOM     17  C   UNL A   1      32.304  20.792  23.522  1.00  0.00     0.029 A 
ATOM     18  C   UNL A   1      34.405  21.205  24.666  1.00  0.00     0.029 A 
ATOM     19  C   UNL A   1      32.478  19.423  23.730  1.00  0.00     0.006 A 
ATOM     20  C   UNL A   1      34.554  19.841  24.898  1.00  0.00     0.006 A 
ATOM     21  C   UNL A   1      33.619  18.931  24.390  1.00  0.00    -0.045 A 
BRANCH  21  22
ATOM     22  C   UNL A   1      33.895  17.444  24.511  1.00  0.00     0.013 C 
ATOM     23  C   UNL A   1      32.732  16.697  25.160  1.00  0.00     0.012 C 
ATOM     24  C   UNL A   1      34.250  16.849  23.145  1.00  0.00     0.012 C 
ENDBRANCH  21  22
ENDBRANCH   9  16
ENDBRANCH   4   7
ENDBRANCH   2   3
ENDBRANCH   1   2
BRANCH   1  25
ATOM     25  C   UNL A   1      33.534  28.965  26.116  1.00  0.00     0.023 C 
BRANCH  25  26
ATOM     26  C   UNL A   1      34.797  29.323  26.899  1.00  0.00     0.116 C 
BRANCH  26  27
ATOM     27  N   UNL A   1      34.834  30.715  27.346  1.00  0.00    -0.352 N 
ATOM     28  C   UNL A   1      35.526  31.241  28.425  1.00  0.00     0.251 C 
ATOM     29  H   UNL A   1      34.305  31.354  26.817  1.00  0.00     0.163 HD
ATOM     30  O   UNL A   1      35.207  32.300  28.934  1.00  0.00    -0.269 OA
BRANCH  28  31
ATOM     31  C   UNL A   1      36.688  30.491  28.933  1.00  0.00     0.039 A 
ATOM     32  C   UNL A   1      36.551  29.474  29.883  1.00  0.00     0.014 A 
ATOM     33  C   UNL A   1      37.929  30.801  28.386  1.00  0.00     0.014 A 
ATOM     34  C   UNL A   1      37.668  28.708  30.212  1.00  0.00     0.010 A 
ATOM     35  C   UNL A   1      38.990  29.962  28.604  1.00  0.00     0.010 A 
ATOM     36  C   UNL A   1      38.882  28.946  29.552  1.00  0.00    -0.014 A 
BRANCH  36  37
ATOM     37  C   UNL A   1      40.034  28.070  29.745  1.00  0.00     0.031 A 
ATOM     38  C   UNL A   1      40.632  28.093  31.110  1.00  0.00     0.074 A 
ATOM     39  C   UNL A   1      40.350  27.103  28.855  1.00  0.00     0.049 A 
ATOM     40  N   UNL A   1      41.831  28.434  31.450  1.00  0.00    -0.248 NA
ATOM     41  C   UNL A   1      39.754  27.793  32.254  1.00  0.00     0.031 C 
ATOM     42  C   UNL A   1      39.628  26.733  27.629  1.00  0.00     0.029 A 
ATOM     43  N   UNL A   1      41.303  26.137  28.938  1.00  0.00    -0.354 N 
ATOM     44  C   UNL A   1      41.925  28.207  32.822  1.00  0.00     0.074 A 
ATOM     45  C   UNL A   1      40.578  27.986  33.285  1.00  0.00     0.031 C 
ATOM     46  C   UNL A   1      39.999  25.494  27.242  1.00  0.00     0.029 A 
ATOM     47  C   UNL A   1      41.106  25.065  28.076  1.00  0.00     0.049 A 
ATOM     48  H   UNL A   1      42.067  26.193  29.557  1.00  0.00     0.167 HD
ATOM     49  C   UNL A   1      43.123  27.966  33.427  1.00  0.00     0.031 A 
ATOM     50  C   UNL A   1      41.780  23.889  28.069  1.00  0.00     0.031 A 
ATOM     51  C   UNL A   1      44.228  28.330  32.575  1.00  0.00     0.049 A 
ATOM     52  C   UNL A   1      43.036  24.096  28.822  1.00  0.00     0.074 A 
ATOM     53  C   UNL A   1      44.648  29.493  31.962  1.00  0.00     0.029 A 
ATOM     54  N   UNL A   1      44.877  27.307  31.925  1.00  0.00    -0.354 N 
ATOM     55  N   UNL A   1      43.999  24.869  28.413  1.00  0.00    -0.248 NA
ATOM     56  C   UNL A   1      43.036  23.795  30.245  1.00  0.00     0.031 C 
ATOM     57  C   UNL A   1      45.118  29.078  30.681  1.00  0.00     0.029 A 
ATOM     58  C   UNL A   1      45.030  27.685  30.618  1.00  0.00     0.049 A 
ATOM     59  H   UNL A   1      45.177  26.459  32.325  1.00  0.00     0.167 HD
ATOM     60  C   UNL A   1      44.446  25.509  29.559  1.00  0.00     0.074 A 
ATOM     61  C   UNL A   1      43.895  24.728  30.666  1.00  0.00     0.031 C 
ATOM     62  C   UNL A   1      44.972  26.769  29.503  1.00  0.00     0.031 A 
BRANCH  49  63
ATOM     63  C   UNL A   1      43.304  27.006  34.585  1.00  0.00    -0.014 A 
ATOM     64  C   UNL A   1      43.072  25.635  34.363  1.00  0.00     0.009 A 
ATOM     65  C   UNL A   1      43.397  27.414  35.928  1.00  0.00     0.009 A 
ATOM     66  C   UNL A   1      42.844  24.749  35.424  1.00  0.00     0.001 A 
ATOM     67  C   UNL A   1      43.214  26.525  36.991  1.00  0.00     0.001 A 
ATOM     68  C   UNL A   1      42.901  25.198  36.738  1.00  0.00     0.000 A 
ENDBRANCH  49  63
BRANCH  50  69
ATOM     69  C   UNL A   1      41.309  22.543  27.679  1.00  0.00    -0.014 A 
ATOM     70  C   UNL A   1      40.142  22.385  26.916  1.00  0.00     0.009 A 
ATOM     71  C   UNL A   1      42.154  21.428  27.824  1.00  0.00     0.009 A 
ATOM     72  C   UNL A   1      39.854  21.166  26.285  1.00  0.00     0.001 A 
ATOM     73  C   UNL A   1      41.866  20.211  27.196  1.00  0.00     0.001 A 
ATOM     74  C   UNL A   1      40.724  20.086  26.413  1.00  0.00     0.000 A 
ENDBRANCH  50  69
BRANCH  62  75
ATOM     75  C   UNL A   1      45.277  27.351  28.143  1.00  0.00    -0.014 A 
ATOM     76  C   UNL A   1      44.328  28.048  27.372  1.00  0.00     0.009 A 
ATOM     77  C   UNL A   1      46.607  27.336  27.702  1.00  0.00     0.009 A 
ATOM     78  C   UNL A   1      44.699  28.683  26.182  1.00  0.00     0.001 A 
ATOM     79  C   UNL A   1      46.981  27.988  26.526  1.00  0.00     0.001 A 
ATOM     80  C   UNL A   1      46.027  28.659  25.763  1.00  0.00     0.000 A 
ENDBRANCH  62  75
ENDBRANCH  36  37
ENDBRANCH  28  31
ENDBRANCH  26  27
ENDBRANCH  25  26
ENDBRANCH   1  25
TORSDOF 14
ENDMDL
MODEL 3
REMARK VINA RESULT:     -12.0      1.795      5.558
REMARK SMILES CC(C)=Cc1c(C(=O)NCCCCNC(=O)c2ccc(-c3c4nc(c(-c5ccccc5)c5ccc([nH]5)c(-c5ccccc5)c5nc(c(-c6ccccc6)c6ccc3[nH]6)C=C5)C=C4)cc2)nnn1-c1ccc(C(C)C)cc1
REMARK SMILES IDX 11 1 10 2 9 3 7 4 8 5 6 7 5 8 67 9 65 10 66 11 4 12 1 13
REMARK SMILES IDX 2 14 3 15 68 16 69 17 76 18 70 19 75 20 71 21 72 22 73 23
REMARK SMILES IDX 74 24 12 25 13 26 14 27 15 28 16 30 17 31 18 32 64 33 19 34
REMARK SMILES IDX 63 35 20 36 21 37 22 38 57 39 23 40 62 41 56 42 58 43 24 44
REMARK SMILES IDX 61 45 55 46 54 47 25 49 47 50 32 51 46 52 33 53 36 54 45 55
REMARK SMILES IDX 59 56 34 57 35 58 44 60 60 61 37 62 26 63 27 64 31 65 28 66
REMARK SMILES IDX 30 67 29 68 48 69 49 70 53 71 50 72 52 73 51 74 38 75 39 76
REMARK SMILES IDX 43 77 40 78 42 79 41 80
REMARK H PARENT 9 6 14 29 58 48 36 59
REMARK Flexibility Score: inf
ROOT
ATOM      1  C   UNL A   1      31.720  28.594  26.485  1.00  0.00     0.023 C 
ENDROOT
BRANCH   1   2
ATOM      2  C   UNL A   1      31.130  27.391  25.749  1.00  0.00     0.116 C 
BRANCH   2   3
ATOM      3  N   UNL A   1      30.954  27.617  24.335  1.00  0.00    -0.351 N 
ATOM      4  C   UNL A   1      31.223  26.906  23.192  1.00  0.00     0.274 C 
ATOM      5  O   UNL A   1      30.849  27.482  22.163  1.00  0.00    -0.267 OA
ATOM      6  H   UNL A   1      30.543  28.492  24.144  1.00  0.00     0.163 HD
BRANCH   4   7
ATOM      7  C   UNL A   1      31.881  25.595  23.103  1.00  0.00     0.178 A 
ATOM      8  C   UNL A   1      31.671  24.327  23.639  1.00  0.00     0.100 A 
ATOM      9  N   UNL A   1      32.652  23.535  23.033  1.00  0.00    -0.213 N 
ATOM     10  N   UNL A   1      33.034  25.530  22.331  1.00  0.00    -0.124 NA
ATOM     11  N   UNL A   1      33.538  24.311  22.384  1.00  0.00    -0.061 NA
BRANCH   8  12
ATOM     12  C   UNL A   1      30.797  23.732  24.583  1.00  0.00     0.029 C 
ATOM     13  C   UNL A   1      32.332  24.136  26.573  1.00  0.00     0.039 C 
ATOM     14  C   UNL A   1      31.074  23.645  25.900  1.00  0.00    -0.074 C 
ATOM     15  C   UNL A   1      30.093  22.988  26.835  1.00  0.00     0.039 C 
ENDBRANCH   8  12
BRANCH   9  16
ATOM     16  C   UNL A   1      32.844  22.136  23.149  1.00  0.00     0.067 A 
ATOM     17  C   UNL A   1      33.652  21.646  24.177  1.00  0.00     0.029 A 
ATOM     18  C   UNL A   1      32.107  21.260  22.345  1.00  0.00     0.029 A 
ATOM     19  C   UNL A   1      33.592  20.288  24.493  1.00  0.00     0.006 A 
ATOM     20  C   UNL A   1      32.080  19.901  22.647  1.00  0.00     0.006 A 
ATOM     21  C   UNL A   1      32.782  19.408  23.754  1.00  0.00    -0.045 A 
BRANCH  21  22
ATOM     22  C   UNL A   1      32.598  17.957  24.158  1.00  0.00     0.013 C 
ATOM     23  C   UNL A   1      33.586  17.036  23.447  1.00  0.00     0.012 C 
ATOM     24  C   UNL A   1      32.687  17.807  25.679  1.00  0.00     0.012 C 
ENDBRANCH  21  22
ENDBRANCH   9  16
ENDBRANCH   4   7
ENDBRANCH   2   3
ENDBRANCH   1   2
BRANCH   1  25
ATOM     25  C   UNL A   1      33.136  28.376  27.044  1.00  0.00     0.023 C 
BRANCH  25  26
ATOM     26  C   UNL A   1      34.209  29.304  26.474  1.00  0.00     0.116 C 
BRANCH  26  27
ATOM     27  N   UNL A   1      34.057  30.698  26.885  1.00  0.00    -0.352 N 
ATOM     28  C   UNL A   1      34.689  31.348  27.933  1.00  0.00     0.251 C 
ATOM     29  H   UNL A   1      33.430  31.241  26.354  1.00  0.00     0.163 HD
ATOM     30  O   UNL A   1      34.233  32.364  28.423  1.00  0.00    -0.269 OA
BRANCH  28  31
ATOM     31  C   UNL A   1      35.957  30.785  28.430  1.00  0.00     0.039 A 
ATOM     32  C   UNL A   1      36.145  29.407  28.574  1.00  0.00     0.014 A 
ATOM     33  C   UNL A   1      36.985  31.683  28.700  1.00  0.00     0.014 A 
ATOM     34  C   UNL A   1      37.413  28.934  28.910  1.00  0.00     0.010 A 
ATOM     35  C   UNL A   1      38.258  31.213  28.890  1.00  0.00     0.010 A 
ATOM     36  C   UNL A   1      38.471  29.845  29.046  1.00  0.00    -0.014 A 
BRANCH  36  37
ATOM     37  C   UNL A   1      39.844  29.387  29.237  1.00  0.00     0.031 A 
ATOM     38  C   UNL A   1      40.247  29.151  30.653  1.00  0.00     0.074 A 
ATOM     39  C   UNL A   1      40.594  28.934  28.208  1.00  0.00     0.049 A 
ATOM     40  N   UNL A   1      41.183  29.734  31.325  1.00  0.00    -0.248 NA
ATOM     41  C   UNL A   1      39.439  28.213  31.453  1.00  0.00     0.031 C 
ATOM     42  C   UNL A   1      40.196  28.778  26.802  1.00  0.00     0.029 A 
ATOM     43  N   UNL A   1      41.830  28.369  28.229  1.00  0.00    -0.354 N 
ATOM     44  C   UNL A   1      41.218  29.107  32.570  1.00  0.00     0.074 A 
ATOM     45  C   UNL A   1      40.018  28.312  32.651  1.00  0.00     0.031 C 
ATOM     46  C   UNL A   1      41.050  27.936  26.181  1.00  0.00     0.029 A 
ATOM     47  C   UNL A   1      42.146  27.645  27.086  1.00  0.00     0.049 A 
ATOM     48  H   UNL A   1      42.448  28.465  28.990  1.00  0.00     0.167 HD
ATOM     49  C   UNL A   1      42.349  29.089  33.330  1.00  0.00     0.031 A 
ATOM     50  C   UNL A   1      43.215  26.832  26.904  1.00  0.00     0.031 A 
ATOM     51  C   UNL A   1      43.311  30.059  32.871  1.00  0.00     0.049 A 
ATOM     52  C   UNL A   1      44.213  27.178  27.939  1.00  0.00     0.074 A 
ATOM     53  C   UNL A   1      43.315  31.429  32.705  1.00  0.00     0.029 A 
ATOM     54  N   UNL A   1      44.364  29.587  32.123  1.00  0.00    -0.354 N 
ATOM     55  N   UNL A   1      44.844  28.316  27.975  1.00  0.00    -0.248 NA
ATOM     56  C   UNL A   1      44.184  26.438  29.191  1.00  0.00     0.031 C 
ATOM     57  C   UNL A   1      44.035  31.645  31.492  1.00  0.00     0.029 A 
ATOM     58  C   UNL A   1      44.492  30.408  31.035  1.00  0.00     0.049 A 
ATOM     59  H   UNL A   1      44.923  28.804  32.331  1.00  0.00     0.167 HD
ATOM     60  C   UNL A   1      44.894  28.646  29.321  1.00  0.00     0.074 A 
ATOM     61  C   UNL A   1      44.574  27.405  30.026  1.00  0.00     0.031 C 
ATOM     62  C   UNL A   1      44.902  29.951  29.726  1.00  0.00     0.031 A 
BRANCH  49  63
ATOM     63  C   UNL A   1      42.765  27.915  34.193  1.00  0.00    -0.014 A 
ATOM     64  C   UNL A   1      43.396  26.818  33.576  1.00  0.00     0.009 A 
ATOM     65  C   UNL A   1      42.304  27.712  35.507  1.00  0.00     0.009 A 
ATOM     66  C   UNL A   1      43.467  25.566  34.200  1.00  0.00     0.001 A 
ATOM     67  C   UNL A   1      42.412  26.475  36.150  1.00  0.00     0.001 A 
ATOM     68  C   UNL A   1      42.962  25.392  35.483  1.00  0.00     0.000 A 
ENDBRANCH  49  63
BRANCH  50  69
ATOM     69  C   UNL A   1      43.336  25.618  26.070  1.00  0.00    -0.014 A 
ATOM     70  C   UNL A   1      44.494  25.379  25.314  1.00  0.00     0.009 A 
ATOM     71  C   UNL A   1      42.425  24.557  26.226  1.00  0.00     0.009 A 
ATOM     72  C   UNL A   1      44.752  24.112  24.773  1.00  0.00     0.001 A 
ATOM     73  C   UNL A   1      42.681  23.293  25.684  1.00  0.00     0.001 A 
ATOM     74  C   UNL A   1      43.853  23.066  24.971  1.00  0.00     0.000 A 
ENDBRANCH  50  69
BRANCH  62  75
ATOM     75  C   UNL A   1      45.097  31.020  28.677  1.00  0.00    -0.014 A 
ATOM     76  C   UNL A   1      46.350  31.586  28.376  1.00  0.00     0.009 A 
ATOM     77  C   UNL A   1      44.008  31.347  27.858  1.00  0.00     0.009 A 
ATOM     78  C   UNL A   1      46.496  32.473  27.303  1.00  0.00     0.001 A 
ATOM     79  C   UNL A   1      44.158  32.214  26.775  1.00  0.00     0.001 A 
ATOM     80  C   UNL A   1      45.401  32.781  26.500  1.00  0.00     0.000 A 
ENDBRANCH  62  75
ENDBRANCH  36  37
ENDBRANCH  28  31
ENDBRANCH  26  27
ENDBRANCH  25  26
ENDBRANCH   1  25
TORSDOF 14
ENDMDL
