MODEL 1
REMARK VINA RESULT:     -10.9      0.000      0.000
REMARK SMILES CC(C)[C@H](NC(=O)Cc1cccc2ccccc12)C(=O)NCCCCNC(=O)c1ccc(-c2c3nc(c(-c4ccccc4)c4ccc([nH]4)c(-c4ccccc4)c4nc(c(-c5ccccc5)c5ccc2[nH]5)C=C4)C=C3)cc1
REMARK SMILES IDX 23 1 22 2 21 3 19 4 20 5 4 7 2 8 1 9 3 10 5 11 6 12 7 14
REMARK SMILES IDX 8 15 9 16 10 17 18 18 11 19 13 20 17 21 12 22 14 23 16 24
REMARK SMILES IDX 15 25 24 26 25 27 26 28 27 29 28 31 29 32 30 33 76 34 31 35
REMARK SMILES IDX 75 36 32 37 33 38 34 39 69 40 35 41 74 42 68 43 70 44 36 45
REMARK SMILES IDX 73 46 67 47 66 48 37 50 59 51 44 52 58 53 45 54 48 55 57 56
REMARK SMILES IDX 71 57 46 58 47 59 56 61 72 62 49 63 38 64 39 65 43 66 40 67
REMARK SMILES IDX 42 68 41 69 60 70 61 71 65 72 62 73 64 74 63 75 50 76 51 77
REMARK SMILES IDX 55 78 52 79 54 80 53 81
REMARK H PARENT 21 6 5 13 26 30 70 49 48 60
REMARK Flexibility Score: inf
ROOT
ATOM      1  C   UNL A   1      33.986  28.418  24.535  1.00  0.00     0.023 C 
ENDROOT
BRANCH   1   2
ATOM      2  C   UNL A   1      32.645  28.570  23.733  1.00  0.00     0.116 C 
BRANCH   2   3
ATOM      3  N   UNL A   1      31.839  27.466  23.214  1.00  0.00    -0.354 N 
ATOM      4  C   UNL A   1      31.170  26.655  24.161  1.00  0.00     0.242 C 
ATOM      5  O   UNL A   1      29.948  26.791  24.333  1.00  0.00    -0.273 OA
ATOM      6  H   UNL A   1      31.764  27.295  22.248  1.00  0.00     0.163 HD
BRANCH   4   7
ATOM      7  C   UNL A   1      31.961  25.441  24.724  1.00  0.00     0.173 C 
BRANCH   7   8
ATOM      8  C   UNL A   1      32.730  24.372  23.915  1.00  0.00     0.015 C 
ATOM      9  C   UNL A   1      32.119  23.911  22.604  1.00  0.00     0.010 C 
ATOM     10  C   UNL A   1      34.193  24.815  23.694  1.00  0.00     0.010 C 
ENDBRANCH   7   8
BRANCH   7  11
ATOM     11  N   UNL A   1      31.152  24.780  25.724  1.00  0.00    -0.344 N 
ATOM     12  C   UNL A   1      31.418  23.855  26.653  1.00  0.00     0.225 C 
ATOM     13  H   UNL A   1      30.211  25.071  25.720  1.00  0.00     0.164 HD
ATOM     14  O   UNL A   1      30.399  23.546  27.302  1.00  0.00    -0.275 OA
BRANCH  12  15
ATOM     15  C   UNL A   1      32.734  23.216  27.104  1.00  0.00     0.136 C 
BRANCH  15  16
ATOM     16  C   UNL A   1      33.818  22.190  26.559  1.00  0.00    -0.031 A 
ATOM     17  C   UNL A   1      33.150  21.056  26.046  1.00  0.00     0.005 A 
ATOM     18  C   UNL A   1      35.298  22.328  26.174  1.00  0.00    -0.015 A 
ATOM     19  C   UNL A   1      33.766  20.152  25.195  1.00  0.00     0.001 A 
ATOM     20  C   UNL A   1      35.885  21.316  25.367  1.00  0.00    -0.018 A 
ATOM     21  C   UNL A   1      36.307  23.350  26.369  1.00  0.00     0.009 A 
ATOM     22  C   UNL A   1      35.105  20.282  24.872  1.00  0.00     0.009 A 
ATOM     23  C   UNL A   1      37.247  21.320  24.944  1.00  0.00     0.009 A 
ATOM     24  C   UNL A   1      37.667  23.363  26.002  1.00  0.00     0.001 A 
ATOM     25  C   UNL A   1      38.149  22.318  25.279  1.00  0.00     0.001 A 
ENDBRANCH  15  16
ENDBRANCH  12  15
ENDBRANCH   7  11
ENDBRANCH   4   7
ENDBRANCH   2   3
ENDBRANCH   1   2
BRANCH   1  26
ATOM     26  C   UNL A   1      34.111  27.995  26.120  1.00  0.00     0.023 C 
BRANCH  26  27
ATOM     27  C   UNL A   1      33.283  28.487  27.382  1.00  0.00     0.116 C 
BRANCH  27  28
ATOM     28  N   UNL A   1      33.331  29.909  27.727  1.00  0.00    -0.352 N 
ATOM     29  C   UNL A   1      34.406  30.732  27.999  1.00  0.00     0.251 C 
ATOM     30  H   UNL A   1      32.453  30.351  27.774  1.00  0.00     0.163 HD
ATOM     31  O   UNL A   1      34.206  31.968  28.011  1.00  0.00    -0.269 OA
BRANCH  29  32
ATOM     32  C   UNL A   1      35.778  30.279  28.366  1.00  0.00     0.039 A 
ATOM     33  C   UNL A   1      36.746  30.274  27.347  1.00  0.00     0.014 A 
ATOM     34  C   UNL A   1      36.112  29.684  29.587  1.00  0.00     0.014 A 
ATOM     35  C   UNL A   1      38.041  29.765  27.563  1.00  0.00     0.010 A 
ATOM     36  C   UNL A   1      37.422  29.185  29.808  1.00  0.00     0.010 A 
ATOM     37  C   UNL A   1      38.415  29.236  28.807  1.00  0.00    -0.014 A 
BRANCH  37  38
ATOM     38  C   UNL A   1      39.831  28.791  29.057  1.00  0.00     0.031 A 
ATOM     39  C   UNL A   1      40.857  29.698  29.699  1.00  0.00     0.074 A 
ATOM     40  C   UNL A   1      40.221  27.544  28.711  1.00  0.00     0.049 A 
ATOM     41  N   UNL A   1      42.129  29.471  29.946  1.00  0.00    -0.248 NA
ATOM     42  C   UNL A   1      40.397  31.027  30.122  1.00  0.00     0.031 C 
ATOM     43  C   UNL A   1      39.357  26.526  28.112  1.00  0.00     0.029 A 
ATOM     44  N   UNL A   1      41.445  26.915  28.811  1.00  0.00    -0.354 N 
ATOM     45  C   UNL A   1      42.620  30.627  30.546  1.00  0.00     0.074 A 
ATOM     46  C   UNL A   1      41.516  31.564  30.594  1.00  0.00     0.031 C 
ATOM     47  C   UNL A   1      40.068  25.404  27.911  1.00  0.00     0.029 A 
ATOM     48  C   UNL A   1      41.452  25.628  28.322  1.00  0.00     0.049 A 
ATOM     49  H   UNL A   1      42.241  27.347  29.197  1.00  0.00     0.167 HD
ATOM     50  C   UNL A   1      43.866  30.890  31.023  1.00  0.00     0.031 A 
ATOM     51  C   UNL A   1      42.450  24.728  28.197  1.00  0.00     0.031 A 
ATOM     52  C   UNL A   1      44.983  29.977  30.979  1.00  0.00     0.049 A 
ATOM     53  C   UNL A   1      43.845  25.077  28.651  1.00  0.00     0.074 A 
ATOM     54  C   UNL A   1      46.274  30.171  31.447  1.00  0.00     0.029 A 
ATOM     55  N   UNL A   1      44.949  28.703  30.436  1.00  0.00    -0.354 N 
ATOM     56  N   UNL A   1      44.277  26.169  29.232  1.00  0.00    -0.248 NA
ATOM     57  C   UNL A   1      44.890  24.060  28.438  1.00  0.00     0.031 C 
ATOM     58  C   UNL A   1      47.033  29.037  31.142  1.00  0.00     0.029 A 
ATOM     59  C   UNL A   1      46.198  28.111  30.541  1.00  0.00     0.049 A 
ATOM     60  H   UNL A   1      44.155  28.281  30.036  1.00  0.00     0.167 HD
ATOM     61  C   UNL A   1      45.625  25.951  29.496  1.00  0.00     0.074 A 
ATOM     62  C   UNL A   1      45.941  24.624  29.016  1.00  0.00     0.031 C 
ATOM     63  C   UNL A   1      46.515  26.780  30.090  1.00  0.00     0.031 A 
BRANCH  50  64
ATOM     64  C   UNL A   1      44.108  32.245  31.637  1.00  0.00    -0.014 A 
ATOM     65  C   UNL A   1      44.512  33.336  30.851  1.00  0.00     0.009 A 
ATOM     66  C   UNL A   1      43.859  32.452  33.004  1.00  0.00     0.009 A 
ATOM     67  C   UNL A   1      44.698  34.595  31.428  1.00  0.00     0.001 A 
ATOM     68  C   UNL A   1      44.017  33.719  33.572  1.00  0.00     0.001 A 
ATOM     69  C   UNL A   1      44.447  34.787  32.786  1.00  0.00     0.000 A 
ENDBRANCH  50  64
BRANCH  51  70
ATOM     70  C   UNL A   1      42.190  23.389  27.595  1.00  0.00    -0.014 A 
ATOM     71  C   UNL A   1      42.409  23.165  26.226  1.00  0.00     0.009 A 
ATOM     72  C   UNL A   1      41.666  22.346  28.374  1.00  0.00     0.009 A 
ATOM     73  C   UNL A   1      42.077  21.938  25.645  1.00  0.00     0.001 A 
ATOM     74  C   UNL A   1      41.366  21.109  27.797  1.00  0.00     0.001 A 
ATOM     75  C   UNL A   1      41.559  20.911  26.432  1.00  0.00     0.000 A 
ENDBRANCH  51  70
BRANCH  63  76
ATOM     76  C   UNL A   1      47.909  26.264  30.331  1.00  0.00    -0.014 A 
ATOM     77  C   UNL A   1      48.297  25.731  31.570  1.00  0.00     0.009 A 
ATOM     78  C   UNL A   1      48.835  26.262  29.274  1.00  0.00     0.009 A 
ATOM     79  C   UNL A   1      49.589  25.230  31.750  1.00  0.00     0.001 A 
ATOM     80  C   UNL A   1      50.115  25.733  29.448  1.00  0.00     0.001 A 
ATOM     81  C   UNL A   1      50.494  25.225  30.689  1.00  0.00     0.000 A 
ENDBRANCH  63  76
ENDBRANCH  37  38
ENDBRANCH  29  32
ENDBRANCH  27  28
ENDBRANCH  26  27
ENDBRANCH   1  26
TORSDOF 15
ENDMDL
MODEL 2
REMARK VINA RESULT:     -10.5      2.244      7.707
REMARK SMILES CC(C)[C@H](NC(=O)Cc1cccc2ccccc12)C(=O)NCCCCNC(=O)c1ccc(-c2c3nc(c(-c4ccccc4)c4ccc([nH]4)c(-c4ccccc4)c4nc(c(-c5ccccc5)c5ccc2[nH]5)C=C4)C=C3)cc1
REMARK SMILES IDX 23 1 22 2 21 3 19 4 20 5 4 7 2 8 1 9 3 10 5 11 6 12 7 14
REMARK SMILES IDX 8 15 9 16 10 17 18 18 11 19 13 20 17 21 12 22 14 23 16 24
REMARK SMILES IDX 15 25 24 26 25 27 26 28 27 29 28 31 29 32 30 33 76 34 31 35
REMARK SMILES IDX 75 36 32 37 33 38 34 39 69 40 35 41 74 42 68 43 70 44 36 45
REMARK SMILES IDX 73 46 67 47 66 48 37 50 59 51 44 52 58 53 45 54 48 55 57 56
REMARK SMILES IDX 71 57 46 58 47 59 56 61 72 62 49 63 38 64 39 65 43 66 40 67
REMARK SMILES IDX 42 68 41 69 60 70 61 71 65 72 62 73 64 74 63 75 50 76 51 77
REMARK SMILES IDX 55 78 52 79 54 80 53 81
REMARK H PARENT 21 6 5 13 26 30 70 49 48 60
REMARK Flexibility Score: inf
ROOT
ATOM      1  C   UNL A   1      36.454  21.027  24.702  1.00  0.00     0.023 C 
ENDROOT
BRANCH   1   2
ATOM      2  C   UNL A   1      35.483  21.229  25.918  1.00  0.00     0.116 C 
BRANCH   2   3
ATOM      3  N   UNL A   1      34.050  20.938  25.916  1.00  0.00    -0.354 N 
ATOM      4  C   UNL A   1      33.314  21.331  24.774  1.00  0.00     0.242 C 
ATOM      5  O   UNL A   1      32.969  20.478  23.940  1.00  0.00    -0.273 OA
ATOM      6  H   UNL A   1      33.617  20.486  26.676  1.00  0.00     0.163 HD
BRANCH   4   7
ATOM      7  C   UNL A   1      32.734  22.774  24.780  1.00  0.00     0.173 C 
BRANCH   7   8
ATOM      8  C   UNL A   1      33.512  24.093  24.574  1.00  0.00     0.015 C 
ATOM      9  C   UNL A   1      34.256  24.662  25.768  1.00  0.00     0.010 C 
ATOM     10  C   UNL A   1      34.462  23.972  23.362  1.00  0.00     0.010 C 
ENDBRANCH   7   8
BRANCH   7  11
ATOM     11  N   UNL A   1      31.857  22.920  25.921  1.00  0.00    -0.344 N 
ATOM     12  C   UNL A   1      30.917  23.815  26.245  1.00  0.00     0.225 C 
ATOM     13  H   UNL A   1      31.978  22.216  26.599  1.00  0.00     0.164 HD
ATOM     14  O   UNL A   1      30.409  23.568  27.358  1.00  0.00    -0.275 OA
BRANCH  12  15
ATOM     15  C   UNL A   1      30.311  24.982  25.463  1.00  0.00     0.136 C 
BRANCH  15  16
ATOM     16  C   UNL A   1      30.727  26.428  24.951  1.00  0.00    -0.031 A 
ATOM     17  C   UNL A   1      29.926  26.760  23.836  1.00  0.00     0.005 A 
ATOM     18  C   UNL A   1      31.501  27.589  25.591  1.00  0.00    -0.015 A 
ATOM     19  C   UNL A   1      29.791  28.062  23.380  1.00  0.00     0.001 A 
ATOM     20  C   UNL A   1      31.380  28.883  25.016  1.00  0.00    -0.018 A 
ATOM     21  C   UNL A   1      32.323  27.730  26.777  1.00  0.00     0.009 A 
ATOM     22  C   UNL A   1      30.509  29.094  23.958  1.00  0.00     0.009 A 
ATOM     23  C   UNL A   1      32.047  30.043  25.508  1.00  0.00     0.009 A 
ATOM     24  C   UNL A   1      33.028  28.848  27.263  1.00  0.00     0.001 A 
ATOM     25  C   UNL A   1      32.892  30.031  26.607  1.00  0.00     0.001 A 
ENDBRANCH  15  16
ENDBRANCH  12  15
ENDBRANCH   7  11
ENDBRANCH   4   7
ENDBRANCH   2   3
ENDBRANCH   1   2
BRANCH   1  26
ATOM     26  C   UNL A   1      37.986  20.435  24.788  1.00  0.00     0.023 C 
BRANCH  26  27
ATOM     27  C   UNL A   1      38.669  19.513  25.886  1.00  0.00     0.116 C 
BRANCH  27  28
ATOM     28  N   UNL A   1      40.011  18.995  25.613  1.00  0.00    -0.352 N 
ATOM     29  C   UNL A   1      41.249  19.432  26.040  1.00  0.00     0.251 C 
ATOM     30  H   UNL A   1      40.034  18.203  25.028  1.00  0.00     0.163 HD
ATOM     31  O   UNL A   1      42.226  18.665  25.882  1.00  0.00    -0.269 OA
BRANCH  29  32
ATOM     32  C   UNL A   1      41.549  20.781  26.601  1.00  0.00     0.039 A 
ATOM     33  C   UNL A   1      41.934  21.782  25.694  1.00  0.00     0.014 A 
ATOM     34  C   UNL A   1      41.660  21.059  27.968  1.00  0.00     0.014 A 
ATOM     35  C   UNL A   1      42.341  23.057  26.132  1.00  0.00     0.010 A 
ATOM     36  C   UNL A   1      42.056  22.350  28.407  1.00  0.00     0.010 A 
ATOM     37  C   UNL A   1      42.382  23.377  27.497  1.00  0.00    -0.014 A 
BRANCH  37  38
ATOM     38  C   UNL A   1      42.717  24.773  27.948  1.00  0.00     0.031 A 
ATOM     39  C   UNL A   1      44.139  25.213  28.217  1.00  0.00     0.074 A 
ATOM     40  C   UNL A   1      41.733  25.684  28.119  1.00  0.00     0.049 A 
ATOM     41  N   UNL A   1      44.584  26.373  28.647  1.00  0.00    -0.248 NA
ATOM     42  C   UNL A   1      45.197  24.226  27.967  1.00  0.00     0.031 C 
ATOM     43  C   UNL A   1      40.310  25.445  27.876  1.00  0.00     0.029 A 
ATOM     44  N   UNL A   1      41.775  26.997  28.539  1.00  0.00    -0.354 N 
ATOM     45  C   UNL A   1      45.968  26.253  28.725  1.00  0.00     0.074 A 
ATOM     46  C   UNL A   1      46.285  24.896  28.328  1.00  0.00     0.031 C 
ATOM     47  C   UNL A   1      39.621  26.568  28.135  1.00  0.00     0.029 A 
ATOM     48  C   UNL A   1      40.539  27.601  28.609  1.00  0.00     0.049 A 
ATOM     49  H   UNL A   1      42.612  27.461  28.769  1.00  0.00     0.167 HD
ATOM     50  C   UNL A   1      46.896  27.181  29.081  1.00  0.00     0.031 A 
ATOM     51  C   UNL A   1      40.171  28.833  29.020  1.00  0.00     0.031 A 
ATOM     52  C   UNL A   1      46.605  28.535  29.488  1.00  0.00     0.049 A 
ATOM     53  C   UNL A   1      41.212  29.814  29.496  1.00  0.00     0.074 A 
ATOM     54  C   UNL A   1      47.493  29.534  29.857  1.00  0.00     0.029 A 
ATOM     55  N   UNL A   1      45.336  29.083  29.581  1.00  0.00    -0.354 N 
ATOM     56  N   UNL A   1      42.514  29.682  29.540  1.00  0.00    -0.248 NA
ATOM     57  C   UNL A   1      40.727  31.121  29.972  1.00  0.00     0.031 C 
ATOM     58  C   UNL A   1      46.760  30.667  30.224  1.00  0.00     0.029 A 
ATOM     59  C   UNL A   1      45.419  30.395  30.020  1.00  0.00     0.049 A 
ATOM     60  H   UNL A   1      44.500  28.610  29.366  1.00  0.00     0.167 HD
ATOM     61  C   UNL A   1      43.004  30.900  30.001  1.00  0.00     0.074 A 
ATOM     62  C   UNL A   1      41.862  31.760  30.220  1.00  0.00     0.031 C 
ATOM     63  C   UNL A   1      44.289  31.267  30.215  1.00  0.00     0.031 A 
BRANCH  50  64
ATOM     64  C   UNL A   1      48.344  26.764  29.063  1.00  0.00    -0.014 A 
ATOM     65  C   UNL A   1      48.948  26.192  30.195  1.00  0.00     0.009 A 
ATOM     66  C   UNL A   1      49.093  26.875  27.880  1.00  0.00     0.009 A 
ATOM     67  C   UNL A   1      50.282  25.778  30.152  1.00  0.00     0.001 A 
ATOM     68  C   UNL A   1      50.418  26.432  27.832  1.00  0.00     0.001 A 
ATOM     69  C   UNL A   1      51.014  25.893  28.971  1.00  0.00     0.000 A 
ENDBRANCH  50  64
BRANCH  51  70
ATOM     70  C   UNL A   1      38.734  29.231  29.022  1.00  0.00    -0.014 A 
ATOM     71  C   UNL A   1      37.941  29.041  30.165  1.00  0.00     0.009 A 
ATOM     72  C   UNL A   1      38.135  29.748  27.863  1.00  0.00     0.009 A 
ATOM     73  C   UNL A   1      36.573  29.327  30.136  1.00  0.00     0.001 A 
ATOM     74  C   UNL A   1      36.775  30.066  27.847  1.00  0.00     0.001 A 
ATOM     75  C   UNL A   1      35.992  29.843  28.979  1.00  0.00     0.000 A 
ENDBRANCH  51  70
BRANCH  63  76
ATOM     76  C   UNL A   1      44.556  32.687  30.643  1.00  0.00    -0.014 A 
ATOM     77  C   UNL A   1      44.735  33.719  29.710  1.00  0.00     0.009 A 
ATOM     78  C   UNL A   1      44.570  33.001  32.012  1.00  0.00     0.009 A 
ATOM     79  C   UNL A   1      44.948  35.032  30.141  1.00  0.00     0.001 A 
ATOM     80  C   UNL A   1      44.753  34.318  32.439  1.00  0.00     0.001 A 
ATOM     81  C   UNL A   1      44.949  35.332  31.503  1.00  0.00     0.000 A 
ENDBRANCH  63  76
ENDBRANCH  37  38
ENDBRANCH  29  32
ENDBRANCH  27  28
ENDBRANCH  26  27
ENDBRANCH   1  26
TORSDOF 15
ENDMDL
MODEL 3
REMARK VINA RESULT:     -10.3      3.195      8.201
REMARK SMILES CC(C)[C@H](NC(=O)Cc1cccc2ccccc12)C(=O)NCCCCNC(=O)c1ccc(-c2c3nc(c(-c4ccccc4)c4ccc([nH]4)c(-c4ccccc4)c4nc(c(-c5ccccc5)c5ccc2[nH]5)C=C4)C=C3)cc1
REMARK SMILES IDX 23 1 22 2 21 3 19 4 20 5 4 7 2 8 1 9 3 10 5 11 6 12 7 14
REMARK SMILES IDX 8 15 9 16 10 17 18 18 11 19 13 20 17 21 12 22 14 23 16 24
REMARK SMILES IDX 15 25 24 26 25 27 26 28 27 29 28 31 29 32 30 33 76 34 31 35
REMARK SMILES IDX 75 36 32 37 33 38 34 39 69 40 35 41 74 42 68 43 70 44 36 45
REMARK SMILES IDX 73 46 67 47 66 48 37 50 59 51 44 52 58 53 45 54 48 55 57 56
REMARK SMILES IDX 71 57 46 58 47 59 56 61 72 62 49 63 38 64 39 65 43 66 40 67
REMARK SMILES IDX 42 68 41 69 60 70 61 71 65 72 62 73 64 74 63 75 50 76 51 77
REMARK SMILES IDX 55 78 52 79 54 80 53 81
REMARK H PARENT 21 6 5 13 26 30 70 49 48 60
REMARK Flexibility Score: inf
ROOT
ATOM      1  C   UNL A   1      38.061  23.297  26.199  1.00  0.00     0.023 C 
ENDROOT
BRANCH   1   2
ATOM      2  C   UNL A   1      36.500  23.364  26.051  1.00  0.00     0.116 C 
BRANCH   2   3
ATOM      3  N   UNL A   1      35.779  24.066  24.991  1.00  0.00    -0.354 N 
ATOM      4  C   UNL A   1      34.424  24.389  25.238  1.00  0.00     0.242 C 
ATOM      5  O   UNL A   1      34.112  25.557  25.521  1.00  0.00    -0.273 OA
ATOM      6  H   UNL A   1      36.218  24.305  24.143  1.00  0.00     0.163 HD
BRANCH   4   7
ATOM      7  C   UNL A   1      33.368  23.314  24.856  1.00  0.00     0.173 C 
BRANCH   7   8
ATOM      8  C   UNL A   1      32.540  23.241  23.553  1.00  0.00     0.015 C 
ATOM      9  C   UNL A   1      32.932  24.171  22.420  1.00  0.00     0.010 C 
ATOM     10  C   UNL A   1      32.465  21.784  23.045  1.00  0.00     0.010 C 
ENDBRANCH   7   8
BRANCH   7  11
ATOM     11  N   UNL A   1      32.488  23.103  25.983  1.00  0.00    -0.344 N 
ATOM     12  C   UNL A   1      31.400  23.743  26.429  1.00  0.00     0.225 C 
ATOM     13  H   UNL A   1      32.741  22.329  26.538  1.00  0.00     0.164 HD
ATOM     14  O   UNL A   1      30.955  23.225  27.473  1.00  0.00    -0.275 OA
BRANCH  12  15
ATOM     15  C   UNL A   1      30.584  24.893  25.836  1.00  0.00     0.136 C 
BRANCH  15  16
ATOM     16  C   UNL A   1      30.824  26.297  25.132  1.00  0.00    -0.031 A 
ATOM     17  C   UNL A   1      30.165  26.295  23.882  1.00  0.00     0.005 A 
ATOM     18  C   UNL A   1      31.279  27.670  25.648  1.00  0.00    -0.015 A 
ATOM     19  C   UNL A   1      29.885  27.461  23.188  1.00  0.00     0.001 A 
ATOM     20  C   UNL A   1      31.033  28.813  24.840  1.00  0.00    -0.018 A 
ATOM     21  C   UNL A   1      31.867  28.146  26.884  1.00  0.00     0.009 A 
ATOM     22  C   UNL A   1      30.317  28.688  23.660  1.00  0.00     0.009 A 
ATOM     23  C   UNL A   1      31.408  30.142  25.198  1.00  0.00     0.009 A 
ATOM     24  C   UNL A   1      32.287  29.440  27.249  1.00  0.00     0.001 A 
ATOM     25  C   UNL A   1      32.058  30.460  26.380  1.00  0.00     0.001 A 
ENDBRANCH  15  16
ENDBRANCH  12  15
ENDBRANCH   7  11
ENDBRANCH   4   7
ENDBRANCH   2   3
ENDBRANCH   1   2
BRANCH   1  26
ATOM     26  C   UNL A   1      38.992  21.967  25.931  1.00  0.00     0.023 C 
BRANCH  26  27
ATOM     27  C   UNL A   1      40.512  21.689  26.296  1.00  0.00     0.116 C 
BRANCH  27  28
ATOM     28  N   UNL A   1      41.542  22.177  25.376  1.00  0.00    -0.352 N 
ATOM     29  C   UNL A   1      42.431  23.226  25.495  1.00  0.00     0.251 C 
ATOM     30  H   UNL A   1      41.612  21.673  24.533  1.00  0.00     0.163 HD
ATOM     31  O   UNL A   1      43.386  23.278  24.687  1.00  0.00    -0.269 OA
BRANCH  29  32
ATOM     32  C   UNL A   1      42.312  24.362  26.454  1.00  0.00     0.039 A 
ATOM     33  C   UNL A   1      41.423  24.203  27.530  1.00  0.00     0.014 A 
ATOM     34  C   UNL A   1      42.869  25.629  26.248  1.00  0.00     0.014 A 
ATOM     35  C   UNL A   1      41.158  25.254  28.430  1.00  0.00     0.010 A 
ATOM     36  C   UNL A   1      42.613  26.683  27.165  1.00  0.00     0.010 A 
ATOM     37  C   UNL A   1      41.771  26.507  28.282  1.00  0.00    -0.014 A 
BRANCH  37  38
ATOM     38  C   UNL A   1      41.562  27.589  29.308  1.00  0.00     0.031 A 
ATOM     39  C   UNL A   1      42.458  27.735  30.517  1.00  0.00     0.074 A 
ATOM     40  C   UNL A   1      40.550  28.474  29.163  1.00  0.00     0.049 A 
ATOM     41  N   UNL A   1      42.382  28.593  31.510  1.00  0.00    -0.248 NA
ATOM     42  C   UNL A   1      43.586  26.800  30.624  1.00  0.00     0.031 C 
ATOM     43  C   UNL A   1      39.608  28.503  28.043  1.00  0.00     0.029 A 
ATOM     44  N   UNL A   1      40.141  29.522  29.961  1.00  0.00    -0.354 N 
ATOM     45  C   UNL A   1      43.445  28.300  32.359  1.00  0.00     0.074 A 
ATOM     46  C   UNL A   1      44.130  27.162  31.779  1.00  0.00     0.031 C 
ATOM     47  C   UNL A   1      38.745  29.518  28.216  1.00  0.00     0.029 A 
ATOM     48  C   UNL A   1      39.036  30.190  29.480  1.00  0.00     0.049 A 
ATOM     49  H   UNL A   1      40.596  29.770  30.798  1.00  0.00     0.167 HD
ATOM     50  C   UNL A   1      43.829  28.918  33.508  1.00  0.00     0.031 A 
ATOM     51  C   UNL A   1      38.321  31.213  29.994  1.00  0.00     0.031 A 
ATOM     52  C   UNL A   1      43.159  30.047  34.109  1.00  0.00     0.049 A 
ATOM     53  C   UNL A   1      38.714  31.823  31.315  1.00  0.00     0.074 A 
ATOM     54  C   UNL A   1      43.493  30.730  35.268  1.00  0.00     0.029 A 
ATOM     55  N   UNL A   1      42.023  30.658  33.605  1.00  0.00    -0.354 N 
ATOM     56  N   UNL A   1      39.733  31.540  32.086  1.00  0.00    -0.248 NA
ATOM     57  C   UNL A   1      37.856  32.904  31.832  1.00  0.00     0.031 C 
ATOM     58  C   UNL A   1      42.530  31.719  35.494  1.00  0.00     0.029 A 
ATOM     59  C   UNL A   1      41.634  31.694  34.440  1.00  0.00     0.049 A 
ATOM     60  H   UNL A   1      41.560  30.396  32.777  1.00  0.00     0.167 HD
ATOM     61  C   UNL A   1      39.667  32.435  33.148  1.00  0.00     0.074 A 
ATOM     62  C   UNL A   1      38.510  33.273  32.924  1.00  0.00     0.031 C 
ATOM     63  C   UNL A   1      40.499  32.551  34.210  1.00  0.00     0.031 A 
BRANCH  50  64
ATOM     64  C   UNL A   1      45.043  28.379  34.220  1.00  0.00    -0.014 A 
ATOM     65  C   UNL A   1      44.929  27.350  35.169  1.00  0.00     0.009 A 
ATOM     66  C   UNL A   1      46.322  28.853  33.887  1.00  0.00     0.009 A 
ATOM     67  C   UNL A   1      46.068  26.836  35.796  1.00  0.00     0.001 A 
ATOM     68  C   UNL A   1      47.461  28.316  34.493  1.00  0.00     0.001 A 
ATOM     69  C   UNL A   1      47.332  27.315  35.455  1.00  0.00     0.000 A 
ENDBRANCH  50  64
BRANCH  51  70
ATOM     70  C   UNL A   1      37.128  31.739  29.270  1.00  0.00    -0.014 A 
ATOM     71  C   UNL A   1      37.182  32.974  28.604  1.00  0.00     0.009 A 
ATOM     72  C   UNL A   1      35.914  31.036  29.289  1.00  0.00     0.009 A 
ATOM     73  C   UNL A   1      36.038  33.510  28.006  1.00  0.00     0.001 A 
ATOM     74  C   UNL A   1      34.780  31.557  28.661  1.00  0.00     0.001 A 
ATOM     75  C   UNL A   1      34.840  32.799  28.032  1.00  0.00     0.000 A 
ENDBRANCH  51  70
BRANCH  63  76
ATOM     76  C   UNL A   1      40.246  33.669  35.187  1.00  0.00    -0.014 A 
ATOM     77  C   UNL A   1      40.742  34.964  34.974  1.00  0.00     0.009 A 
ATOM     78  C   UNL A   1      39.445  33.429  36.316  1.00  0.00     0.009 A 
ATOM     79  C   UNL A   1      40.461  35.987  35.883  1.00  0.00     0.001 A 
ATOM     80  C   UNL A   1      39.142  34.460  37.208  1.00  0.00     0.001 A 
ATOM     81  C   UNL A   1      39.656  35.737  36.994  1.00  0.00     0.000 A 
ENDBRANCH  63  76
ENDBRANCH  37  38
ENDBRANCH  29  32
ENDBRANCH  27  28
ENDBRANCH  26  27
ENDBRANCH   1  26
TORSDOF 15
ENDMDL
