MODEL 1
REMARK VINA RESULT:     -12.4      0.000      0.000
REMARK SMILES Cc1nc2sc3c(c2c2nc(CCC(=O)NCCCCNC(=O)c4ccc(-c5c6nc(c(-c7ccccc7)c7ccc([nH]7)c(-c7ccccc7)c7nc(c(-c8ccccc8)c8ccc5[nH]8)C=C7)C=C6)cc4)nn12)[C@@H](C)CCC3
REMARK SMILES IDX 18 1 17 2 16 3 14 4 15 5 13 7 12 8 11 9 1 10 2 11 3 12 73 13
REMARK SMILES IDX 4 14 9 15 72 16 5 17 8 18 10 19 6 20 7 21 78 22 74 23 77 24
REMARK SMILES IDX 75 25 76 26 19 27 20 28 21 29 22 30 23 32 24 33 25 34 71 35
REMARK SMILES IDX 26 36 70 37 27 38 28 39 29 40 64 41 30 42 69 43 63 44 65 45
REMARK SMILES IDX 31 46 68 47 62 48 61 49 32 51 54 52 39 53 53 54 40 55 43 56
REMARK SMILES IDX 52 57 66 58 41 59 42 60 51 62 67 63 44 64 33 65 34 66 38 67
REMARK SMILES IDX 35 68 37 69 36 70 55 71 56 72 60 73 57 74 59 75 58 76 45 77
REMARK SMILES IDX 46 78 50 79 47 80 49 81 48 82
REMARK H PARENT 16 6 21 31 65 50 43 61
REMARK Flexibility Score: inf
ROOT
ATOM      1  C   UNL A   1      39.143  21.736  26.039  1.00  0.00     0.023 C 
ENDROOT
BRANCH   1   2
ATOM      2  C   UNL A   1      37.848  22.160  25.333  1.00  0.00     0.116 C 
BRANCH   2   3
ATOM      3  N   UNL A   1      36.679  22.134  26.200  1.00  0.00    -0.356 N 
ATOM      4  C   UNL A   1      35.355  22.157  25.890  1.00  0.00     0.220 C 
ATOM      5  O   UNL A   1      34.541  22.258  26.808  1.00  0.00    -0.275 OA
ATOM      6  H   UNL A   1      36.879  22.093  27.163  1.00  0.00     0.163 HD
BRANCH   4   7
ATOM      7  C   UNL A   1      34.918  21.985  24.455  1.00  0.00     0.108 C 
BRANCH   7   8
ATOM      8  C   UNL A   1      35.292  23.192  23.592  1.00  0.00     0.089 C 
BRANCH   8   9
ATOM      9  C   UNL A   1      34.158  24.130  23.345  1.00  0.00     0.152 A 
ATOM     10  C   UNL A   1      32.315  25.498  19.923  1.00  0.00     0.090 C 
ATOM     11  C   UNL A   1      32.055  25.956  21.326  1.00  0.00     0.131 A 
ATOM     12  N   UNL A   1      31.296  26.982  21.581  1.00  0.00    -0.222 NA
ATOM     13  N   UNL A   1      32.743  25.273  22.332  1.00  0.00    -0.199 N 
ATOM     14  C   UNL A   1      31.337  27.462  22.865  1.00  0.00     0.129 A 
ATOM     15  C   UNL A   1      32.781  25.710  23.640  1.00  0.00     0.168 A 
ATOM     16  N   UNL A   1      33.618  24.267  22.124  1.00  0.00    -0.150 NA
ATOM     17  S   UNL A   1      30.497  28.888  23.248  1.00  0.00    -0.120 S 
ATOM     18  C   UNL A   1      32.096  27.012  23.946  1.00  0.00     0.060 A 
ATOM     19  N   UNL A   1      33.641  24.975  24.310  1.00  0.00    -0.211 NA
ATOM     20  C   UNL A   1      31.384  29.082  24.685  1.00  0.00     0.011 A 
ATOM     21  C   UNL A   1      32.206  27.998  25.004  1.00  0.00    -0.018 A 
ATOM     22  C   UNL A   1      31.266  30.378  25.428  1.00  0.00     0.047 C 
ATOM     23  C   UNL A   1      33.024  28.044  26.301  1.00  0.00     0.018 C 
ATOM     24  C   UNL A   1      31.791  30.235  26.850  1.00  0.00     0.006 C 
ATOM     25  C   UNL A   1      34.461  27.535  26.258  1.00  0.00     0.013 C 
ATOM     26  C   UNL A   1      33.128  29.504  26.850  1.00  0.00     0.008 C 
ENDBRANCH   8   9
ENDBRANCH   7   8
ENDBRANCH   4   7
ENDBRANCH   2   3
ENDBRANCH   1   2
BRANCH   1  27
ATOM     27  C   UNL A   1      39.518  20.303  25.693  1.00  0.00     0.023 C 
BRANCH  27  28
ATOM     28  C   UNL A   1      40.422  19.587  26.659  1.00  0.00     0.116 C 
BRANCH  28  29
ATOM     29  N   UNL A   1      41.608  18.860  26.187  1.00  0.00    -0.352 N 
ATOM     30  C   UNL A   1      42.800  19.434  25.720  1.00  0.00     0.251 C 
ATOM     31  H   UNL A   1      41.563  17.877  26.199  1.00  0.00     0.163 HD
ATOM     32  O   UNL A   1      43.648  18.782  25.095  1.00  0.00    -0.269 OA
BRANCH  30  33
ATOM     33  C   UNL A   1      43.047  20.853  26.022  1.00  0.00     0.039 A 
ATOM     34  C   UNL A   1      43.080  21.937  25.142  1.00  0.00     0.014 A 
ATOM     35  C   UNL A   1      43.068  21.105  27.365  1.00  0.00     0.014 A 
ATOM     36  C   UNL A   1      43.059  23.225  25.703  1.00  0.00     0.010 A 
ATOM     37  C   UNL A   1      42.358  22.195  27.725  1.00  0.00     0.010 A 
ATOM     38  C   UNL A   1      42.721  23.331  27.054  1.00  0.00    -0.014 A 
BRANCH  38  39
ATOM     39  C   UNL A   1      42.747  24.496  27.926  1.00  0.00     0.031 A 
ATOM     40  C   UNL A   1      41.609  25.428  27.836  1.00  0.00     0.074 A 
ATOM     41  C   UNL A   1      43.557  24.520  29.021  1.00  0.00     0.049 A 
ATOM     42  N   UNL A   1      41.656  26.683  27.547  1.00  0.00    -0.248 NA
ATOM     43  C   UNL A   1      40.252  24.906  28.050  1.00  0.00     0.031 C 
ATOM     44  C   UNL A   1      44.503  23.493  29.510  1.00  0.00     0.029 A 
ATOM     45  N   UNL A   1      43.582  25.423  30.036  1.00  0.00    -0.354 N 
ATOM     46  C   UNL A   1      40.357  27.159  27.668  1.00  0.00     0.074 A 
ATOM     47  C   UNL A   1      39.515  26.000  27.847  1.00  0.00     0.031 C 
ATOM     48  C   UNL A   1      44.800  23.714  30.808  1.00  0.00     0.029 A 
ATOM     49  C   UNL A   1      44.243  24.997  31.182  1.00  0.00     0.049 A 
ATOM     50  H   UNL A   1      43.163  26.311  29.966  1.00  0.00     0.167 HD
ATOM     51  C   UNL A   1      40.088  28.488  27.791  1.00  0.00     0.031 A 
ATOM     52  C   UNL A   1      44.334  25.650  32.363  1.00  0.00     0.031 A 
ATOM     53  C   UNL A   1      41.247  29.300  27.514  1.00  0.00     0.049 A 
ATOM     54  C   UNL A   1      44.045  27.076  32.085  1.00  0.00     0.074 A 
ATOM     55  C   UNL A   1      42.056  29.471  26.407  1.00  0.00     0.029 A 
ATOM     56  N   UNL A   1      41.989  29.743  28.585  1.00  0.00    -0.354 N 
ATOM     57  N   UNL A   1      44.810  27.826  31.344  1.00  0.00    -0.248 NA
ATOM     58  C   UNL A   1      42.674  27.537  32.232  1.00  0.00     0.031 C 
ATOM     59  C   UNL A   1      43.384  29.506  26.929  1.00  0.00     0.029 A 
ATOM     60  C   UNL A   1      43.304  29.434  28.322  1.00  0.00     0.049 A 
ATOM     61  H   UNL A   1      41.644  30.196  29.388  1.00  0.00     0.167 HD
ATOM     62  C   UNL A   1      43.932  28.585  30.581  1.00  0.00     0.074 A 
ATOM     63  C   UNL A   1      42.639  28.446  31.251  1.00  0.00     0.031 C 
ATOM     64  C   UNL A   1      44.263  29.011  29.323  1.00  0.00     0.031 A 
BRANCH  51  65
ATOM     65  C   UNL A   1      38.852  29.036  28.440  1.00  0.00    -0.014 A 
ATOM     66  C   UNL A   1      38.647  28.840  29.815  1.00  0.00     0.009 A 
ATOM     67  C   UNL A   1      37.773  29.562  27.703  1.00  0.00     0.009 A 
ATOM     68  C   UNL A   1      37.419  29.140  30.416  1.00  0.00     0.001 A 
ATOM     69  C   UNL A   1      36.560  29.902  28.306  1.00  0.00     0.001 A 
ATOM     70  C   UNL A   1      36.377  29.674  29.662  1.00  0.00     0.000 A 
ENDBRANCH  51  65
BRANCH  52  71
ATOM     71  C   UNL A   1      44.396  25.078  33.725  1.00  0.00    -0.014 A 
ATOM     72  C   UNL A   1      43.483  24.101  34.142  1.00  0.00     0.009 A 
ATOM     73  C   UNL A   1      45.526  25.308  34.534  1.00  0.00     0.009 A 
ATOM     74  C   UNL A   1      43.717  23.347  35.302  1.00  0.00     0.001 A 
ATOM     75  C   UNL A   1      45.757  24.559  35.693  1.00  0.00     0.001 A 
ATOM     76  C   UNL A   1      44.861  23.565  36.068  1.00  0.00     0.000 A 
ENDBRANCH  52  71
BRANCH  64  77
ATOM     77  C   UNL A   1      45.683  28.761  28.842  1.00  0.00    -0.014 A 
ATOM     78  C   UNL A   1      46.060  27.594  28.150  1.00  0.00     0.009 A 
ATOM     79  C   UNL A   1      46.629  29.790  28.943  1.00  0.00     0.009 A 
ATOM     80  C   UNL A   1      47.342  27.447  27.608  1.00  0.00     0.001 A 
ATOM     81  C   UNL A   1      47.905  29.654  28.386  1.00  0.00     0.001 A 
ATOM     82  C   UNL A   1      48.265  28.481  27.725  1.00  0.00     0.000 A 
ENDBRANCH  64  77
ENDBRANCH  38  39
ENDBRANCH  30  33
ENDBRANCH  28  29
ENDBRANCH  27  28
ENDBRANCH   1  27
TORSDOF 13
ENDMDL
MODEL 2
REMARK VINA RESULT:     -12.2      4.647      9.932
REMARK SMILES Cc1nc2sc3c(c2c2nc(CCC(=O)NCCCCNC(=O)c4ccc(-c5c6nc(c(-c7ccccc7)c7ccc([nH]7)c(-c7ccccc7)c7nc(c(-c8ccccc8)c8ccc5[nH]8)C=C7)C=C6)cc4)nn12)[C@@H](C)CCC3
REMARK SMILES IDX 18 1 17 2 16 3 14 4 15 5 13 7 12 8 11 9 1 10 2 11 3 12 73 13
REMARK SMILES IDX 4 14 9 15 72 16 5 17 8 18 10 19 6 20 7 21 78 22 74 23 77 24
REMARK SMILES IDX 75 25 76 26 19 27 20 28 21 29 22 30 23 32 24 33 25 34 71 35
REMARK SMILES IDX 26 36 70 37 27 38 28 39 29 40 64 41 30 42 69 43 63 44 65 45
REMARK SMILES IDX 31 46 68 47 62 48 61 49 32 51 54 52 39 53 53 54 40 55 43 56
REMARK SMILES IDX 52 57 66 58 41 59 42 60 51 62 67 63 44 64 33 65 34 66 38 67
REMARK SMILES IDX 35 68 37 69 36 70 55 71 56 72 60 73 57 74 59 75 58 76 45 77
REMARK SMILES IDX 46 78 50 79 47 80 49 81 48 82
REMARK H PARENT 16 6 21 31 65 50 43 61
REMARK Flexibility Score: inf
ROOT
ATOM      1  C   UNL A   1      40.710  32.942  35.297  1.00  0.00     0.023 C 
ENDROOT
BRANCH   1   2
ATOM      2  C   UNL A   1      39.866  34.011  36.003  1.00  0.00     0.116 C 
BRANCH   2   3
ATOM      3  N   UNL A   1      38.878  33.461  36.919  1.00  0.00    -0.356 N 
ATOM      4  C   UNL A   1      37.571  33.144  36.715  1.00  0.00     0.220 C 
ATOM      5  O   UNL A   1      36.892  32.810  37.686  1.00  0.00    -0.275 OA
ATOM      6  H   UNL A   1      39.209  33.290  37.830  1.00  0.00     0.163 HD
BRANCH   4   7
ATOM      7  C   UNL A   1      37.011  33.140  35.313  1.00  0.00     0.108 C 
BRANCH   7   8
ATOM      8  C   UNL A   1      35.942  34.218  35.117  1.00  0.00     0.089 C 
BRANCH   8   9
ATOM      9  C   UNL A   1      35.484  34.361  33.704  1.00  0.00     0.152 A 
ATOM     10  C   UNL A   1      32.210  36.157  31.962  1.00  0.00     0.090 C 
ATOM     11  C   UNL A   1      33.248  35.324  31.273  1.00  0.00     0.131 A 
ATOM     12  N   UNL A   1      33.115  34.952  30.032  1.00  0.00    -0.222 NA
ATOM     13  N   UNL A   1      34.318  34.899  32.064  1.00  0.00    -0.199 N 
ATOM     14  C   UNL A   1      33.987  33.990  29.591  1.00  0.00     0.129 A 
ATOM     15  C   UNL A   1      35.231  33.955  31.642  1.00  0.00     0.168 A 
ATOM     16  N   UNL A   1      34.462  35.167  33.379  1.00  0.00    -0.150 NA
ATOM     17  S   UNL A   1      33.789  33.337  28.036  1.00  0.00    -0.120 S 
ATOM     18  C   UNL A   1      34.998  33.334  30.294  1.00  0.00     0.060 A 
ATOM     19  N   UNL A   1      36.006  33.629  32.653  1.00  0.00    -0.211 NA
ATOM     20  C   UNL A   1      34.779  32.009  28.414  1.00  0.00     0.011 A 
ATOM     21  C   UNL A   1      35.423  32.105  29.649  1.00  0.00    -0.018 A 
ATOM     22  C   UNL A   1      34.824  30.856  27.457  1.00  0.00     0.047 C 
ATOM     23  C   UNL A   1      36.374  30.981  30.080  1.00  0.00     0.018 C 
ATOM     24  C   UNL A   1      36.025  29.965  27.742  1.00  0.00     0.006 C 
ATOM     25  C   UNL A   1      36.325  30.520  31.533  1.00  0.00     0.013 C 
ATOM     26  C   UNL A   1      36.135  29.687  29.236  1.00  0.00     0.008 C 
ENDBRANCH   8   9
ENDBRANCH   7   8
ENDBRANCH   4   7
ENDBRANCH   2   3
ENDBRANCH   1   2
BRANCH   1  27
ATOM     27  C   UNL A   1      40.660  33.107  33.785  1.00  0.00     0.023 C 
BRANCH  27  28
ATOM     28  C   UNL A   1      39.511  32.452  33.069  1.00  0.00     0.116 C 
BRANCH  28  29
ATOM     29  N   UNL A   1      38.843  33.120  31.944  1.00  0.00    -0.352 N 
ATOM     30  C   UNL A   1      39.280  33.131  30.610  1.00  0.00     0.251 C 
ATOM     31  H   UNL A   1      38.011  33.605  32.143  1.00  0.00     0.163 HD
ATOM     32  O   UNL A   1      38.826  33.921  29.771  1.00  0.00    -0.269 OA
BRANCH  30  33
ATOM     33  C   UNL A   1      40.289  32.138  30.206  1.00  0.00     0.039 A 
ATOM     34  C   UNL A   1      41.678  32.277  30.167  1.00  0.00     0.014 A 
ATOM     35  C   UNL A   1      39.754  30.894  30.023  1.00  0.00     0.014 A 
ATOM     36  C   UNL A   1      42.440  31.106  30.015  1.00  0.00     0.010 A 
ATOM     37  C   UNL A   1      40.475  29.904  30.591  1.00  0.00     0.010 A 
ATOM     38  C   UNL A   1      41.785  29.886  30.199  1.00  0.00    -0.014 A 
BRANCH  38  39
ATOM     39  C   UNL A   1      42.272  28.532  29.978  1.00  0.00     0.031 A 
ATOM     40  C   UNL A   1      42.932  27.861  31.112  1.00  0.00     0.074 A 
ATOM     41  C   UNL A   1      41.803  27.794  28.934  1.00  0.00     0.049 A 
ATOM     42  N   UNL A   1      44.131  27.392  31.145  1.00  0.00    -0.248 NA
ATOM     43  C   UNL A   1      42.194  27.728  32.377  1.00  0.00     0.031 C 
ATOM     44  C   UNL A   1      40.820  28.161  27.891  1.00  0.00     0.029 A 
ATOM     45  N   UNL A   1      41.995  26.473  28.678  1.00  0.00    -0.354 N 
ATOM     46  C   UNL A   1      44.276  26.780  32.382  1.00  0.00     0.074 A 
ATOM     47  C   UNL A   1      43.105  27.132  33.149  1.00  0.00     0.031 C 
ATOM     48  C   UNL A   1      40.332  27.051  27.299  1.00  0.00     0.029 A 
ATOM     49  C   UNL A   1      41.107  25.920  27.762  1.00  0.00     0.049 A 
ATOM     50  H   UNL A   1      42.707  25.947  29.108  1.00  0.00     0.167 HD
ATOM     51  C   UNL A   1      45.267  25.878  32.625  1.00  0.00     0.031 A 
ATOM     52  C   UNL A   1      41.011  24.619  27.402  1.00  0.00     0.031 A 
ATOM     53  C   UNL A   1      46.250  25.861  31.570  1.00  0.00     0.049 A 
ATOM     54  C   UNL A   1      42.299  23.981  27.759  1.00  0.00     0.074 A 
ATOM     55  C   UNL A   1      47.111  26.806  31.045  1.00  0.00     0.029 A 
ATOM     56  N   UNL A   1      46.131  24.891  30.600  1.00  0.00    -0.354 N 
ATOM     57  N   UNL A   1      43.430  24.296  27.196  1.00  0.00    -0.248 NA
ATOM     58  C   UNL A   1      42.408  23.343  29.060  1.00  0.00     0.031 C 
ATOM     59  C   UNL A   1      47.038  26.618  29.632  1.00  0.00     0.029 A 
ATOM     60  C   UNL A   1      46.204  25.526  29.382  1.00  0.00     0.049 A 
ATOM     61  H   UNL A   1      46.016  23.925  30.750  1.00  0.00     0.167 HD
ATOM     62  C   UNL A   1      44.352  24.312  28.234  1.00  0.00     0.074 A 
ATOM     63  C   UNL A   1      43.690  23.608  29.332  1.00  0.00     0.031 C 
ATOM     64  C   UNL A   1      45.439  25.144  28.211  1.00  0.00     0.031 A 
BRANCH  51  65
ATOM     65  C   UNL A   1      45.191  24.813  33.678  1.00  0.00    -0.014 A 
ATOM     66  C   UNL A   1      44.528  23.608  33.397  1.00  0.00     0.009 A 
ATOM     67  C   UNL A   1      45.570  25.035  35.016  1.00  0.00     0.009 A 
ATOM     68  C   UNL A   1      44.245  22.681  34.408  1.00  0.00     0.001 A 
ATOM     69  C   UNL A   1      45.327  24.095  36.021  1.00  0.00     0.001 A 
ATOM     70  C   UNL A   1      44.647  22.923  35.719  1.00  0.00     0.000 A 
ENDBRANCH  51  65
BRANCH  52  71
ATOM     71  C   UNL A   1      39.801  23.862  27.016  1.00  0.00    -0.014 A 
ATOM     72  C   UNL A   1      38.578  24.511  26.801  1.00  0.00     0.009 A 
ATOM     73  C   UNL A   1      39.912  22.520  26.602  1.00  0.00     0.009 A 
ATOM     74  C   UNL A   1      37.521  23.856  26.152  1.00  0.00     0.001 A 
ATOM     75  C   UNL A   1      38.857  21.866  25.959  1.00  0.00     0.001 A 
ATOM     76  C   UNL A   1      37.666  22.540  25.718  1.00  0.00     0.000 A 
ENDBRANCH  52  71
BRANCH  64  77
ATOM     77  C   UNL A   1      45.695  25.940  26.942  1.00  0.00    -0.014 A 
ATOM     78  C   UNL A   1      45.135  27.213  26.714  1.00  0.00     0.009 A 
ATOM     79  C   UNL A   1      46.647  25.476  26.025  1.00  0.00     0.009 A 
ATOM     80  C   UNL A   1      45.488  27.977  25.595  1.00  0.00     0.001 A 
ATOM     81  C   UNL A   1      47.015  26.246  24.916  1.00  0.00     0.001 A 
ATOM     82  C   UNL A   1      46.433  27.493  24.697  1.00  0.00     0.000 A 
ENDBRANCH  64  77
ENDBRANCH  38  39
ENDBRANCH  30  33
ENDBRANCH  28  29
ENDBRANCH  27  28
ENDBRANCH   1  27
TORSDOF 13
ENDMDL
MODEL 3
REMARK VINA RESULT:     -12.1      4.334      9.558
REMARK SMILES Cc1nc2sc3c(c2c2nc(CCC(=O)NCCCCNC(=O)c4ccc(-c5c6nc(c(-c7ccccc7)c7ccc([nH]7)c(-c7ccccc7)c7nc(c(-c8ccccc8)c8ccc5[nH]8)C=C7)C=C6)cc4)nn12)[C@@H](C)CCC3
REMARK SMILES IDX 18 1 17 2 16 3 14 4 15 5 13 7 12 8 11 9 1 10 2 11 3 12 73 13
REMARK SMILES IDX 4 14 9 15 72 16 5 17 8 18 10 19 6 20 7 21 78 22 74 23 77 24
REMARK SMILES IDX 75 25 76 26 19 27 20 28 21 29 22 30 23 32 24 33 25 34 71 35
REMARK SMILES IDX 26 36 70 37 27 38 28 39 29 40 64 41 30 42 69 43 63 44 65 45
REMARK SMILES IDX 31 46 68 47 62 48 61 49 32 51 54 52 39 53 53 54 40 55 43 56
REMARK SMILES IDX 52 57 66 58 41 59 42 60 51 62 67 63 44 64 33 65 34 66 38 67
REMARK SMILES IDX 35 68 37 69 36 70 55 71 56 72 60 73 57 74 59 75 58 76 45 77
REMARK SMILES IDX 46 78 50 79 47 80 49 81 48 82
REMARK H PARENT 16 6 21 31 65 50 43 61
REMARK Flexibility Score: inf
ROOT
ATOM      1  C   UNL A   1      34.095  31.336  27.791  1.00  0.00     0.023 C 
ENDROOT
BRANCH   1   2
ATOM      2  C   UNL A   1      33.642  30.063  27.062  1.00  0.00     0.116 C 
BRANCH   2   3
ATOM      3  N   UNL A   1      32.666  29.283  27.808  1.00  0.00    -0.356 N 
ATOM      4  C   UNL A   1      31.762  28.362  27.377  1.00  0.00     0.220 C 
ATOM      5  O   UNL A   1      30.944  27.923  28.184  1.00  0.00    -0.275 OA
ATOM      6  H   UNL A   1      32.658  29.448  28.779  1.00  0.00     0.163 HD
BRANCH   4   7
ATOM      7  C   UNL A   1      31.831  27.853  25.957  1.00  0.00     0.108 C 
BRANCH   7   8
ATOM      8  C   UNL A   1      33.142  27.115  25.673  1.00  0.00     0.089 C 
BRANCH   8   9
ATOM      9  C   UNL A   1      32.966  25.657  25.407  1.00  0.00     0.152 A 
ATOM     10  C   UNL A   1      30.122  22.900  26.541  1.00  0.00     0.090 C 
ATOM     11  C   UNL A   1      31.393  22.623  25.797  1.00  0.00     0.131 A 
ATOM     12  N   UNL A   1      31.800  21.408  25.566  1.00  0.00    -0.222 NA
ATOM     13  N   UNL A   1      32.154  23.740  25.444  1.00  0.00    -0.199 N 
ATOM     14  C   UNL A   1      33.087  21.276  25.111  1.00  0.00     0.129 A 
ATOM     15  C   UNL A   1      33.440  23.644  24.956  1.00  0.00     0.168 A 
ATOM     16  N   UNL A   1      31.835  25.017  25.741  1.00  0.00    -0.150 NA
ATOM     17  S   UNL A   1      33.751  19.724  24.929  1.00  0.00    -0.120 S 
ATOM     18  C   UNL A   1      34.038  22.269  24.872  1.00  0.00     0.060 A 
ATOM     19  N   UNL A   1      33.960  24.850  24.885  1.00  0.00    -0.211 NA
ATOM     20  C   UNL A   1      35.329  20.352  24.871  1.00  0.00     0.011 A 
ATOM     21  C   UNL A   1      35.391  21.746  24.810  1.00  0.00    -0.018 A 
ATOM     22  C   UNL A   1      36.481  19.397  24.955  1.00  0.00     0.047 C 
ATOM     23  C   UNL A   1      36.763  22.425  24.714  1.00  0.00     0.018 C 
ATOM     24  C   UNL A   1      37.770  20.066  24.498  1.00  0.00     0.006 C 
ATOM     25  C   UNL A   1      36.998  23.684  25.543  1.00  0.00     0.013 C 
ATOM     26  C   UNL A   1      37.906  21.445  25.134  1.00  0.00     0.008 C 
ENDBRANCH   8   9
ENDBRANCH   7   8
ENDBRANCH   4   7
ENDBRANCH   2   3
ENDBRANCH   1   2
BRANCH   1  27
ATOM     27  C   UNL A   1      32.963  32.347  27.893  1.00  0.00     0.023 C 
BRANCH  27  28
ATOM     28  C   UNL A   1      33.288  33.767  27.521  1.00  0.00     0.116 C 
BRANCH  28  29
ATOM     29  N   UNL A   1      32.833  34.890  28.353  1.00  0.00    -0.352 N 
ATOM     30  C   UNL A   1      33.168  35.114  29.697  1.00  0.00     0.251 C 
ATOM     31  H   UNL A   1      32.236  35.547  27.928  1.00  0.00     0.163 HD
ATOM     32  O   UNL A   1      32.549  35.917  30.408  1.00  0.00    -0.269 OA
BRANCH  30  33
ATOM     33  C   UNL A   1      34.320  34.385  30.251  1.00  0.00     0.039 A 
ATOM     34  C   UNL A   1      34.329  33.382  31.223  1.00  0.00     0.014 A 
ATOM     35  C   UNL A   1      35.477  34.641  29.570  1.00  0.00     0.014 A 
ATOM     36  C   UNL A   1      35.517  32.649  31.384  1.00  0.00     0.010 A 
ATOM     37  C   UNL A   1      36.198  33.534  29.289  1.00  0.00     0.010 A 
ATOM     38  C   UNL A   1      36.488  32.775  30.388  1.00  0.00    -0.014 A 
BRANCH  38  39
ATOM     39  C   UNL A   1      37.847  32.255  30.350  1.00  0.00     0.031 A 
ATOM     40  C   UNL A   1      38.029  30.888  29.830  1.00  0.00     0.074 A 
ATOM     41  C   UNL A   1      38.912  33.102  30.415  1.00  0.00     0.049 A 
ATOM     42  N   UNL A   1      38.554  29.886  30.447  1.00  0.00    -0.248 NA
ATOM     43  C   UNL A   1      37.535  30.577  28.481  1.00  0.00     0.031 C 
ATOM     44  C   UNL A   1      38.931  34.575  30.545  1.00  0.00     0.029 A 
ATOM     45  N   UNL A   1      40.227  32.826  30.211  1.00  0.00    -0.354 N 
ATOM     46  C   UNL A   1      38.589  28.841  29.534  1.00  0.00     0.074 A 
ATOM     47  C   UNL A   1      37.829  29.278  28.387  1.00  0.00     0.031 C 
ATOM     48  C   UNL A   1      40.135  35.060  30.171  1.00  0.00     0.029 A 
ATOM     49  C   UNL A   1      41.028  33.937  29.980  1.00  0.00     0.049 A 
ATOM     50  H   UNL A   1      40.585  31.909  30.226  1.00  0.00     0.167 HD
ATOM     51  C   UNL A   1      39.392  27.757  29.715  1.00  0.00     0.031 A 
ATOM     52  C   UNL A   1      42.342  33.943  29.654  1.00  0.00     0.031 A 
ATOM     53  C   UNL A   1      39.956  27.718  31.042  1.00  0.00     0.049 A 
ATOM     54  C   UNL A   1      42.889  32.629  30.063  1.00  0.00     0.074 A 
ATOM     55  C   UNL A   1      39.416  27.647  32.311  1.00  0.00     0.029 A 
ATOM     56  N   UNL A   1      41.231  28.210  31.209  1.00  0.00    -0.354 N 
ATOM     57  N   UNL A   1      42.958  32.241  31.305  1.00  0.00    -0.248 NA
ATOM     58  C   UNL A   1      42.916  31.563  29.076  1.00  0.00     0.031 C 
ATOM     59  C   UNL A   1      40.182  28.570  33.085  1.00  0.00     0.029 A 
ATOM     60  C   UNL A   1      41.188  29.090  32.267  1.00  0.00     0.049 A 
ATOM     61  H   UNL A   1      42.023  27.977  30.674  1.00  0.00     0.167 HD
ATOM     62  C   UNL A   1      42.589  30.903  31.281  1.00  0.00     0.074 A 
ATOM     63  C   UNL A   1      42.686  30.514  29.873  1.00  0.00     0.031 C 
ATOM     64  C   UNL A   1      41.958  30.316  32.344  1.00  0.00     0.031 A 
BRANCH  51  65
ATOM     65  C   UNL A   1      39.891  26.887  28.598  1.00  0.00    -0.014 A 
ATOM     66  C   UNL A   1      40.587  27.469  27.527  1.00  0.00     0.009 A 
ATOM     67  C   UNL A   1      39.517  25.537  28.458  1.00  0.00     0.009 A 
ATOM     68  C   UNL A   1      40.879  26.739  26.368  1.00  0.00     0.001 A 
ATOM     69  C   UNL A   1      39.843  24.793  27.321  1.00  0.00     0.001 A 
ATOM     70  C   UNL A   1      40.509  25.400  26.267  1.00  0.00     0.000 A 
ENDBRANCH  51  65
BRANCH  52  71
ATOM     71  C   UNL A   1      43.068  34.900  28.793  1.00  0.00    -0.014 A 
ATOM     72  C   UNL A   1      44.345  35.363  29.141  1.00  0.00     0.009 A 
ATOM     73  C   UNL A   1      42.612  35.159  27.486  1.00  0.00     0.009 A 
ATOM     74  C   UNL A   1      45.152  36.019  28.200  1.00  0.00     0.001 A 
ATOM     75  C   UNL A   1      43.415  35.817  26.549  1.00  0.00     0.001 A 
ATOM     76  C   UNL A   1      44.694  36.232  26.901  1.00  0.00     0.000 A 
ENDBRANCH  52  71
BRANCH  64  77
ATOM     77  C   UNL A   1      41.811  31.132  33.618  1.00  0.00    -0.014 A 
ATOM     78  C   UNL A   1      42.682  30.997  34.716  1.00  0.00     0.009 A 
ATOM     79  C   UNL A   1      40.876  32.175  33.655  1.00  0.00     0.009 A 
ATOM     80  C   UNL A   1      42.600  31.849  35.824  1.00  0.00     0.001 A 
ATOM     81  C   UNL A   1      40.805  33.041  34.753  1.00  0.00     0.001 A 
ATOM     82  C   UNL A   1      41.662  32.875  35.839  1.00  0.00     0.000 A 
ENDBRANCH  64  77
ENDBRANCH  38  39
ENDBRANCH  30  33
ENDBRANCH  28  29
ENDBRANCH  27  28
ENDBRANCH   1  27
TORSDOF 13
ENDMDL
