MODEL 1
REMARK VINA RESULT:     -10.6      0.000      0.000
REMARK SMILES CC[C@H](C(=O)NCCCCNC(=O)c1ccc(-c2c3nc(c(-c4ccccc4)c4ccc([nH]4)c(-c4ccccc4)c4nc(c(-c5ccccc5)c5ccc2[nH]5)C=C4)C=C3)cc1)N(C)c1cc(C)ccc1[N+](=O)[O-]
REMARK SMILES IDX 8 1 7 2 6 3 4 4 5 5 3 7 2 8 1 9 62 10 63 11 64 12 65 13
REMARK SMILES IDX 70 14 66 15 69 16 67 17 68 18 71 19 72 20 73 21 9 22 10 23
REMARK SMILES IDX 11 24 12 25 13 27 14 28 15 29 61 30 16 31 60 32 17 33 18 34
REMARK SMILES IDX 19 35 54 36 20 37 59 38 53 39 55 40 21 41 58 42 52 43 51 44
REMARK SMILES IDX 22 46 44 47 29 48 43 49 30 50 33 51 42 52 56 53 31 54 32 55
REMARK SMILES IDX 41 57 57 58 34 59 23 60 24 61 28 62 25 63 27 64 26 65 45 66
REMARK SMILES IDX 46 67 50 68 47 69 49 70 48 71 35 72 36 73 40 74 37 75 39 76
REMARK SMILES IDX 38 77
REMARK H PARENT 6 6 11 26 55 45 33 56
REMARK Flexibility Score: inf
ROOT
ATOM      1  C   UNL A   1      36.699  21.258  24.558  1.00  0.00     0.023 C 
ENDROOT
BRANCH   1   2
ATOM      2  C   UNL A   1      36.499  22.349  25.607  1.00  0.00     0.116 C 
BRANCH   2   3
ATOM      3  N   UNL A   1      35.552  21.920  26.611  1.00  0.00    -0.354 N 
ATOM      4  C   UNL A   1      34.214  21.697  26.563  1.00  0.00     0.242 C 
ATOM      5  O   UNL A   1      33.680  21.379  27.634  1.00  0.00    -0.273 OA
ATOM      6  H   UNL A   1      35.953  21.759  27.496  1.00  0.00     0.163 HD
BRANCH   4   7
ATOM      7  C   UNL A   1      33.373  21.767  25.271  1.00  0.00     0.171 C 
BRANCH   7   8
ATOM      8  C   UNL A   1      32.709  20.484  24.750  1.00  0.00     0.032 C 
ATOM      9  C   UNL A   1      33.631  19.270  24.777  1.00  0.00     0.006 C 
ENDBRANCH   7   8
BRANCH   7  10
ATOM     10  N   UNL A   1      32.456  22.948  25.209  1.00  0.00    -0.357 N 
ATOM     11  C   UNL A   1      31.059  22.703  25.576  1.00  0.00     0.144 C 
BRANCH  10  12
ATOM     12  C   UNL A   1      32.850  24.281  25.168  1.00  0.00     0.116 A 
ATOM     13  C   UNL A   1      32.411  25.162  26.184  1.00  0.00     0.036 A 
ATOM     14  C   UNL A   1      33.572  24.890  24.123  1.00  0.00     0.292 A 
ATOM     15  C   UNL A   1      32.673  26.548  26.167  1.00  0.00    -0.049 A 
ATOM     16  C   UNL A   1      33.919  26.257  24.130  1.00  0.00     0.088 A 
ATOM     17  C   UNL A   1      32.029  27.449  27.181  1.00  0.00     0.044 C 
ATOM     18  C   UNL A   1      33.465  27.082  25.151  1.00  0.00     0.010 A 
BRANCH  14  19
ATOM     19  N   UNL A   1      33.860  24.194  22.877  1.00  0.00     0.064 N 
ATOM     20  O   UNL A   1      32.907  24.038  22.094  1.00  0.00    -0.258 OA
ATOM     21  O   UNL A   1      34.990  23.709  22.735  1.00  0.00    -0.258 OA
ENDBRANCH  14  19
ENDBRANCH  10  12
ENDBRANCH   7  10
ENDBRANCH   4   7
ENDBRANCH   2   3
ENDBRANCH   1   2
BRANCH   1  22
ATOM     22  C   UNL A   1      37.605  20.116  25.021  1.00  0.00     0.023 C 
BRANCH  22  23
ATOM     23  C   UNL A   1      38.917  20.564  25.654  1.00  0.00     0.116 C 
BRANCH  23  24
ATOM     24  N   UNL A   1      39.898  19.491  25.745  1.00  0.00    -0.352 N 
ATOM     25  C   UNL A   1      41.214  19.568  26.125  1.00  0.00     0.251 C 
ATOM     26  H   UNL A   1      39.575  18.593  25.501  1.00  0.00     0.163 HD
ATOM     27  O   UNL A   1      41.958  18.598  26.030  1.00  0.00    -0.269 OA
BRANCH  25  28
ATOM     28  C   UNL A   1      41.727  20.855  26.627  1.00  0.00     0.039 A 
ATOM     29  C   UNL A   1      42.241  21.781  25.719  1.00  0.00     0.014 A 
ATOM     30  C   UNL A   1      41.621  21.164  27.986  1.00  0.00     0.014 A 
ATOM     31  C   UNL A   1      42.587  23.056  26.167  1.00  0.00     0.010 A 
ATOM     32  C   UNL A   1      41.901  22.453  28.415  1.00  0.00     0.010 A 
ATOM     33  C   UNL A   1      42.383  23.411  27.510  1.00  0.00    -0.014 A 
BRANCH  33  34
ATOM     34  C   UNL A   1      42.663  24.782  27.998  1.00  0.00     0.031 A 
ATOM     35  C   UNL A   1      44.055  25.152  28.424  1.00  0.00     0.074 A 
ATOM     36  C   UNL A   1      41.653  25.661  28.138  1.00  0.00     0.049 A 
ATOM     37  N   UNL A   1      44.484  26.262  28.967  1.00  0.00    -0.248 NA
ATOM     38  C   UNL A   1      45.096  24.127  28.244  1.00  0.00     0.031 C 
ATOM     39  C   UNL A   1      40.249  25.406  27.803  1.00  0.00     0.029 A 
ATOM     40  N   UNL A   1      41.652  26.947  28.613  1.00  0.00    -0.354 N 
ATOM     41  C   UNL A   1      45.835  26.059  29.218  1.00  0.00     0.074 A 
ATOM     42  C   UNL A   1      46.144  24.706  28.809  1.00  0.00     0.031 C 
ATOM     43  C   UNL A   1      39.528  26.509  28.064  1.00  0.00     0.029 A 
ATOM     44  C   UNL A   1      40.409  27.533  28.616  1.00  0.00     0.049 A 
ATOM     45  H   UNL A   1      42.465  27.408  28.923  1.00  0.00     0.167 HD
ATOM     46  C   UNL A   1      46.740  26.926  29.728  1.00  0.00     0.031 A 
ATOM     47  C   UNL A   1      40.022  28.755  29.025  1.00  0.00     0.031 A 
ATOM     48  C   UNL A   1      46.437  28.276  30.112  1.00  0.00     0.049 A 
ATOM     49  C   UNL A   1      41.049  29.703  29.578  1.00  0.00     0.074 A 
ATOM     50  C   UNL A   1      47.298  29.254  30.577  1.00  0.00     0.029 A 
ATOM     51  N   UNL A   1      45.171  28.839  30.074  1.00  0.00    -0.354 N 
ATOM     52  N   UNL A   1      42.335  29.519  29.746  1.00  0.00    -0.248 NA
ATOM     53  C   UNL A   1      40.569  31.031  29.987  1.00  0.00     0.031 C 
ATOM     54  C   UNL A   1      46.545  30.400  30.856  1.00  0.00     0.029 A 
ATOM     55  C   UNL A   1      45.224  30.148  30.522  1.00  0.00     0.049 A 
ATOM     56  H   UNL A   1      44.355  28.377  29.772  1.00  0.00     0.167 HD
ATOM     57  C   UNL A   1      42.825  30.714  30.256  1.00  0.00     0.074 A 
ATOM     58  C   UNL A   1      41.699  31.621  30.358  1.00  0.00     0.031 C 
ATOM     59  C   UNL A   1      44.093  31.034  30.610  1.00  0.00     0.031 A 
BRANCH  46  60
ATOM     60  C   UNL A   1      48.147  26.429  29.897  1.00  0.00    -0.014 A 
ATOM     61  C   UNL A   1      48.566  25.829  31.096  1.00  0.00     0.009 A 
ATOM     62  C   UNL A   1      49.061  26.546  28.839  1.00  0.00     0.009 A 
ATOM     63  C   UNL A   1      49.883  25.388  31.242  1.00  0.00     0.001 A 
ATOM     64  C   UNL A   1      50.369  26.079  28.979  1.00  0.00     0.001 A 
ATOM     65  C   UNL A   1      50.781  25.510  30.183  1.00  0.00     0.000 A 
ENDBRANCH  46  60
BRANCH  47  66
ATOM     66  C   UNL A   1      38.599  29.164  28.910  1.00  0.00    -0.014 A 
ATOM     67  C   UNL A   1      37.731  29.022  30.004  1.00  0.00     0.009 A 
ATOM     68  C   UNL A   1      38.100  29.693  27.710  1.00  0.00     0.009 A 
ATOM     69  C   UNL A   1      36.386  29.378  29.890  1.00  0.00     0.001 A 
ATOM     70  C   UNL A   1      36.760  30.072  27.608  1.00  0.00     0.001 A 
ATOM     71  C   UNL A   1      35.901  29.905  28.693  1.00  0.00     0.000 A 
ENDBRANCH  47  66
BRANCH  59  72
ATOM     72  C   UNL A   1      44.336  32.429  31.104  1.00  0.00    -0.014 A 
ATOM     73  C   UNL A   1      44.630  33.474  30.213  1.00  0.00     0.009 A 
ATOM     74  C   UNL A   1      44.224  32.711  32.474  1.00  0.00     0.009 A 
ATOM     75  C   UNL A   1      44.833  34.769  30.692  1.00  0.00     0.001 A 
ATOM     76  C   UNL A   1      44.403  34.011  32.945  1.00  0.00     0.001 A 
ATOM     77  C   UNL A   1      44.714  35.037  32.055  1.00  0.00     0.000 A 
ENDBRANCH  59  72
ENDBRANCH  33  34
ENDBRANCH  25  28
ENDBRANCH  23  24
ENDBRANCH  22  23
ENDBRANCH   1  22
TORSDOF 15
ENDMDL
MODEL 2
REMARK VINA RESULT:     -10.4      0.857      6.117
REMARK SMILES CC[C@H](C(=O)NCCCCNC(=O)c1ccc(-c2c3nc(c(-c4ccccc4)c4ccc([nH]4)c(-c4ccccc4)c4nc(c(-c5ccccc5)c5ccc2[nH]5)C=C4)C=C3)cc1)N(C)c1cc(C)ccc1[N+](=O)[O-]
REMARK SMILES IDX 8 1 7 2 6 3 4 4 5 5 3 7 2 8 1 9 62 10 63 11 64 12 65 13
REMARK SMILES IDX 70 14 66 15 69 16 67 17 68 18 71 19 72 20 73 21 9 22 10 23
REMARK SMILES IDX 11 24 12 25 13 27 14 28 15 29 61 30 16 31 60 32 17 33 18 34
REMARK SMILES IDX 19 35 54 36 20 37 59 38 53 39 55 40 21 41 58 42 52 43 51 44
REMARK SMILES IDX 22 46 44 47 29 48 43 49 30 50 33 51 42 52 56 53 31 54 32 55
REMARK SMILES IDX 41 57 57 58 34 59 23 60 24 61 28 62 25 63 27 64 26 65 45 66
REMARK SMILES IDX 46 67 50 68 47 69 49 70 48 71 35 72 36 73 40 74 37 75 39 76
REMARK SMILES IDX 38 77
REMARK H PARENT 6 6 11 26 55 45 33 56
REMARK Flexibility Score: inf
ROOT
ATOM      1  C   UNL A   1      36.438  20.030  24.990  1.00  0.00     0.023 C 
ENDROOT
BRANCH   1   2
ATOM      2  C   UNL A   1      35.141  20.829  24.890  1.00  0.00     0.116 C 
BRANCH   2   3
ATOM      3  N   UNL A   1      34.637  21.145  26.208  1.00  0.00    -0.354 N 
ATOM      4  C   UNL A   1      34.533  22.317  26.886  1.00  0.00     0.242 C 
ATOM      5  O   UNL A   1      34.095  22.236  28.041  1.00  0.00    -0.273 OA
ATOM      6  H   UNL A   1      34.307  20.364  26.707  1.00  0.00     0.163 HD
BRANCH   4   7
ATOM      7  C   UNL A   1      34.874  23.696  26.283  1.00  0.00     0.171 C 
BRANCH   7   8
ATOM      8  C   UNL A   1      36.153  23.841  25.447  1.00  0.00     0.032 C 
ATOM      9  C   UNL A   1      37.403  24.088  26.286  1.00  0.00     0.006 C 
ENDBRANCH   7   8
BRANCH   7  10
ATOM     10  N   UNL A   1      33.704  24.389  25.659  1.00  0.00    -0.357 N 
ATOM     11  C   UNL A   1      32.379  23.925  26.076  1.00  0.00     0.144 C 
BRANCH  10  12
ATOM     12  C   UNL A   1      33.741  25.615  25.004  1.00  0.00     0.116 A 
ATOM     13  C   UNL A   1      33.760  26.806  25.767  1.00  0.00     0.036 A 
ATOM     14  C   UNL A   1      33.644  25.803  23.611  1.00  0.00     0.292 A 
ATOM     15  C   UNL A   1      33.692  28.091  25.190  1.00  0.00    -0.049 A 
ATOM     16  C   UNL A   1      33.662  27.078  23.009  1.00  0.00     0.088 A 
ATOM     17  C   UNL A   1      33.539  29.302  26.065  1.00  0.00     0.044 C 
ATOM     18  C   UNL A   1      33.682  28.218  23.802  1.00  0.00     0.010 A 
BRANCH  14  19
ATOM     19  N   UNL A   1      33.340  24.704  22.705  1.00  0.00     0.064 N 
ATOM     20  O   UNL A   1      32.143  24.538  22.413  1.00  0.00    -0.258 OA
ATOM     21  O   UNL A   1      34.267  23.948  22.383  1.00  0.00    -0.258 OA
ENDBRANCH  14  19
ENDBRANCH  10  12
ENDBRANCH   7  10
ENDBRANCH   4   7
ENDBRANCH   2   3
ENDBRANCH   1   2
BRANCH   1  22
ATOM     22  C   UNL A   1      37.686  20.833  24.624  1.00  0.00     0.023 C 
BRANCH  22  23
ATOM     23  C   UNL A   1      38.742  20.900  25.721  1.00  0.00     0.116 C 
BRANCH  23  24
ATOM     24  N   UNL A   1      39.663  19.772  25.691  1.00  0.00    -0.352 N 
ATOM     25  C   UNL A   1      40.996  19.750  26.017  1.00  0.00     0.251 C 
ATOM     26  H   UNL A   1      39.280  18.913  25.398  1.00  0.00     0.163 HD
ATOM     27  O   UNL A   1      41.679  18.750  25.819  1.00  0.00    -0.269 OA
BRANCH  25  28
ATOM     28  C   UNL A   1      41.601  20.966  26.585  1.00  0.00     0.039 A 
ATOM     29  C   UNL A   1      42.137  21.925  25.723  1.00  0.00     0.014 A 
ATOM     30  C   UNL A   1      41.563  21.183  27.965  1.00  0.00     0.014 A 
ATOM     31  C   UNL A   1      42.573  23.143  26.244  1.00  0.00     0.010 A 
ATOM     32  C   UNL A   1      41.933  22.420  28.471  1.00  0.00     0.010 A 
ATOM     33  C   UNL A   1      42.439  23.412  27.616  1.00  0.00    -0.014 A 
BRANCH  33  34
ATOM     34  C   UNL A   1      42.816  24.727  28.186  1.00  0.00     0.031 A 
ATOM     35  C   UNL A   1      41.763  25.775  28.403  1.00  0.00     0.074 A 
ATOM     36  C   UNL A   1      44.112  25.005  28.423  1.00  0.00     0.049 A 
ATOM     37  N   UNL A   1      41.902  27.014  28.799  1.00  0.00    -0.248 NA
ATOM     38  C   UNL A   1      40.374  25.388  28.108  1.00  0.00     0.031 C 
ATOM     39  C   UNL A   1      45.234  24.087  28.209  1.00  0.00     0.029 A 
ATOM     40  N   UNL A   1      44.706  26.151  28.889  1.00  0.00    -0.354 N 
ATOM     41  C   UNL A   1      40.625  27.560  28.773  1.00  0.00     0.074 A 
ATOM     42  C   UNL A   1      39.732  26.533  28.283  1.00  0.00     0.031 C 
ATOM     43  C   UNL A   1      46.376  24.699  28.563  1.00  0.00     0.029 A 
ATOM     44  C   UNL A   1      46.072  26.060  28.993  1.00  0.00     0.049 A 
ATOM     45  H   UNL A   1      44.200  26.961  29.127  1.00  0.00     0.167 HD
ATOM     46  C   UNL A   1      40.229  28.801  29.140  1.00  0.00     0.031 A 
ATOM     47  C   UNL A   1      46.979  26.974  29.383  1.00  0.00     0.031 A 
ATOM     48  C   UNL A   1      41.112  29.813  29.648  1.00  0.00     0.049 A 
ATOM     49  C   UNL A   1      46.511  28.342  29.797  1.00  0.00     0.074 A 
ATOM     50  C   UNL A   1      40.797  31.079  30.110  1.00  0.00     0.029 A 
ATOM     51  N   UNL A   1      42.486  29.672  29.764  1.00  0.00    -0.354 N 
ATOM     52  N   UNL A   1      45.293  28.821  29.831  1.00  0.00    -0.248 NA
ATOM     53  C   UNL A   1      47.547  29.289  30.235  1.00  0.00     0.031 C 
ATOM     54  C   UNL A   1      41.988  31.719  30.471  1.00  0.00     0.029 A 
ATOM     55  C   UNL A   1      43.037  30.835  30.275  1.00  0.00     0.049 A 
ATOM     56  H   UNL A   1      42.994  28.866  29.519  1.00  0.00     0.167 HD
ATOM     57  C   UNL A   1      45.410  30.116  30.317  1.00  0.00     0.074 A 
ATOM     58  C   UNL A   1      46.817  30.343  30.577  1.00  0.00     0.031 C 
ATOM     59  C   UNL A   1      44.439  31.037  30.530  1.00  0.00     0.031 A 
BRANCH  46  60
ATOM     60  C   UNL A   1      38.769  29.126  29.001  1.00  0.00    -0.014 A 
ATOM     61  C   UNL A   1      37.890  29.003  30.089  1.00  0.00     0.009 A 
ATOM     62  C   UNL A   1      38.268  29.579  27.770  1.00  0.00     0.009 A 
ATOM     63  C   UNL A   1      36.533  29.293  29.938  1.00  0.00     0.001 A 
ATOM     64  C   UNL A   1      36.916  29.893  27.630  1.00  0.00     0.001 A 
ATOM     65  C   UNL A   1      36.048  29.741  28.711  1.00  0.00     0.000 A 
ENDBRANCH  46  60
BRANCH  47  66
ATOM     66  C   UNL A   1      48.422  26.623  29.424  1.00  0.00    -0.014 A 
ATOM     67  C   UNL A   1      48.970  26.012  30.562  1.00  0.00     0.009 A 
ATOM     68  C   UNL A   1      49.257  26.898  28.331  1.00  0.00     0.009 A 
ATOM     69  C   UNL A   1      50.331  25.707  30.615  1.00  0.00     0.001 A 
ATOM     70  C   UNL A   1      50.614  26.569  28.377  1.00  0.00     0.001 A 
ATOM     71  C   UNL A   1      51.152  25.983  29.522  1.00  0.00     0.000 A 
ENDBRANCH  47  66
BRANCH  59  72
ATOM     72  C   UNL A   1      44.860  32.358  31.104  1.00  0.00    -0.014 A 
ATOM     73  C   UNL A   1      44.957  32.550  32.490  1.00  0.00     0.009 A 
ATOM     74  C   UNL A   1      45.209  33.410  30.242  1.00  0.00     0.009 A 
ATOM     75  C   UNL A   1      45.371  33.780  33.003  1.00  0.00     0.001 A 
ATOM     76  C   UNL A   1      45.646  34.630  30.757  1.00  0.00     0.001 A 
ATOM     77  C   UNL A   1      45.719  34.816  32.137  1.00  0.00     0.000 A 
ENDBRANCH  59  72
ENDBRANCH  33  34
ENDBRANCH  25  28
ENDBRANCH  23  24
ENDBRANCH  22  23
ENDBRANCH   1  22
TORSDOF 15
ENDMDL
MODEL 3
REMARK VINA RESULT:     -10.3      3.571      8.286
REMARK SMILES CC[C@H](C(=O)NCCCCNC(=O)c1ccc(-c2c3nc(c(-c4ccccc4)c4ccc([nH]4)c(-c4ccccc4)c4nc(c(-c5ccccc5)c5ccc2[nH]5)C=C4)C=C3)cc1)N(C)c1cc(C)ccc1[N+](=O)[O-]
REMARK SMILES IDX 8 1 7 2 6 3 4 4 5 5 3 7 2 8 1 9 62 10 63 11 64 12 65 13
REMARK SMILES IDX 70 14 66 15 69 16 67 17 68 18 71 19 72 20 73 21 9 22 10 23
REMARK SMILES IDX 11 24 12 25 13 27 14 28 15 29 61 30 16 31 60 32 17 33 18 34
REMARK SMILES IDX 19 35 54 36 20 37 59 38 53 39 55 40 21 41 58 42 52 43 51 44
REMARK SMILES IDX 22 46 44 47 29 48 43 49 30 50 33 51 42 52 56 53 31 54 32 55
REMARK SMILES IDX 41 57 57 58 34 59 23 60 24 61 28 62 25 63 27 64 26 65 45 66
REMARK SMILES IDX 46 67 50 68 47 69 49 70 48 71 35 72 36 73 40 74 37 75 39 76
REMARK SMILES IDX 38 77
REMARK H PARENT 6 6 11 26 55 45 33 56
REMARK Flexibility Score: inf
ROOT
ATOM      1  C   UNL A   1      31.424  29.193  26.275  1.00  0.00     0.023 C 
ENDROOT
BRANCH   1   2
ATOM      2  C   UNL A   1      32.246  28.192  27.084  1.00  0.00     0.116 C 
BRANCH   2   3
ATOM      3  N   UNL A   1      31.544  26.932  27.195  1.00  0.00    -0.354 N 
ATOM      4  C   UNL A   1      31.582  25.801  26.445  1.00  0.00     0.242 C 
ATOM      5  O   UNL A   1      30.803  24.901  26.785  1.00  0.00    -0.273 OA
ATOM      6  H   UNL A   1      30.923  26.886  27.957  1.00  0.00     0.163 HD
BRANCH   4   7
ATOM      7  C   UNL A   1      32.554  25.578  25.267  1.00  0.00     0.171 C 
BRANCH   7   8
ATOM      8  C   UNL A   1      33.473  24.348  25.290  1.00  0.00     0.032 C 
ATOM      9  C   UNL A   1      34.957  24.698  25.329  1.00  0.00     0.006 C 
ENDBRANCH   7   8
BRANCH   7  10
ATOM     10  N   UNL A   1      31.938  25.804  23.923  1.00  0.00    -0.357 N 
ATOM     11  C   UNL A   1      31.572  24.603  23.168  1.00  0.00     0.144 C 
BRANCH  10  12
ATOM     12  C   UNL A   1      31.384  26.997  23.473  1.00  0.00     0.116 A 
ATOM     13  C   UNL A   1      29.985  27.187  23.565  1.00  0.00     0.036 A 
ATOM     14  C   UNL A   1      32.082  28.026  22.809  1.00  0.00     0.292 A 
ATOM     15  C   UNL A   1      29.326  28.318  23.040  1.00  0.00    -0.049 A 
ATOM     16  C   UNL A   1      31.454  29.204  22.354  1.00  0.00     0.088 A 
ATOM     17  C   UNL A   1      27.826  28.371  23.016  1.00  0.00     0.044 C 
ATOM     18  C   UNL A   1      30.077  29.344  22.468  1.00  0.00     0.010 A 
BRANCH  14  19
ATOM     19  N   UNL A   1      33.467  27.870  22.388  1.00  0.00     0.064 N 
ATOM     20  O   UNL A   1      34.281  28.696  22.836  1.00  0.00    -0.258 OA
ATOM     21  O   UNL A   1      33.717  27.009  21.533  1.00  0.00    -0.258 OA
ENDBRANCH  14  19
ENDBRANCH  10  12
ENDBRANCH   7  10
ENDBRANCH   4   7
ENDBRANCH   2   3
ENDBRANCH   1   2
BRANCH   1  22
ATOM     22  C   UNL A   1      32.177  30.480  25.940  1.00  0.00     0.023 C 
BRANCH  22  23
ATOM     23  C   UNL A   1      32.850  31.151  27.131  1.00  0.00     0.116 C 
BRANCH  23  24
ATOM     24  N   UNL A   1      32.421  32.530  27.321  1.00  0.00    -0.352 N 
ATOM     25  C   UNL A   1      33.037  33.524  28.040  1.00  0.00     0.251 C 
ATOM     26  H   UNL A   1      31.579  32.783  26.876  1.00  0.00     0.163 HD
ATOM     27  O   UNL A   1      32.490  34.608  28.217  1.00  0.00    -0.269 OA
BRANCH  25  28
ATOM     28  C   UNL A   1      34.362  33.253  28.621  1.00  0.00     0.039 A 
ATOM     29  C   UNL A   1      34.444  32.585  29.844  1.00  0.00     0.014 A 
ATOM     30  C   UNL A   1      35.517  33.593  27.911  1.00  0.00     0.014 A 
ATOM     31  C   UNL A   1      35.693  32.193  30.326  1.00  0.00     0.010 A 
ATOM     32  C   UNL A   1      36.750  33.141  28.357  1.00  0.00     0.010 A 
ATOM     33  C   UNL A   1      36.849  32.435  29.567  1.00  0.00    -0.014 A 
BRANCH  33  34
ATOM     34  C   UNL A   1      38.179  31.957  30.011  1.00  0.00     0.031 A 
ATOM     35  C   UNL A   1      38.717  30.656  29.488  1.00  0.00     0.074 A 
ATOM     36  C   UNL A   1      38.858  32.647  30.947  1.00  0.00     0.049 A 
ATOM     37  N   UNL A   1      39.810  30.021  29.824  1.00  0.00    -0.248 NA
ATOM     38  C   UNL A   1      37.904  29.964  28.474  1.00  0.00     0.031 C 
ATOM     39  C   UNL A   1      38.420  33.900  31.568  1.00  0.00     0.029 A 
ATOM     40  N   UNL A   1      40.062  32.382  31.549  1.00  0.00    -0.354 N 
ATOM     41  C   UNL A   1      39.801  28.844  29.085  1.00  0.00     0.074 A 
ATOM     42  C   UNL A   1      38.575  28.834  28.317  1.00  0.00     0.031 C 
ATOM     43  C   UNL A   1      39.352  34.304  32.447  1.00  0.00     0.029 A 
ATOM     44  C   UNL A   1      40.433  33.324  32.478  1.00  0.00     0.049 A 
ATOM     45  H   UNL A   1      40.609  31.591  31.336  1.00  0.00     0.167 HD
ATOM     46  C   UNL A   1      40.737  27.868  29.039  1.00  0.00     0.031 A 
ATOM     47  C   UNL A   1      41.518  33.386  33.271  1.00  0.00     0.031 A 
ATOM     48  C   UNL A   1      41.964  27.890  29.784  1.00  0.00     0.049 A 
ATOM     49  C   UNL A   1      42.548  32.294  33.192  1.00  0.00     0.074 A 
ATOM     50  C   UNL A   1      43.007  26.981  29.756  1.00  0.00     0.029 A 
ATOM     51  N   UNL A   1      42.314  28.876  30.694  1.00  0.00    -0.354 N 
ATOM     52  N   UNL A   1      42.557  31.222  32.439  1.00  0.00    -0.248 NA
ATOM     53  C   UNL A   1      43.723  32.429  34.067  1.00  0.00     0.031 C 
ATOM     54  C   UNL A   1      43.974  27.398  30.677  1.00  0.00     0.029 A 
ATOM     55  C   UNL A   1      43.551  28.590  31.245  1.00  0.00     0.049 A 
ATOM     56  H   UNL A   1      41.765  29.663  30.914  1.00  0.00     0.167 HD
ATOM     57  C   UNL A   1      43.747  30.567  32.729  1.00  0.00     0.074 A 
ATOM     58  C   UNL A   1      44.439  31.369  33.717  1.00  0.00     0.031 C 
ATOM     59  C   UNL A   1      44.224  29.404  32.223  1.00  0.00     0.031 A 
BRANCH  46  60
ATOM     60  C   UNL A   1      40.459  26.692  28.146  1.00  0.00    -0.014 A 
ATOM     61  C   UNL A   1      40.978  26.632  26.843  1.00  0.00     0.009 A 
ATOM     62  C   UNL A   1      39.685  25.622  28.621  1.00  0.00     0.009 A 
ATOM     63  C   UNL A   1      40.697  25.539  26.021  1.00  0.00     0.001 A 
ATOM     64  C   UNL A   1      39.429  24.519  27.805  1.00  0.00     0.001 A 
ATOM     65  C   UNL A   1      39.927  24.483  26.503  1.00  0.00     0.000 A 
ENDBRANCH  46  60
BRANCH  47  66
ATOM     66  C   UNL A   1      41.701  34.533  34.196  1.00  0.00    -0.014 A 
ATOM     67  C   UNL A   1      41.224  34.462  35.515  1.00  0.00     0.009 A 
ATOM     68  C   UNL A   1      42.347  35.702  33.769  1.00  0.00     0.009 A 
ATOM     69  C   UNL A   1      41.368  35.550  36.378  1.00  0.00     0.001 A 
ATOM     70  C   UNL A   1      42.511  36.779  34.643  1.00  0.00     0.001 A 
ATOM     71  C   UNL A   1      42.014  36.706  35.943  1.00  0.00     0.000 A 
ENDBRANCH  47  66
BRANCH  59  72
ATOM     72  C   UNL A   1      45.572  28.950  32.700  1.00  0.00    -0.014 A 
ATOM     73  C   UNL A   1      46.748  29.366  32.058  1.00  0.00     0.009 A 
ATOM     74  C   UNL A   1      45.667  28.133  33.837  1.00  0.00     0.009 A 
ATOM     75  C   UNL A   1      47.993  28.949  32.530  1.00  0.00     0.001 A 
ATOM     76  C   UNL A   1      46.914  27.738  34.321  1.00  0.00     0.001 A 
ATOM     77  C   UNL A   1      48.075  28.140  33.664  1.00  0.00     0.000 A 
ENDBRANCH  59  72
ENDBRANCH  33  34
ENDBRANCH  25  28
ENDBRANCH  23  24
ENDBRANCH  22  23
ENDBRANCH   1  22
TORSDOF 15
ENDMDL
