MODEL 1
REMARK VINA RESULT:     -10.9      0.000      0.000
REMARK SMILES CC[NH2+][C@@]1(C(=O)NCCCCNC(=O)c2ccc(-c3c4nc(c(-c5ccccc5)c5ccc([nH]5)c(-c5ccccc5)c5nc(c(-c6ccccc6)c6ccc3[nH]6)C=C5)C=C4)cc2)CC[C@@H]([NH+]2CC[NH+](C(C)C)CC2)C1
REMARK SMILES IDX 9 1 8 2 7 3 5 4 6 5 4 7 63 8 75 9 64 10 65 11 3 12 2 15 1 16
REMARK SMILES IDX 66 17 67 18 74 19 68 21 73 22 69 23 70 25 71 26 72 27 10 28
REMARK SMILES IDX 11 29 12 30 13 31 14 33 15 34 16 35 62 36 17 37 61 38 18 39
REMARK SMILES IDX 19 40 20 41 55 42 21 43 60 44 54 45 56 46 22 47 59 48 53 49
REMARK SMILES IDX 52 50 23 52 45 53 30 54 44 55 31 56 34 57 43 58 57 59 32 60
REMARK SMILES IDX 33 61 42 63 58 64 35 65 24 66 25 67 29 68 26 69 28 70 27 71
REMARK SMILES IDX 46 72 47 73 51 74 48 75 50 76 49 77 36 78 37 79 41 80 38 81
REMARK SMILES IDX 40 82 39 83
REMARK H PARENT 7 6 3 13 3 14 66 20 69 24 12 32 56 51 34 62
REMARK Flexibility Score: inf
ROOT
ATOM      1  C   UNL A   1      37.031  22.163  24.408  1.00  0.00     0.023 C 
ENDROOT
BRANCH   1   2
ATOM      2  C   UNL A   1      36.352  23.096  25.412  1.00  0.00     0.116 C 
BRANCH   2   3
ATOM      3  N   UNL A   1      35.656  22.367  26.443  1.00  0.00    -0.351 N 
ATOM      4  C   UNL A   1      34.351  22.023  26.616  1.00  0.00     0.281 C 
ATOM      5  O   UNL A   1      34.137  21.450  27.692  1.00  0.00    -0.268 OA
ATOM      6  H   UNL A   1      36.244  22.055  27.168  1.00  0.00     0.163 HD
BRANCH   4   7
ATOM      7  C   UNL A   1      33.203  22.328  25.565  1.00  0.00     0.181 C 
ATOM      8  C   UNL A   1      33.441  21.750  24.161  1.00  0.00     0.085 C 
ATOM      9  C   UNL A   1      33.013  23.846  25.364  1.00  0.00     0.144 C 
ATOM     10  C   UNL A   1      33.644  22.897  23.175  1.00  0.00     0.072 C 
ATOM     11  C   UNL A   1      33.439  24.213  23.936  1.00  0.00     0.191 C 
BRANCH   7  12
ATOM     12  N   UNL A   1      31.894  21.844  26.113  1.00  0.00    -0.334 N 
ATOM     13  H   UNL A   1      31.729  20.910  25.736  1.00  0.00     0.347 HD
ATOM     14  H   UNL A   1      31.999  21.886  27.126  1.00  0.00     0.347 HD
BRANCH  12  15
ATOM     15  C   UNL A   1      30.713  22.653  25.819  1.00  0.00     0.257 C 
ATOM     16  C   UNL A   1      29.902  22.808  27.101  1.00  0.00     0.071 C 
ENDBRANCH  12  15
ENDBRANCH   7  12
BRANCH  11  17
ATOM     17  N   UNL A   1      32.714  25.254  23.191  1.00  0.00    -0.323 N 
ATOM     18  C   UNL A   1      31.444  25.729  23.752  1.00  0.00     0.324 C 
ATOM     19  C   UNL A   1      33.530  26.426  22.829  1.00  0.00     0.324 C 
ATOM     20  H   UNL A   1      32.478  24.718  22.356  1.00  0.00     0.348 HD
ATOM     21  C   UNL A   1      31.560  26.724  24.917  1.00  0.00     0.324 C 
ATOM     22  C   UNL A   1      33.657  27.542  23.897  1.00  0.00     0.324 C 
ATOM     23  N   UNL A   1      32.468  27.857  24.708  1.00  0.00    -0.324 N 
ATOM     24  H   UNL A   1      32.829  28.019  25.648  1.00  0.00     0.348 HD
BRANCH  23  25
ATOM     25  C   UNL A   1      31.842  29.147  24.396  1.00  0.00     0.178 C 
ATOM     26  C   UNL A   1      30.468  29.038  23.735  1.00  0.00     0.075 C 
ATOM     27  C   UNL A   1      31.771  30.031  25.650  1.00  0.00     0.075 C 
ENDBRANCH  23  25
ENDBRANCH  11  17
ENDBRANCH   4   7
ENDBRANCH   2   3
ENDBRANCH   1   2
BRANCH   1  28
ATOM     28  C   UNL A   1      37.580  20.867  25.000  1.00  0.00     0.023 C 
BRANCH  28  29
ATOM     29  C   UNL A   1      38.910  21.010  25.724  1.00  0.00     0.116 C 
BRANCH  29  30
ATOM     30  N   UNL A   1      39.765  19.832  25.654  1.00  0.00    -0.352 N 
ATOM     31  C   UNL A   1      41.085  19.749  26.033  1.00  0.00     0.251 C 
ATOM     32  H   UNL A   1      39.355  19.010  25.299  1.00  0.00     0.163 HD
ATOM     33  O   UNL A   1      41.738  18.725  25.874  1.00  0.00    -0.269 OA
BRANCH  31  34
ATOM     34  C   UNL A   1      41.709  20.965  26.582  1.00  0.00     0.039 A 
ATOM     35  C   UNL A   1      42.217  21.919  25.697  1.00  0.00     0.014 A 
ATOM     36  C   UNL A   1      41.638  21.219  27.953  1.00  0.00     0.014 A 
ATOM     37  C   UNL A   1      42.582  23.171  26.186  1.00  0.00     0.010 A 
ATOM     38  C   UNL A   1      41.929  22.491  28.424  1.00  0.00     0.010 A 
ATOM     39  C   UNL A   1      42.396  23.481  27.543  1.00  0.00    -0.014 A 
BRANCH  39  40
ATOM     40  C   UNL A   1      42.678  24.838  28.069  1.00  0.00     0.031 A 
ATOM     41  C   UNL A   1      44.074  25.193  28.498  1.00  0.00     0.074 A 
ATOM     42  C   UNL A   1      41.670  25.715  28.238  1.00  0.00     0.049 A 
ATOM     43  N   UNL A   1      44.511  26.295  29.050  1.00  0.00    -0.248 NA
ATOM     44  C   UNL A   1      45.108  24.162  28.314  1.00  0.00     0.031 C 
ATOM     45  C   UNL A   1      40.262  25.469  27.913  1.00  0.00     0.029 A 
ATOM     46  N   UNL A   1      41.675  26.994  28.733  1.00  0.00    -0.354 N 
ATOM     47  C   UNL A   1      45.857  26.076  29.309  1.00  0.00     0.074 A 
ATOM     48  C   UNL A   1      46.158  24.724  28.892  1.00  0.00     0.031 C 
ATOM     49  C   UNL A   1      39.547  26.573  28.190  1.00  0.00     0.029 A 
ATOM     50  C   UNL A   1      40.437  27.590  28.740  1.00  0.00     0.049 A 
ATOM     51  H   UNL A   1      42.490  27.444  29.055  1.00  0.00     0.167 HD
ATOM     52  C   UNL A   1      46.767  26.930  29.831  1.00  0.00     0.031 A 
ATOM     53  C   UNL A   1      40.065  28.819  29.143  1.00  0.00     0.031 A 
ATOM     54  C   UNL A   1      46.479  28.288  30.200  1.00  0.00     0.049 A 
ATOM     55  C   UNL A   1      41.105  29.759  29.685  1.00  0.00     0.074 A 
ATOM     56  C   UNL A   1      47.354  29.262  30.649  1.00  0.00     0.029 A 
ATOM     57  N   UNL A   1      45.221  28.864  30.157  1.00  0.00    -0.354 N 
ATOM     58  N   UNL A   1      42.392  29.565  29.842  1.00  0.00    -0.248 NA
ATOM     59  C   UNL A   1      40.641  31.093  30.095  1.00  0.00     0.031 C 
ATOM     60  C   UNL A   1      46.616  30.420  30.911  1.00  0.00     0.029 A 
ATOM     61  C   UNL A   1      45.291  30.176  30.588  1.00  0.00     0.049 A 
ATOM     62  H   UNL A   1      44.399  28.407  29.864  1.00  0.00     0.167 HD
ATOM     63  C   UNL A   1      42.895  30.761  30.337  1.00  0.00     0.074 A 
ATOM     64  C   UNL A   1      41.778  31.676  30.446  1.00  0.00     0.031 C 
ATOM     65  C   UNL A   1      44.169  31.073  30.673  1.00  0.00     0.031 A 
BRANCH  52  66
ATOM     66  C   UNL A   1      48.163  26.417  30.026  1.00  0.00    -0.014 A 
ATOM     67  C   UNL A   1      49.125  26.520  29.007  1.00  0.00     0.009 A 
ATOM     68  C   UNL A   1      48.532  25.853  31.256  1.00  0.00     0.009 A 
ATOM     69  C   UNL A   1      50.419  26.037  29.208  1.00  0.00     0.001 A 
ATOM     70  C   UNL A   1      49.834  25.394  31.462  1.00  0.00     0.001 A 
ATOM     71  C   UNL A   1      50.773  25.479  30.436  1.00  0.00     0.000 A 
ENDBRANCH  52  66
BRANCH  53  72
ATOM     72  C   UNL A   1      38.649  29.254  29.024  1.00  0.00    -0.014 A 
ATOM     73  C   UNL A   1      37.785  29.156  30.126  1.00  0.00     0.009 A 
ATOM     74  C   UNL A   1      38.146  29.739  27.808  1.00  0.00     0.009 A 
ATOM     75  C   UNL A   1      36.438  29.501  30.003  1.00  0.00     0.001 A 
ATOM     76  C   UNL A   1      36.803  30.107  27.694  1.00  0.00     0.001 A 
ATOM     77  C   UNL A   1      35.948  29.978  28.788  1.00  0.00     0.000 A 
ENDBRANCH  53  72
BRANCH  65  78
ATOM     78  C   UNL A   1      44.429  32.473  31.147  1.00  0.00    -0.014 A 
ATOM     79  C   UNL A   1      44.706  33.507  30.241  1.00  0.00     0.009 A 
ATOM     80  C   UNL A   1      44.351  32.766  32.518  1.00  0.00     0.009 A 
ATOM     81  C   UNL A   1      44.925  34.805  30.701  1.00  0.00     0.001 A 
ATOM     82  C   UNL A   1      44.548  34.070  32.973  1.00  0.00     0.001 A 
ATOM     83  C   UNL A   1      44.842  35.086  32.065  1.00  0.00     0.000 A 
ENDBRANCH  65  78
ENDBRANCH  39  40
ENDBRANCH  31  34
ENDBRANCH  29  30
ENDBRANCH  28  29
ENDBRANCH   1  28
TORSDOF 15
ENDMDL
MODEL 2
REMARK VINA RESULT:     -10.6      2.293      7.796
REMARK SMILES CC[NH2+][C@@]1(C(=O)NCCCCNC(=O)c2ccc(-c3c4nc(c(-c5ccccc5)c5ccc([nH]5)c(-c5ccccc5)c5nc(c(-c6ccccc6)c6ccc3[nH]6)C=C5)C=C4)cc2)CC[C@@H]([NH+]2CC[NH+](C(C)C)CC2)C1
REMARK SMILES IDX 9 1 8 2 7 3 5 4 6 5 4 7 63 8 75 9 64 10 65 11 3 12 2 15 1 16
REMARK SMILES IDX 66 17 67 18 74 19 68 21 73 22 69 23 70 25 71 26 72 27 10 28
REMARK SMILES IDX 11 29 12 30 13 31 14 33 15 34 16 35 62 36 17 37 61 38 18 39
REMARK SMILES IDX 19 40 20 41 55 42 21 43 60 44 54 45 56 46 22 47 59 48 53 49
REMARK SMILES IDX 52 50 23 52 45 53 30 54 44 55 31 56 34 57 43 58 57 59 32 60
REMARK SMILES IDX 33 61 42 63 58 64 35 65 24 66 25 67 29 68 26 69 28 70 27 71
REMARK SMILES IDX 46 72 47 73 51 74 48 75 50 76 49 77 36 78 37 79 41 80 38 81
REMARK SMILES IDX 40 82 39 83
REMARK H PARENT 7 6 3 13 3 14 66 20 69 24 12 32 56 51 34 62
REMARK Flexibility Score: inf
ROOT
ATOM      1  C   UNL A   1      33.423  29.062  23.945  1.00  0.00     0.023 C 
ENDROOT
BRANCH   1   2
ATOM      2  C   UNL A   1      32.468  28.526  22.877  1.00  0.00     0.116 C 
BRANCH   2   3
ATOM      3  N   UNL A   1      32.997  27.358  22.217  1.00  0.00    -0.351 N 
ATOM      4  C   UNL A   1      33.168  26.067  22.610  1.00  0.00     0.281 C 
ATOM      5  O   UNL A   1      33.737  25.371  21.760  1.00  0.00    -0.268 OA
ATOM      6  H   UNL A   1      33.294  27.531  21.295  1.00  0.00     0.163 HD
BRANCH   4   7
ATOM      7  C   UNL A   1      32.704  25.495  24.015  1.00  0.00     0.181 C 
ATOM      8  C   UNL A   1      33.725  25.664  25.151  1.00  0.00     0.085 C 
ATOM      9  C   UNL A   1      32.412  23.982  23.937  1.00  0.00     0.144 C 
ATOM     10  C   UNL A   1      34.230  24.289  25.578  1.00  0.00     0.072 C 
ATOM     11  C   UNL A   1      33.456  23.234  24.777  1.00  0.00     0.191 C 
BRANCH   7  12
ATOM     12  N   UNL A   1      31.396  26.122  24.392  1.00  0.00    -0.334 N 
ATOM     13  H   UNL A   1      31.391  27.072  24.019  1.00  0.00     0.347 HD
ATOM     14  H   UNL A   1      30.684  25.504  24.005  1.00  0.00     0.347 HD
BRANCH  12  15
ATOM     15  C   UNL A   1      31.090  26.209  25.819  1.00  0.00     0.257 C 
ATOM     16  C   UNL A   1      29.802  25.437  26.085  1.00  0.00     0.071 C 
ENDBRANCH  12  15
ENDBRANCH   7  12
BRANCH  11  17
ATOM     17  N   UNL A   1      33.073  22.035  25.538  1.00  0.00    -0.323 N 
ATOM     18  C   UNL A   1      32.014  21.187  24.979  1.00  0.00     0.324 C 
ATOM     19  C   UNL A   1      34.203  21.173  25.928  1.00  0.00     0.324 C 
ATOM     20  H   UNL A   1      32.676  22.488  26.361  1.00  0.00     0.348 HD
ATOM     21  C   UNL A   1      32.440  20.254  23.835  1.00  0.00     0.324 C 
ATOM     22  C   UNL A   1      34.674  20.130  24.883  1.00  0.00     0.324 C 
ATOM     23  N   UNL A   1      33.647  19.454  24.071  1.00  0.00    -0.324 N 
ATOM     24  H   UNL A   1      34.052  19.394  23.137  1.00  0.00     0.348 HD
BRANCH  23  25
ATOM     25  C   UNL A   1      33.439  18.041  24.405  1.00  0.00     0.178 C 
ATOM     26  C   UNL A   1      34.712  17.197  24.402  1.00  0.00     0.075 C 
ATOM     27  C   UNL A   1      32.701  17.905  25.745  1.00  0.00     0.075 C 
ENDBRANCH  23  25
ENDBRANCH  11  17
ENDBRANCH   4   7
ENDBRANCH   2   3
ENDBRANCH   1   2
BRANCH   1  28
ATOM     28  C   UNL A   1      32.764  29.443  25.269  1.00  0.00     0.023 C 
BRANCH  28  29
ATOM     29  C   UNL A   1      33.715  29.530  26.453  1.00  0.00     0.116 C 
BRANCH  29  30
ATOM     30  N   UNL A   1      33.636  30.779  27.199  1.00  0.00    -0.352 N 
ATOM     31  C   UNL A   1      34.556  31.256  28.104  1.00  0.00     0.251 C 
ATOM     32  H   UNL A   1      32.843  31.339  27.039  1.00  0.00     0.163 HD
ATOM     33  O   UNL A   1      34.367  32.292  28.731  1.00  0.00    -0.269 OA
BRANCH  31  34
ATOM     34  C   UNL A   1      35.758  30.438  28.344  1.00  0.00     0.039 A 
ATOM     35  C   UNL A   1      36.814  30.514  27.434  1.00  0.00     0.014 A 
ATOM     36  C   UNL A   1      35.887  29.736  29.543  1.00  0.00     0.014 A 
ATOM     37  C   UNL A   1      38.041  29.947  27.770  1.00  0.00     0.010 A 
ATOM     38  C   UNL A   1      37.130  29.239  29.907  1.00  0.00     0.010 A 
ATOM     39  C   UNL A   1      38.220  29.347  29.028  1.00  0.00    -0.014 A 
BRANCH  39  40
ATOM     40  C   UNL A   1      39.542  28.827  29.451  1.00  0.00     0.031 A 
ATOM     41  C   UNL A   1      40.414  29.658  30.350  1.00  0.00     0.074 A 
ATOM     42  C   UNL A   1      39.991  27.655  28.961  1.00  0.00     0.049 A 
ATOM     43  N   UNL A   1      41.628  29.418  30.772  1.00  0.00    -0.248 NA
ATOM     44  C   UNL A   1      39.861  30.944  30.808  1.00  0.00     0.031 C 
ATOM     45  C   UNL A   1      39.263  26.783  28.036  1.00  0.00     0.029 A 
ATOM     46  N   UNL A   1      41.175  26.997  29.172  1.00  0.00    -0.354 N 
ATOM     47  C   UNL A   1      41.994  30.534  31.513  1.00  0.00     0.074 A 
ATOM     48  C   UNL A   1      40.892  31.468  31.451  1.00  0.00     0.031 C 
ATOM     49  C   UNL A   1      40.005  25.692  27.784  1.00  0.00     0.029 A 
ATOM     50  C   UNL A   1      41.270  25.801  28.502  1.00  0.00     0.049 A 
ATOM     51  H   UNL A   1      41.892  27.348  29.750  1.00  0.00     0.167 HD
ATOM     52  C   UNL A   1      43.139  30.754  32.199  1.00  0.00     0.031 A 
ATOM     53  C   UNL A   1      42.266  24.896  28.473  1.00  0.00     0.031 A 
ATOM     54  C   UNL A   1      44.213  29.806  32.300  1.00  0.00     0.049 A 
ATOM     55  C   UNL A   1      43.512  25.151  29.275  1.00  0.00     0.074 A 
ATOM     56  C   UNL A   1      45.374  29.896  33.049  1.00  0.00     0.029 A 
ATOM     57  N   UNL A   1      44.255  28.591  31.636  1.00  0.00    -0.354 N 
ATOM     58  N   UNL A   1      43.806  26.173  30.041  1.00  0.00    -0.248 NA
ATOM     59  C   UNL A   1      44.559  24.120  29.215  1.00  0.00     0.031 C 
ATOM     60  C   UNL A   1      46.135  28.748  32.810  1.00  0.00     0.029 A 
ATOM     61  C   UNL A   1      45.429  27.929  31.944  1.00  0.00     0.049 A 
ATOM     62  H   UNL A   1      43.553  28.251  31.035  1.00  0.00     0.167 HD
ATOM     63  C   UNL A   1      45.055  25.893  30.579  1.00  0.00     0.074 A 
ATOM     64  C   UNL A   1      45.459  24.603  30.061  1.00  0.00     0.031 C 
ATOM     65  C   UNL A   1      45.802  26.639  31.427  1.00  0.00     0.031 A 
BRANCH  52  66
ATOM     66  C   UNL A   1      43.281  32.073  32.900  1.00  0.00    -0.014 A 
ATOM     67  C   UNL A   1      43.830  33.188  32.246  1.00  0.00     0.009 A 
ATOM     68  C   UNL A   1      42.830  32.211  34.221  1.00  0.00     0.009 A 
ATOM     69  C   UNL A   1      43.953  34.407  32.915  1.00  0.00     0.001 A 
ATOM     70  C   UNL A   1      42.932  33.438  34.878  1.00  0.00     0.001 A 
ATOM     71  C   UNL A   1      43.500  34.532  34.228  1.00  0.00     0.000 A 
ENDBRANCH  52  66
BRANCH  53  72
ATOM     72  C   UNL A   1      42.125  23.645  27.684  1.00  0.00    -0.014 A 
ATOM     73  C   UNL A   1      41.527  22.512  28.258  1.00  0.00     0.009 A 
ATOM     74  C   UNL A   1      42.611  23.564  26.371  1.00  0.00     0.009 A 
ATOM     75  C   UNL A   1      41.450  21.314  27.546  1.00  0.00     0.001 A 
ATOM     76  C   UNL A   1      42.511  22.371  25.652  1.00  0.00     0.001 A 
ATOM     77  C   UNL A   1      41.940  21.244  26.243  1.00  0.00     0.000 A 
ENDBRANCH  53  72
BRANCH  65  78
ATOM     78  C   UNL A   1      47.109  26.057  31.881  1.00  0.00    -0.014 A 
ATOM     79  C   UNL A   1      48.280  26.229  31.129  1.00  0.00     0.009 A 
ATOM     80  C   UNL A   1      47.174  25.367  33.101  1.00  0.00     0.009 A 
ATOM     81  C   UNL A   1      49.489  25.698  31.579  1.00  0.00     0.001 A 
ATOM     82  C   UNL A   1      48.388  24.856  33.560  1.00  0.00     0.001 A 
ATOM     83  C   UNL A   1      49.543  25.016  32.795  1.00  0.00     0.000 A 
ENDBRANCH  65  78
ENDBRANCH  39  40
ENDBRANCH  31  34
ENDBRANCH  29  30
ENDBRANCH  28  29
ENDBRANCH   1  28
TORSDOF 15
ENDMDL
MODEL 3
REMARK VINA RESULT:     -10.6      0.996      6.062
REMARK SMILES CC[NH2+][C@@]1(C(=O)NCCCCNC(=O)c2ccc(-c3c4nc(c(-c5ccccc5)c5ccc([nH]5)c(-c5ccccc5)c5nc(c(-c6ccccc6)c6ccc3[nH]6)C=C5)C=C4)cc2)CC[C@@H]([NH+]2CC[NH+](C(C)C)CC2)C1
REMARK SMILES IDX 9 1 8 2 7 3 5 4 6 5 4 7 63 8 75 9 64 10 65 11 3 12 2 15 1 16
REMARK SMILES IDX 66 17 67 18 74 19 68 21 73 22 69 23 70 25 71 26 72 27 10 28
REMARK SMILES IDX 11 29 12 30 13 31 14 33 15 34 16 35 62 36 17 37 61 38 18 39
REMARK SMILES IDX 19 40 20 41 55 42 21 43 60 44 54 45 56 46 22 47 59 48 53 49
REMARK SMILES IDX 52 50 23 52 45 53 30 54 44 55 31 56 34 57 43 58 57 59 32 60
REMARK SMILES IDX 33 61 42 63 58 64 35 65 24 66 25 67 29 68 26 69 28 70 27 71
REMARK SMILES IDX 46 72 47 73 51 74 48 75 50 76 49 77 36 78 37 79 41 80 38 81
REMARK SMILES IDX 40 82 39 83
REMARK H PARENT 7 6 3 13 3 14 66 20 69 24 12 32 56 51 34 62
REMARK Flexibility Score: inf
ROOT
ATOM      1  C   UNL A   1      36.585  20.176  24.961  1.00  0.00     0.023 C 
ENDROOT
BRANCH   1   2
ATOM      2  C   UNL A   1      35.089  20.483  25.047  1.00  0.00     0.116 C 
BRANCH   2   3
ATOM      3  N   UNL A   1      34.722  21.033  26.328  1.00  0.00    -0.351 N 
ATOM      4  C   UNL A   1      34.020  22.139  26.697  1.00  0.00     0.281 C 
ATOM      5  O   UNL A   1      33.988  22.308  27.923  1.00  0.00    -0.268 OA
ATOM      6  H   UNL A   1      35.046  20.501  27.090  1.00  0.00     0.163 HD
BRANCH   4   7
ATOM      7  C   UNL A   1      33.317  23.129  25.676  1.00  0.00     0.181 C 
ATOM      8  C   UNL A   1      34.249  23.729  24.612  1.00  0.00     0.085 C 
ATOM      9  C   UNL A   1      32.687  24.333  26.405  1.00  0.00     0.144 C 
ATOM     10  C   UNL A   1      34.379  25.231  24.850  1.00  0.00     0.072 C 
ATOM     11  C   UNL A   1      33.451  25.605  26.012  1.00  0.00     0.191 C 
BRANCH   7  12
ATOM     12  N   UNL A   1      32.166  22.425  25.024  1.00  0.00    -0.334 N 
ATOM     13  H   UNL A   1      32.185  21.453  25.331  1.00  0.00     0.347 HD
ATOM     14  H   UNL A   1      31.339  22.950  25.308  1.00  0.00     0.347 HD
BRANCH  12  15
ATOM     15  C   UNL A   1      32.132  22.425  23.562  1.00  0.00     0.257 C 
ATOM     16  C   UNL A   1      30.983  23.318  23.105  1.00  0.00     0.071 C 
ENDBRANCH  12  15
ENDBRANCH   7  12
BRANCH  11  17
ATOM     17  N   UNL A   1      32.734  26.879  25.848  1.00  0.00    -0.323 N 
ATOM     18  C   UNL A   1      32.909  27.597  24.580  1.00  0.00     0.324 C 
ATOM     19  C   UNL A   1      31.293  26.812  26.150  1.00  0.00     0.324 C 
ATOM     20  H   UNL A   1      33.218  27.427  26.559  1.00  0.00     0.348 HD
ATOM     21  C   UNL A   1      32.101  27.056  23.390  1.00  0.00     0.324 C 
ATOM     22  C   UNL A   1      30.361  26.356  24.999  1.00  0.00     0.324 C 
ATOM     23  N   UNL A   1      30.675  26.816  23.635  1.00  0.00    -0.324 N 
ATOM     24  H   UNL A   1      30.486  26.010  23.038  1.00  0.00     0.348 HD
BRANCH  23  25
ATOM     25  C   UNL A   1      29.744  27.816  23.100  1.00  0.00     0.178 C 
ATOM     26  C   UNL A   1      28.281  27.582  23.477  1.00  0.00     0.075 C 
ATOM     27  C   UNL A   1      30.186  29.233  23.495  1.00  0.00     0.075 C 
ENDBRANCH  23  25
ENDBRANCH  11  17
ENDBRANCH   4   7
ENDBRANCH   2   3
ENDBRANCH   1   2
BRANCH   1  28
ATOM     28  C   UNL A   1      37.493  21.402  24.897  1.00  0.00     0.023 C 
BRANCH  28  29
ATOM     29  C   UNL A   1      38.723  21.331  25.790  1.00  0.00     0.116 C 
BRANCH  29  30
ATOM     30  N   UNL A   1      39.489  20.098  25.664  1.00  0.00    -0.352 N 
ATOM     31  C   UNL A   1      40.803  19.905  26.020  1.00  0.00     0.251 C 
ATOM     32  H   UNL A   1      39.016  19.322  25.285  1.00  0.00     0.163 HD
ATOM     33  O   UNL A   1      41.378  18.843  25.815  1.00  0.00    -0.269 OA
BRANCH  31  34
ATOM     34  C   UNL A   1      41.521  21.051  26.604  1.00  0.00     0.039 A 
ATOM     35  C   UNL A   1      42.117  21.979  25.747  1.00  0.00     0.014 A 
ATOM     36  C   UNL A   1      41.457  21.278  27.980  1.00  0.00     0.014 A 
ATOM     37  C   UNL A   1      42.580  23.185  26.269  1.00  0.00     0.010 A 
ATOM     38  C   UNL A   1      41.849  22.509  28.484  1.00  0.00     0.010 A 
ATOM     39  C   UNL A   1      42.407  23.477  27.633  1.00  0.00    -0.014 A 
BRANCH  39  40
ATOM     40  C   UNL A   1      42.796  24.793  28.193  1.00  0.00     0.031 A 
ATOM     41  C   UNL A   1      41.746  25.841  28.428  1.00  0.00     0.074 A 
ATOM     42  C   UNL A   1      44.097  25.071  28.409  1.00  0.00     0.049 A 
ATOM     43  N   UNL A   1      41.889  27.074  28.839  1.00  0.00    -0.248 NA
ATOM     44  C   UNL A   1      40.354  25.465  28.129  1.00  0.00     0.031 C 
ATOM     45  C   UNL A   1      45.217  24.158  28.166  1.00  0.00     0.029 A 
ATOM     46  N   UNL A   1      44.697  26.212  28.878  1.00  0.00    -0.354 N 
ATOM     47  C   UNL A   1      40.616  27.627  28.814  1.00  0.00     0.074 A 
ATOM     48  C   UNL A   1      39.718  26.612  28.310  1.00  0.00     0.031 C 
ATOM     49  C   UNL A   1      46.363  24.764  28.518  1.00  0.00     0.029 A 
ATOM     50  C   UNL A   1      46.064  26.116  28.978  1.00  0.00     0.049 A 
ATOM     51  H   UNL A   1      44.196  27.024  29.120  1.00  0.00     0.167 HD
ATOM     52  C   UNL A   1      40.226  28.866  29.194  1.00  0.00     0.031 A 
ATOM     53  C   UNL A   1      46.972  27.018  29.396  1.00  0.00     0.031 A 
ATOM     54  C   UNL A   1      41.110  29.858  29.739  1.00  0.00     0.049 A 
ATOM     55  C   UNL A   1      46.504  28.374  29.847  1.00  0.00     0.074 A 
ATOM     56  C   UNL A   1      40.795  31.109  30.241  1.00  0.00     0.029 A 
ATOM     57  N   UNL A   1      42.481  29.708  29.858  1.00  0.00    -0.354 N 
ATOM     58  N   UNL A   1      45.284  28.851  29.899  1.00  0.00    -0.248 NA
ATOM     59  C   UNL A   1      47.540  29.311  30.306  1.00  0.00     0.031 C 
ATOM     60  C   UNL A   1      41.984  31.730  30.634  1.00  0.00     0.029 A 
ATOM     61  C   UNL A   1      43.031  30.851  30.410  1.00  0.00     0.049 A 
ATOM     62  H   UNL A   1      42.988  28.909  29.589  1.00  0.00     0.167 HD
ATOM     63  C   UNL A   1      45.403  30.130  30.427  1.00  0.00     0.074 A 
ATOM     64  C   UNL A   1      46.810  30.351  30.687  1.00  0.00     0.031 C 
ATOM     65  C   UNL A   1      44.433  31.042  30.673  1.00  0.00     0.031 A 
BRANCH  52  66
ATOM     66  C   UNL A   1      38.774  29.210  29.037  1.00  0.00    -0.014 A 
ATOM     67  C   UNL A   1      37.870  29.057  30.101  1.00  0.00     0.009 A 
ATOM     68  C   UNL A   1      38.309  29.727  27.818  1.00  0.00     0.009 A 
ATOM     69  C   UNL A   1      36.524  29.384  29.936  1.00  0.00     0.001 A 
ATOM     70  C   UNL A   1      36.967  30.076  27.664  1.00  0.00     0.001 A 
ATOM     71  C   UNL A   1      36.074  29.897  28.719  1.00  0.00     0.000 A 
ENDBRANCH  52  66
BRANCH  53  72
ATOM     72  C   UNL A   1      48.415  26.669  29.442  1.00  0.00    -0.014 A 
ATOM     73  C   UNL A   1      48.973  26.126  30.610  1.00  0.00     0.009 A 
ATOM     74  C   UNL A   1      49.247  26.903  28.338  1.00  0.00     0.009 A 
ATOM     75  C   UNL A   1      50.341  25.856  30.683  1.00  0.00     0.001 A 
ATOM     76  C   UNL A   1      50.611  26.610  28.405  1.00  0.00     0.001 A 
ATOM     77  C   UNL A   1      51.159  26.097  29.580  1.00  0.00     0.000 A 
ENDBRANCH  53  72
BRANCH  65  78
ATOM     78  C   UNL A   1      44.855  32.341  31.294  1.00  0.00    -0.014 A 
ATOM     79  C   UNL A   1      45.188  33.450  30.503  1.00  0.00     0.009 A 
ATOM     80  C   UNL A   1      44.875  32.467  32.692  1.00  0.00     0.009 A 
ATOM     81  C   UNL A   1      45.559  34.654  31.100  1.00  0.00     0.001 A 
ATOM     82  C   UNL A   1      45.224  33.679  33.287  1.00  0.00     0.001 A 
ATOM     83  C   UNL A   1      45.572  34.769  32.491  1.00  0.00     0.000 A 
ENDBRANCH  65  78
ENDBRANCH  39  40
ENDBRANCH  31  34
ENDBRANCH  29  30
ENDBRANCH  28  29
ENDBRANCH   1  28
TORSDOF 15
ENDMDL
