MODEL 1
REMARK VINA RESULT:     -13.5      0.000      0.000
REMARK SMILES Cc1cccc(C(=O)Nc2ccc(C(=O)NNC(=O)c3ccccc3C(=O)NCCCCNC(=O)c3ccc(-c4c5nc(c(-c6ccccc6)c6ccc([nH]6)c(-c6ccccc6)c6nc(c(-c7ccccc7)c7ccc4[nH]7)C=C6)C=C5)cc3)cc2)c1
REMARK SMILES IDX 29 1 28 2 26 3 27 4 25 6 20 7 21 8 22 9 24 10 23 11 18 12
REMARK SMILES IDX 17 13 19 15 16 16 14 17 15 18 13 20 10 21 11 22 85 23 12 24
REMARK SMILES IDX 84 25 9 26 7 27 8 28 6 30 1 31 2 32 3 33 86 34 4 35 5 36
REMARK SMILES IDX 30 37 31 38 32 39 33 40 34 41 35 43 36 44 37 45 83 46 38 47
REMARK SMILES IDX 82 48 39 49 40 50 41 51 76 52 42 53 81 54 75 55 77 56 43 57
REMARK SMILES IDX 80 58 74 59 73 60 44 62 66 63 51 64 65 65 52 66 55 67 64 68
REMARK SMILES IDX 78 69 53 70 54 71 63 73 79 74 56 75 45 76 46 77 50 78 47 79
REMARK SMILES IDX 49 80 48 81 67 82 68 83 72 84 69 85 71 86 70 87 57 88 58 89
REMARK SMILES IDX 62 90 59 91 61 92 60 93
REMARK H PARENT 28 5 17 14 16 19 9 29 33 42 77 61 55 72
REMARK Flexibility Score: inf
ROOT
ATOM      1  C   UNL A   1      33.452  27.538  26.429  1.00  0.00     0.116 C 
ENDROOT
BRANCH   1   2
ATOM      2  N   UNL A   1      33.565  26.610  25.308  1.00  0.00    -0.352 N 
ATOM      3  C   UNL A   1      32.827  26.550  24.138  1.00  0.00     0.252 C 
ATOM      4  O   UNL A   1      33.151  25.781  23.239  1.00  0.00    -0.269 OA
ATOM      5  H   UNL A   1      34.269  25.927  25.396  1.00  0.00     0.163 HD
BRANCH   3   6
ATOM      6  C   UNL A   1      31.584  27.336  23.986  1.00  0.00     0.052 A 
ATOM      7  C   UNL A   1      30.323  26.749  23.826  1.00  0.00     0.054 A 
ATOM      8  C   UNL A   1      29.277  27.516  23.301  1.00  0.00     0.015 A 
ATOM      9  C   UNL A   1      29.453  28.892  23.105  1.00  0.00     0.001 A 
ATOM     10  C   UNL A   1      31.726  28.728  23.897  1.00  0.00     0.014 A 
ATOM     11  C   UNL A   1      30.654  29.506  23.466  1.00  0.00     0.001 A 
BRANCH   7  12
ATOM     12  C   UNL A   1      30.119  25.314  24.134  1.00  0.00     0.270 C 
ATOM     13  N   UNL A   1      29.731  25.039  25.435  1.00  0.00    -0.263 N 
ATOM     14  H   UNL A   1      29.142  25.654  25.928  1.00  0.00     0.191 HD
ATOM     15  O   UNL A   1      30.388  24.460  23.296  1.00  0.00    -0.267 OA
BRANCH  13  16
ATOM     16  N   UNL A   1      30.204  23.851  26.036  1.00  0.00    -0.263 N 
ATOM     17  C   UNL A   1      31.475  23.912  26.592  1.00  0.00     0.269 C 
ATOM     18  O   UNL A   1      31.903  24.903  27.177  1.00  0.00    -0.267 OA
ATOM     19  H   UNL A   1      29.665  23.028  26.057  1.00  0.00     0.191 HD
BRANCH  17  20
ATOM     20  C   UNL A   1      32.402  22.782  26.296  1.00  0.00     0.041 A 
ATOM     21  C   UNL A   1      34.553  21.105  25.542  1.00  0.00     0.041 A 
ATOM     22  C   UNL A   1      33.636  21.550  24.603  1.00  0.00     0.027 A 
ATOM     23  C   UNL A   1      34.321  21.411  26.888  1.00  0.00     0.027 A 
ATOM     24  C   UNL A   1      32.571  22.375  24.977  1.00  0.00     0.016 A 
ATOM     25  C   UNL A   1      33.271  22.275  27.262  1.00  0.00     0.016 A 
BRANCH  21  26
ATOM     26  N   UNL A   1      35.680  20.341  25.195  1.00  0.00    -0.322 N 
ATOM     27  C   UNL A   1      37.018  20.656  25.029  1.00  0.00     0.255 C 
ATOM     28  O   UNL A   1      37.723  19.863  24.400  1.00  0.00    -0.269 OA
ATOM     29  H   UNL A   1      35.477  19.390  25.039  1.00  0.00     0.170 HD
BRANCH  27  30
ATOM     30  C   UNL A   1      37.679  21.855  25.632  1.00  0.00     0.040 A 
ATOM     31  C   UNL A   1      40.769  22.863  27.630  1.00  0.00     0.044 C 
ATOM     32  C   UNL A   1      39.487  22.947  26.856  1.00  0.00    -0.050 A 
ATOM     33  C   UNL A   1      38.829  24.175  26.731  1.00  0.00     0.003 A 
ATOM     34  C   UNL A   1      38.935  21.805  26.252  1.00  0.00     0.017 A 
ATOM     35  C   UNL A   1      37.625  24.256  26.034  1.00  0.00     0.001 A 
ATOM     36  C   UNL A   1      37.047  23.101  25.499  1.00  0.00     0.014 A 
ENDBRANCH  27  30
ENDBRANCH  21  26
ENDBRANCH  17  20
ENDBRANCH  13  16
ENDBRANCH   7  12
ENDBRANCH   3   6
ENDBRANCH   1   2
BRANCH   1  37
ATOM     37  C   UNL A   1      34.242  28.842  26.310  1.00  0.00     0.023 C 
BRANCH  37  38
ATOM     38  C   UNL A   1      33.586  30.149  26.782  1.00  0.00     0.023 C 
BRANCH  38  39
ATOM     39  C   UNL A   1      34.468  31.104  27.601  1.00  0.00     0.116 C 
BRANCH  39  40
ATOM     40  N   UNL A   1      33.763  32.269  28.130  1.00  0.00    -0.352 N 
ATOM     41  C   UNL A   1      34.157  33.224  29.051  1.00  0.00     0.251 C 
ATOM     42  H   UNL A   1      32.855  32.395  27.772  1.00  0.00     0.163 HD
ATOM     43  O   UNL A   1      33.420  34.189  29.265  1.00  0.00    -0.269 OA
BRANCH  41  44
ATOM     44  C   UNL A   1      35.502  33.187  29.680  1.00  0.00     0.039 A 
ATOM     45  C   UNL A   1      36.560  33.825  29.020  1.00  0.00     0.014 A 
ATOM     46  C   UNL A   1      35.770  32.432  30.815  1.00  0.00     0.014 A 
ATOM     47  C   UNL A   1      37.874  33.459  29.308  1.00  0.00     0.010 A 
ATOM     48  C   UNL A   1      37.064  32.004  31.057  1.00  0.00     0.010 A 
ATOM     49  C   UNL A   1      38.101  32.446  30.238  1.00  0.00    -0.014 A 
BRANCH  49  50
ATOM     50  C   UNL A   1      39.349  31.696  30.299  1.00  0.00     0.031 A 
ATOM     51  C   UNL A   1      39.500  30.402  29.614  1.00  0.00     0.074 A 
ATOM     52  C   UNL A   1      40.383  32.202  31.008  1.00  0.00     0.049 A 
ATOM     53  N   UNL A   1      40.294  29.466  30.013  1.00  0.00    -0.248 NA
ATOM     54  C   UNL A   1      38.717  30.037  28.441  1.00  0.00     0.031 C 
ATOM     55  C   UNL A   1      41.764  31.734  31.036  1.00  0.00     0.029 A 
ATOM     56  N   UNL A   1      40.307  33.124  32.053  1.00  0.00    -0.354 N 
ATOM     57  C   UNL A   1      40.346  28.518  29.021  1.00  0.00     0.074 A 
ATOM     58  C   UNL A   1      39.279  28.868  28.110  1.00  0.00     0.031 C 
ATOM     59  C   UNL A   1      42.339  32.151  32.175  1.00  0.00     0.029 A 
ATOM     60  C   UNL A   1      41.306  32.780  32.980  1.00  0.00     0.049 A 
ATOM     61  H   UNL A   1      39.674  33.873  32.127  1.00  0.00     0.167 HD
ATOM     62  C   UNL A   1      41.377  27.626  28.998  1.00  0.00     0.031 A 
ATOM     63  C   UNL A   1      40.997  32.441  34.265  1.00  0.00     0.031 A 
ATOM     64  C   UNL A   1      42.270  27.797  30.140  1.00  0.00     0.049 A 
ATOM     65  C   UNL A   1      41.451  31.053  34.651  1.00  0.00     0.074 A 
ATOM     66  C   UNL A   1      43.491  28.437  30.289  1.00  0.00     0.029 A 
ATOM     67  N   UNL A   1      41.809  27.521  31.420  1.00  0.00    -0.354 N 
ATOM     68  N   UNL A   1      41.737  30.115  33.792  1.00  0.00    -0.248 NA
ATOM     69  C   UNL A   1      41.583  30.600  36.033  1.00  0.00     0.031 C 
ATOM     70  C   UNL A   1      43.741  28.586  31.676  1.00  0.00     0.029 A 
ATOM     71  C   UNL A   1      42.688  28.012  32.366  1.00  0.00     0.049 A 
ATOM     72  H   UNL A   1      40.972  27.044  31.625  1.00  0.00     0.167 HD
ATOM     73  C   UNL A   1      42.087  28.968  34.460  1.00  0.00     0.074 A 
ATOM     74  C   UNL A   1      41.981  29.326  35.862  1.00  0.00     0.031 C 
ATOM     75  C   UNL A   1      42.423  27.828  33.786  1.00  0.00     0.031 A 
BRANCH  62  76
ATOM     76  C   UNL A   1      41.741  26.795  27.791  1.00  0.00    -0.014 A 
ATOM     77  C   UNL A   1      42.804  25.874  27.878  1.00  0.00     0.009 A 
ATOM     78  C   UNL A   1      41.120  26.897  26.537  1.00  0.00     0.009 A 
ATOM     79  C   UNL A   1      43.280  25.177  26.761  1.00  0.00     0.001 A 
ATOM     80  C   UNL A   1      41.612  26.230  25.405  1.00  0.00     0.001 A 
ATOM     81  C   UNL A   1      42.703  25.378  25.515  1.00  0.00     0.000 A 
ENDBRANCH  62  76
BRANCH  63  82
ATOM     82  C   UNL A   1      39.762  33.100  34.774  1.00  0.00    -0.014 A 
ATOM     83  C   UNL A   1      38.519  32.494  34.499  1.00  0.00     0.009 A 
ATOM     84  C   UNL A   1      39.832  34.047  35.805  1.00  0.00     0.009 A 
ATOM     85  C   UNL A   1      37.410  32.732  35.314  1.00  0.00     0.001 A 
ATOM     86  C   UNL A   1      38.711  34.296  36.608  1.00  0.00     0.001 A 
ATOM     87  C   UNL A   1      37.517  33.610  36.389  1.00  0.00     0.000 A 
ENDBRANCH  63  82
BRANCH  75  88
ATOM     88  C   UNL A   1      42.611  26.443  34.366  1.00  0.00    -0.014 A 
ATOM     89  C   UNL A   1      41.684  25.778  35.177  1.00  0.00     0.009 A 
ATOM     90  C   UNL A   1      43.751  25.696  33.981  1.00  0.00     0.009 A 
ATOM     91  C   UNL A   1      41.898  24.457  35.605  1.00  0.00     0.001 A 
ATOM     92  C   UNL A   1      43.946  24.367  34.364  1.00  0.00     0.001 A 
ATOM     93  C   UNL A   1      43.021  23.749  35.188  1.00  0.00     0.000 A 
ENDBRANCH  75  88
ENDBRANCH  49  50
ENDBRANCH  41  44
ENDBRANCH  39  40
ENDBRANCH  38  39
ENDBRANCH  37  38
ENDBRANCH   1  37
TORSDOF 16
ENDMDL
MODEL 2
REMARK VINA RESULT:     -13.5      2.065      3.726
REMARK SMILES Cc1cccc(C(=O)Nc2ccc(C(=O)NNC(=O)c3ccccc3C(=O)NCCCCNC(=O)c3ccc(-c4c5nc(c(-c6ccccc6)c6ccc([nH]6)c(-c6ccccc6)c6nc(c(-c7ccccc7)c7ccc4[nH]7)C=C6)C=C5)cc3)cc2)c1
REMARK SMILES IDX 29 1 28 2 26 3 27 4 25 6 20 7 21 8 22 9 24 10 23 11 18 12
REMARK SMILES IDX 17 13 19 15 16 16 14 17 15 18 13 20 10 21 11 22 85 23 12 24
REMARK SMILES IDX 84 25 9 26 7 27 8 28 6 30 1 31 2 32 3 33 86 34 4 35 5 36
REMARK SMILES IDX 30 37 31 38 32 39 33 40 34 41 35 43 36 44 37 45 83 46 38 47
REMARK SMILES IDX 82 48 39 49 40 50 41 51 76 52 42 53 81 54 75 55 77 56 43 57
REMARK SMILES IDX 80 58 74 59 73 60 44 62 66 63 51 64 65 65 52 66 55 67 64 68
REMARK SMILES IDX 78 69 53 70 54 71 63 73 79 74 56 75 45 76 46 77 50 78 47 79
REMARK SMILES IDX 49 80 48 81 67 82 68 83 72 84 69 85 71 86 70 87 57 88 58 89
REMARK SMILES IDX 62 90 59 91 61 92 60 93
REMARK H PARENT 28 5 17 14 16 19 9 29 33 42 77 61 55 72
REMARK Flexibility Score: inf
ROOT
ATOM      1  C   UNL A   1      32.042  29.170  25.766  1.00  0.00     0.116 C 
ENDROOT
BRANCH   1   2
ATOM      2  N   UNL A   1      32.347  28.993  24.350  1.00  0.00    -0.352 N 
ATOM      3  C   UNL A   1      31.520  29.134  23.248  1.00  0.00     0.252 C 
ATOM      4  O   UNL A   1      31.982  29.077  22.113  1.00  0.00    -0.269 OA
ATOM      5  H   UNL A   1      33.276  28.736  24.148  1.00  0.00     0.163 HD
BRANCH   3   6
ATOM      6  C   UNL A   1      30.055  29.258  23.411  1.00  0.00     0.052 A 
ATOM      7  C   UNL A   1      29.180  28.170  23.312  1.00  0.00     0.054 A 
ATOM      8  C   UNL A   1      27.821  28.410  23.084  1.00  0.00     0.015 A 
ATOM      9  C   UNL A   1      27.327  29.720  23.127  1.00  0.00     0.001 A 
ATOM     10  C   UNL A   1      29.547  30.556  23.567  1.00  0.00     0.014 A 
ATOM     11  C   UNL A   1      28.179  30.783  23.434  1.00  0.00     0.001 A 
BRANCH   7  12
ATOM     12  C   UNL A   1      29.698  26.783  23.371  1.00  0.00     0.270 C 
ATOM     13  N   UNL A   1      29.023  25.938  24.237  1.00  0.00    -0.263 N 
ATOM     14  H   UNL A   1      28.052  26.021  24.371  1.00  0.00     0.191 HD
ATOM     15  O   UNL A   1      30.716  26.480  22.759  1.00  0.00    -0.267 OA
BRANCH  13  16
ATOM     16  N   UNL A   1      29.768  24.952  24.922  1.00  0.00    -0.263 N 
ATOM     17  C   UNL A   1      30.605  25.409  25.931  1.00  0.00     0.269 C 
ATOM     18  O   UNL A   1      30.307  26.337  26.678  1.00  0.00    -0.267 OA
ATOM     19  H   UNL A   1      29.699  23.996  24.697  1.00  0.00     0.191 HD
BRANCH  17  20
ATOM     20  C   UNL A   1      31.989  24.856  25.969  1.00  0.00     0.041 A 
ATOM     21  C   UNL A   1      34.350  23.314  25.730  1.00  0.00     0.041 A 
ATOM     22  C   UNL A   1      33.456  23.090  26.765  1.00  0.00     0.027 A 
ATOM     23  C   UNL A   1      34.112  24.396  24.875  1.00  0.00     0.027 A 
ATOM     24  C   UNL A   1      32.292  23.855  26.885  1.00  0.00     0.016 A 
ATOM     25  C   UNL A   1      32.921  25.144  24.970  1.00  0.00     0.016 A 
BRANCH  21  26
ATOM     26  N   UNL A   1      35.489  22.516  25.529  1.00  0.00    -0.322 N 
ATOM     27  C   UNL A   1      35.661  21.167  25.269  1.00  0.00     0.255 C 
ATOM     28  O   UNL A   1      36.776  20.680  25.470  1.00  0.00    -0.269 OA
ATOM     29  H   UNL A   1      36.335  23.018  25.584  1.00  0.00     0.170 HD
BRANCH  27  30
ATOM     30  C   UNL A   1      34.606  20.283  24.684  1.00  0.00     0.040 A 
ATOM     31  C   UNL A   1      33.893  16.621  23.885  1.00  0.00     0.044 C 
ATOM     32  C   UNL A   1      33.719  18.104  24.035  1.00  0.00    -0.050 A 
ATOM     33  C   UNL A   1      32.556  18.719  23.560  1.00  0.00     0.003 A 
ATOM     34  C   UNL A   1      34.710  18.886  24.650  1.00  0.00     0.017 A 
ATOM     35  C   UNL A   1      32.397  20.098  23.673  1.00  0.00     0.001 A 
ATOM     36  C   UNL A   1      33.422  20.878  24.220  1.00  0.00     0.014 A 
ENDBRANCH  27  30
ENDBRANCH  21  26
ENDBRANCH  17  20
ENDBRANCH  13  16
ENDBRANCH   7  12
ENDBRANCH   3   6
ENDBRANCH   1   2
BRANCH   1  37
ATOM     37  C   UNL A   1      32.940  28.420  26.750  1.00  0.00     0.023 C 
BRANCH  37  38
ATOM     38  C   UNL A   1      33.828  29.230  27.708  1.00  0.00     0.023 C 
BRANCH  38  39
ATOM     39  C   UNL A   1      33.922  30.741  27.444  1.00  0.00     0.116 C 
BRANCH  39  40
ATOM     40  N   UNL A   1      34.508  31.508  28.541  1.00  0.00    -0.352 N 
ATOM     41  C   UNL A   1      35.696  31.337  29.232  1.00  0.00     0.251 C 
ATOM     42  H   UNL A   1      33.967  32.274  28.839  1.00  0.00     0.163 HD
ATOM     43  O   UNL A   1      36.034  32.185  30.059  1.00  0.00    -0.269 OA
BRANCH  41  44
ATOM     44  C   UNL A   1      36.634  30.234  28.899  1.00  0.00     0.039 A 
ATOM     45  C   UNL A   1      36.853  29.239  29.859  1.00  0.00     0.014 A 
ATOM     46  C   UNL A   1      37.396  30.234  27.738  1.00  0.00     0.014 A 
ATOM     47  C   UNL A   1      38.009  28.461  29.796  1.00  0.00     0.010 A 
ATOM     48  C   UNL A   1      38.583  29.523  27.704  1.00  0.00     0.010 A 
ATOM     49  C   UNL A   1      38.931  28.710  28.782  1.00  0.00    -0.014 A 
BRANCH  49  50
ATOM     50  C   UNL A   1      40.324  28.289  28.861  1.00  0.00     0.031 A 
ATOM     51  C   UNL A   1      40.766  26.993  28.320  1.00  0.00     0.074 A 
ATOM     52  C   UNL A   1      41.223  29.108  29.453  1.00  0.00     0.049 A 
ATOM     53  N   UNL A   1      41.772  26.328  28.780  1.00  0.00    -0.248 NA
ATOM     54  C   UNL A   1      40.066  26.312  27.240  1.00  0.00     0.031 C 
ATOM     55  C   UNL A   1      42.676  28.986  29.461  1.00  0.00     0.029 A 
ATOM     56  N   UNL A   1      40.952  30.106  30.390  1.00  0.00    -0.354 N 
ATOM     57  C   UNL A   1      42.026  25.304  27.900  1.00  0.00     0.074 A 
ATOM     58  C   UNL A   1      40.885  25.278  27.014  1.00  0.00     0.031 C 
ATOM     59  C   UNL A   1      43.161  29.664  30.514  1.00  0.00     0.029 A 
ATOM     60  C   UNL A   1      42.026  30.124  31.295  1.00  0.00     0.049 A 
ATOM     61  H   UNL A   1      40.159  30.688  30.412  1.00  0.00     0.167 HD
ATOM     62  C   UNL A   1      43.241  24.685  27.924  1.00  0.00     0.031 A 
ATOM     63  C   UNL A   1      41.839  29.882  32.625  1.00  0.00     0.031 A 
ATOM     64  C   UNL A   1      44.094  25.201  28.991  1.00  0.00     0.049 A 
ATOM     65  C   UNL A   1      42.623  28.699  33.142  1.00  0.00     0.074 A 
ATOM     66  C   UNL A   1      45.128  26.125  29.002  1.00  0.00     0.029 A 
ATOM     67  N   UNL A   1      43.744  24.983  30.316  1.00  0.00    -0.354 N 
ATOM     68  N   UNL A   1      43.106  27.758  32.380  1.00  0.00    -0.248 NA
ATOM     69  C   UNL A   1      42.894  28.462  34.557  1.00  0.00     0.031 C 
ATOM     70  C   UNL A   1      45.368  26.498  30.348  1.00  0.00     0.029 A 
ATOM     71  C   UNL A   1      44.501  25.780  31.153  1.00  0.00     0.049 A 
ATOM     72  H   UNL A   1      43.052  24.351  30.618  1.00  0.00     0.167 HD
ATOM     73  C   UNL A   1      43.738  26.816  33.154  1.00  0.00     0.074 A 
ATOM     74  C   UNL A   1      43.582  27.307  34.510  1.00  0.00     0.031 C 
ATOM     75  C   UNL A   1      44.323  25.714  32.597  1.00  0.00     0.031 A 
BRANCH  62  76
ATOM     76  C   UNL A   1      43.765  23.823  26.802  1.00  0.00    -0.014 A 
ATOM     77  C   UNL A   1      44.363  24.431  25.680  1.00  0.00     0.009 A 
ATOM     78  C   UNL A   1      43.664  22.423  26.759  1.00  0.00     0.009 A 
ATOM     79  C   UNL A   1      44.742  23.700  24.548  1.00  0.00     0.001 A 
ATOM     80  C   UNL A   1      44.008  21.687  25.615  1.00  0.00     0.001 A 
ATOM     81  C   UNL A   1      44.536  22.329  24.503  1.00  0.00     0.000 A 
ENDBRANCH  62  76
BRANCH  63  82
ATOM     82  C   UNL A   1      40.495  30.288  33.121  1.00  0.00    -0.014 A 
ATOM     83  C   UNL A   1      40.139  31.651  33.047  1.00  0.00     0.009 A 
ATOM     84  C   UNL A   1      39.477  29.339  33.285  1.00  0.00     0.009 A 
ATOM     85  C   UNL A   1      38.798  32.040  33.008  1.00  0.00     0.001 A 
ATOM     86  C   UNL A   1      38.134  29.736  33.265  1.00  0.00     0.001 A 
ATOM     87  C   UNL A   1      37.795  31.077  33.084  1.00  0.00     0.000 A 
ENDBRANCH  63  82
BRANCH  75  88
ATOM     88  C   UNL A   1      44.853  24.494  33.319  1.00  0.00    -0.014 A 
ATOM     89  C   UNL A   1      46.153  24.356  33.818  1.00  0.00     0.009 A 
ATOM     90  C   UNL A   1      43.952  23.445  33.627  1.00  0.00     0.009 A 
ATOM     91  C   UNL A   1      46.540  23.223  34.553  1.00  0.00     0.001 A 
ATOM     92  C   UNL A   1      44.319  22.338  34.396  1.00  0.00     0.001 A 
ATOM     93  C   UNL A   1      45.621  22.223  34.852  1.00  0.00     0.000 A 
ENDBRANCH  75  88
ENDBRANCH  49  50
ENDBRANCH  41  44
ENDBRANCH  39  40
ENDBRANCH  38  39
ENDBRANCH  37  38
ENDBRANCH   1  37
TORSDOF 16
ENDMDL
MODEL 3
REMARK VINA RESULT:     -13.1      1.650      2.652
REMARK SMILES Cc1cccc(C(=O)Nc2ccc(C(=O)NNC(=O)c3ccccc3C(=O)NCCCCNC(=O)c3ccc(-c4c5nc(c(-c6ccccc6)c6ccc([nH]6)c(-c6ccccc6)c6nc(c(-c7ccccc7)c7ccc4[nH]7)C=C6)C=C5)cc3)cc2)c1
REMARK SMILES IDX 29 1 28 2 26 3 27 4 25 6 20 7 21 8 22 9 24 10 23 11 18 12
REMARK SMILES IDX 17 13 19 15 16 16 14 17 15 18 13 20 10 21 11 22 85 23 12 24
REMARK SMILES IDX 84 25 9 26 7 27 8 28 6 30 1 31 2 32 3 33 86 34 4 35 5 36
REMARK SMILES IDX 30 37 31 38 32 39 33 40 34 41 35 43 36 44 37 45 83 46 38 47
REMARK SMILES IDX 82 48 39 49 40 50 41 51 76 52 42 53 81 54 75 55 77 56 43 57
REMARK SMILES IDX 80 58 74 59 73 60 44 62 66 63 51 64 65 65 52 66 55 67 64 68
REMARK SMILES IDX 78 69 53 70 54 71 63 73 79 74 56 75 45 76 46 77 50 78 47 79
REMARK SMILES IDX 49 80 48 81 67 82 68 83 72 84 69 85 71 86 70 87 57 88 58 89
REMARK SMILES IDX 62 90 59 91 61 92 60 93
REMARK H PARENT 28 5 17 14 16 19 9 29 33 42 77 61 55 72
REMARK Flexibility Score: inf
ROOT
ATOM      1  C   UNL A   1      33.134  27.180  26.054  1.00  0.00     0.116 C 
ENDROOT
BRANCH   1   2
ATOM      2  N   UNL A   1      33.354  26.719  24.686  1.00  0.00    -0.352 N 
ATOM      3  C   UNL A   1      32.623  26.984  23.541  1.00  0.00     0.252 C 
ATOM      4  O   UNL A   1      33.034  26.619  22.444  1.00  0.00    -0.269 OA
ATOM      5  H   UNL A   1      34.137  26.136  24.559  1.00  0.00     0.163 HD
BRANCH   3   6
ATOM      6  C   UNL A   1      31.292  27.622  23.623  1.00  0.00     0.052 A 
ATOM      7  C   UNL A   1      30.093  26.906  23.521  1.00  0.00     0.054 A 
ATOM      8  C   UNL A   1      28.914  27.593  23.213  1.00  0.00     0.015 A 
ATOM      9  C   UNL A   1      28.913  28.994  23.179  1.00  0.00     0.001 A 
ATOM     10  C   UNL A   1      31.268  29.022  23.701  1.00  0.00     0.014 A 
ATOM     11  C   UNL A   1      30.074  29.706  23.489  1.00  0.00     0.001 A 
BRANCH   7  12
ATOM     12  C   UNL A   1      30.086  25.431  23.660  1.00  0.00     0.270 C 
ATOM     13  N   UNL A   1      29.891  24.960  24.948  1.00  0.00    -0.263 N 
ATOM     14  H   UNL A   1      29.302  25.436  25.577  1.00  0.00     0.191 HD
ATOM     15  O   UNL A   1      30.344  24.720  22.694  1.00  0.00    -0.267 OA
BRANCH  13  16
ATOM     16  N   UNL A   1      30.561  23.778  25.336  1.00  0.00    -0.263 N 
ATOM     17  C   UNL A   1      31.550  23.924  26.299  1.00  0.00     0.269 C 
ATOM     18  O   UNL A   1      31.457  24.708  27.240  1.00  0.00    -0.267 OA
ATOM     19  H   UNL A   1      30.340  22.902  24.944  1.00  0.00     0.191 HD
BRANCH  17  20
ATOM     20  C   UNL A   1      32.843  23.222  26.058  1.00  0.00     0.041 A 
ATOM     21  C   UNL A   1      34.920  21.381  25.502  1.00  0.00     0.041 A 
ATOM     22  C   UNL A   1      34.384  21.485  26.775  1.00  0.00     0.027 A 
ATOM     23  C   UNL A   1      34.488  22.290  24.528  1.00  0.00     0.027 A 
ATOM     24  C   UNL A   1      33.361  22.397  27.050  1.00  0.00     0.016 A 
ATOM     25  C   UNL A   1      33.430  23.183  24.792  1.00  0.00     0.016 A 
BRANCH  21  26
ATOM     26  N   UNL A   1      35.892  20.425  25.166  1.00  0.00    -0.322 N 
ATOM     27  C   UNL A   1      37.272  20.476  25.070  1.00  0.00     0.255 C 
ATOM     28  O   UNL A   1      37.839  19.584  24.433  1.00  0.00    -0.269 OA
ATOM     29  H   UNL A   1      35.516  19.538  24.957  1.00  0.00     0.170 HD
BRANCH  27  30
ATOM     30  C   UNL A   1      38.124  21.497  25.754  1.00  0.00     0.040 A 
ATOM     31  C   UNL A   1      41.365  21.826  27.741  1.00  0.00     0.044 C 
ATOM     32  C   UNL A   1      40.100  22.179  27.015  1.00  0.00    -0.050 A 
ATOM     33  C   UNL A   1      39.643  23.501  27.015  1.00  0.00     0.003 A 
ATOM     34  C   UNL A   1      39.365  21.196  26.331  1.00  0.00     0.017 A 
ATOM     35  C   UNL A   1      38.457  23.832  26.364  1.00  0.00     0.001 A 
ATOM     36  C   UNL A   1      37.695  22.834  25.748  1.00  0.00     0.014 A 
ENDBRANCH  27  30
ENDBRANCH  21  26
ENDBRANCH  17  20
ENDBRANCH  13  16
ENDBRANCH   7  12
ENDBRANCH   3   6
ENDBRANCH   1   2
BRANCH   1  37
ATOM     37  C   UNL A   1      33.981  28.368  26.512  1.00  0.00     0.023 C 
BRANCH  37  38
ATOM     38  C   UNL A   1      33.361  29.387  27.481  1.00  0.00     0.023 C 
BRANCH  38  39
ATOM     39  C   UNL A   1      33.716  30.864  27.245  1.00  0.00     0.116 C 
BRANCH  39  40
ATOM     40  N   UNL A   1      34.176  31.569  28.438  1.00  0.00    -0.352 N 
ATOM     41  C   UNL A   1      35.344  31.444  29.171  1.00  0.00     0.251 C 
ATOM     42  H   UNL A   1      33.550  32.248  28.779  1.00  0.00     0.163 HD
ATOM     43  O   UNL A   1      35.561  32.234  30.091  1.00  0.00    -0.269 OA
BRANCH  41  44
ATOM     44  C   UNL A   1      36.400  30.473  28.785  1.00  0.00     0.039 A 
ATOM     45  C   UNL A   1      36.645  29.388  29.636  1.00  0.00     0.014 A 
ATOM     46  C   UNL A   1      37.235  30.679  27.694  1.00  0.00     0.014 A 
ATOM     47  C   UNL A   1      37.869  28.723  29.572  1.00  0.00     0.010 A 
ATOM     48  C   UNL A   1      38.482  30.079  27.669  1.00  0.00     0.010 A 
ATOM     49  C   UNL A   1      38.831  29.172  28.668  1.00  0.00    -0.014 A 
BRANCH  49  50
ATOM     50  C   UNL A   1      40.248  28.862  28.805  1.00  0.00     0.031 A 
ATOM     51  C   UNL A   1      40.839  27.676  28.164  1.00  0.00     0.074 A 
ATOM     52  C   UNL A   1      41.028  29.681  29.545  1.00  0.00     0.049 A 
ATOM     53  N   UNL A   1      41.870  27.049  28.624  1.00  0.00    -0.248 NA
ATOM     54  C   UNL A   1      40.275  27.064  26.969  1.00  0.00     0.031 C 
ATOM     55  C   UNL A   1      42.484  29.681  29.647  1.00  0.00     0.029 A 
ATOM     56  N   UNL A   1      40.609  30.543  30.559  1.00  0.00    -0.354 N 
ATOM     57  C   UNL A   1      42.272  26.155  27.662  1.00  0.00     0.074 A 
ATOM     58  C   UNL A   1      41.197  26.133  26.696  1.00  0.00     0.031 C 
ATOM     59  C   UNL A   1      42.836  30.274  30.799  1.00  0.00     0.029 A 
ATOM     60  C   UNL A   1      41.616  30.549  31.539  1.00  0.00     0.049 A 
ATOM     61  H   UNL A   1      39.766  31.050  30.584  1.00  0.00     0.167 HD
ATOM     62  C   UNL A   1      43.534  25.641  27.710  1.00  0.00     0.031 A 
ATOM     63  C   UNL A   1      41.367  30.145  32.818  1.00  0.00     0.031 A 
ATOM     64  C   UNL A   1      44.266  26.103  28.886  1.00  0.00     0.049 A 
ATOM     65  C   UNL A   1      42.220  28.981  33.263  1.00  0.00     0.074 A 
ATOM     66  C   UNL A   1      45.209  27.103  29.071  1.00  0.00     0.029 A 
ATOM     67  N   UNL A   1      43.853  25.710  30.151  1.00  0.00    -0.354 N 
ATOM     68  N   UNL A   1      42.835  28.174  32.444  1.00  0.00    -0.248 NA
ATOM     69  C   UNL A   1      42.420  28.611  34.661  1.00  0.00     0.031 C 
ATOM     70  C   UNL A   1      45.327  27.341  30.462  1.00  0.00     0.029 A 
ATOM     71  C   UNL A   1      44.479  26.469  31.121  1.00  0.00     0.049 A 
ATOM     72  H   UNL A   1      43.203  24.993  30.332  1.00  0.00     0.167 HD
ATOM     73  C   UNL A   1      43.498  27.208  33.158  1.00  0.00     0.074 A 
ATOM     74  C   UNL A   1      43.212  27.529  34.544  1.00  0.00     0.031 C 
ATOM     75  C   UNL A   1      44.215  26.227  32.533  1.00  0.00     0.031 A 
BRANCH  62  76
ATOM     76  C   UNL A   1      44.205  24.956  26.544  1.00  0.00    -0.014 A 
ATOM     77  C   UNL A   1      43.625  23.796  25.994  1.00  0.00     0.009 A 
ATOM     78  C   UNL A   1      45.421  25.364  25.973  1.00  0.00     0.009 A 
ATOM     79  C   UNL A   1      44.267  23.037  25.007  1.00  0.00     0.001 A 
ATOM     80  C   UNL A   1      46.088  24.591  25.011  1.00  0.00     0.001 A 
ATOM     81  C   UNL A   1      45.515  23.418  24.537  1.00  0.00     0.000 A 
ENDBRANCH  62  76
BRANCH  63  82
ATOM     82  C   UNL A   1      39.962  30.380  33.254  1.00  0.00    -0.014 A 
ATOM     83  C   UNL A   1      39.545  31.708  33.474  1.00  0.00     0.009 A 
ATOM     84  C   UNL A   1      38.985  29.391  33.077  1.00  0.00     0.009 A 
ATOM     85  C   UNL A   1      38.194  32.058  33.389  1.00  0.00     0.001 A 
ATOM     86  C   UNL A   1      37.631  29.744  33.012  1.00  0.00     0.001 A 
ATOM     87  C   UNL A   1      37.241  31.079  33.126  1.00  0.00     0.000 A 
ENDBRANCH  63  82
BRANCH  75  88
ATOM     88  C   UNL A   1      44.806  24.982  33.159  1.00  0.00    -0.014 A 
ATOM     89  C   UNL A   1      45.894  24.964  34.039  1.00  0.00     0.009 A 
ATOM     90  C   UNL A   1      44.156  23.742  32.944  1.00  0.00     0.009 A 
ATOM     91  C   UNL A   1      46.328  23.772  34.644  1.00  0.00     0.001 A 
ATOM     92  C   UNL A   1      44.554  22.563  33.579  1.00  0.00     0.001 A 
ATOM     93  C   UNL A   1      45.651  22.577  34.424  1.00  0.00     0.000 A 
ENDBRANCH  75  88
ENDBRANCH  49  50
ENDBRANCH  41  44
ENDBRANCH  39  40
ENDBRANCH  38  39
ENDBRANCH  37  38
ENDBRANCH   1  37
TORSDOF 16
ENDMDL
