MODEL 1
REMARK VINA RESULT:     -11.7      0.000      0.000
REMARK SMILES Cc1cc(OC(F)(F)F)cc2c1O[C@@H](C(F)(F)F)C(C(=O)NCCCCNC(=O)c1ccc(-c3c4nc(c(-c5ccccc5)c5ccc([nH]5)c(-c5ccccc5)c5nc(c(-c6ccccc6)c6ccc3[nH]6)C=C5)C=C4)cc1)=C2
REMARK SMILES IDX 24 1 23 2 22 3 20 4 21 5 19 7 1 8 2 9 3 10 12 11 4 12 11 13
REMARK SMILES IDX 13 14 10 15 78 16 14 17 5 18 6 19 7 20 8 21 9 22 15 23 16 24
REMARK SMILES IDX 17 25 18 26 25 27 26 28 27 29 28 30 29 32 30 33 31 34 77 35
REMARK SMILES IDX 32 36 76 37 33 38 34 39 35 40 70 41 36 42 75 43 69 44 71 45
REMARK SMILES IDX 37 46 74 47 68 48 67 49 38 51 60 52 45 53 59 54 46 55 49 56
REMARK SMILES IDX 58 57 72 58 47 59 48 60 57 62 73 63 50 64 39 65 40 66 44 67
REMARK SMILES IDX 41 68 43 69 42 70 61 71 62 72 66 73 63 74 65 75 64 76 51 77
REMARK SMILES IDX 52 78 56 79 53 80 55 81 54 82
REMARK H PARENT 22 6 27 31 71 50 49 61
REMARK Flexibility Score: inf
ROOT
ATOM      1  C   UNL A   1      36.967  21.758  24.406  1.00  0.00     0.023 C 
ENDROOT
BRANCH   1   2
ATOM      2  C   UNL A   1      36.531  22.690  25.534  1.00  0.00     0.116 C 
BRANCH   2   3
ATOM      3  N   UNL A   1      35.582  22.042  26.418  1.00  0.00    -0.352 N 
ATOM      4  C   UNL A   1      34.263  22.158  26.690  1.00  0.00     0.251 C 
ATOM      5  O   UNL A   1      33.822  21.331  27.495  1.00  0.00    -0.270 OA
ATOM      6  H   UNL A   1      36.007  21.336  26.956  1.00  0.00     0.163 HD
BRANCH   4   7
ATOM      7  C   UNL A   1      33.345  23.182  26.108  1.00  0.00     0.067 C 
ATOM      8  C   UNL A   1      29.658  25.956  23.804  1.00  0.00     0.048 C 
ATOM      9  C   UNL A   1      30.883  26.253  24.623  1.00  0.00    -0.005 A 
ATOM     10  C   UNL A   1      31.295  27.587  24.784  1.00  0.00     0.054 A 
ATOM     11  C   UNL A   1      31.669  25.229  25.165  1.00  0.00     0.131 A 
ATOM     12  C   UNL A   1      32.448  27.897  25.509  1.00  0.00     0.130 A 
ATOM     13  C   UNL A   1      32.819  25.528  25.899  1.00  0.00     0.021 A 
ATOM     14  O   UNL A   1      31.251  23.938  24.988  1.00  0.00    -0.475 OA
ATOM     15  C   UNL A   1      33.202  26.861  26.068  1.00  0.00     0.058 A 
ATOM     16  C   UNL A   1      33.594  24.447  26.492  1.00  0.00     0.025 C 
ATOM     17  C   UNL A   1      32.280  22.913  25.079  1.00  0.00     0.314 C 
BRANCH  12  18
ATOM     18  O   UNL A   1      32.951  29.146  25.742  1.00  0.00    -0.406 OA
BRANCH  18  19
ATOM     19  C   UNL A   1      32.197  30.020  26.565  1.00  0.00     0.573 C 
ATOM     20  F   UNL A   1      31.346  30.766  25.830  1.00  0.00    -0.132 F 
ATOM     21  F   UNL A   1      31.506  29.333  27.500  1.00  0.00    -0.132 F 
ATOM     22  F   UNL A   1      33.048  30.856  27.201  1.00  0.00    -0.132 F 
ENDBRANCH  18  19
ENDBRANCH  12  18
BRANCH  17  23
ATOM     23  C   UNL A   1      32.831  22.597  23.678  1.00  0.00     0.429 C 
ATOM     24  F   UNL A   1      33.835  23.420  23.306  1.00  0.00    -0.167 F 
ATOM     25  F   UNL A   1      33.302  21.333  23.575  1.00  0.00    -0.167 F 
ATOM     26  F   UNL A   1      31.845  22.724  22.753  1.00  0.00    -0.167 F 
ENDBRANCH  17  23
ENDBRANCH   4   7
ENDBRANCH   2   3
ENDBRANCH   1   2
BRANCH   1  27
ATOM     27  C   UNL A   1      37.656  20.476  24.881  1.00  0.00     0.023 C 
BRANCH  27  28
ATOM     28  C   UNL A   1      38.879  20.694  25.763  1.00  0.00     0.116 C 
BRANCH  28  29
ATOM     29  N   UNL A   1      39.859  19.623  25.672  1.00  0.00    -0.352 N 
ATOM     30  C   UNL A   1      41.187  19.672  26.026  1.00  0.00     0.251 C 
ATOM     31  H   UNL A   1      39.534  18.764  25.316  1.00  0.00     0.163 HD
ATOM     32  O   UNL A   1      41.931  18.719  25.851  1.00  0.00    -0.269 OA
BRANCH  30  33
ATOM     33  C   UNL A   1      41.699  20.934  26.587  1.00  0.00     0.039 A 
ATOM     34  C   UNL A   1      42.168  21.912  25.710  1.00  0.00     0.014 A 
ATOM     35  C   UNL A   1      41.601  21.175  27.959  1.00  0.00     0.014 A 
ATOM     36  C   UNL A   1      42.483  23.174  26.208  1.00  0.00     0.010 A 
ATOM     37  C   UNL A   1      41.871  22.448  28.446  1.00  0.00     0.010 A 
ATOM     38  C   UNL A   1      42.306  23.456  27.571  1.00  0.00    -0.014 A 
BRANCH  38  39
ATOM     39  C   UNL A   1      42.585  24.805  28.107  1.00  0.00     0.031 A 
ATOM     40  C   UNL A   1      43.984  25.171  28.497  1.00  0.00     0.074 A 
ATOM     41  C   UNL A   1      41.575  25.678  28.280  1.00  0.00     0.049 A 
ATOM     42  N   UNL A   1      44.425  26.283  29.027  1.00  0.00    -0.248 NA
ATOM     43  C   UNL A   1      45.021  24.150  28.279  1.00  0.00     0.031 C 
ATOM     44  C   UNL A   1      40.169  25.426  27.958  1.00  0.00     0.029 A 
ATOM     45  N   UNL A   1      41.582  26.959  28.770  1.00  0.00    -0.354 N 
ATOM     46  C   UNL A   1      45.787  26.091  29.213  1.00  0.00     0.074 A 
ATOM     47  C   UNL A   1      46.094  24.746  28.778  1.00  0.00     0.031 C 
ATOM     48  C   UNL A   1      39.454  26.530  28.228  1.00  0.00     0.029 A 
ATOM     49  C   UNL A   1      40.345  27.555  28.765  1.00  0.00     0.049 A 
ATOM     50  H   UNL A   1      42.396  27.409  29.093  1.00  0.00     0.167 HD
ATOM     51  C   UNL A   1      46.703  26.964  29.687  1.00  0.00     0.031 A 
ATOM     52  C   UNL A   1      39.973  28.791  29.144  1.00  0.00     0.031 A 
ATOM     53  C   UNL A   1      46.403  28.305  30.103  1.00  0.00     0.049 A 
ATOM     54  C   UNL A   1      41.006  29.741  29.677  1.00  0.00     0.074 A 
ATOM     55  C   UNL A   1      47.272  29.275  30.570  1.00  0.00     0.029 A 
ATOM     56  N   UNL A   1      45.136  28.865  30.094  1.00  0.00    -0.354 N 
ATOM     57  N   UNL A   1      42.293  29.551  29.832  1.00  0.00    -0.248 NA
ATOM     58  C   UNL A   1      40.538  31.074  30.082  1.00  0.00     0.031 C 
ATOM     59  C   UNL A   1      46.524  30.420  30.863  1.00  0.00     0.029 A 
ATOM     60  C   UNL A   1      45.197  30.167  30.553  1.00  0.00     0.049 A 
ATOM     61  H   UNL A   1      44.316  28.403  29.806  1.00  0.00     0.167 HD
ATOM     62  C   UNL A   1      42.794  30.743  30.338  1.00  0.00     0.074 A 
ATOM     63  C   UNL A   1      41.672  31.651  30.462  1.00  0.00     0.031 C 
ATOM     64  C   UNL A   1      44.070  31.053  30.669  1.00  0.00     0.031 A 
BRANCH  51  65
ATOM     65  C   UNL A   1      48.121  26.489  29.766  1.00  0.00    -0.014 A 
ATOM     66  C   UNL A   1      48.590  25.825  30.910  1.00  0.00     0.009 A 
ATOM     67  C   UNL A   1      48.990  26.686  28.682  1.00  0.00     0.009 A 
ATOM     68  C   UNL A   1      49.914  25.387  30.977  1.00  0.00     0.001 A 
ATOM     69  C   UNL A   1      50.307  26.231  28.746  1.00  0.00     0.001 A 
ATOM     70  C   UNL A   1      50.769  25.588  29.894  1.00  0.00     0.000 A 
ENDBRANCH  51  65
BRANCH  52  71
ATOM     71  C   UNL A   1      38.559  29.209  28.993  1.00  0.00    -0.014 A 
ATOM     72  C   UNL A   1      37.695  29.172  30.098  1.00  0.00     0.009 A 
ATOM     73  C   UNL A   1      38.077  29.680  27.764  1.00  0.00     0.009 A 
ATOM     74  C   UNL A   1      36.371  29.596  29.972  1.00  0.00     0.001 A 
ATOM     75  C   UNL A   1      36.755  30.116  27.644  1.00  0.00     0.001 A 
ATOM     76  C   UNL A   1      35.903  30.072  28.748  1.00  0.00     0.000 A 
ENDBRANCH  52  71
BRANCH  64  77
ATOM     77  C   UNL A   1      44.336  32.435  31.183  1.00  0.00    -0.014 A 
ATOM     78  C   UNL A   1      44.592  33.491  30.296  1.00  0.00     0.009 A 
ATOM     79  C   UNL A   1      44.221  32.700  32.555  1.00  0.00     0.009 A 
ATOM     80  C   UNL A   1      44.733  34.793  30.780  1.00  0.00     0.001 A 
ATOM     81  C   UNL A   1      44.348  34.005  33.033  1.00  0.00     0.001 A 
ATOM     82  C   UNL A   1      44.604  35.049  32.145  1.00  0.00     0.000 A 
ENDBRANCH  64  77
ENDBRANCH  38  39
ENDBRANCH  30  33
ENDBRANCH  28  29
ENDBRANCH  27  28
ENDBRANCH   1  27
TORSDOF 14
ENDMDL
MODEL 2
REMARK VINA RESULT:     -11.6      2.176      6.612
REMARK SMILES Cc1cc(OC(F)(F)F)cc2c1O[C@@H](C(F)(F)F)C(C(=O)NCCCCNC(=O)c1ccc(-c3c4nc(c(-c5ccccc5)c5ccc([nH]5)c(-c5ccccc5)c5nc(c(-c6ccccc6)c6ccc3[nH]6)C=C5)C=C4)cc1)=C2
REMARK SMILES IDX 24 1 23 2 22 3 20 4 21 5 19 7 1 8 2 9 3 10 12 11 4 12 11 13
REMARK SMILES IDX 13 14 10 15 78 16 14 17 5 18 6 19 7 20 8 21 9 22 15 23 16 24
REMARK SMILES IDX 17 25 18 26 25 27 26 28 27 29 28 30 29 32 30 33 31 34 77 35
REMARK SMILES IDX 32 36 76 37 33 38 34 39 35 40 70 41 36 42 75 43 69 44 71 45
REMARK SMILES IDX 37 46 74 47 68 48 67 49 38 51 60 52 45 53 59 54 46 55 49 56
REMARK SMILES IDX 58 57 72 58 47 59 48 60 57 62 73 63 50 64 39 65 40 66 44 67
REMARK SMILES IDX 41 68 43 69 42 70 61 71 62 72 66 73 63 74 65 75 64 76 51 77
REMARK SMILES IDX 52 78 56 79 53 80 55 81 54 82
REMARK H PARENT 22 6 27 31 71 50 49 61
REMARK Flexibility Score: inf
ROOT
ATOM      1  C   UNL A   1      35.195  22.219  26.142  1.00  0.00     0.023 C 
ENDROOT
BRANCH   1   2
ATOM      2  C   UNL A   1      34.325  21.872  24.935  1.00  0.00     0.116 C 
BRANCH   2   3
ATOM      3  N   UNL A   1      32.963  21.577  25.335  1.00  0.00    -0.352 N 
ATOM      4  C   UNL A   1      31.788  22.245  25.371  1.00  0.00     0.251 C 
ATOM      5  O   UNL A   1      30.817  21.573  25.733  1.00  0.00    -0.270 OA
ATOM      6  H   UNL A   1      32.869  20.653  25.661  1.00  0.00     0.163 HD
BRANCH   4   7
ATOM      7  C   UNL A   1      31.599  23.684  25.021  1.00  0.00     0.067 C 
ATOM      8  C   UNL A   1      30.551  28.311  22.999  1.00  0.00     0.048 C 
ATOM      9  C   UNL A   1      31.113  27.799  24.296  1.00  0.00    -0.005 A 
ATOM     10  C   UNL A   1      31.616  28.715  25.236  1.00  0.00     0.054 A 
ATOM     11  C   UNL A   1      31.220  26.428  24.559  1.00  0.00     0.131 A 
ATOM     12  C   UNL A   1      32.177  28.273  26.437  1.00  0.00     0.130 A 
ATOM     13  C   UNL A   1      31.772  25.975  25.759  1.00  0.00     0.021 A 
ATOM     14  O   UNL A   1      30.732  25.556  23.624  1.00  0.00    -0.475 OA
ATOM     15  C   UNL A   1      32.246  26.900  26.693  1.00  0.00     0.058 A 
ATOM     16  C   UNL A   1      31.829  24.546  26.029  1.00  0.00     0.025 C 
ATOM     17  C   UNL A   1      31.291  24.213  23.646  1.00  0.00     0.314 C 
BRANCH  12  18
ATOM     18  O   UNL A   1      32.692  29.055  27.431  1.00  0.00    -0.406 OA
BRANCH  18  19
ATOM     19  C   UNL A   1      33.963  29.646  27.216  1.00  0.00     0.573 C 
ATOM     20  F   UNL A   1      33.843  30.869  26.657  1.00  0.00    -0.132 F 
ATOM     21  F   UNL A   1      34.656  29.743  28.372  1.00  0.00    -0.132 F 
ATOM     22  F   UNL A   1      34.667  28.863  26.369  1.00  0.00    -0.132 F 
ENDBRANCH  18  19
ENDBRANCH  12  18
BRANCH  17  23
ATOM     23  C   UNL A   1      32.469  24.119  22.662  1.00  0.00     0.429 C 
ATOM     24  F   UNL A   1      32.691  22.861  22.222  1.00  0.00    -0.167 F 
ATOM     25  F   UNL A   1      32.297  24.893  21.566  1.00  0.00    -0.167 F 
ATOM     26  F   UNL A   1      33.611  24.540  23.264  1.00  0.00    -0.167 F 
ENDBRANCH  17  23
ENDBRANCH   4   7
ENDBRANCH   2   3
ENDBRANCH   1   2
BRANCH   1  27
ATOM     27  C   UNL A   1      35.872  23.588  26.056  1.00  0.00     0.023 C 
BRANCH  27  28
ATOM     28  C   UNL A   1      37.083  23.648  25.134  1.00  0.00     0.116 C 
BRANCH  28  29
ATOM     29  N   UNL A   1      38.112  22.674  25.462  1.00  0.00    -0.352 N 
ATOM     30  C   UNL A   1      39.244  22.874  26.217  1.00  0.00     0.251 C 
ATOM     31  H   UNL A   1      37.983  21.766  25.103  1.00  0.00     0.163 HD
ATOM     32  O   UNL A   1      40.070  21.989  26.379  1.00  0.00    -0.269 OA
BRANCH  30  33
ATOM     33  C   UNL A   1      39.454  24.213  26.792  1.00  0.00     0.039 A 
ATOM     34  C   UNL A   1      39.024  24.454  28.097  1.00  0.00     0.014 A 
ATOM     35  C   UNL A   1      40.172  25.174  26.075  1.00  0.00     0.014 A 
ATOM     36  C   UNL A   1      39.376  25.650  28.717  1.00  0.00     0.010 A 
ATOM     37  C   UNL A   1      40.561  26.346  26.711  1.00  0.00     0.010 A 
ATOM     38  C   UNL A   1      40.172  26.586  28.038  1.00  0.00    -0.014 A 
BRANCH  38  39
ATOM     39  C   UNL A   1      40.599  27.838  28.699  1.00  0.00     0.031 A 
ATOM     40  C   UNL A   1      39.621  28.962  28.856  1.00  0.00     0.074 A 
ATOM     41  C   UNL A   1      41.871  27.973  29.116  1.00  0.00     0.049 A 
ATOM     42  N   UNL A   1      39.812  30.152  29.364  1.00  0.00    -0.248 NA
ATOM     43  C   UNL A   1      38.255  28.725  28.362  1.00  0.00     0.031 C 
ATOM     44  C   UNL A   1      42.917  26.956  28.997  1.00  0.00     0.029 A 
ATOM     45  N   UNL A   1      42.498  29.028  29.729  1.00  0.00    -0.354 N 
ATOM     46  C   UNL A   1      38.595  30.807  29.243  1.00  0.00     0.074 A 
ATOM     47  C   UNL A   1      37.684  29.901  28.581  1.00  0.00     0.031 C 
ATOM     48  C   UNL A   1      44.048  27.424  29.550  1.00  0.00     0.029 A 
ATOM     49  C   UNL A   1      43.813  28.781  30.038  1.00  0.00     0.049 A 
ATOM     50  H   UNL A   1      42.048  29.880  29.929  1.00  0.00     0.167 HD
ATOM     51  C   UNL A   1      38.261  32.047  29.664  1.00  0.00     0.031 A 
ATOM     52  C   UNL A   1      44.723  29.559  30.652  1.00  0.00     0.031 A 
ATOM     53  C   UNL A   1      39.159  32.943  30.338  1.00  0.00     0.049 A 
ATOM     54  C   UNL A   1      44.333  30.936  31.102  1.00  0.00     0.074 A 
ATOM     55  C   UNL A   1      38.903  34.209  30.830  1.00  0.00     0.029 A 
ATOM     56  N   UNL A   1      40.486  32.658  30.620  1.00  0.00    -0.354 N 
ATOM     57  N   UNL A   1      43.173  31.537  30.996  1.00  0.00    -0.248 NA
ATOM     58  C   UNL A   1      45.372  31.741  31.759  1.00  0.00     0.031 C 
ATOM     59  C   UNL A   1      40.084  34.702  31.394  1.00  0.00     0.029 A 
ATOM     60  C   UNL A   1      41.064  33.729  31.275  1.00  0.00     0.049 A 
ATOM     61  H   UNL A   1      40.947  31.820  30.387  1.00  0.00     0.167 HD
ATOM     62  C   UNL A   1      43.336  32.783  31.585  1.00  0.00     0.074 A 
ATOM     63  C   UNL A   1      44.707  32.853  32.049  1.00  0.00     0.031 C 
ATOM     64  C   UNL A   1      42.429  33.778  31.728  1.00  0.00     0.031 A 
BRANCH  51  65
ATOM     65  C   UNL A   1      36.855  32.498  29.414  1.00  0.00    -0.014 A 
ATOM     66  C   UNL A   1      35.858  32.303  30.382  1.00  0.00     0.009 A 
ATOM     67  C   UNL A   1      36.527  33.142  28.211  1.00  0.00     0.009 A 
ATOM     68  C   UNL A   1      34.550  32.724  30.140  1.00  0.00     0.001 A 
ATOM     69  C   UNL A   1      35.222  33.578  27.981  1.00  0.00     0.001 A 
ATOM     70  C   UNL A   1      34.234  33.363  28.941  1.00  0.00     0.000 A 
ENDBRANCH  51  65
BRANCH  52  71
ATOM     71  C   UNL A   1      46.084  29.029  30.908  1.00  0.00    -0.014 A 
ATOM     72  C   UNL A   1      46.351  28.330  32.094  1.00  0.00     0.009 A 
ATOM     73  C   UNL A   1      47.105  29.182  29.959  1.00  0.00     0.009 A 
ATOM     74  C   UNL A   1      47.621  27.797  32.328  1.00  0.00     0.001 A 
ATOM     75  C   UNL A   1      48.370  28.637  30.190  1.00  0.00     0.001 A 
ATOM     76  C   UNL A   1      48.627  27.946  31.375  1.00  0.00     0.000 A 
ENDBRANCH  52  71
BRANCH  64  77
ATOM     77  C   UNL A   1      42.873  35.026  32.426  1.00  0.00    -0.014 A 
ATOM     78  C   UNL A   1      43.525  36.048  31.720  1.00  0.00     0.009 A 
ATOM     79  C   UNL A   1      42.538  35.226  33.774  1.00  0.00     0.009 A 
ATOM     80  C   UNL A   1      43.839  37.250  32.357  1.00  0.00     0.001 A 
ATOM     81  C   UNL A   1      42.841  36.434  34.402  1.00  0.00     0.001 A 
ATOM     82  C   UNL A   1      43.490  37.444  33.694  1.00  0.00     0.000 A 
ENDBRANCH  64  77
ENDBRANCH  38  39
ENDBRANCH  30  33
ENDBRANCH  28  29
ENDBRANCH  27  28
ENDBRANCH   1  27
TORSDOF 14
ENDMDL
MODEL 3
REMARK VINA RESULT:     -11.5      2.190      3.453
REMARK SMILES Cc1cc(OC(F)(F)F)cc2c1O[C@@H](C(F)(F)F)C(C(=O)NCCCCNC(=O)c1ccc(-c3c4nc(c(-c5ccccc5)c5ccc([nH]5)c(-c5ccccc5)c5nc(c(-c6ccccc6)c6ccc3[nH]6)C=C5)C=C4)cc1)=C2
REMARK SMILES IDX 24 1 23 2 22 3 20 4 21 5 19 7 1 8 2 9 3 10 12 11 4 12 11 13
REMARK SMILES IDX 13 14 10 15 78 16 14 17 5 18 6 19 7 20 8 21 9 22 15 23 16 24
REMARK SMILES IDX 17 25 18 26 25 27 26 28 27 29 28 30 29 32 30 33 31 34 77 35
REMARK SMILES IDX 32 36 76 37 33 38 34 39 35 40 70 41 36 42 75 43 69 44 71 45
REMARK SMILES IDX 37 46 74 47 68 48 67 49 38 51 60 52 45 53 59 54 46 55 49 56
REMARK SMILES IDX 58 57 72 58 47 59 48 60 57 62 73 63 50 64 39 65 40 66 44 67
REMARK SMILES IDX 41 68 43 69 42 70 61 71 62 72 66 73 63 74 65 75 64 76 51 77
REMARK SMILES IDX 52 78 56 79 53 80 55 81 54 82
REMARK H PARENT 22 6 27 31 71 50 49 61
REMARK Flexibility Score: inf
ROOT
ATOM      1  C   UNL A   1      35.561  21.994  26.022  1.00  0.00     0.023 C 
ENDROOT
BRANCH   1   2
ATOM      2  C   UNL A   1      34.795  21.608  24.759  1.00  0.00     0.116 C 
BRANCH   2   3
ATOM      3  N   UNL A   1      33.427  21.237  25.064  1.00  0.00    -0.352 N 
ATOM      4  C   UNL A   1      32.221  21.847  25.045  1.00  0.00     0.251 C 
ATOM      5  O   UNL A   1      31.264  21.120  25.328  1.00  0.00    -0.270 OA
ATOM      6  H   UNL A   1      33.359  20.300  25.360  1.00  0.00     0.163 HD
BRANCH   4   7
ATOM      7  C   UNL A   1      31.983  23.286  24.723  1.00  0.00     0.067 C 
ATOM      8  C   UNL A   1      30.812  27.915  22.775  1.00  0.00     0.048 C 
ATOM      9  C   UNL A   1      31.348  27.394  24.079  1.00  0.00    -0.005 A 
ATOM     10  C   UNL A   1      31.777  28.306  25.059  1.00  0.00     0.054 A 
ATOM     11  C   UNL A   1      31.504  26.023  24.313  1.00  0.00     0.131 A 
ATOM     12  C   UNL A   1      32.313  27.857  26.269  1.00  0.00     0.130 A 
ATOM     13  C   UNL A   1      32.031  25.563  25.522  1.00  0.00     0.021 A 
ATOM     14  O   UNL A   1      31.087  25.155  23.341  1.00  0.00    -0.475 OA
ATOM     15  C   UNL A   1      32.431  26.482  26.494  1.00  0.00     0.058 A 
ATOM     16  C   UNL A   1      32.140  24.131  25.759  1.00  0.00     0.025 C 
ATOM     17  C   UNL A   1      31.702  23.837  23.351  1.00  0.00     0.314 C 
BRANCH  12  18
ATOM     18  O   UNL A   1      32.758  28.635  27.300  1.00  0.00    -0.406 OA
BRANCH  18  19
ATOM     19  C   UNL A   1      33.903  29.441  27.074  1.00  0.00     0.573 C 
ATOM     20  F   UNL A   1      33.574  30.585  26.437  1.00  0.00    -0.132 F 
ATOM     21  F   UNL A   1      34.528  29.734  28.235  1.00  0.00    -0.132 F 
ATOM     22  F   UNL A   1      34.767  28.757  26.292  1.00  0.00    -0.132 F 
ENDBRANCH  18  19
ENDBRANCH  12  18
BRANCH  17  23
ATOM     23  C   UNL A   1      32.918  23.817  22.409  1.00  0.00     0.429 C 
ATOM     24  F   UNL A   1      33.179  22.589  21.908  1.00  0.00    -0.167 F 
ATOM     25  F   UNL A   1      32.774  24.648  21.352  1.00  0.00    -0.167 F 
ATOM     26  F   UNL A   1      34.029  24.222  23.077  1.00  0.00    -0.167 F 
ENDBRANCH  17  23
ENDBRANCH   4   7
ENDBRANCH   2   3
ENDBRANCH   1   2
BRANCH   1  27
ATOM     27  C   UNL A   1      36.144  23.408  25.997  1.00  0.00     0.023 C 
BRANCH  27  28
ATOM     28  C   UNL A   1      37.344  23.591  25.075  1.00  0.00     0.116 C 
BRANCH  28  29
ATOM     29  N   UNL A   1      38.445  22.687  25.369  1.00  0.00    -0.352 N 
ATOM     30  C   UNL A   1      39.555  22.942  26.139  1.00  0.00     0.251 C 
ATOM     31  H   UNL A   1      38.390  21.788  24.969  1.00  0.00     0.163 HD
ATOM     32  O   UNL A   1      40.448  22.118  26.269  1.00  0.00    -0.269 OA
BRANCH  30  33
ATOM     33  C   UNL A   1      39.656  24.267  26.773  1.00  0.00     0.039 A 
ATOM     34  C   UNL A   1      39.149  24.431  28.063  1.00  0.00     0.014 A 
ATOM     35  C   UNL A   1      40.351  25.295  26.130  1.00  0.00     0.014 A 
ATOM     36  C   UNL A   1      39.399  25.620  28.743  1.00  0.00     0.010 A 
ATOM     37  C   UNL A   1      40.639  26.461  26.828  1.00  0.00     0.010 A 
ATOM     38  C   UNL A   1      40.170  26.626  28.141  1.00  0.00    -0.014 A 
BRANCH  38  39
ATOM     39  C   UNL A   1      40.489  27.873  28.869  1.00  0.00     0.031 A 
ATOM     40  C   UNL A   1      41.834  28.031  29.511  1.00  0.00     0.074 A 
ATOM     41  C   UNL A   1      39.557  28.836  28.986  1.00  0.00     0.049 A 
ATOM     42  N   UNL A   1      42.290  29.023  30.229  1.00  0.00    -0.248 NA
ATOM     43  C   UNL A   1      42.786  26.921  29.335  1.00  0.00     0.031 C 
ATOM     44  C   UNL A   1      38.207  28.785  28.424  1.00  0.00     0.029 A 
ATOM     45  N   UNL A   1      39.611  30.052  29.619  1.00  0.00    -0.354 N 
ATOM     46  C   UNL A   1      43.576  28.655  30.599  1.00  0.00     0.074 A 
ATOM     47  C   UNL A   1      43.815  27.334  30.060  1.00  0.00     0.031 C 
ATOM     48  C   UNL A   1      37.570  29.933  28.709  1.00  0.00     0.029 A 
ATOM     49  C   UNL A   1      38.457  30.787  29.494  1.00  0.00     0.049 A 
ATOM     50  H   UNL A   1      40.401  30.368  30.115  1.00  0.00     0.167 HD
ATOM     51  C   UNL A   1      44.483  29.362  31.308  1.00  0.00     0.031 A 
ATOM     52  C   UNL A   1      38.154  32.014  29.955  1.00  0.00     0.031 A 
ATOM     53  C   UNL A   1      44.254  30.680  31.829  1.00  0.00     0.049 A 
ATOM     54  C   UNL A   1      39.174  32.777  30.749  1.00  0.00     0.074 A 
ATOM     55  C   UNL A   1      45.126  31.490  32.534  1.00  0.00     0.029 A 
ATOM     56  N   UNL A   1      43.068  31.383  31.691  1.00  0.00    -0.354 N 
ATOM     57  N   UNL A   1      40.392  32.422  31.077  1.00  0.00    -0.248 NA
ATOM     58  C   UNL A   1      38.780  34.108  31.232  1.00  0.00     0.031 C 
ATOM     59  C   UNL A   1      44.458  32.679  32.842  1.00  0.00     0.029 A 
ATOM     60  C   UNL A   1      43.182  32.617  32.304  1.00  0.00     0.049 A 
ATOM     61  H   UNL A   1      42.266  31.053  31.227  1.00  0.00     0.167 HD
ATOM     62  C   UNL A   1      40.917  33.490  31.791  1.00  0.00     0.074 A 
ATOM     63  C   UNL A   1      39.888  34.507  31.848  1.00  0.00     0.031 C 
ATOM     64  C   UNL A   1      42.146  33.613  32.348  1.00  0.00     0.031 A 
BRANCH  51  65
ATOM     65  C   UNL A   1      45.814  28.718  31.548  1.00  0.00    -0.014 A 
ATOM     66  C   UNL A   1      46.870  28.897  30.641  1.00  0.00     0.009 A 
ATOM     67  C   UNL A   1      46.023  27.945  32.700  1.00  0.00     0.009 A 
ATOM     68  C   UNL A   1      48.106  28.292  30.871  1.00  0.00     0.001 A 
ATOM     69  C   UNL A   1      47.266  27.358  32.936  1.00  0.00     0.001 A 
ATOM     70  C   UNL A   1      48.303  27.525  32.020  1.00  0.00     0.000 A 
ENDBRANCH  51  65
BRANCH  52  71
ATOM     71  C   UNL A   1      36.833  32.607  29.639  1.00  0.00    -0.014 A 
ATOM     72  C   UNL A   1      36.625  33.236  28.402  1.00  0.00     0.009 A 
ATOM     73  C   UNL A   1      35.768  32.516  30.547  1.00  0.00     0.009 A 
ATOM     74  C   UNL A   1      35.374  33.766  28.082  1.00  0.00     0.001 A 
ATOM     75  C   UNL A   1      34.514  33.036  30.218  1.00  0.00     0.001 A 
ATOM     76  C   UNL A   1      34.318  33.662  28.987  1.00  0.00     0.000 A 
ENDBRANCH  52  71
BRANCH  64  77
ATOM     77  C   UNL A   1      42.460  34.896  33.057  1.00  0.00    -0.014 A 
ATOM     78  C   UNL A   1      43.195  35.904  32.418  1.00  0.00     0.009 A 
ATOM     79  C   UNL A   1      41.922  35.136  34.330  1.00  0.00     0.009 A 
ATOM     80  C   UNL A   1      43.390  37.135  33.047  1.00  0.00     0.001 A 
ATOM     81  C   UNL A   1      42.107  36.372  34.949  1.00  0.00     0.001 A 
ATOM     82  C   UNL A   1      42.840  37.369  34.308  1.00  0.00     0.000 A 
ENDBRANCH  64  77
ENDBRANCH  38  39
ENDBRANCH  30  33
ENDBRANCH  28  29
ENDBRANCH  27  28
ENDBRANCH   1  27
TORSDOF 14
ENDMDL
