MODEL 1
REMARK VINA RESULT:     -11.6      0.000      0.000
REMARK SMILES [NH3+]Cc1c(-c2ccccc2)c(C(=O)NCCCCNC(=O)c2ccc(-c3c4nc(c(-c5ccccc5)c5ccc([nH]5)c(-c5ccccc5)c5nc(c(-c6ccccc6)c6ccc3[nH]6)C=C5)C=C4)cc2)c2ccccn12
REMARK SMILES IDX 16 1 15 2 14 3 12 4 13 5 11 7 3 8 4 9 75 10 70 11 74 12
REMARK SMILES IDX 71 13 73 14 72 15 2 16 1 17 5 21 6 22 10 23 7 24 9 25 8 26
REMARK SMILES IDX 17 27 18 28 19 29 20 30 21 32 22 33 23 34 69 35 24 36 68 37
REMARK SMILES IDX 25 38 26 39 27 40 62 41 28 42 67 43 61 44 63 45 29 46 66 47
REMARK SMILES IDX 60 48 59 49 30 51 52 52 37 53 51 54 38 55 41 56 50 57 64 58
REMARK SMILES IDX 39 59 40 60 49 62 65 63 42 64 31 65 32 66 36 67 33 68 35 69
REMARK SMILES IDX 34 70 53 71 54 72 58 73 55 74 57 75 56 76 43 77 44 78 48 79
REMARK SMILES IDX 45 80 47 81 46 82
REMARK H PARENT 14 6 1 18 1 19 1 20 19 31 63 50 41 61
REMARK Flexibility Score: inf
ROOT
ATOM      1  C   UNL A   1      36.476  20.818  25.027  1.00  0.00     0.023 C 
ENDROOT
BRANCH   1   2
ATOM      2  C   UNL A   1      36.522  22.201  25.668  1.00  0.00     0.116 C 
BRANCH   2   3
ATOM      3  N   UNL A   1      35.645  22.386  26.806  1.00  0.00    -0.352 N 
ATOM      4  C   UNL A   1      34.270  22.468  26.878  1.00  0.00     0.254 C 
ATOM      5  O   UNL A   1      33.784  22.553  28.004  1.00  0.00    -0.269 OA
ATOM      6  H   UNL A   1      36.107  22.467  27.672  1.00  0.00     0.163 HD
BRANCH   4   7
ATOM      7  C   UNL A   1      33.443  22.529  25.670  1.00  0.00     0.073 A 
ATOM      8  C   UNL A   1      32.248  23.404  23.907  1.00  0.00     0.086 A 
ATOM      9  C   UNL A   1      32.856  23.722  25.118  1.00  0.00     0.022 A 
ATOM     10  N   UNL A   1      32.395  22.039  23.726  1.00  0.00    -0.314 N 
ATOM     11  C   UNL A   1      32.957  21.493  24.882  1.00  0.00     0.059 A 
ATOM     12  C   UNL A   1      32.059  21.252  22.616  1.00  0.00     0.092 A 
ATOM     13  C   UNL A   1      32.946  20.065  24.982  1.00  0.00     0.027 A 
ATOM     14  C   UNL A   1      32.209  19.920  22.667  1.00  0.00     0.018 A 
ATOM     15  C   UNL A   1      32.624  19.313  23.916  1.00  0.00     0.004 A 
BRANCH   8  16
ATOM     16  C   UNL A   1      31.559  24.284  22.916  1.00  0.00     0.315 C 
BRANCH  16  17
ATOM     17  N   UNL A   1      30.117  24.251  23.118  1.00  0.00    -0.353 N 
ATOM     18  H   UNL A   1      29.708  25.126  22.792  1.00  0.00     0.344 HD
ATOM     19  H   UNL A   1      29.915  24.129  24.110  1.00  0.00     0.344 HD
ATOM     20  H   UNL A   1      29.719  23.473  22.593  1.00  0.00     0.344 HD
ENDBRANCH  16  17
ENDBRANCH   8  16
BRANCH   9  21
ATOM     21  C   UNL A   1      32.857  25.076  25.652  1.00  0.00    -0.016 A 
ATOM     22  C   UNL A   1      33.985  25.891  25.538  1.00  0.00     0.009 A 
ATOM     23  C   UNL A   1      31.708  25.569  26.284  1.00  0.00     0.009 A 
ATOM     24  C   UNL A   1      33.957  27.195  26.042  1.00  0.00     0.001 A 
ATOM     25  C   UNL A   1      31.678  26.875  26.776  1.00  0.00     0.001 A 
ATOM     26  C   UNL A   1      32.803  27.687  26.655  1.00  0.00     0.000 A 
ENDBRANCH   9  21
ENDBRANCH   4   7
ENDBRANCH   2   3
ENDBRANCH   1   2
BRANCH   1  27
ATOM     27  C   UNL A   1      37.813  20.116  24.789  1.00  0.00     0.023 C 
BRANCH  27  28
ATOM     28  C   UNL A   1      38.935  20.410  25.779  1.00  0.00     0.116 C 
BRANCH  28  29
ATOM     29  N   UNL A   1      40.014  19.435  25.764  1.00  0.00    -0.352 N 
ATOM     30  C   UNL A   1      41.338  19.556  26.123  1.00  0.00     0.251 C 
ATOM     31  H   UNL A   1      39.755  18.540  25.445  1.00  0.00     0.163 HD
ATOM     32  O   UNL A   1      42.099  18.607  25.974  1.00  0.00    -0.269 OA
BRANCH  30  33
ATOM     33  C   UNL A   1      41.865  20.842  26.637  1.00  0.00     0.039 A 
ATOM     34  C   UNL A   1      42.340  21.784  25.720  1.00  0.00     0.014 A 
ATOM     35  C   UNL A   1      41.881  21.131  28.003  1.00  0.00     0.014 A 
ATOM     36  C   UNL A   1      42.727  23.052  26.163  1.00  0.00     0.010 A 
ATOM     37  C   UNL A   1      42.187  22.421  28.433  1.00  0.00     0.010 A 
ATOM     38  C   UNL A   1      42.601  23.400  27.517  1.00  0.00    -0.014 A 
BRANCH  38  39
ATOM     39  C   UNL A   1      42.867  24.783  27.992  1.00  0.00     0.031 A 
ATOM     40  C   UNL A   1      44.257  25.200  28.385  1.00  0.00     0.074 A 
ATOM     41  C   UNL A   1      41.840  25.643  28.154  1.00  0.00     0.049 A 
ATOM     42  N   UNL A   1      44.665  26.329  28.908  1.00  0.00    -0.248 NA
ATOM     43  C   UNL A   1      45.325  24.207  28.192  1.00  0.00     0.031 C 
ATOM     44  C   UNL A   1      40.434  25.357  27.857  1.00  0.00     0.029 A 
ATOM     45  N   UNL A   1      41.821  26.936  28.620  1.00  0.00    -0.354 N 
ATOM     46  C   UNL A   1      46.027  26.172  29.131  1.00  0.00     0.074 A 
ATOM     47  C   UNL A   1      46.368  24.826  28.726  1.00  0.00     0.031 C 
ATOM     48  C   UNL A   1      39.697  26.448  28.122  1.00  0.00     0.029 A 
ATOM     49  C   UNL A   1      40.567  27.495  28.645  1.00  0.00     0.049 A 
ATOM     50  H   UNL A   1      42.632  27.415  28.909  1.00  0.00     0.167 HD
ATOM     51  C   UNL A   1      46.918  27.072  29.612  1.00  0.00     0.031 A 
ATOM     52  C   UNL A   1      40.159  28.713  29.049  1.00  0.00     0.031 A 
ATOM     53  C   UNL A   1      46.590  28.418  29.994  1.00  0.00     0.049 A 
ATOM     54  C   UNL A   1      41.169  29.695  29.572  1.00  0.00     0.074 A 
ATOM     55  C   UNL A   1      47.438  29.421  30.429  1.00  0.00     0.029 A 
ATOM     56  N   UNL A   1      45.311  28.950  29.981  1.00  0.00    -0.354 N 
ATOM     57  N   UNL A   1      42.464  29.550  29.715  1.00  0.00    -0.248 NA
ATOM     58  C   UNL A   1      40.660  31.012  29.981  1.00  0.00     0.031 C 
ATOM     59  C   UNL A   1      46.665  30.551  30.720  1.00  0.00     0.029 A 
ATOM     60  C   UNL A   1      45.344  30.264  30.420  1.00  0.00     0.049 A 
ATOM     61  H   UNL A   1      44.500  28.468  29.702  1.00  0.00     0.167 HD
ATOM     62  C   UNL A   1      42.927  30.763  30.205  1.00  0.00     0.074 A 
ATOM     63  C   UNL A   1      41.778  31.637  30.321  1.00  0.00     0.031 C 
ATOM     64  C   UNL A   1      44.193  31.122  30.528  1.00  0.00     0.031 A 
BRANCH  51  65
ATOM     65  C   UNL A   1      48.345  26.617  29.753  1.00  0.00    -0.014 A 
ATOM     66  C   UNL A   1      49.279  26.833  28.728  1.00  0.00     0.009 A 
ATOM     67  C   UNL A   1      48.765  25.991  30.936  1.00  0.00     0.009 A 
ATOM     68  C   UNL A   1      50.597  26.393  28.870  1.00  0.00     0.001 A 
ATOM     69  C   UNL A   1      50.089  25.578  31.086  1.00  0.00     0.001 A 
ATOM     70  C   UNL A   1      51.002  25.770  30.049  1.00  0.00     0.000 A 
ENDBRANCH  51  65
BRANCH  52  71
ATOM     71  C   UNL A   1      38.724  29.086  28.955  1.00  0.00    -0.014 A 
ATOM     72  C   UNL A   1      38.200  29.587  27.753  1.00  0.00     0.009 A 
ATOM     73  C   UNL A   1      37.875  28.955  30.065  1.00  0.00     0.009 A 
ATOM     74  C   UNL A   1      36.860  29.972  27.671  1.00  0.00     0.001 A 
ATOM     75  C   UNL A   1      36.529  29.317  29.971  1.00  0.00     0.001 A 
ATOM     76  C   UNL A   1      36.025  29.833  28.778  1.00  0.00     0.000 A 
ENDBRANCH  52  71
BRANCH  64  77
ATOM     77  C   UNL A   1      44.408  32.530  31.004  1.00  0.00    -0.014 A 
ATOM     78  C   UNL A   1      44.371  32.850  32.369  1.00  0.00     0.009 A 
ATOM     79  C   UNL A   1      44.691  33.541  30.073  1.00  0.00     0.009 A 
ATOM     80  C   UNL A   1      44.584  34.164  32.790  1.00  0.00     0.001 A 
ATOM     81  C   UNL A   1      44.929  34.849  30.499  1.00  0.00     0.001 A 
ATOM     82  C   UNL A   1      44.868  35.160  31.857  1.00  0.00     0.000 A 
ENDBRANCH  64  77
ENDBRANCH  38  39
ENDBRANCH  30  33
ENDBRANCH  28  29
ENDBRANCH  27  28
ENDBRANCH   1  27
TORSDOF 14
ENDMDL
MODEL 2
REMARK VINA RESULT:     -11.5      0.378      5.954
REMARK SMILES [NH3+]Cc1c(-c2ccccc2)c(C(=O)NCCCCNC(=O)c2ccc(-c3c4nc(c(-c5ccccc5)c5ccc([nH]5)c(-c5ccccc5)c5nc(c(-c6ccccc6)c6ccc3[nH]6)C=C5)C=C4)cc2)c2ccccn12
REMARK SMILES IDX 16 1 15 2 14 3 12 4 13 5 11 7 3 8 4 9 75 10 70 11 74 12
REMARK SMILES IDX 71 13 73 14 72 15 2 16 1 17 5 21 6 22 10 23 7 24 9 25 8 26
REMARK SMILES IDX 17 27 18 28 19 29 20 30 21 32 22 33 23 34 69 35 24 36 68 37
REMARK SMILES IDX 25 38 26 39 27 40 62 41 28 42 67 43 61 44 63 45 29 46 66 47
REMARK SMILES IDX 60 48 59 49 30 51 52 52 37 53 51 54 38 55 41 56 50 57 64 58
REMARK SMILES IDX 39 59 40 60 49 62 65 63 42 64 31 65 32 66 36 67 33 68 35 69
REMARK SMILES IDX 34 70 53 71 54 72 58 73 55 74 57 75 56 76 43 77 44 78 48 79
REMARK SMILES IDX 45 80 47 81 46 82
REMARK H PARENT 14 6 1 18 1 19 1 20 19 31 63 50 41 61
REMARK Flexibility Score: inf
ROOT
ATOM      1  C   UNL A   1      36.547  21.733  24.598  1.00  0.00     0.023 C 
ENDROOT
BRANCH   1   2
ATOM      2  C   UNL A   1      36.609  22.949  25.517  1.00  0.00     0.116 C 
BRANCH   2   3
ATOM      3  N   UNL A   1      35.776  22.874  26.700  1.00  0.00    -0.352 N 
ATOM      4  C   UNL A   1      34.411  22.723  26.832  1.00  0.00     0.254 C 
ATOM      5  O   UNL A   1      33.979  22.615  27.978  1.00  0.00    -0.269 OA
ATOM      6  H   UNL A   1      36.266  22.943  27.552  1.00  0.00     0.163 HD
BRANCH   4   7
ATOM      7  C   UNL A   1      33.521  22.768  25.669  1.00  0.00     0.073 A 
ATOM      8  C   UNL A   1      32.218  23.620  23.973  1.00  0.00     0.086 A 
ATOM      9  C   UNL A   1      32.882  23.949  25.151  1.00  0.00     0.022 A 
ATOM     10  N   UNL A   1      32.383  22.259  23.781  1.00  0.00    -0.314 N 
ATOM     11  C   UNL A   1      33.016  21.723  24.904  1.00  0.00     0.059 A 
ATOM     12  C   UNL A   1      32.006  21.466  22.688  1.00  0.00     0.092 A 
ATOM     13  C   UNL A   1      33.040  20.295  25.002  1.00  0.00     0.027 A 
ATOM     14  C   UNL A   1      32.187  20.137  22.728  1.00  0.00     0.018 A 
ATOM     15  C   UNL A   1      32.679  19.538  23.952  1.00  0.00     0.004 A 
BRANCH   8  16
ATOM     16  C   UNL A   1      31.459  24.486  23.021  1.00  0.00     0.315 C 
BRANCH  16  17
ATOM     17  N   UNL A   1      30.065  24.593  23.426  1.00  0.00    -0.353 N 
ATOM     18  H   UNL A   1      30.013  24.984  24.366  1.00  0.00     0.344 HD
ATOM     19  H   UNL A   1      29.636  23.667  23.419  1.00  0.00     0.344 HD
ATOM     20  H   UNL A   1      29.568  25.201  22.775  1.00  0.00     0.344 HD
ENDBRANCH  16  17
ENDBRANCH   8  16
BRANCH   9  21
ATOM     21  C   UNL A   1      32.881  25.302  25.687  1.00  0.00    -0.016 A 
ATOM     22  C   UNL A   1      33.978  26.147  25.502  1.00  0.00     0.009 A 
ATOM     23  C   UNL A   1      31.764  25.764  26.395  1.00  0.00     0.009 A 
ATOM     24  C   UNL A   1      33.949  27.449  26.009  1.00  0.00     0.001 A 
ATOM     25  C   UNL A   1      31.733  27.068  26.892  1.00  0.00     0.001 A 
ATOM     26  C   UNL A   1      32.826  27.910  26.698  1.00  0.00     0.000 A 
ENDBRANCH   9  21
ENDBRANCH   4   7
ENDBRANCH   2   3
ENDBRANCH   1   2
BRANCH   1  27
ATOM     27  C   UNL A   1      37.444  20.548  24.950  1.00  0.00     0.023 C 
BRANCH  27  28
ATOM     28  C   UNL A   1      38.712  20.851  25.743  1.00  0.00     0.116 C 
BRANCH  28  29
ATOM     29  N   UNL A   1      39.725  19.810  25.668  1.00  0.00    -0.352 N 
ATOM     30  C   UNL A   1      41.055  19.824  26.027  1.00  0.00     0.251 C 
ATOM     31  H   UNL A   1      39.408  18.953  25.300  1.00  0.00     0.163 HD
ATOM     32  O   UNL A   1      41.751  18.838  25.822  1.00  0.00    -0.269 OA
BRANCH  30  33
ATOM     33  C   UNL A   1      41.665  21.041  26.611  1.00  0.00     0.039 A 
ATOM     34  C   UNL A   1      42.156  22.024  25.746  1.00  0.00     0.014 A 
ATOM     35  C   UNL A   1      41.742  21.230  27.992  1.00  0.00     0.014 A 
ATOM     36  C   UNL A   1      42.624  23.235  26.262  1.00  0.00     0.010 A 
ATOM     37  C   UNL A   1      42.128  22.469  28.501  1.00  0.00     0.010 A 
ATOM     38  C   UNL A   1      42.561  23.490  27.642  1.00  0.00    -0.014 A 
BRANCH  38  39
ATOM     39  C   UNL A   1      42.914  24.821  28.202  1.00  0.00     0.031 A 
ATOM     40  C   UNL A   1      41.851  25.861  28.423  1.00  0.00     0.074 A 
ATOM     41  C   UNL A   1      44.207  25.127  28.433  1.00  0.00     0.049 A 
ATOM     42  N   UNL A   1      41.980  27.104  28.813  1.00  0.00    -0.248 NA
ATOM     43  C   UNL A   1      40.464  25.461  28.140  1.00  0.00     0.031 C 
ATOM     44  C   UNL A   1      45.346  24.230  28.219  1.00  0.00     0.029 A 
ATOM     45  N   UNL A   1      44.784  26.287  28.891  1.00  0.00    -0.354 N 
ATOM     46  C   UNL A   1      40.699  27.641  28.796  1.00  0.00     0.074 A 
ATOM     47  C   UNL A   1      39.813  26.602  28.317  1.00  0.00     0.031 C 
ATOM     48  C   UNL A   1      46.477  24.863  28.570  1.00  0.00     0.029 A 
ATOM     49  C   UNL A   1      46.152  26.220  28.994  1.00  0.00     0.049 A 
ATOM     50  H   UNL A   1      44.264  27.090  29.123  1.00  0.00     0.167 HD
ATOM     51  C   UNL A   1      40.291  28.879  29.164  1.00  0.00     0.031 A 
ATOM     52  C   UNL A   1      47.048  27.148  29.381  1.00  0.00     0.031 A 
ATOM     53  C   UNL A   1      41.163  29.908  29.662  1.00  0.00     0.049 A 
ATOM     54  C   UNL A   1      46.569  28.512  29.789  1.00  0.00     0.074 A 
ATOM     55  C   UNL A   1      40.830  31.171  30.120  1.00  0.00     0.029 A 
ATOM     56  N   UNL A   1      42.538  29.789  29.772  1.00  0.00    -0.354 N 
ATOM     57  N   UNL A   1      45.345  28.980  29.827  1.00  0.00    -0.248 NA
ATOM     58  C   UNL A   1      47.597  29.473  30.216  1.00  0.00     0.031 C 
ATOM     59  C   UNL A   1      42.012  31.834  30.470  1.00  0.00     0.029 A 
ATOM     60  C   UNL A   1      43.073  30.965  30.274  1.00  0.00     0.049 A 
ATOM     61  H   UNL A   1      43.058  28.990  29.530  1.00  0.00     0.167 HD
ATOM     62  C   UNL A   1      45.452  30.279  30.307  1.00  0.00     0.074 A 
ATOM     63  C   UNL A   1      46.858  30.520  30.558  1.00  0.00     0.031 C 
ATOM     64  C   UNL A   1      44.473  31.190  30.520  1.00  0.00     0.031 A 
BRANCH  51  65
ATOM     65  C   UNL A   1      38.825  29.186  29.033  1.00  0.00    -0.014 A 
ATOM     66  C   UNL A   1      37.954  29.044  30.124  1.00  0.00     0.009 A 
ATOM     67  C   UNL A   1      38.314  29.651  27.811  1.00  0.00     0.009 A 
ATOM     68  C   UNL A   1      36.592  29.321  29.982  1.00  0.00     0.001 A 
ATOM     69  C   UNL A   1      36.958  29.954  27.681  1.00  0.00     0.001 A 
ATOM     70  C   UNL A   1      36.097  29.780  28.763  1.00  0.00     0.000 A 
ENDBRANCH  51  65
BRANCH  52  71
ATOM     71  C   UNL A   1      48.495  26.814  29.423  1.00  0.00    -0.014 A 
ATOM     72  C   UNL A   1      49.055  26.242  30.575  1.00  0.00     0.009 A 
ATOM     73  C   UNL A   1      49.323  27.072  28.320  1.00  0.00     0.009 A 
ATOM     74  C   UNL A   1      50.422  25.958  30.632  1.00  0.00     0.001 A 
ATOM     75  C   UNL A   1      50.685  26.764  28.371  1.00  0.00     0.001 A 
ATOM     76  C   UNL A   1      51.234  26.216  29.529  1.00  0.00     0.000 A 
ENDBRANCH  52  71
BRANCH  64  77
ATOM     77  C   UNL A   1      44.883  32.519  31.087  1.00  0.00    -0.014 A 
ATOM     78  C   UNL A   1      45.194  33.601  30.251  1.00  0.00     0.009 A 
ATOM     79  C   UNL A   1      44.919  32.698  32.478  1.00  0.00     0.009 A 
ATOM     80  C   UNL A   1      45.561  34.831  30.799  1.00  0.00     0.001 A 
ATOM     81  C   UNL A   1      45.263  33.937  33.023  1.00  0.00     0.001 A 
ATOM     82  C   UNL A   1      45.591  35.000  32.183  1.00  0.00     0.000 A 
ENDBRANCH  64  77
ENDBRANCH  38  39
ENDBRANCH  30  33
ENDBRANCH  28  29
ENDBRANCH  27  28
ENDBRANCH   1  27
TORSDOF 14
ENDMDL
MODEL 3
REMARK VINA RESULT:     -11.4      4.473      9.365
REMARK SMILES [NH3+]Cc1c(-c2ccccc2)c(C(=O)NCCCCNC(=O)c2ccc(-c3c4nc(c(-c5ccccc5)c5ccc([nH]5)c(-c5ccccc5)c5nc(c(-c6ccccc6)c6ccc3[nH]6)C=C5)C=C4)cc2)c2ccccn12
REMARK SMILES IDX 16 1 15 2 14 3 12 4 13 5 11 7 3 8 4 9 75 10 70 11 74 12
REMARK SMILES IDX 71 13 73 14 72 15 2 16 1 17 5 21 6 22 10 23 7 24 9 25 8 26
REMARK SMILES IDX 17 27 18 28 19 29 20 30 21 32 22 33 23 34 69 35 24 36 68 37
REMARK SMILES IDX 25 38 26 39 27 40 62 41 28 42 67 43 61 44 63 45 29 46 66 47
REMARK SMILES IDX 60 48 59 49 30 51 52 52 37 53 51 54 38 55 41 56 50 57 64 58
REMARK SMILES IDX 39 59 40 60 49 62 65 63 42 64 31 65 32 66 36 67 33 68 35 69
REMARK SMILES IDX 34 70 53 71 54 72 58 73 55 74 57 75 56 76 43 77 44 78 48 79
REMARK SMILES IDX 45 80 47 81 46 82
REMARK H PARENT 14 6 1 18 1 19 1 20 19 31 63 50 41 61
REMARK Flexibility Score: inf
ROOT
ATOM      1  C   UNL A   1      31.615  30.689  25.805  1.00  0.00     0.023 C 
ENDROOT
BRANCH   1   2
ATOM      2  C   UNL A   1      32.897  29.880  25.976  1.00  0.00     0.116 C 
BRANCH   2   3
ATOM      3  N   UNL A   1      33.640  29.632  24.757  1.00  0.00    -0.352 N 
ATOM      4  C   UNL A   1      33.332  28.858  23.657  1.00  0.00     0.254 C 
ATOM      5  O   UNL A   1      34.129  28.893  22.722  1.00  0.00    -0.269 OA
ATOM      6  H   UNL A   1      34.509  30.092  24.704  1.00  0.00     0.163 HD
BRANCH   4   7
ATOM      7  C   UNL A   1      32.158  27.982  23.643  1.00  0.00     0.073 A 
ATOM      8  C   UNL A   1      30.846  26.115  23.953  1.00  0.00     0.086 A 
ATOM      9  C   UNL A   1      32.159  26.576  23.953  1.00  0.00     0.022 A 
ATOM     10  N   UNL A   1      30.041  27.184  23.597  1.00  0.00    -0.314 N 
ATOM     11  C   UNL A   1      30.858  28.257  23.235  1.00  0.00     0.059 A 
ATOM     12  C   UNL A   1      28.642  27.267  23.565  1.00  0.00     0.092 A 
ATOM     13  C   UNL A   1      30.212  29.361  22.593  1.00  0.00     0.027 A 
ATOM     14  C   UNL A   1      28.046  28.380  23.111  1.00  0.00     0.018 A 
ATOM     15  C   UNL A   1      28.870  29.438  22.565  1.00  0.00     0.004 A 
BRANCH   8  16
ATOM     16  C   UNL A   1      30.301  24.761  24.273  1.00  0.00     0.315 C 
BRANCH  16  17
ATOM     17  N   UNL A   1      30.327  23.908  23.093  1.00  0.00    -0.353 N 
ATOM     18  H   UNL A   1      29.590  23.207  23.165  1.00  0.00     0.344 HD
ATOM     19  H   UNL A   1      31.232  23.443  23.029  1.00  0.00     0.344 HD
ATOM     20  H   UNL A   1      30.177  24.476  22.260  1.00  0.00     0.344 HD
ENDBRANCH  16  17
ENDBRANCH   8  16
BRANCH   9  21
ATOM     21  C   UNL A   1      33.286  25.702  24.244  1.00  0.00    -0.016 A 
ATOM     22  C   UNL A   1      33.817  25.621  25.533  1.00  0.00     0.009 A 
ATOM     23  C   UNL A   1      33.843  24.929  23.217  1.00  0.00     0.009 A 
ATOM     24  C   UNL A   1      34.888  24.761  25.794  1.00  0.00     0.001 A 
ATOM     25  C   UNL A   1      34.905  24.062  23.481  1.00  0.00     0.001 A 
ATOM     26  C   UNL A   1      35.427  23.979  24.771  1.00  0.00     0.000 A 
ENDBRANCH   9  21
ENDBRANCH   4   7
ENDBRANCH   2   3
ENDBRANCH   1   2
BRANCH   1  27
ATOM     27  C   UNL A   1      31.401  31.861  26.762  1.00  0.00     0.023 C 
BRANCH  27  28
ATOM     28  C   UNL A   1      32.636  32.660  27.167  1.00  0.00     0.116 C 
BRANCH  28  29
ATOM     29  N   UNL A   1      32.352  34.022  27.589  1.00  0.00    -0.352 N 
ATOM     30  C   UNL A   1      33.004  34.837  28.490  1.00  0.00     0.251 C 
ATOM     31  H   UNL A   1      31.566  34.431  27.160  1.00  0.00     0.163 HD
ATOM     32  O   UNL A   1      32.554  35.948  28.741  1.00  0.00    -0.269 OA
BRANCH  30  33
ATOM     33  C   UNL A   1      34.214  34.360  29.199  1.00  0.00     0.039 A 
ATOM     34  C   UNL A   1      34.056  33.705  30.425  1.00  0.00     0.014 A 
ATOM     35  C   UNL A   1      35.491  34.536  28.664  1.00  0.00     0.014 A 
ATOM     36  C   UNL A   1      35.165  33.136  31.057  1.00  0.00     0.010 A 
ATOM     37  C   UNL A   1      36.581  33.896  29.251  1.00  0.00     0.010 A 
ATOM     38  C   UNL A   1      36.429  33.177  30.447  1.00  0.00    -0.014 A 
BRANCH  38  39
ATOM     39  C   UNL A   1      37.594  32.456  31.023  1.00  0.00     0.031 A 
ATOM     40  C   UNL A   1      38.246  32.948  32.286  1.00  0.00     0.074 A 
ATOM     41  C   UNL A   1      38.123  31.406  30.364  1.00  0.00     0.049 A 
ATOM     42  N   UNL A   1      39.324  32.509  32.885  1.00  0.00    -0.248 NA
ATOM     43  C   UNL A   1      37.621  34.106  32.946  1.00  0.00     0.031 C 
ATOM     44  C   UNL A   1      37.621  30.850  29.105  1.00  0.00     0.029 A 
ATOM     45  N   UNL A   1      39.211  30.621  30.659  1.00  0.00    -0.354 N 
ATOM     46  C   UNL A   1      39.521  33.350  33.973  1.00  0.00     0.074 A 
ATOM     47  C   UNL A   1      38.477  34.350  33.928  1.00  0.00     0.031 C 
ATOM     48  C   UNL A   1      38.382  29.802  28.751  1.00  0.00     0.029 A 
ATOM     49  C   UNL A   1      39.448  29.634  29.732  1.00  0.00     0.049 A 
ATOM     50  H   UNL A   1      39.769  30.754  31.459  1.00  0.00     0.167 HD
ATOM     51  C   UNL A   1      40.473  33.286  34.935  1.00  0.00     0.031 A 
ATOM     52  C   UNL A   1      40.416  28.701  29.674  1.00  0.00     0.031 A 
ATOM     53  C   UNL A   1      41.498  32.281  34.998  1.00  0.00     0.049 A 
ATOM     54  C   UNL A   1      41.457  28.647  30.757  1.00  0.00     0.074 A 
ATOM     55  C   UNL A   1      42.466  32.097  35.972  1.00  0.00     0.029 A 
ATOM     56  N   UNL A   1      41.686  31.286  34.052  1.00  0.00    -0.354 N 
ATOM     57  N   UNL A   1      41.589  29.412  31.813  1.00  0.00    -0.248 NA
ATOM     58  C   UNL A   1      42.477  27.595  30.642  1.00  0.00     0.031 C 
ATOM     59  C   UNL A   1      43.267  31.014  35.592  1.00  0.00     0.029 A 
ATOM     60  C   UNL A   1      42.767  30.496  34.409  1.00  0.00     0.049 A 
ATOM     61  H   UNL A   1      41.135  31.160  33.247  1.00  0.00     0.167 HD
ATOM     62  C   UNL A   1      42.688  28.918  32.502  1.00  0.00     0.074 A 
ATOM     63  C   UNL A   1      43.178  27.780  31.752  1.00  0.00     0.031 C 
ATOM     64  C   UNL A   1      43.242  29.366  33.654  1.00  0.00     0.031 A 
BRANCH  51  65
ATOM     65  C   UNL A   1      40.445  34.346  36.000  1.00  0.00    -0.014 A 
ATOM     66  C   UNL A   1      41.141  35.555  35.840  1.00  0.00     0.009 A 
ATOM     67  C   UNL A   1      39.689  34.147  37.166  1.00  0.00     0.009 A 
ATOM     68  C   UNL A   1      41.115  36.524  36.844  1.00  0.00     0.001 A 
ATOM     69  C   UNL A   1      39.642  35.130  38.155  1.00  0.00     0.001 A 
ATOM     70  C   UNL A   1      40.363  36.312  37.999  1.00  0.00     0.000 A 
ENDBRANCH  51  65
BRANCH  52  71
ATOM     71  C   UNL A   1      40.439  27.720  28.558  1.00  0.00    -0.014 A 
ATOM     72  C   UNL A   1      41.107  28.026  27.362  1.00  0.00     0.009 A 
ATOM     73  C   UNL A   1      39.789  26.482  28.677  1.00  0.00     0.009 A 
ATOM     74  C   UNL A   1      41.102  27.121  26.297  1.00  0.00     0.001 A 
ATOM     75  C   UNL A   1      39.808  25.570  27.620  1.00  0.00     0.001 A 
ATOM     76  C   UNL A   1      40.456  25.893  26.429  1.00  0.00     0.000 A 
ENDBRANCH  52  71
BRANCH  64  77
ATOM     77  C   UNL A   1      44.417  28.604  34.194  1.00  0.00    -0.014 A 
ATOM     78  C   UNL A   1      45.732  28.964  33.864  1.00  0.00     0.009 A 
ATOM     79  C   UNL A   1      44.204  27.534  35.076  1.00  0.00     0.009 A 
ATOM     80  C   UNL A   1      46.811  28.249  34.386  1.00  0.00     0.001 A 
ATOM     81  C   UNL A   1      45.286  26.836  35.616  1.00  0.00     0.001 A 
ATOM     82  C   UNL A   1      46.587  27.189  35.264  1.00  0.00     0.000 A 
ENDBRANCH  64  77
ENDBRANCH  38  39
ENDBRANCH  30  33
ENDBRANCH  28  29
ENDBRANCH  27  28
ENDBRANCH   1  27
TORSDOF 14
ENDMDL
