MODEL 1
REMARK VINA RESULT:     -11.3      0.000      0.000
REMARK SMILES C[C@H](O)C[NH2+][C@H](CC(=O)Nc1cccc2ccccc12)C(=O)NCCCCNC(=O)c1ccc(-c2c3nc(c(-c4ccccc4)c4ccc([nH]4)c(-c4ccccc4)c4nc(c(-c5ccccc5)c5ccc2[nH]5)C=C4)C=C3)cc1
REMARK SMILES IDX 24 1 23 2 21 3 22 4 6 6 5 7 4 10 2 11 1 12 3 13 7 15 8 16
REMARK SMILES IDX 9 17 10 18 11 20 12 21 20 22 13 23 15 24 19 25 14 26 16 27
REMARK SMILES IDX 18 28 17 29 25 30 26 31 27 32 28 33 29 34 30 36 31 37 32 38
REMARK SMILES IDX 78 39 33 40 77 41 34 42 35 43 36 44 71 45 37 46 76 47 70 48
REMARK SMILES IDX 72 49 38 50 75 51 69 52 68 53 39 55 61 56 46 57 60 58 47 59
REMARK SMILES IDX 50 60 59 61 73 62 48 63 49 64 58 66 74 67 51 68 40 69 41 70
REMARK SMILES IDX 45 71 42 72 44 73 43 74 62 75 63 76 67 77 64 78 66 79 65 80
REMARK SMILES IDX 52 81 53 82 57 83 54 84 56 85 55 86
REMARK H PARENT 23 5 5 8 5 9 3 14 10 19 28 35 72 54 50 65
REMARK Flexibility Score: inf
ROOT
ATOM      1  C   UNL A   1      35.168  23.854  25.116  1.00  0.00     0.116 C 
ENDROOT
BRANCH   1   2
ATOM      2  N   UNL A   1      34.794  23.238  26.380  1.00  0.00    -0.351 N 
ATOM      3  C   UNL A   1      33.734  22.442  26.752  1.00  0.00     0.278 C 
ATOM      4  O   UNL A   1      33.715  22.116  27.947  1.00  0.00    -0.268 OA
ATOM      5  H   UNL A   1      35.424  23.426  27.113  1.00  0.00     0.163 HD
BRANCH   3   6
ATOM      6  C   UNL A   1      32.610  21.908  25.784  1.00  0.00     0.282 C 
BRANCH   6   7
ATOM      7  N   UNL A   1      33.188  21.096  24.658  1.00  0.00    -0.333 N 
ATOM      8  H   UNL A   1      32.431  20.811  24.035  1.00  0.00     0.347 HD
ATOM      9  H   UNL A   1      33.869  21.675  24.167  1.00  0.00     0.347 HD
BRANCH   7  10
ATOM     10  C   UNL A   1      33.874  19.903  25.148  1.00  0.00     0.292 C 
BRANCH  10  11
ATOM     11  C   UNL A   1      33.269  18.514  24.936  1.00  0.00     0.166 C 
ATOM     12  C   UNL A   1      32.526  18.476  23.607  1.00  0.00     0.044 C 
BRANCH  11  13
ATOM     13  O   UNL A   1      32.273  18.293  25.904  1.00  0.00    -0.388 OA
ATOM     14  H   UNL A   1      31.643  19.031  25.897  1.00  0.00     0.211 HD
ENDBRANCH  11  13
ENDBRANCH  10  11
ENDBRANCH   7  10
ENDBRANCH   6   7
BRANCH   6  15
ATOM     15  C   UNL A   1      31.571  22.963  25.381  1.00  0.00     0.175 C 
BRANCH  15  16
ATOM     16  C   UNL A   1      30.870  23.749  26.493  1.00  0.00     0.230 C 
ATOM     17  O   UNL A   1      30.255  23.179  27.394  1.00  0.00    -0.274 OA
ATOM     18  N   UNL A   1      31.216  25.077  26.621  1.00  0.00    -0.325 N 
ATOM     19  H   UNL A   1      31.748  25.318  27.414  1.00  0.00     0.169 HD
BRANCH  18  20
ATOM     20  C   UNL A   1      30.891  26.131  25.733  1.00  0.00     0.049 A 
ATOM     21  C   UNL A   1      29.889  25.950  24.771  1.00  0.00     0.027 A 
ATOM     22  C   UNL A   1      31.545  27.387  25.862  1.00  0.00     0.005 A 
ATOM     23  C   UNL A   1      29.548  26.990  23.903  1.00  0.00     0.003 A 
ATOM     24  C   UNL A   1      31.244  28.410  24.925  1.00  0.00    -0.016 A 
ATOM     25  C   UNL A   1      32.562  27.640  26.811  1.00  0.00     0.011 A 
ATOM     26  C   UNL A   1      30.227  28.209  23.975  1.00  0.00     0.009 A 
ATOM     27  C   UNL A   1      32.035  29.573  24.883  1.00  0.00     0.009 A 
ATOM     28  C   UNL A   1      33.324  28.811  26.768  1.00  0.00     0.001 A 
ATOM     29  C   UNL A   1      33.083  29.759  25.782  1.00  0.00     0.001 A 
ENDBRANCH  18  20
ENDBRANCH  15  16
ENDBRANCH   6  15
ENDBRANCH   3   6
ENDBRANCH   1   2
BRANCH   1  30
ATOM     30  C   UNL A   1      36.494  23.404  24.504  1.00  0.00     0.023 C 
BRANCH  30  31
ATOM     31  C   UNL A   1      36.961  21.979  24.848  1.00  0.00     0.023 C 
BRANCH  31  32
ATOM     32  C   UNL A   1      38.217  21.810  25.708  1.00  0.00     0.116 C 
BRANCH  32  33
ATOM     33  N   UNL A   1      38.947  20.563  25.507  1.00  0.00    -0.352 N 
ATOM     34  C   UNL A   1      40.206  20.181  25.939  1.00  0.00     0.251 C 
ATOM     35  H   UNL A   1      38.469  19.885  24.978  1.00  0.00     0.163 HD
ATOM     36  O   UNL A   1      40.625  19.063  25.732  1.00  0.00    -0.269 OA
BRANCH  34  37
ATOM     37  C   UNL A   1      41.077  21.190  26.584  1.00  0.00     0.039 A 
ATOM     38  C   UNL A   1      41.796  22.054  25.755  1.00  0.00     0.014 A 
ATOM     39  C   UNL A   1      41.091  21.352  27.969  1.00  0.00     0.014 A 
ATOM     40  C   UNL A   1      42.406  23.181  26.306  1.00  0.00     0.010 A 
ATOM     41  C   UNL A   1      41.643  22.511  28.508  1.00  0.00     0.010 A 
ATOM     42  C   UNL A   1      42.260  23.459  27.673  1.00  0.00    -0.014 A 
BRANCH  42  43
ATOM     43  C   UNL A   1      42.649  24.780  28.228  1.00  0.00     0.031 A 
ATOM     44  C   UNL A   1      41.625  25.854  28.435  1.00  0.00     0.074 A 
ATOM     45  C   UNL A   1      43.954  25.036  28.459  1.00  0.00     0.049 A 
ATOM     46  N   UNL A   1      41.796  27.092  28.822  1.00  0.00    -0.248 NA
ATOM     47  C   UNL A   1      40.228  25.498  28.147  1.00  0.00     0.031 C 
ATOM     48  C   UNL A   1      45.054  24.087  28.264  1.00  0.00     0.029 A 
ATOM     49  N   UNL A   1      44.579  26.176  28.899  1.00  0.00    -0.354 N 
ATOM     50  C   UNL A   1      40.533  27.667  28.812  1.00  0.00     0.074 A 
ATOM     51  C   UNL A   1      39.613  26.657  28.336  1.00  0.00     0.031 C 
ATOM     52  C   UNL A   1      46.210  24.674  28.610  1.00  0.00     0.029 A 
ATOM     53  C   UNL A   1      45.944  26.054  29.000  1.00  0.00     0.049 A 
ATOM     54  H   UNL A   1      44.095  27.005  29.120  1.00  0.00     0.167 HD
ATOM     55  C   UNL A   1      40.170  28.918  29.182  1.00  0.00     0.031 A 
ATOM     56  C   UNL A   1      46.881  26.953  29.353  1.00  0.00     0.031 A 
ATOM     57  C   UNL A   1      41.087  29.922  29.650  1.00  0.00     0.049 A 
ATOM     58  C   UNL A   1      46.458  28.353  29.704  1.00  0.00     0.074 A 
ATOM     59  C   UNL A   1      40.808  31.199  30.106  1.00  0.00     0.029 A 
ATOM     60  N   UNL A   1      42.463  29.766  29.715  1.00  0.00    -0.354 N 
ATOM     61  N   UNL A   1      45.250  28.859  29.758  1.00  0.00    -0.248 NA
ATOM     62  C   UNL A   1      47.528  29.303  30.037  1.00  0.00     0.031 C 
ATOM     63  C   UNL A   1      42.021  31.836  30.390  1.00  0.00     0.029 A 
ATOM     64  C   UNL A   1      43.051  30.937  30.162  1.00  0.00     0.049 A 
ATOM     65  H   UNL A   1      42.950  28.944  29.476  1.00  0.00     0.167 HD
ATOM     66  C   UNL A   1      45.413  30.182  30.145  1.00  0.00     0.074 A 
ATOM     67  C   UNL A   1      46.833  30.395  30.331  1.00  0.00     0.031 C 
ATOM     68  C   UNL A   1      44.468  31.136  30.328  1.00  0.00     0.031 A 
BRANCH  55  69
ATOM     69  C   UNL A   1      38.713  29.268  29.074  1.00  0.00    -0.014 A 
ATOM     70  C   UNL A   1      37.845  29.114  30.167  1.00  0.00     0.009 A 
ATOM     71  C   UNL A   1      38.202  29.772  27.867  1.00  0.00     0.009 A 
ATOM     72  C   UNL A   1      36.487  29.415  30.041  1.00  0.00     0.001 A 
ATOM     73  C   UNL A   1      36.849  30.100  27.753  1.00  0.00     0.001 A 
ATOM     74  C   UNL A   1      35.992  29.910  28.836  1.00  0.00     0.000 A 
ENDBRANCH  55  69
BRANCH  56  75
ATOM     75  C   UNL A   1      48.314  26.562  29.391  1.00  0.00    -0.014 A 
ATOM     76  C   UNL A   1      48.870  26.016  30.558  1.00  0.00     0.009 A 
ATOM     77  C   UNL A   1      49.134  26.727  28.263  1.00  0.00     0.009 A 
ATOM     78  C   UNL A   1      50.220  25.660  30.601  1.00  0.00     0.001 A 
ATOM     79  C   UNL A   1      50.477  26.344  28.301  1.00  0.00     0.001 A 
ATOM     80  C   UNL A   1      51.021  25.819  29.471  1.00  0.00     0.000 A 
ENDBRANCH  56  75
BRANCH  68  81
ATOM     81  C   UNL A   1      44.940  32.496  30.756  1.00  0.00    -0.014 A 
ATOM     82  C   UNL A   1      45.220  33.495  29.810  1.00  0.00     0.009 A 
ATOM     83  C   UNL A   1      45.051  32.799  32.121  1.00  0.00     0.009 A 
ATOM     84  C   UNL A   1      45.622  34.765  30.225  1.00  0.00     0.001 A 
ATOM     85  C   UNL A   1      45.429  34.078  32.534  1.00  0.00     0.001 A 
ATOM     86  C   UNL A   1      45.720  35.058  31.586  1.00  0.00     0.000 A 
ENDBRANCH  68  81
ENDBRANCH  42  43
ENDBRANCH  34  37
ENDBRANCH  32  33
ENDBRANCH  31  32
ENDBRANCH  30  31
ENDBRANCH   1  30
TORSDOF 18
ENDMDL
MODEL 2
REMARK VINA RESULT:     -11.3      1.060      1.818
REMARK SMILES C[C@H](O)C[NH2+][C@H](CC(=O)Nc1cccc2ccccc12)C(=O)NCCCCNC(=O)c1ccc(-c2c3nc(c(-c4ccccc4)c4ccc([nH]4)c(-c4ccccc4)c4nc(c(-c5ccccc5)c5ccc2[nH]5)C=C4)C=C3)cc1
REMARK SMILES IDX 24 1 23 2 21 3 22 4 6 6 5 7 4 10 2 11 1 12 3 13 7 15 8 16
REMARK SMILES IDX 9 17 10 18 11 20 12 21 20 22 13 23 15 24 19 25 14 26 16 27
REMARK SMILES IDX 18 28 17 29 25 30 26 31 27 32 28 33 29 34 30 36 31 37 32 38
REMARK SMILES IDX 78 39 33 40 77 41 34 42 35 43 36 44 71 45 37 46 76 47 70 48
REMARK SMILES IDX 72 49 38 50 75 51 69 52 68 53 39 55 61 56 46 57 60 58 47 59
REMARK SMILES IDX 50 60 59 61 73 62 48 63 49 64 58 66 74 67 51 68 40 69 41 70
REMARK SMILES IDX 45 71 42 72 44 73 43 74 62 75 63 76 67 77 64 78 66 79 65 80
REMARK SMILES IDX 52 81 53 82 57 83 54 84 56 85 55 86
REMARK H PARENT 23 5 5 8 5 9 3 14 10 19 28 35 72 54 50 65
REMARK Flexibility Score: inf
ROOT
ATOM      1  C   UNL A   1      35.175  21.969  26.324  1.00  0.00     0.116 C 
ENDROOT
BRANCH   1   2
ATOM      2  N   UNL A   1      34.221  20.930  25.964  1.00  0.00    -0.351 N 
ATOM      3  C   UNL A   1      32.952  20.973  25.433  1.00  0.00     0.278 C 
ATOM      4  O   UNL A   1      32.407  19.870  25.282  1.00  0.00    -0.268 OA
ATOM      5  H   UNL A   1      34.548  20.017  26.133  1.00  0.00     0.163 HD
BRANCH   3   6
ATOM      6  C   UNL A   1      32.194  22.281  24.984  1.00  0.00     0.282 C 
BRANCH   6   7
ATOM      7  N   UNL A   1      32.530  22.659  23.569  1.00  0.00    -0.333 N 
ATOM      8  H   UNL A   1      33.458  22.298  23.343  1.00  0.00     0.347 HD
ATOM      9  H   UNL A   1      31.821  22.257  22.956  1.00  0.00     0.347 HD
BRANCH   7  10
ATOM     10  C   UNL A   1      32.527  24.107  23.379  1.00  0.00     0.292 C 
BRANCH  10  11
ATOM     11  C   UNL A   1      33.822  24.854  23.056  1.00  0.00     0.166 C 
ATOM     12  C   UNL A   1      33.981  26.036  24.003  1.00  0.00     0.044 C 
BRANCH  11  13
ATOM     13  O   UNL A   1      33.713  25.434  21.780  1.00  0.00    -0.388 OA
ATOM     14  H   UNL A   1      33.094  26.181  21.815  1.00  0.00     0.211 HD
ENDBRANCH  11  13
ENDBRANCH  10  11
ENDBRANCH   7  10
ENDBRANCH   6   7
BRANCH   6  15
ATOM     15  C   UNL A   1      32.243  23.421  26.010  1.00  0.00     0.175 C 
BRANCH  15  16
ATOM     16  C   UNL A   1      30.922  23.914  26.608  1.00  0.00     0.230 C 
ATOM     17  O   UNL A   1      30.134  23.140  27.151  1.00  0.00    -0.274 OA
ATOM     18  N   UNL A   1      30.800  25.274  26.796  1.00  0.00    -0.325 N 
ATOM     19  H   UNL A   1      30.812  25.592  27.728  1.00  0.00     0.169 HD
BRANCH  18  20
ATOM     20  C   UNL A   1      30.662  26.263  25.792  1.00  0.00     0.049 A 
ATOM     21  C   UNL A   1      29.830  26.027  24.690  1.00  0.00     0.027 A 
ATOM     22  C   UNL A   1      31.324  27.512  25.939  1.00  0.00     0.005 A 
ATOM     23  C   UNL A   1      29.671  27.005  23.704  1.00  0.00     0.003 A 
ATOM     24  C   UNL A   1      31.216  28.466  24.892  1.00  0.00    -0.016 A 
ATOM     25  C   UNL A   1      32.175  27.819  27.025  1.00  0.00     0.011 A 
ATOM     26  C   UNL A   1      30.367  28.212  23.801  1.00  0.00     0.009 A 
ATOM     27  C   UNL A   1      32.039  29.607  24.901  1.00  0.00     0.009 A 
ATOM     28  C   UNL A   1      32.970  28.968  27.027  1.00  0.00     0.001 A 
ATOM     29  C   UNL A   1      32.928  29.842  25.949  1.00  0.00     0.001 A 
ENDBRANCH  18  20
ENDBRANCH  15  16
ENDBRANCH   6  15
ENDBRANCH   3   6
ENDBRANCH   1   2
BRANCH   1  30
ATOM     30  C   UNL A   1      35.901  22.656  25.169  1.00  0.00     0.023 C 
BRANCH  30  31
ATOM     31  C   UNL A   1      37.201  21.993  24.682  1.00  0.00     0.023 C 
BRANCH  31  32
ATOM     32  C   UNL A   1      38.310  21.723  25.703  1.00  0.00     0.116 C 
BRANCH  32  33
ATOM     33  N   UNL A   1      39.059  20.487  25.500  1.00  0.00    -0.352 N 
ATOM     34  C   UNL A   1      40.321  20.122  25.935  1.00  0.00     0.251 C 
ATOM     35  H   UNL A   1      38.592  19.805  24.967  1.00  0.00     0.163 HD
ATOM     36  O   UNL A   1      40.757  19.010  25.725  1.00  0.00    -0.269 OA
BRANCH  34  37
ATOM     37  C   UNL A   1      41.175  21.139  26.587  1.00  0.00     0.039 A 
ATOM     38  C   UNL A   1      41.893  22.010  25.762  1.00  0.00     0.014 A 
ATOM     39  C   UNL A   1      41.176  21.303  27.971  1.00  0.00     0.014 A 
ATOM     40  C   UNL A   1      42.487  23.144  26.318  1.00  0.00     0.010 A 
ATOM     41  C   UNL A   1      41.711  22.469  28.514  1.00  0.00     0.010 A 
ATOM     42  C   UNL A   1      42.325  23.422  27.684  1.00  0.00    -0.014 A 
BRANCH  42  43
ATOM     43  C   UNL A   1      42.696  24.747  28.241  1.00  0.00     0.031 A 
ATOM     44  C   UNL A   1      41.661  25.816  28.424  1.00  0.00     0.074 A 
ATOM     45  C   UNL A   1      43.994  25.012  28.496  1.00  0.00     0.049 A 
ATOM     46  N   UNL A   1      41.818  27.057  28.809  1.00  0.00    -0.248 NA
ATOM     47  C   UNL A   1      40.273  25.450  28.110  1.00  0.00     0.031 C 
ATOM     48  C   UNL A   1      45.104  24.069  28.326  1.00  0.00     0.029 A 
ATOM     49  N   UNL A   1      44.604  26.158  28.943  1.00  0.00    -0.354 N 
ATOM     50  C   UNL A   1      40.552  27.623  28.773  1.00  0.00     0.074 A 
ATOM     51  C   UNL A   1      39.647  26.606  28.283  1.00  0.00     0.031 C 
ATOM     52  C   UNL A   1      46.250  24.665  28.691  1.00  0.00     0.029 A 
ATOM     53  C   UNL A   1      45.968  26.044  29.071  1.00  0.00     0.049 A 
ATOM     54  H   UNL A   1      44.111  26.985  29.152  1.00  0.00     0.167 HD
ATOM     55  C   UNL A   1      40.174  28.873  29.131  1.00  0.00     0.031 A 
ATOM     56  C   UNL A   1      46.893  26.951  29.438  1.00  0.00     0.031 A 
ATOM     57  C   UNL A   1      41.076  29.886  29.613  1.00  0.00     0.049 A 
ATOM     58  C   UNL A   1      46.455  28.349  29.775  1.00  0.00     0.074 A 
ATOM     59  C   UNL A   1      40.780  31.162  30.058  1.00  0.00     0.029 A 
ATOM     60  N   UNL A   1      42.451  29.738  29.704  1.00  0.00    -0.354 N 
ATOM     61  N   UNL A   1      45.243  28.848  29.804  1.00  0.00    -0.248 NA
ATOM     62  C   UNL A   1      47.513  29.307  30.125  1.00  0.00     0.031 C 
ATOM     63  C   UNL A   1      41.984  31.807  30.362  1.00  0.00     0.029 A 
ATOM     64  C   UNL A   1      43.023  30.914  30.158  1.00  0.00     0.049 A 
ATOM     65  H   UNL A   1      42.948  28.918  29.478  1.00  0.00     0.167 HD
ATOM     66  C   UNL A   1      45.390  30.173  30.189  1.00  0.00     0.074 A 
ATOM     67  C   UNL A   1      46.805  30.396  30.401  1.00  0.00     0.031 C 
ATOM     68  C   UNL A   1      44.436  31.122  30.350  1.00  0.00     0.031 A 
BRANCH  55  69
ATOM     69  C   UNL A   1      38.717  29.215  28.994  1.00  0.00    -0.014 A 
ATOM     70  C   UNL A   1      38.189  29.673  27.776  1.00  0.00     0.009 A 
ATOM     71  C   UNL A   1      37.857  29.063  30.093  1.00  0.00     0.009 A 
ATOM     72  C   UNL A   1      36.839  30.015  27.673  1.00  0.00     0.001 A 
ATOM     73  C   UNL A   1      36.501  29.378  29.979  1.00  0.00     0.001 A 
ATOM     74  C   UNL A   1      35.997  29.864  28.774  1.00  0.00     0.000 A 
ENDBRANCH  55  69
BRANCH  56  75
ATOM     75  C   UNL A   1      48.327  26.568  29.505  1.00  0.00    -0.014 A 
ATOM     76  C   UNL A   1      48.860  26.018  30.680  1.00  0.00     0.009 A 
ATOM     77  C   UNL A   1      49.170  26.746  28.396  1.00  0.00     0.009 A 
ATOM     78  C   UNL A   1      50.212  25.670  30.750  1.00  0.00     0.001 A 
ATOM     79  C   UNL A   1      50.515  26.372  28.461  1.00  0.00     0.001 A 
ATOM     80  C   UNL A   1      51.036  25.842  29.640  1.00  0.00     0.000 A 
ENDBRANCH  56  75
BRANCH  68  81
ATOM     81  C   UNL A   1      44.892  32.487  30.781  1.00  0.00    -0.014 A 
ATOM     82  C   UNL A   1      45.181  33.484  29.838  1.00  0.00     0.009 A 
ATOM     83  C   UNL A   1      44.978  32.794  32.148  1.00  0.00     0.009 A 
ATOM     84  C   UNL A   1      45.568  34.759  30.255  1.00  0.00     0.001 A 
ATOM     85  C   UNL A   1      45.340  34.077  32.562  1.00  0.00     0.001 A 
ATOM     86  C   UNL A   1      45.641  35.056  31.616  1.00  0.00     0.000 A 
ENDBRANCH  68  81
ENDBRANCH  42  43
ENDBRANCH  34  37
ENDBRANCH  32  33
ENDBRANCH  31  32
ENDBRANCH  30  31
ENDBRANCH   1  30
TORSDOF 18
ENDMDL
MODEL 3
REMARK VINA RESULT:     -11.2      2.436      7.764
REMARK SMILES C[C@H](O)C[NH2+][C@H](CC(=O)Nc1cccc2ccccc12)C(=O)NCCCCNC(=O)c1ccc(-c2c3nc(c(-c4ccccc4)c4ccc([nH]4)c(-c4ccccc4)c4nc(c(-c5ccccc5)c5ccc2[nH]5)C=C4)C=C3)cc1
REMARK SMILES IDX 24 1 23 2 21 3 22 4 6 6 5 7 4 10 2 11 1 12 3 13 7 15 8 16
REMARK SMILES IDX 9 17 10 18 11 20 12 21 20 22 13 23 15 24 19 25 14 26 16 27
REMARK SMILES IDX 18 28 17 29 25 30 26 31 27 32 28 33 29 34 30 36 31 37 32 38
REMARK SMILES IDX 78 39 33 40 77 41 34 42 35 43 36 44 71 45 37 46 76 47 70 48
REMARK SMILES IDX 72 49 38 50 75 51 69 52 68 53 39 55 61 56 46 57 60 58 47 59
REMARK SMILES IDX 50 60 59 61 73 62 48 63 49 64 58 66 74 67 51 68 40 69 41 70
REMARK SMILES IDX 45 71 42 72 44 73 43 74 62 75 63 76 67 77 64 78 66 79 65 80
REMARK SMILES IDX 52 81 53 82 57 83 54 84 56 85 55 86
REMARK H PARENT 23 5 5 8 5 9 3 14 10 19 28 35 72 54 50 65
REMARK Flexibility Score: inf
ROOT
ATOM      1  C   UNL A   1      31.990  26.957  26.773  1.00  0.00     0.116 C 
ENDROOT
BRANCH   1   2
ATOM      2  N   UNL A   1      30.960  26.275  26.003  1.00  0.00    -0.351 N 
ATOM      3  C   UNL A   1      30.587  26.342  24.679  1.00  0.00     0.278 C 
ATOM      4  O   UNL A   1      29.624  25.627  24.367  1.00  0.00    -0.268 OA
ATOM      5  H   UNL A   1      30.425  25.641  26.533  1.00  0.00     0.163 HD
BRANCH   3   6
ATOM      6  C   UNL A   1      31.305  27.204  23.571  1.00  0.00     0.282 C 
BRANCH   6   7
ATOM      7  N   UNL A   1      30.349  27.628  22.492  1.00  0.00    -0.333 N 
ATOM      8  H   UNL A   1      30.884  27.951  21.685  1.00  0.00     0.347 HD
ATOM      9  H   UNL A   1      29.768  26.826  22.250  1.00  0.00     0.347 HD
BRANCH   7  10
ATOM     10  C   UNL A   1      29.471  28.706  22.940  1.00  0.00     0.292 C 
BRANCH  10  11
ATOM     11  C   UNL A   1      29.518  30.079  22.268  1.00  0.00     0.166 C 
ATOM     12  C   UNL A   1      28.219  30.324  21.511  1.00  0.00     0.044 C 
BRANCH  11  13
ATOM     13  O   UNL A   1      30.512  30.072  21.273  1.00  0.00    -0.388 OA
ATOM     14  H   UNL A   1      30.572  30.952  20.869  1.00  0.00     0.211 HD
ENDBRANCH  11  13
ENDBRANCH  10  11
ENDBRANCH   7  10
ENDBRANCH   6   7
BRANCH   6  15
ATOM     15  C   UNL A   1      32.641  26.624  23.089  1.00  0.00     0.175 C 
BRANCH  15  16
ATOM     16  C   UNL A   1      32.613  25.558  21.989  1.00  0.00     0.230 C 
ATOM     17  O   UNL A   1      32.104  25.781  20.891  1.00  0.00    -0.274 OA
ATOM     18  N   UNL A   1      33.445  24.473  22.161  1.00  0.00    -0.325 N 
ATOM     19  H   UNL A   1      34.223  24.416  21.561  1.00  0.00     0.169 HD
BRANCH  18  20
ATOM     20  C   UNL A   1      33.301  23.432  23.110  1.00  0.00     0.049 A 
ATOM     21  C   UNL A   1      32.025  23.060  23.552  1.00  0.00     0.027 A 
ATOM     22  C   UNL A   1      34.451  22.732  23.566  1.00  0.00     0.005 A 
ATOM     23  C   UNL A   1      31.872  22.022  24.473  1.00  0.00     0.003 A 
ATOM     24  C   UNL A   1      34.289  21.730  24.560  1.00  0.00    -0.016 A 
ATOM     25  C   UNL A   1      35.768  23.051  23.162  1.00  0.00     0.011 A 
ATOM     26  C   UNL A   1      32.997  21.367  24.979  1.00  0.00     0.009 A 
ATOM     27  C   UNL A   1      35.421  21.187  25.194  1.00  0.00     0.009 A 
ATOM     28  C   UNL A   1      36.881  22.485  23.788  1.00  0.00     0.001 A 
ATOM     29  C   UNL A   1      36.706  21.581  24.828  1.00  0.00     0.001 A 
ENDBRANCH  18  20
ENDBRANCH  15  16
ENDBRANCH   6  15
ENDBRANCH   3   6
ENDBRANCH   1   2
BRANCH   1  30
ATOM     30  C   UNL A   1      31.557  28.213  27.526  1.00  0.00     0.023 C 
BRANCH  30  31
ATOM     31  C   UNL A   1      32.056  29.557  26.965  1.00  0.00     0.023 C 
BRANCH  31  32
ATOM     32  C   UNL A   1      33.528  29.930  27.164  1.00  0.00     0.116 C 
BRANCH  32  33
ATOM     33  N   UNL A   1      33.771  31.059  28.055  1.00  0.00    -0.352 N 
ATOM     34  C   UNL A   1      34.905  31.411  28.767  1.00  0.00     0.251 C 
ATOM     35  H   UNL A   1      33.005  31.667  28.169  1.00  0.00     0.163 HD
ATOM     36  O   UNL A   1      34.944  32.438  29.410  1.00  0.00    -0.269 OA
BRANCH  34  37
ATOM     37  C   UNL A   1      36.045  30.469  28.807  1.00  0.00     0.039 A 
ATOM     38  C   UNL A   1      36.911  30.450  27.711  1.00  0.00     0.014 A 
ATOM     39  C   UNL A   1      36.317  29.711  29.945  1.00  0.00     0.014 A 
ATOM     40  C   UNL A   1      38.136  29.790  27.818  1.00  0.00     0.010 A 
ATOM     41  C   UNL A   1      37.566  29.110  30.075  1.00  0.00     0.010 A 
ATOM     42  C   UNL A   1      38.504  29.189  29.031  1.00  0.00    -0.014 A 
BRANCH  42  43
ATOM     43  C   UNL A   1      39.898  28.733  29.263  1.00  0.00     0.031 A 
ATOM     44  C   UNL A   1      40.916  29.659  29.857  1.00  0.00     0.074 A 
ATOM     45  C   UNL A   1      40.264  27.502  28.849  1.00  0.00     0.049 A 
ATOM     46  N   UNL A   1      42.196  29.464  30.046  1.00  0.00    -0.248 NA
ATOM     47  C   UNL A   1      40.438  30.987  30.269  1.00  0.00     0.031 C 
ATOM     48  C   UNL A   1      39.376  26.517  28.224  1.00  0.00     0.029 A 
ATOM     49  N   UNL A   1      41.483  26.871  28.881  1.00  0.00    -0.354 N 
ATOM     50  C   UNL A   1      42.680  30.646  30.588  1.00  0.00     0.074 A 
ATOM     51  C   UNL A   1      41.567  31.569  30.652  1.00  0.00     0.031 C 
ATOM     52  C   UNL A   1      40.072  25.400  27.960  1.00  0.00     0.029 A 
ATOM     53  C   UNL A   1      41.464  25.605  28.347  1.00  0.00     0.049 A 
ATOM     54  H   UNL A   1      42.295  27.287  29.252  1.00  0.00     0.167 HD
ATOM     55  C   UNL A   1      43.934  30.933  31.008  1.00  0.00     0.031 A 
ATOM     56  C   UNL A   1      42.456  24.712  28.172  1.00  0.00     0.031 A 
ATOM     57  C   UNL A   1      45.041  30.016  30.939  1.00  0.00     0.049 A 
ATOM     58  C   UNL A   1      43.852  25.076  28.595  1.00  0.00     0.074 A 
ATOM     59  C   UNL A   1      46.336  30.192  31.395  1.00  0.00     0.029 A 
ATOM     60  N   UNL A   1      44.986  28.754  30.369  1.00  0.00    -0.354 N 
ATOM     61  N   UNL A   1      44.278  26.174  29.171  1.00  0.00    -0.248 NA
ATOM     62  C   UNL A   1      44.901  24.080  28.338  1.00  0.00     0.031 C 
ATOM     63  C   UNL A   1      47.079  29.058  31.047  1.00  0.00     0.029 A 
ATOM     64  C   UNL A   1      46.233  28.156  30.423  1.00  0.00     0.049 A 
ATOM     65  H   UNL A   1      44.178  28.345  29.981  1.00  0.00     0.167 HD
ATOM     66  C   UNL A   1      45.641  25.995  29.360  1.00  0.00     0.074 A 
ATOM     67  C   UNL A   1      45.968  24.678  28.854  1.00  0.00     0.031 C 
ATOM     68  C   UNL A   1      46.543  26.849  29.902  1.00  0.00     0.031 A 
BRANCH  55  69
ATOM     69  C   UNL A   1      44.173  32.307  31.566  1.00  0.00    -0.014 A 
ATOM     70  C   UNL A   1      44.510  33.383  30.730  1.00  0.00     0.009 A 
ATOM     71  C   UNL A   1      44.045  32.535  32.946  1.00  0.00     0.009 A 
ATOM     72  C   UNL A   1      44.759  34.648  31.267  1.00  0.00     0.001 A 
ATOM     73  C   UNL A   1      44.266  33.807  33.478  1.00  0.00     0.001 A 
ATOM     74  C   UNL A   1      44.633  34.859  32.640  1.00  0.00     0.000 A 
ENDBRANCH  55  69
BRANCH  56  75
ATOM     75  C   UNL A   1      42.168  23.386  27.565  1.00  0.00    -0.014 A 
ATOM     76  C   UNL A   1      42.381  23.172  26.196  1.00  0.00     0.009 A 
ATOM     77  C   UNL A   1      41.684  22.328  28.351  1.00  0.00     0.009 A 
ATOM     78  C   UNL A   1      42.098  21.931  25.620  1.00  0.00     0.001 A 
ATOM     79  C   UNL A   1      41.427  21.080  27.777  1.00  0.00     0.001 A 
ATOM     80  C   UNL A   1      41.627  20.884  26.412  1.00  0.00     0.000 A 
ENDBRANCH  56  75
BRANCH  68  81
ATOM     81  C   UNL A   1      47.968  26.382  29.981  1.00  0.00    -0.014 A 
ATOM     82  C   UNL A   1      48.876  26.653  28.946  1.00  0.00     0.009 A 
ATOM     83  C   UNL A   1      48.422  25.715  31.130  1.00  0.00     0.009 A 
ATOM     84  C   UNL A   1      50.207  26.244  29.051  1.00  0.00     0.001 A 
ATOM     85  C   UNL A   1      49.759  25.330  31.243  1.00  0.00     0.001 A 
ATOM     86  C   UNL A   1      50.649  25.590  30.202  1.00  0.00     0.000 A 
ENDBRANCH  68  81
ENDBRANCH  42  43
ENDBRANCH  34  37
ENDBRANCH  32  33
ENDBRANCH  31  32
ENDBRANCH  30  31
ENDBRANCH   1  30
TORSDOF 18
ENDMDL
