MODEL 1
REMARK VINA RESULT:      -9.0      0.000      0.000
REMARK SMILES C[C@@H]1C[C@H]([NH3+])CN(S(=O)(=O)CCCC(=O)NCCCCNC(=O)c2ccc(-c3c4nc(c(-c5ccccc5)c5ccc([nH]5)c(-c5ccccc5)c5nc(c(-c6ccccc6)c6ccc3[nH]6)C=C5)C=C4)cc2)C1
REMARK SMILES IDX 17 1 16 2 14 3 15 4 13 6 12 7 11 8 8 9 9 10 10 11 7 12 1 13
REMARK SMILES IDX 2 14 3 15 72 16 4 17 6 18 5 19 18 23 19 24 20 25 21 26 22 27
REMARK SMILES IDX 23 29 24 30 25 31 71 32 26 33 70 34 27 35 28 36 29 37 64 38
REMARK SMILES IDX 30 39 69 40 63 41 65 42 31 43 68 44 62 45 61 46 32 48 54 49
REMARK SMILES IDX 39 50 53 51 40 52 43 53 52 54 66 55 41 56 42 57 51 59 67 60
REMARK SMILES IDX 44 61 33 62 34 63 38 64 35 65 37 66 36 67 55 68 56 69 60 70
REMARK SMILES IDX 57 71 59 72 58 73 45 74 46 75 50 76 47 77 49 78 48 79
REMARK H PARENT 16 5 5 20 5 21 5 22 21 28 65 47 43 58
REMARK Flexibility Score: inf
ROOT
ATOM      1  C   UNL A   1      45.211  23.822  24.729  1.00  0.00     0.116 C 
ENDROOT
BRANCH   1   2
ATOM      2  N   UNL A   1      46.188  24.802  25.145  1.00  0.00    -0.356 N 
ATOM      3  C   UNL A   1      46.045  26.088  25.558  1.00  0.00     0.220 C 
ATOM      4  O   UNL A   1      47.003  26.590  26.153  1.00  0.00    -0.275 OA
ATOM      5  H   UNL A   1      47.118  24.481  25.125  1.00  0.00     0.163 HD
BRANCH   3   6
ATOM      6  C   UNL A   1      44.764  26.888  25.369  1.00  0.00     0.101 C 
BRANCH   6   7
ATOM      7  C   UNL A   1      44.290  27.767  26.517  1.00  0.00     0.027 C 
BRANCH   7   8
ATOM      8  C   UNL A   1      44.366  29.270  26.356  1.00  0.00     0.155 C 
BRANCH   8   9
ATOM      9  S   UNL A   1      45.949  30.103  26.149  1.00  0.00     0.214 S 
ATOM     10  O   UNL A   1      46.514  29.630  24.900  1.00  0.00    -0.212 OA
ATOM     11  O   UNL A   1      46.657  29.888  27.397  1.00  0.00    -0.212 OA
BRANCH   9  12
ATOM     12  N   UNL A   1      45.766  31.808  25.976  1.00  0.00    -0.196 NA
ATOM     13  C   UNL A   1      43.779  33.899  24.772  1.00  0.00     0.009 C 
ATOM     14  C   UNL A   1      44.089  33.681  26.252  1.00  0.00     0.007 C 
ATOM     15  C   UNL A   1      45.182  34.599  26.811  1.00  0.00     0.071 C 
ATOM     16  C   UNL A   1      44.408  32.210  26.532  1.00  0.00     0.106 C 
ATOM     17  C   UNL A   1      46.600  34.177  26.440  1.00  0.00     0.196 C 
ATOM     18  C   UNL A   1      46.798  32.660  26.679  1.00  0.00     0.167 C 
BRANCH  17  19
ATOM     19  N   UNL A   1      46.928  34.612  25.077  1.00  0.00    -0.354 N 
ATOM     20  H   UNL A   1      47.641  35.342  25.114  1.00  0.00     0.344 HD
ATOM     21  H   UNL A   1      46.090  34.979  24.626  1.00  0.00     0.344 HD
ATOM     22  H   UNL A   1      47.282  33.819  24.542  1.00  0.00     0.344 HD
ENDBRANCH  17  19
ENDBRANCH   9  12
ENDBRANCH   8   9
ENDBRANCH   7   8
ENDBRANCH   6   7
ENDBRANCH   3   6
ENDBRANCH   1   2
BRANCH   1  23
ATOM     23  C   UNL A   1      45.784  22.423  24.519  1.00  0.00     0.023 C 
BRANCH  23  24
ATOM     24  C   UNL A   1      44.714  21.376  24.231  1.00  0.00     0.023 C 
BRANCH  24  25
ATOM     25  C   UNL A   1      44.685  20.189  25.191  1.00  0.00     0.116 C 
BRANCH  25  26
ATOM     26  N   UNL A   1      43.453  19.413  25.160  1.00  0.00    -0.352 N 
ATOM     27  C   UNL A   1      42.231  19.745  25.708  1.00  0.00     0.251 C 
ATOM     28  H   UNL A   1      43.498  18.548  24.691  1.00  0.00     0.163 HD
ATOM     29  O   UNL A   1      41.280  18.981  25.667  1.00  0.00    -0.269 OA
BRANCH  27  30
ATOM     30  C   UNL A   1      42.106  21.044  26.404  1.00  0.00     0.039 A 
ATOM     31  C   UNL A   1      42.400  21.108  27.768  1.00  0.00     0.014 A 
ATOM     32  C   UNL A   1      41.830  22.206  25.678  1.00  0.00     0.014 A 
ATOM     33  C   UNL A   1      42.519  22.355  28.383  1.00  0.00     0.010 A 
ATOM     34  C   UNL A   1      42.034  23.446  26.274  1.00  0.00     0.010 A 
ATOM     35  C   UNL A   1      42.396  23.534  27.628  1.00  0.00    -0.014 A 
BRANCH  35  36
ATOM     36  C   UNL A   1      42.665  24.865  28.227  1.00  0.00     0.031 A 
ATOM     37  C   UNL A   1      44.047  25.215  28.703  1.00  0.00     0.074 A 
ATOM     38  C   UNL A   1      41.653  25.737  28.412  1.00  0.00     0.049 A 
ATOM     39  N   UNL A   1      44.466  26.303  29.298  1.00  0.00    -0.248 NA
ATOM     40  C   UNL A   1      45.089  24.194  28.508  1.00  0.00     0.031 C 
ATOM     41  C   UNL A   1      40.254  25.509  28.041  1.00  0.00     0.029 A 
ATOM     42  N   UNL A   1      41.647  26.994  28.964  1.00  0.00    -0.354 N 
ATOM     43  C   UNL A   1      45.811  26.090  29.566  1.00  0.00     0.074 A 
ATOM     44  C   UNL A   1      46.123  24.748  29.122  1.00  0.00     0.031 C 
ATOM     45  C   UNL A   1      39.536  26.605  28.334  1.00  0.00     0.029 A 
ATOM     46  C   UNL A   1      40.412  27.597  28.951  1.00  0.00     0.049 A 
ATOM     47  H   UNL A   1      42.451  27.424  29.335  1.00  0.00     0.167 HD
ATOM     48  C   UNL A   1      46.716  26.938  30.110  1.00  0.00     0.031 A 
ATOM     49  C   UNL A   1      40.027  28.811  29.384  1.00  0.00     0.031 A 
ATOM     50  C   UNL A   1      46.414  28.276  30.542  1.00  0.00     0.049 A 
ATOM     51  C   UNL A   1      41.043  29.731  30.002  1.00  0.00     0.074 A 
ATOM     52  C   UNL A   1      47.273  29.234  31.050  1.00  0.00     0.029 A 
ATOM     53  N   UNL A   1      45.149  28.843  30.520  1.00  0.00    -0.354 N 
ATOM     54  N   UNL A   1      42.326  29.539  30.187  1.00  0.00    -0.248 NA
ATOM     55  C   UNL A   1      40.554  31.039  30.463  1.00  0.00     0.031 C 
ATOM     56  C   UNL A   1      46.520  30.366  31.378  1.00  0.00     0.029 A 
ATOM     57  C   UNL A   1      45.199  30.130  31.029  1.00  0.00     0.049 A 
ATOM     58  H   UNL A   1      44.335  28.398  30.192  1.00  0.00     0.167 HD
ATOM     59  C   UNL A   1      42.804  30.708  30.763  1.00  0.00     0.074 A 
ATOM     60  C   UNL A   1      41.675  31.609  30.885  1.00  0.00     0.031 C 
ATOM     61  C   UNL A   1      44.067  31.011  31.153  1.00  0.00     0.031 A 
BRANCH  48  62
ATOM     62  C   UNL A   1      48.119  26.425  30.268  1.00  0.00    -0.014 A 
ATOM     63  C   UNL A   1      49.057  26.539  29.228  1.00  0.00     0.009 A 
ATOM     64  C   UNL A   1      48.509  25.812  31.469  1.00  0.00     0.009 A 
ATOM     65  C   UNL A   1      50.338  26.002  29.368  1.00  0.00     0.001 A 
ATOM     66  C   UNL A   1      49.801  25.305  31.618  1.00  0.00     0.001 A 
ATOM     67  C   UNL A   1      50.709  25.388  30.562  1.00  0.00     0.000 A 
ENDBRANCH  48  62
BRANCH  49  68
ATOM     68  C   UNL A   1      38.616  29.248  29.216  1.00  0.00    -0.014 A 
ATOM     69  C   UNL A   1      37.721  29.169  30.293  1.00  0.00     0.009 A 
ATOM     70  C   UNL A   1      38.159  29.749  27.987  1.00  0.00     0.009 A 
ATOM     71  C   UNL A   1      36.391  29.566  30.139  1.00  0.00     0.001 A 
ATOM     72  C   UNL A   1      36.834  30.167  27.843  1.00  0.00     0.001 A 
ATOM     73  C   UNL A   1      35.950  30.070  28.917  1.00  0.00     0.000 A 
ENDBRANCH  49  68
BRANCH  61  74
ATOM     74  C   UNL A   1      44.298  32.379  31.726  1.00  0.00    -0.014 A 
ATOM     75  C   UNL A   1      44.277  32.602  33.111  1.00  0.00     0.009 A 
ATOM     76  C   UNL A   1      44.578  33.454  30.867  1.00  0.00     0.009 A 
ATOM     77  C   UNL A   1      44.503  33.880  33.623  1.00  0.00     0.001 A 
ATOM     78  C   UNL A   1      44.830  34.726  31.383  1.00  0.00     0.001 A 
ATOM     79  C   UNL A   1      44.784  34.940  32.761  1.00  0.00     0.000 A 
ENDBRANCH  61  74
ENDBRANCH  35  36
ENDBRANCH  27  30
ENDBRANCH  25  26
ENDBRANCH  24  25
ENDBRANCH  23  24
ENDBRANCH   1  23
TORSDOF 16
ENDMDL
MODEL 2
REMARK VINA RESULT:      -9.0      4.971      7.788
REMARK SMILES C[C@@H]1C[C@H]([NH3+])CN(S(=O)(=O)CCCC(=O)NCCCCNC(=O)c2ccc(-c3c4nc(c(-c5ccccc5)c5ccc([nH]5)c(-c5ccccc5)c5nc(c(-c6ccccc6)c6ccc3[nH]6)C=C5)C=C4)cc2)C1
REMARK SMILES IDX 17 1 16 2 14 3 15 4 13 6 12 7 11 8 8 9 9 10 10 11 7 12 1 13
REMARK SMILES IDX 2 14 3 15 72 16 4 17 6 18 5 19 18 23 19 24 20 25 21 26 22 27
REMARK SMILES IDX 23 29 24 30 25 31 71 32 26 33 70 34 27 35 28 36 29 37 64 38
REMARK SMILES IDX 30 39 69 40 63 41 65 42 31 43 68 44 62 45 61 46 32 48 54 49
REMARK SMILES IDX 39 50 53 51 40 52 43 53 52 54 66 55 41 56 42 57 51 59 67 60
REMARK SMILES IDX 44 61 33 62 34 63 38 64 35 65 37 66 36 67 55 68 56 69 60 70
REMARK SMILES IDX 57 71 59 72 58 73 45 74 46 75 50 76 47 77 49 78 48 79
REMARK H PARENT 16 5 5 20 5 21 5 22 21 28 65 47 43 58
REMARK Flexibility Score: inf
ROOT
ATOM      1  C   UNL A   1      34.689  20.228  24.938  1.00  0.00     0.116 C 
ENDROOT
BRANCH   1   2
ATOM      2  N   UNL A   1      33.615  21.053  25.442  1.00  0.00    -0.356 N 
ATOM      3  C   UNL A   1      32.474  21.497  24.853  1.00  0.00     0.220 C 
ATOM      4  O   UNL A   1      31.588  21.915  25.603  1.00  0.00    -0.275 OA
ATOM      5  H   UNL A   1      33.732  21.346  26.375  1.00  0.00     0.163 HD
BRANCH   3   6
ATOM      6  C   UNL A   1      32.236  21.444  23.351  1.00  0.00     0.101 C 
BRANCH   6   7
ATOM      7  C   UNL A   1      32.750  22.597  22.501  1.00  0.00     0.027 C 
BRANCH   7   8
ATOM      8  C   UNL A   1      32.388  24.010  22.904  1.00  0.00     0.155 C 
BRANCH   8   9
ATOM      9  S   UNL A   1      33.644  25.295  23.010  1.00  0.00     0.214 S 
ATOM     10  O   UNL A   1      33.802  25.840  21.676  1.00  0.00    -0.212 OA
ATOM     11  O   UNL A   1      34.769  24.673  23.681  1.00  0.00    -0.212 OA
BRANCH   9  12
ATOM     12  N   UNL A   1      33.143  26.610  24.007  1.00  0.00    -0.196 NA
ATOM     13  C   UNL A   1      31.498  27.160  26.607  1.00  0.00     0.009 C 
ATOM     14  C   UNL A   1      33.002  27.352  26.421  1.00  0.00     0.007 C 
ATOM     15  C   UNL A   1      33.412  28.775  26.023  1.00  0.00     0.071 C 
ATOM     16  C   UNL A   1      33.567  26.322  25.440  1.00  0.00     0.106 C 
ATOM     17  C   UNL A   1      33.175  29.104  24.553  1.00  0.00     0.196 C 
ATOM     18  C   UNL A   1      33.705  27.966  23.647  1.00  0.00     0.167 C 
BRANCH  17  19
ATOM     19  N   UNL A   1      31.766  29.443  24.320  1.00  0.00    -0.354 N 
ATOM     20  H   UNL A   1      31.623  30.440  24.483  1.00  0.00     0.344 HD
ATOM     21  H   UNL A   1      31.177  28.907  24.958  1.00  0.00     0.344 HD
ATOM     22  H   UNL A   1      31.516  29.217  23.357  1.00  0.00     0.344 HD
ENDBRANCH  17  19
ENDBRANCH   9  12
ENDBRANCH   8   9
ENDBRANCH   7   8
ENDBRANCH   6   7
ENDBRANCH   3   6
ENDBRANCH   1   2
BRANCH   1  23
ATOM     23  C   UNL A   1      36.028  20.952  24.822  1.00  0.00     0.023 C 
BRANCH  23  24
ATOM     24  C   UNL A   1      36.122  22.179  25.721  1.00  0.00     0.023 C 
BRANCH  24  25
ATOM     25  C   UNL A   1      37.341  23.069  25.488  1.00  0.00     0.116 C 
BRANCH  25  26
ATOM     26  N   UNL A   1      38.623  22.392  25.630  1.00  0.00    -0.352 N 
ATOM     27  C   UNL A   1      39.778  22.882  26.204  1.00  0.00     0.251 C 
ATOM     28  H   UNL A   1      38.670  21.475  25.273  1.00  0.00     0.163 HD
ATOM     29  O   UNL A   1      40.814  22.237  26.212  1.00  0.00    -0.269 OA
BRANCH  27  30
ATOM     30  C   UNL A   1      39.751  24.247  26.773  1.00  0.00     0.039 A 
ATOM     31  C   UNL A   1      39.223  24.431  28.053  1.00  0.00     0.014 A 
ATOM     32  C   UNL A   1      40.364  25.303  26.095  1.00  0.00     0.014 A 
ATOM     33  C   UNL A   1      39.404  25.656  28.697  1.00  0.00     0.010 A 
ATOM     34  C   UNL A   1      40.618  26.492  26.773  1.00  0.00     0.010 A 
ATOM     35  C   UNL A   1      40.154  26.675  28.085  1.00  0.00    -0.014 A 
BRANCH  35  36
ATOM     36  C   UNL A   1      40.486  27.929  28.809  1.00  0.00     0.031 A 
ATOM     37  C   UNL A   1      41.830  28.092  29.461  1.00  0.00     0.074 A 
ATOM     38  C   UNL A   1      39.554  28.894  28.944  1.00  0.00     0.049 A 
ATOM     39  N   UNL A   1      42.285  29.087  30.180  1.00  0.00    -0.248 NA
ATOM     40  C   UNL A   1      42.776  26.975  29.309  1.00  0.00     0.031 C 
ATOM     41  C   UNL A   1      38.194  28.847  28.402  1.00  0.00     0.029 A 
ATOM     42  N   UNL A   1      39.612  30.107  29.584  1.00  0.00    -0.354 N 
ATOM     43  C   UNL A   1      43.559  28.709  30.580  1.00  0.00     0.074 A 
ATOM     44  C   UNL A   1      43.782  27.371  30.075  1.00  0.00     0.031 C 
ATOM     45  C   UNL A   1      37.563  29.996  28.695  1.00  0.00     0.029 A 
ATOM     46  C   UNL A   1      38.457  30.843  29.479  1.00  0.00     0.049 A 
ATOM     47  H   UNL A   1      40.407  30.421  30.074  1.00  0.00     0.167 HD
ATOM     48  C   UNL A   1      44.475  29.416  31.283  1.00  0.00     0.031 A 
ATOM     49  C   UNL A   1      38.150  32.064  29.955  1.00  0.00     0.031 A 
ATOM     50  C   UNL A   1      44.263  30.749  31.778  1.00  0.00     0.049 A 
ATOM     51  C   UNL A   1      39.175  32.824  30.750  1.00  0.00     0.074 A 
ATOM     52  C   UNL A   1      45.150  31.572  32.449  1.00  0.00     0.029 A 
ATOM     53  N   UNL A   1      43.075  31.454  31.657  1.00  0.00    -0.354 N 
ATOM     54  N   UNL A   1      40.400  32.479  31.063  1.00  0.00    -0.248 NA
ATOM     55  C   UNL A   1      38.772  34.147  31.250  1.00  0.00     0.031 C 
ATOM     56  C   UNL A   1      44.485  32.759  32.775  1.00  0.00     0.029 A 
ATOM     57  C   UNL A   1      43.198  32.693  32.264  1.00  0.00     0.049 A 
ATOM     58  H   UNL A   1      42.265  31.123  31.207  1.00  0.00     0.167 HD
ATOM     59  C   UNL A   1      40.924  33.550  31.775  1.00  0.00     0.074 A 
ATOM     60  C   UNL A   1      39.888  34.561  31.837  1.00  0.00     0.031 C 
ATOM     61  C   UNL A   1      42.155  33.685  32.325  1.00  0.00     0.031 A 
BRANCH  48  62
ATOM     62  C   UNL A   1      45.789  28.741  31.559  1.00  0.00    -0.014 A 
ATOM     63  C   UNL A   1      46.863  28.846  30.660  1.00  0.00     0.009 A 
ATOM     64  C   UNL A   1      45.954  27.983  32.729  1.00  0.00     0.009 A 
ATOM     65  C   UNL A   1      48.057  28.162  30.900  1.00  0.00     0.001 A 
ATOM     66  C   UNL A   1      47.160  27.327  32.983  1.00  0.00     0.001 A 
ATOM     67  C   UNL A   1      48.204  27.405  32.061  1.00  0.00     0.000 A 
ENDBRANCH  48  62
BRANCH  49  68
ATOM     68  C   UNL A   1      36.823  32.664  29.663  1.00  0.00    -0.014 A 
ATOM     69  C   UNL A   1      35.763  32.507  30.569  1.00  0.00     0.009 A 
ATOM     70  C   UNL A   1      36.608  33.399  28.486  1.00  0.00     0.009 A 
ATOM     71  C   UNL A   1      34.510  33.058  30.296  1.00  0.00     0.001 A 
ATOM     72  C   UNL A   1      35.359  33.969  28.227  1.00  0.00     0.001 A 
ATOM     73  C   UNL A   1      34.310  33.793  29.128  1.00  0.00     0.000 A 
ENDBRANCH  49  68
BRANCH  61  74
ATOM     74  C   UNL A   1      42.457  34.981  33.021  1.00  0.00    -0.014 A 
ATOM     75  C   UNL A   1      42.046  35.210  34.343  1.00  0.00     0.009 A 
ATOM     76  C   UNL A   1      43.195  35.972  32.355  1.00  0.00     0.009 A 
ATOM     77  C   UNL A   1      42.345  36.418  34.975  1.00  0.00     0.001 A 
ATOM     78  C   UNL A   1      43.515  37.169  32.998  1.00  0.00     0.001 A 
ATOM     79  C   UNL A   1      43.082  37.395  34.305  1.00  0.00     0.000 A 
ENDBRANCH  61  74
ENDBRANCH  35  36
ENDBRANCH  27  30
ENDBRANCH  25  26
ENDBRANCH  24  25
ENDBRANCH  23  24
ENDBRANCH   1  23
TORSDOF 16
ENDMDL
MODEL 3
REMARK VINA RESULT:      -9.0      6.485     12.077
REMARK SMILES C[C@@H]1C[C@H]([NH3+])CN(S(=O)(=O)CCCC(=O)NCCCCNC(=O)c2ccc(-c3c4nc(c(-c5ccccc5)c5ccc([nH]5)c(-c5ccccc5)c5nc(c(-c6ccccc6)c6ccc3[nH]6)C=C5)C=C4)cc2)C1
REMARK SMILES IDX 17 1 16 2 14 3 15 4 13 6 12 7 11 8 8 9 9 10 10 11 7 12 1 13
REMARK SMILES IDX 2 14 3 15 72 16 4 17 6 18 5 19 18 23 19 24 20 25 21 26 22 27
REMARK SMILES IDX 23 29 24 30 25 31 71 32 26 33 70 34 27 35 28 36 29 37 64 38
REMARK SMILES IDX 30 39 69 40 63 41 65 42 31 43 68 44 62 45 61 46 32 48 54 49
REMARK SMILES IDX 39 50 53 51 40 52 43 53 52 54 66 55 41 56 42 57 51 59 67 60
REMARK SMILES IDX 44 61 33 62 34 63 38 64 35 65 37 66 36 67 55 68 56 69 60 70
REMARK SMILES IDX 57 71 59 72 58 73 45 74 46 75 50 76 47 77 49 78 48 79
REMARK H PARENT 16 5 5 20 5 21 5 22 21 28 65 47 43 58
REMARK Flexibility Score: inf
ROOT
ATOM      1  C   UNL A   1      32.252  29.414  25.459  1.00  0.00     0.116 C 
ENDROOT
BRANCH   1   2
ATOM      2  N   UNL A   1      31.185  29.779  24.557  1.00  0.00    -0.356 N 
ATOM      3  C   UNL A   1      30.338  29.015  23.818  1.00  0.00     0.220 C 
ATOM      4  O   UNL A   1      29.323  29.570  23.386  1.00  0.00    -0.275 OA
ATOM      5  H   UNL A   1      31.047  30.749  24.460  1.00  0.00     0.163 HD
BRANCH   3   6
ATOM      6  C   UNL A   1      30.561  27.532  23.559  1.00  0.00     0.101 C 
BRANCH   6   7
ATOM      7  C   UNL A   1      29.759  26.532  24.379  1.00  0.00     0.027 C 
BRANCH   7   8
ATOM      8  C   UNL A   1      30.192  26.251  25.802  1.00  0.00     0.155 C 
BRANCH   8   9
ATOM      9  S   UNL A   1      31.618  25.209  26.150  1.00  0.00     0.214 S 
ATOM     10  O   UNL A   1      31.170  24.173  27.060  1.00  0.00    -0.212 OA
ATOM     11  O   UNL A   1      32.669  26.124  26.548  1.00  0.00    -0.212 OA
BRANCH   9  12
ATOM     12  N   UNL A   1      32.184  24.394  24.740  1.00  0.00    -0.196 NA
ATOM     13  C   UNL A   1      32.881  24.976  21.748  1.00  0.00     0.009 C 
ATOM     14  C   UNL A   1      33.860  24.583  22.855  1.00  0.00     0.007 C 
ATOM     15  C   UNL A   1      34.147  23.080  22.939  1.00  0.00     0.071 C 
ATOM     16  C   UNL A   1      33.403  25.134  24.208  1.00  0.00     0.106 C 
ATOM     17  C   UNL A   1      33.043  22.270  23.612  1.00  0.00     0.196 C 
ATOM     18  C   UNL A   1      32.593  22.951  24.927  1.00  0.00     0.167 C 
BRANCH  17  19
ATOM     19  N   UNL A   1      31.947  22.010  22.671  1.00  0.00    -0.354 N 
ATOM     20  H   UNL A   1      31.158  21.599  23.171  1.00  0.00     0.344 HD
ATOM     21  H   UNL A   1      32.265  21.363  21.948  1.00  0.00     0.344 HD
ATOM     22  H   UNL A   1      31.656  22.886  22.237  1.00  0.00     0.344 HD
ENDBRANCH  17  19
ENDBRANCH   9  12
ENDBRANCH   8   9
ENDBRANCH   7   8
ENDBRANCH   6   7
ENDBRANCH   3   6
ENDBRANCH   1   2
BRANCH   1  23
ATOM     23  C   UNL A   1      32.171  30.092  26.824  1.00  0.00     0.023 C 
BRANCH  23  24
ATOM     24  C   UNL A   1      31.832  31.576  26.735  1.00  0.00     0.023 C 
BRANCH  24  25
ATOM     25  C   UNL A   1      32.891  32.524  27.290  1.00  0.00     0.116 C 
BRANCH  25  26
ATOM     26  N   UNL A   1      32.424  33.882  27.532  1.00  0.00    -0.352 N 
ATOM     27  C   UNL A   1      32.957  34.818  28.396  1.00  0.00     0.251 C 
ATOM     28  H   UNL A   1      31.633  34.166  27.019  1.00  0.00     0.163 HD
ATOM     29  O   UNL A   1      32.440  35.911  28.557  1.00  0.00    -0.269 OA
BRANCH  27  30
ATOM     30  C   UNL A   1      34.159  34.446  29.174  1.00  0.00     0.039 A 
ATOM     31  C   UNL A   1      33.993  33.784  30.393  1.00  0.00     0.014 A 
ATOM     32  C   UNL A   1      35.433  34.636  28.632  1.00  0.00     0.014 A 
ATOM     33  C   UNL A   1      35.104  33.219  31.019  1.00  0.00     0.010 A 
ATOM     34  C   UNL A   1      36.523  33.998  29.216  1.00  0.00     0.010 A 
ATOM     35  C   UNL A   1      36.368  33.270  30.406  1.00  0.00    -0.014 A 
BRANCH  35  36
ATOM     36  C   UNL A   1      37.533  32.549  30.979  1.00  0.00     0.031 A 
ATOM     37  C   UNL A   1      38.112  32.976  32.298  1.00  0.00     0.074 A 
ATOM     38  C   UNL A   1      38.118  31.555  30.281  1.00  0.00     0.049 A 
ATOM     39  N   UNL A   1      39.156  32.506  32.934  1.00  0.00    -0.248 NA
ATOM     40  C   UNL A   1      37.447  34.099  32.978  1.00  0.00     0.031 C 
ATOM     41  C   UNL A   1      37.688  31.070  28.966  1.00  0.00     0.029 A 
ATOM     42  N   UNL A   1      39.207  30.774  30.581  1.00  0.00    -0.354 N 
ATOM     43  C   UNL A   1      39.283  33.286  34.075  1.00  0.00     0.074 A 
ATOM     44  C   UNL A   1      38.247  34.295  34.015  1.00  0.00     0.031 C 
ATOM     45  C   UNL A   1      38.476  30.047  28.596  1.00  0.00     0.029 A 
ATOM     46  C   UNL A   1      39.490  29.831  29.623  1.00  0.00     0.049 A 
ATOM     47  H   UNL A   1      39.735  30.880  31.405  1.00  0.00     0.167 HD
ATOM     48  C   UNL A   1      40.163  33.164  35.096  1.00  0.00     0.031 A 
ATOM     49  C   UNL A   1      40.455  28.894  29.577  1.00  0.00     0.031 A 
ATOM     50  C   UNL A   1      41.187  32.156  35.166  1.00  0.00     0.049 A 
ATOM     51  C   UNL A   1      41.435  28.787  30.712  1.00  0.00     0.074 A 
ATOM     52  C   UNL A   1      42.089  31.912  36.186  1.00  0.00     0.029 A 
ATOM     53  N   UNL A   1      41.446  31.227  34.171  1.00  0.00    -0.354 N 
ATOM     54  N   UNL A   1      41.500  29.490  31.816  1.00  0.00    -0.248 NA
ATOM     55  C   UNL A   1      42.470  27.749  30.594  1.00  0.00     0.031 C 
ATOM     56  C   UNL A   1      42.925  30.862  35.789  1.00  0.00     0.029 A 
ATOM     57  C   UNL A   1      42.511  30.422  34.541  1.00  0.00     0.049 A 
ATOM     58  H   UNL A   1      40.947  31.149  33.326  1.00  0.00     0.167 HD
ATOM     59  C   UNL A   1      42.565  28.966  32.536  1.00  0.00     0.074 A 
ATOM     60  C   UNL A   1      43.110  27.878  31.749  1.00  0.00     0.031 C 
ATOM     61  C   UNL A   1      43.047  29.349  33.744  1.00  0.00     0.031 A 
BRANCH  48  62
ATOM     62  C   UNL A   1      40.050  34.161  36.215  1.00  0.00    -0.014 A 
ATOM     63  C   UNL A   1      40.766  35.369  36.187  1.00  0.00     0.009 A 
ATOM     64  C   UNL A   1      39.223  33.887  37.315  1.00  0.00     0.009 A 
ATOM     65  C   UNL A   1      40.698  36.257  37.263  1.00  0.00     0.001 A 
ATOM     66  C   UNL A   1      39.131  34.791  38.374  1.00  0.00     0.001 A 
ATOM     67  C   UNL A   1      39.880  35.968  38.354  1.00  0.00     0.000 A 
ENDBRANCH  48  62
BRANCH  49  68
ATOM     68  C   UNL A   1      40.523  27.952  28.429  1.00  0.00    -0.014 A 
ATOM     69  C   UNL A   1      39.864  26.715  28.493  1.00  0.00     0.009 A 
ATOM     70  C   UNL A   1      41.237  28.284  27.267  1.00  0.00     0.009 A 
ATOM     71  C   UNL A   1      39.933  25.820  27.424  1.00  0.00     0.001 A 
ATOM     72  C   UNL A   1      41.284  27.396  26.189  1.00  0.00     0.001 A 
ATOM     73  C   UNL A   1      40.638  26.163  26.271  1.00  0.00     0.000 A 
ENDBRANCH  49  68
BRANCH  61  74
ATOM     74  C   UNL A   1      44.206  28.572  34.298  1.00  0.00    -0.014 A 
ATOM     75  C   UNL A   1      44.006  27.436  35.096  1.00  0.00     0.009 A 
ATOM     76  C   UNL A   1      45.518  28.963  33.985  1.00  0.00     0.009 A 
ATOM     77  C   UNL A   1      45.098  26.723  35.594  1.00  0.00     0.001 A 
ATOM     78  C   UNL A   1      46.607  28.233  34.462  1.00  0.00     0.001 A 
ATOM     79  C   UNL A   1      46.397  27.118  35.273  1.00  0.00     0.000 A 
ENDBRANCH  61  74
ENDBRANCH  35  36
ENDBRANCH  27  30
ENDBRANCH  25  26
ENDBRANCH  24  25
ENDBRANCH  23  24
ENDBRANCH   1  23
TORSDOF 16
ENDMDL
