MODEL 1
REMARK VINA RESULT:      -9.9      0.000      0.000
REMARK SMILES O=C(CNC(=O)CNC(=O)OCc1ccccc1)NCCCCNC(=O)c1ccc(-c2c3nc(c(-c4ccccc4)c4ccc([nH]4)c(-c4ccccc4)c4nc(c(-c5ccccc5)c5ccc2[nH]5)C=C4)C=C3)cc1
REMARK SMILES IDX 1 1 2 2 19 3 3 5 4 6 5 7 6 9 7 10 8 11 9 12 10 14 11 15
REMARK SMILES IDX 12 16 13 17 14 18 18 19 15 20 17 21 16 22 20 23 21 24 22 25
REMARK SMILES IDX 23 26 24 27 25 28 26 30 27 31 28 32 74 33 29 34 73 35 30 36
REMARK SMILES IDX 31 37 32 38 67 39 33 40 72 41 66 42 68 43 34 44 71 45 65 46
REMARK SMILES IDX 64 47 35 49 57 50 42 51 56 52 43 53 46 54 55 55 69 56 44 57
REMARK SMILES IDX 45 58 54 60 70 61 47 62 36 63 37 64 41 65 38 66 40 67 39 68
REMARK SMILES IDX 58 69 59 70 63 71 60 72 62 73 61 74 48 75 49 76 53 77 50 78
REMARK SMILES IDX 52 79 51 80
REMARK H PARENT 19 4 4 8 8 13 24 29 68 48 46 59
REMARK Flexibility Score: inf
ROOT
ATOM      1  O   UNL A   1      33.269  27.499  26.407  1.00  0.00    -0.273 OA
ATOM      2  C   UNL A   1      33.749  28.350  25.661  1.00  0.00     0.239 C 
ATOM      3  N   UNL A   1      34.531  29.393  26.111  1.00  0.00    -0.355 N 
ATOM      4  H   UNL A   1      34.980  29.967  25.450  1.00  0.00     0.163 HD
ENDROOT
BRANCH   2   5
ATOM      5  C   UNL A   1      33.620  28.233  24.136  1.00  0.00     0.216 C 
BRANCH   5   6
ATOM      6  N   UNL A   1      32.570  29.071  23.567  1.00  0.00    -0.346 N 
ATOM      7  C   UNL A   1      31.383  28.722  22.994  1.00  0.00     0.239 C 
ATOM      8  H   UNL A   1      32.746  30.039  23.603  1.00  0.00     0.164 HD
ATOM      9  O   UNL A   1      30.619  29.623  22.647  1.00  0.00    -0.273 OA
BRANCH   7  10
ATOM     10  C   UNL A   1      31.030  27.253  22.773  1.00  0.00     0.219 C 
BRANCH  10  11
ATOM     11  N   UNL A   1      31.713  26.767  21.589  1.00  0.00    -0.312 N 
ATOM     12  C   UNL A   1      32.620  25.757  21.540  1.00  0.00     0.407 C 
ATOM     13  H   UNL A   1      31.498  27.214  20.738  1.00  0.00     0.167 HD
ATOM     14  O   UNL A   1      33.275  25.546  20.527  1.00  0.00    -0.225 OA
BRANCH  12  15
ATOM     15  O   UNL A   1      32.719  25.078  22.705  1.00  0.00    -0.445 OA
BRANCH  15  16
ATOM     16  C   UNL A   1      33.350  23.792  22.616  1.00  0.00     0.270 C 
BRANCH  16  17
ATOM     17  C   UNL A   1      34.548  23.664  23.525  1.00  0.00    -0.011 A 
ATOM     18  C   UNL A   1      35.689  22.954  23.125  1.00  0.00     0.007 A 
ATOM     19  C   UNL A   1      34.531  24.270  24.788  1.00  0.00     0.007 A 
ATOM     20  C   UNL A   1      36.801  22.879  23.964  1.00  0.00     0.000 A 
ATOM     21  C   UNL A   1      35.642  24.190  25.627  1.00  0.00     0.000 A 
ATOM     22  C   UNL A   1      36.778  23.498  25.212  1.00  0.00     0.000 A 
ENDBRANCH  16  17
ENDBRANCH  15  16
ENDBRANCH  12  15
ENDBRANCH  10  11
ENDBRANCH   7  10
ENDBRANCH   5   6
ENDBRANCH   2   5
BRANCH   3  23
ATOM     23  C   UNL A   1      34.716  29.675  27.523  1.00  0.00     0.116 C 
BRANCH  23  24
ATOM     24  C   UNL A   1      34.880  31.162  27.837  1.00  0.00     0.023 C 
BRANCH  24  25
ATOM     25  C   UNL A   1      33.588  31.981  27.838  1.00  0.00     0.023 C 
BRANCH  25  26
ATOM     26  C   UNL A   1      33.740  33.481  27.624  1.00  0.00     0.116 C 
BRANCH  26  27
ATOM     27  N   UNL A   1      33.202  34.283  28.709  1.00  0.00    -0.352 N 
ATOM     28  C   UNL A   1      33.648  34.415  30.004  1.00  0.00     0.251 C 
ATOM     29  H   UNL A   1      32.400  34.809  28.486  1.00  0.00     0.163 HD
ATOM     30  O   UNL A   1      32.991  35.060  30.816  1.00  0.00    -0.269 OA
BRANCH  28  31
ATOM     31  C   UNL A   1      34.899  33.750  30.441  1.00  0.00     0.039 A 
ATOM     32  C   UNL A   1      34.812  32.673  31.328  1.00  0.00     0.014 A 
ATOM     33  C   UNL A   1      36.150  34.175  29.986  1.00  0.00     0.014 A 
ATOM     34  C   UNL A   1      35.967  31.978  31.697  1.00  0.00     0.010 A 
ATOM     35  C   UNL A   1      37.290  33.432  30.290  1.00  0.00     0.010 A 
ATOM     36  C   UNL A   1      37.212  32.323  31.147  1.00  0.00    -0.014 A 
BRANCH  36  37
ATOM     37  C   UNL A   1      38.434  31.531  31.445  1.00  0.00     0.031 A 
ATOM     38  C   UNL A   1      39.349  31.930  32.571  1.00  0.00     0.074 A 
ATOM     39  C   UNL A   1      38.757  30.480  30.664  1.00  0.00     0.049 A 
ATOM     40  N   UNL A   1      40.485  31.395  32.943  1.00  0.00    -0.248 NA
ATOM     41  C   UNL A   1      38.946  33.097  33.372  1.00  0.00     0.031 C 
ATOM     42  C   UNL A   1      37.980  30.005  29.518  1.00  0.00     0.029 A 
ATOM     43  N   UNL A   1      39.831  29.624  30.714  1.00  0.00    -0.354 N 
ATOM     44  C   UNL A   1      40.936  32.164  34.009  1.00  0.00     0.074 A 
ATOM     45  C   UNL A   1      39.981  33.236  34.188  1.00  0.00     0.031 C 
ATOM     46  C   UNL A   1      38.588  28.930  28.989  1.00  0.00     0.029 A 
ATOM     47  C   UNL A   1      39.819  28.667  29.728  1.00  0.00     0.049 A 
ATOM     48  H   UNL A   1      40.543  29.691  31.391  1.00  0.00     0.167 HD
ATOM     49  C   UNL A   1      42.035  31.987  34.782  1.00  0.00     0.031 A 
ATOM     50  C   UNL A   1      40.703  27.692  29.439  1.00  0.00     0.031 A 
ATOM     51  C   UNL A   1      42.989  30.924  34.606  1.00  0.00     0.049 A 
ATOM     52  C   UNL A   1      41.932  27.537  30.292  1.00  0.00     0.074 A 
ATOM     53  C   UNL A   1      44.109  30.636  35.367  1.00  0.00     0.029 A 
ATOM     54  N   UNL A   1      42.940  29.977  33.594  1.00  0.00    -0.354 N 
ATOM     55  N   UNL A   1      42.309  28.234  31.336  1.00  0.00    -0.248 NA
ATOM     56  C   UNL A   1      42.854  26.449  29.931  1.00  0.00     0.031 C 
ATOM     57  C   UNL A   1      44.770  29.552  34.780  1.00  0.00     0.029 A 
ATOM     58  C   UNL A   1      44.025  29.122  33.696  1.00  0.00     0.049 A 
ATOM     59  H   UNL A   1      42.238  29.921  32.906  1.00  0.00     0.167 HD
ATOM     60  C   UNL A   1      43.492  27.653  31.774  1.00  0.00     0.074 A 
ATOM     61  C   UNL A   1      43.761  26.534  30.894  1.00  0.00     0.031 C 
ATOM     62  C   UNL A   1      44.283  28.013  32.813  1.00  0.00     0.031 A 
BRANCH  49  63
ATOM     63  C   UNL A   1      42.267  32.977  35.892  1.00  0.00    -0.014 A 
ATOM     64  C   UNL A   1      41.740  32.769  37.177  1.00  0.00     0.009 A 
ATOM     65  C   UNL A   1      43.056  34.115  35.660  1.00  0.00     0.009 A 
ATOM     66  C   UNL A   1      41.964  33.699  38.194  1.00  0.00     0.001 A 
ATOM     67  C   UNL A   1      43.307  35.025  36.688  1.00  0.00     0.001 A 
ATOM     68  C   UNL A   1      42.753  34.823  37.950  1.00  0.00     0.000 A 
ENDBRANCH  49  63
BRANCH  50  69
ATOM     69  C   UNL A   1      40.461  26.781  28.289  1.00  0.00    -0.014 A 
ATOM     70  C   UNL A   1      39.653  25.642  28.435  1.00  0.00     0.009 A 
ATOM     71  C   UNL A   1      41.046  27.039  27.039  1.00  0.00     0.009 A 
ATOM     72  C   UNL A   1      39.465  24.765  27.365  1.00  0.00     0.001 A 
ATOM     73  C   UNL A   1      40.828  26.178  25.961  1.00  0.00     0.001 A 
ATOM     74  C   UNL A   1      40.047  25.036  26.127  1.00  0.00     0.000 A 
ENDBRANCH  50  69
BRANCH  62  75
ATOM     75  C   UNL A   1      45.497  27.166  33.083  1.00  0.00    -0.014 A 
ATOM     76  C   UNL A   1      45.432  26.031  33.906  1.00  0.00     0.009 A 
ATOM     77  C   UNL A   1      46.718  27.489  32.468  1.00  0.00     0.009 A 
ATOM     78  C   UNL A   1      46.573  25.259  34.138  1.00  0.00     0.001 A 
ATOM     79  C   UNL A   1      47.849  26.698  32.675  1.00  0.00     0.001 A 
ATOM     80  C   UNL A   1      47.778  25.591  33.517  1.00  0.00     0.000 A 
ENDBRANCH  62  75
ENDBRANCH  36  37
ENDBRANCH  28  31
ENDBRANCH  26  27
ENDBRANCH  25  26
ENDBRANCH  24  25
ENDBRANCH  23  24
ENDBRANCH   3  23
TORSDOF 17
ENDMDL
MODEL 2
REMARK VINA RESULT:      -9.8      1.100      6.015
REMARK SMILES O=C(CNC(=O)CNC(=O)OCc1ccccc1)NCCCCNC(=O)c1ccc(-c2c3nc(c(-c4ccccc4)c4ccc([nH]4)c(-c4ccccc4)c4nc(c(-c5ccccc5)c5ccc2[nH]5)C=C4)C=C3)cc1
REMARK SMILES IDX 1 1 2 2 19 3 3 5 4 6 5 7 6 9 7 10 8 11 9 12 10 14 11 15
REMARK SMILES IDX 12 16 13 17 14 18 18 19 15 20 17 21 16 22 20 23 21 24 22 25
REMARK SMILES IDX 23 26 24 27 25 28 26 30 27 31 28 32 74 33 29 34 73 35 30 36
REMARK SMILES IDX 31 37 32 38 67 39 33 40 72 41 66 42 68 43 34 44 71 45 65 46
REMARK SMILES IDX 64 47 35 49 57 50 42 51 56 52 43 53 46 54 55 55 69 56 44 57
REMARK SMILES IDX 45 58 54 60 70 61 47 62 36 63 37 64 41 65 38 66 40 67 39 68
REMARK SMILES IDX 58 69 59 70 63 71 60 72 62 73 61 74 48 75 49 76 53 77 50 78
REMARK SMILES IDX 52 79 51 80
REMARK H PARENT 19 4 4 8 8 13 24 29 68 48 46 59
REMARK Flexibility Score: inf
ROOT
ATOM      1  O   UNL A   1      33.591  27.216  25.279  1.00  0.00    -0.273 OA
ATOM      2  C   UNL A   1      33.875  28.342  24.876  1.00  0.00     0.239 C 
ATOM      3  N   UNL A   1      34.402  29.325  25.688  1.00  0.00    -0.355 N 
ATOM      4  H   UNL A   1      34.717  30.161  25.276  1.00  0.00     0.163 HD
ENDROOT
BRANCH   2   5
ATOM      5  C   UNL A   1      33.789  28.697  23.385  1.00  0.00     0.216 C 
BRANCH   5   6
ATOM      6  N   UNL A   1      32.510  29.276  22.990  1.00  0.00    -0.346 N 
ATOM      7  C   UNL A   1      31.305  28.676  22.772  1.00  0.00     0.239 C 
ATOM      8  H   UNL A   1      32.518  30.252  22.861  1.00  0.00     0.164 HD
ATOM      9  O   UNL A   1      30.338  29.393  22.513  1.00  0.00    -0.273 OA
BRANCH   7  10
ATOM     10  C   UNL A   1      31.173  27.155  22.829  1.00  0.00     0.219 C 
BRANCH  10  11
ATOM     11  N   UNL A   1      31.621  26.587  21.572  1.00  0.00    -0.312 N 
ATOM     12  C   UNL A   1      32.715  25.803  21.387  1.00  0.00     0.407 C 
ATOM     13  H   UNL A   1      31.078  26.790  20.775  1.00  0.00     0.167 HD
ATOM     14  O   UNL A   1      33.110  25.528  20.261  1.00  0.00    -0.225 OA
BRANCH  12  15
ATOM     15  O   UNL A   1      33.294  25.422  22.548  1.00  0.00    -0.445 OA
BRANCH  15  16
ATOM     16  C   UNL A   1      33.538  24.013  22.679  1.00  0.00     0.270 C 
BRANCH  16  17
ATOM     17  C   UNL A   1      34.721  23.705  23.562  1.00  0.00    -0.011 A 
ATOM     18  C   UNL A   1      34.741  24.091  24.910  1.00  0.00     0.007 A 
ATOM     19  C   UNL A   1      35.820  23.012  23.037  1.00  0.00     0.007 A 
ATOM     20  C   UNL A   1      35.829  23.764  25.720  1.00  0.00     0.000 A 
ATOM     21  C   UNL A   1      36.908  22.689  23.847  1.00  0.00     0.000 A 
ATOM     22  C   UNL A   1      36.909  23.062  25.190  1.00  0.00     0.000 A 
ENDBRANCH  16  17
ENDBRANCH  15  16
ENDBRANCH  12  15
ENDBRANCH  10  11
ENDBRANCH   7  10
ENDBRANCH   5   6
ENDBRANCH   2   5
BRANCH   3  23
ATOM     23  C   UNL A   1      34.507  29.171  27.128  1.00  0.00     0.116 C 
BRANCH  23  24
ATOM     24  C   UNL A   1      34.347  30.481  27.900  1.00  0.00     0.023 C 
BRANCH  24  25
ATOM     25  C   UNL A   1      33.043  31.239  27.648  1.00  0.00     0.023 C 
BRANCH  25  26
ATOM     26  C   UNL A   1      33.166  32.573  26.922  1.00  0.00     0.116 C 
BRANCH  26  27
ATOM     27  N   UNL A   1      32.688  33.705  27.696  1.00  0.00    -0.352 N 
ATOM     28  C   UNL A   1      33.251  34.314  28.794  1.00  0.00     0.251 C 
ATOM     29  H   UNL A   1      31.836  34.093  27.392  1.00  0.00     0.163 HD
ATOM     30  O   UNL A   1      32.637  35.198  29.386  1.00  0.00    -0.269 OA
BRANCH  28  31
ATOM     31  C   UNL A   1      34.579  33.886  29.295  1.00  0.00     0.039 A 
ATOM     32  C   UNL A   1      34.642  33.133  30.471  1.00  0.00     0.014 A 
ATOM     33  C   UNL A   1      35.757  34.217  28.618  1.00  0.00     0.014 A 
ATOM     34  C   UNL A   1      35.873  32.651  30.925  1.00  0.00     0.010 A 
ATOM     35  C   UNL A   1      36.971  33.668  29.026  1.00  0.00     0.010 A 
ATOM     36  C   UNL A   1      37.044  32.876  30.184  1.00  0.00    -0.014 A 
BRANCH  36  37
ATOM     37  C   UNL A   1      38.344  32.282  30.594  1.00  0.00     0.031 A 
ATOM     38  C   UNL A   1      38.806  30.975  30.008  1.00  0.00     0.074 A 
ATOM     39  C   UNL A   1      39.088  32.890  31.540  1.00  0.00     0.049 A 
ATOM     40  N   UNL A   1      39.881  30.280  30.285  1.00  0.00    -0.248 NA
ATOM     41  C   UNL A   1      37.938  30.358  28.993  1.00  0.00     0.031 C 
ATOM     42  C   UNL A   1      38.742  34.141  32.217  1.00  0.00     0.029 A 
ATOM     43  N   UNL A   1      40.289  32.530  32.102  1.00  0.00    -0.354 N 
ATOM     44  C   UNL A   1      39.811  29.141  29.491  1.00  0.00     0.074 A 
ATOM     45  C   UNL A   1      38.562  29.212  28.764  1.00  0.00     0.031 C 
ATOM     46  C   UNL A   1      39.718  34.458  33.083  1.00  0.00     0.029 A 
ATOM     47  C   UNL A   1      40.736  33.412  33.057  1.00  0.00     0.049 A 
ATOM     48  H   UNL A   1      40.782  31.718  31.846  1.00  0.00     0.167 HD
ATOM     49  C   UNL A   1      40.711  28.137  29.362  1.00  0.00     0.031 A 
ATOM     50  C   UNL A   1      41.835  33.380  33.835  1.00  0.00     0.031 A 
ATOM     51  C   UNL A   1      41.953  28.061  30.086  1.00  0.00     0.049 A 
ATOM     52  C   UNL A   1      42.802  32.236  33.698  1.00  0.00     0.074 A 
ATOM     53  C   UNL A   1      42.949  27.105  29.990  1.00  0.00     0.029 A 
ATOM     54  N   UNL A   1      42.366  28.973  31.044  1.00  0.00    -0.354 N 
ATOM     55  N   UNL A   1      42.751  31.201  32.895  1.00  0.00    -0.248 NA
ATOM     56  C   UNL A   1      43.986  32.264  34.570  1.00  0.00     0.031 C 
ATOM     57  C   UNL A   1      43.937  27.406  30.933  1.00  0.00     0.029 A 
ATOM     58  C   UNL A   1      43.590  28.587  31.567  1.00  0.00     0.049 A 
ATOM     59  H   UNL A   1      41.864  29.777  31.314  1.00  0.00     0.167 HD
ATOM     60  C   UNL A   1      43.908  30.472  33.142  1.00  0.00     0.074 A 
ATOM     61  C   UNL A   1      44.650  31.193  34.156  1.00  0.00     0.031 C 
ATOM     62  C   UNL A   1      44.318  29.311  32.577  1.00  0.00     0.031 A 
BRANCH  49  63
ATOM     63  C   UNL A   1      40.377  27.026  28.402  1.00  0.00    -0.014 A 
ATOM     64  C   UNL A   1      39.553  25.955  28.785  1.00  0.00     0.009 A 
ATOM     65  C   UNL A   1      40.860  27.072  27.085  1.00  0.00     0.009 A 
ATOM     66  C   UNL A   1      39.254  24.933  27.882  1.00  0.00     0.001 A 
ATOM     67  C   UNL A   1      40.532  26.066  26.174  1.00  0.00     0.001 A 
ATOM     68  C   UNL A   1      39.740  24.992  26.576  1.00  0.00     0.000 A 
ENDBRANCH  49  63
BRANCH  50  69
ATOM     69  C   UNL A   1      42.086  34.468  34.819  1.00  0.00    -0.014 A 
ATOM     70  C   UNL A   1      41.605  34.369  36.134  1.00  0.00     0.009 A 
ATOM     71  C   UNL A   1      42.798  35.618  34.444  1.00  0.00     0.009 A 
ATOM     72  C   UNL A   1      41.803  35.412  37.041  1.00  0.00     0.001 A 
ATOM     73  C   UNL A   1      43.024  36.645  35.364  1.00  0.00     0.001 A 
ATOM     74  C   UNL A   1      42.517  36.546  36.657  1.00  0.00     0.000 A 
ENDBRANCH  50  69
BRANCH  62  75
ATOM     75  C   UNL A   1      45.650  28.764  33.014  1.00  0.00    -0.014 A 
ATOM     76  C   UNL A   1      45.757  27.853  34.077  1.00  0.00     0.009 A 
ATOM     77  C   UNL A   1      46.813  29.138  32.321  1.00  0.00     0.009 A 
ATOM     78  C   UNL A   1      47.006  27.357  34.459  1.00  0.00     0.001 A 
ATOM     79  C   UNL A   1      48.055  28.615  32.684  1.00  0.00     0.001 A 
ATOM     80  C   UNL A   1      48.152  27.734  33.759  1.00  0.00     0.000 A 
ENDBRANCH  62  75
ENDBRANCH  36  37
ENDBRANCH  28  31
ENDBRANCH  26  27
ENDBRANCH  25  26
ENDBRANCH  24  25
ENDBRANCH  23  24
ENDBRANCH   3  23
TORSDOF 17
ENDMDL
MODEL 3
REMARK VINA RESULT:      -9.7      3.916      9.187
REMARK SMILES O=C(CNC(=O)CNC(=O)OCc1ccccc1)NCCCCNC(=O)c1ccc(-c2c3nc(c(-c4ccccc4)c4ccc([nH]4)c(-c4ccccc4)c4nc(c(-c5ccccc5)c5ccc2[nH]5)C=C4)C=C3)cc1
REMARK SMILES IDX 1 1 2 2 19 3 3 5 4 6 5 7 6 9 7 10 8 11 9 12 10 14 11 15
REMARK SMILES IDX 12 16 13 17 14 18 18 19 15 20 17 21 16 22 20 23 21 24 22 25
REMARK SMILES IDX 23 26 24 27 25 28 26 30 27 31 28 32 74 33 29 34 73 35 30 36
REMARK SMILES IDX 31 37 32 38 67 39 33 40 72 41 66 42 68 43 34 44 71 45 65 46
REMARK SMILES IDX 64 47 35 49 57 50 42 51 56 52 43 53 46 54 55 55 69 56 44 57
REMARK SMILES IDX 45 58 54 60 70 61 47 62 36 63 37 64 41 65 38 66 40 67 39 68
REMARK SMILES IDX 58 69 59 70 63 71 60 72 62 73 61 74 48 75 49 76 53 77 50 78
REMARK SMILES IDX 52 79 51 80
REMARK H PARENT 19 4 4 8 8 13 24 29 68 48 46 59
REMARK Flexibility Score: inf
ROOT
ATOM      1  O   UNL A   1      33.885  22.702  26.741  1.00  0.00    -0.273 OA
ATOM      2  C   UNL A   1      33.538  21.977  25.811  1.00  0.00     0.239 C 
ATOM      3  N   UNL A   1      34.407  21.141  25.140  1.00  0.00    -0.355 N 
ATOM      4  H   UNL A   1      34.041  20.502  24.489  1.00  0.00     0.163 HD
ENDROOT
BRANCH   2   5
ATOM      5  C   UNL A   1      32.062  21.849  25.412  1.00  0.00     0.216 C 
BRANCH   5   6
ATOM      6  N   UNL A   1      31.130  22.186  26.483  1.00  0.00    -0.346 N 
ATOM      7  C   UNL A   1      30.349  23.290  26.651  1.00  0.00     0.239 C 
ATOM      8  H   UNL A   1      31.054  21.510  27.195  1.00  0.00     0.164 HD
ATOM      9  O   UNL A   1      29.580  23.317  27.612  1.00  0.00    -0.273 OA
BRANCH   7  10
ATOM     10  C   UNL A   1      30.448  24.467  25.681  1.00  0.00     0.219 C 
BRANCH  10  11
ATOM     11  N   UNL A   1      30.705  25.684  26.427  1.00  0.00    -0.312 N 
ATOM     12  C   UNL A   1      31.072  26.884  25.908  1.00  0.00     0.407 C 
ATOM     13  H   UNL A   1      30.604  25.634  27.406  1.00  0.00     0.167 HD
ATOM     14  O   UNL A   1      31.445  27.798  26.633  1.00  0.00    -0.225 OA
BRANCH  12  15
ATOM     15  O   UNL A   1      31.008  26.918  24.558  1.00  0.00    -0.445 OA
BRANCH  15  16
ATOM     16  C   UNL A   1      31.268  28.198  23.962  1.00  0.00     0.270 C 
BRANCH  16  17
ATOM     17  C   UNL A   1      30.007  28.973  23.669  1.00  0.00    -0.011 A 
ATOM     18  C   UNL A   1      29.938  30.356  23.891  1.00  0.00     0.007 A 
ATOM     19  C   UNL A   1      28.884  28.309  23.158  1.00  0.00     0.007 A 
ATOM     20  C   UNL A   1      28.776  31.061  23.578  1.00  0.00     0.000 A 
ATOM     21  C   UNL A   1      27.722  29.015  22.850  1.00  0.00     0.000 A 
ATOM     22  C   UNL A   1      27.671  30.392  23.056  1.00  0.00     0.000 A 
ENDBRANCH  16  17
ENDBRANCH  15  16
ENDBRANCH  12  15
ENDBRANCH  10  11
ENDBRANCH   7  10
ENDBRANCH   5   6
ENDBRANCH   2   5
BRANCH   3  23
ATOM     23  C   UNL A   1      35.841  21.170  25.362  1.00  0.00     0.116 C 
BRANCH  23  24
ATOM     24  C   UNL A   1      36.557  19.890  24.928  1.00  0.00     0.023 C 
BRANCH  24  25
ATOM     25  C   UNL A   1      38.038  20.050  24.582  1.00  0.00     0.023 C 
BRANCH  25  26
ATOM     26  C   UNL A   1      38.989  20.241  25.756  1.00  0.00     0.116 C 
BRANCH  26  27
ATOM     27  N   UNL A   1      40.093  19.298  25.774  1.00  0.00    -0.352 N 
ATOM     28  C   UNL A   1      41.409  19.498  26.123  1.00  0.00     0.251 C 
ATOM     29  H   UNL A   1      39.868  18.381  25.494  1.00  0.00     0.163 HD
ATOM     30  O   UNL A   1      42.228  18.596  25.968  1.00  0.00    -0.269 OA
BRANCH  28  31
ATOM     31  C   UNL A   1      41.857  20.808  26.652  1.00  0.00     0.039 A 
ATOM     32  C   UNL A   1      42.359  21.757  25.755  1.00  0.00     0.014 A 
ATOM     33  C   UNL A   1      41.787  21.110  28.015  1.00  0.00     0.014 A 
ATOM     34  C   UNL A   1      42.717  23.028  26.213  1.00  0.00     0.010 A 
ATOM     35  C   UNL A   1      42.067  22.402  28.457  1.00  0.00     0.010 A 
ATOM     36  C   UNL A   1      42.533  23.378  27.561  1.00  0.00    -0.014 A 
BRANCH  36  37
ATOM     37  C   UNL A   1      42.809  24.756  28.046  1.00  0.00     0.031 A 
ATOM     38  C   UNL A   1      44.202  25.163  28.443  1.00  0.00     0.074 A 
ATOM     39  C   UNL A   1      41.792  25.632  28.185  1.00  0.00     0.049 A 
ATOM     40  N   UNL A   1      44.621  26.300  28.940  1.00  0.00    -0.248 NA
ATOM     41  C   UNL A   1      45.260  24.152  28.283  1.00  0.00     0.031 C 
ATOM     42  C   UNL A   1      40.389  25.359  27.871  1.00  0.00     0.029 A 
ATOM     43  N   UNL A   1      41.785  26.930  28.634  1.00  0.00    -0.354 N 
ATOM     44  C   UNL A   1      45.983  26.138  29.161  1.00  0.00     0.074 A 
ATOM     45  C   UNL A   1      46.309  24.775  28.798  1.00  0.00     0.031 C 
ATOM     46  C   UNL A   1      39.661  26.461  28.113  1.00  0.00     0.029 A 
ATOM     47  C   UNL A   1      40.536  27.504  28.641  1.00  0.00     0.049 A 
ATOM     48  H   UNL A   1      42.597  27.404  28.925  1.00  0.00     0.167 HD
ATOM     49  C   UNL A   1      46.887  27.044  29.607  1.00  0.00     0.031 A 
ATOM     50  C   UNL A   1      40.134  28.726  29.038  1.00  0.00     0.031 A 
ATOM     51  C   UNL A   1      46.566  28.399  29.972  1.00  0.00     0.049 A 
ATOM     52  C   UNL A   1      41.151  29.703  29.562  1.00  0.00     0.074 A 
ATOM     53  C   UNL A   1      47.422  29.403  30.392  1.00  0.00     0.029 A 
ATOM     54  N   UNL A   1      45.289  28.938  29.966  1.00  0.00    -0.354 N 
ATOM     55  N   UNL A   1      42.446  29.553  29.703  1.00  0.00    -0.248 NA
ATOM     56  C   UNL A   1      40.649  31.023  29.971  1.00  0.00     0.031 C 
ATOM     57  C   UNL A   1      46.654  30.531  30.698  1.00  0.00     0.029 A 
ATOM     58  C   UNL A   1      45.330  30.252  30.402  1.00  0.00     0.049 A 
ATOM     59  H   UNL A   1      44.475  28.458  29.692  1.00  0.00     0.167 HD
ATOM     60  C   UNL A   1      42.917  30.767  30.187  1.00  0.00     0.074 A 
ATOM     61  C   UNL A   1      41.773  31.648  30.298  1.00  0.00     0.031 C 
ATOM     62  C   UNL A   1      44.185  31.119  30.510  1.00  0.00     0.031 A 
BRANCH  49  63
ATOM     63  C   UNL A   1      48.317  26.590  29.734  1.00  0.00    -0.014 A 
ATOM     64  C   UNL A   1      49.227  26.745  28.676  1.00  0.00     0.009 A 
ATOM     65  C   UNL A   1      48.771  26.037  30.941  1.00  0.00     0.009 A 
ATOM     66  C   UNL A   1      50.549  26.317  28.809  1.00  0.00     0.001 A 
ATOM     67  C   UNL A   1      50.102  25.641  31.084  1.00  0.00     0.001 A 
ATOM     68  C   UNL A   1      50.987  25.771  30.015  1.00  0.00     0.000 A 
ENDBRANCH  49  63
BRANCH  50  69
ATOM     69  C   UNL A   1      38.697  29.102  28.957  1.00  0.00    -0.014 A 
ATOM     70  C   UNL A   1      38.152  29.595  27.760  1.00  0.00     0.009 A 
ATOM     71  C   UNL A   1      37.863  28.982  30.080  1.00  0.00     0.009 A 
ATOM     72  C   UNL A   1      36.814  29.988  27.700  1.00  0.00     0.001 A 
ATOM     73  C   UNL A   1      36.516  29.345  30.008  1.00  0.00     0.001 A 
ATOM     74  C   UNL A   1      35.995  29.859  28.821  1.00  0.00     0.000 A 
ENDBRANCH  50  69
BRANCH  62  75
ATOM     75  C   UNL A   1      44.412  32.532  30.976  1.00  0.00    -0.014 A 
ATOM     76  C   UNL A   1      44.823  33.540  30.091  1.00  0.00     0.009 A 
ATOM     77  C   UNL A   1      44.170  32.865  32.319  1.00  0.00     0.009 A 
ATOM     78  C   UNL A   1      45.023  34.844  30.549  1.00  0.00     0.001 A 
ATOM     79  C   UNL A   1      44.338  34.176  32.767  1.00  0.00     0.001 A 
ATOM     80  C   UNL A   1      44.774  35.161  31.885  1.00  0.00     0.000 A 
ENDBRANCH  62  75
ENDBRANCH  36  37
ENDBRANCH  28  31
ENDBRANCH  26  27
ENDBRANCH  25  26
ENDBRANCH  24  25
ENDBRANCH  23  24
ENDBRANCH   3  23
TORSDOF 17
ENDMDL
