MODEL 1
REMARK VINA RESULT:     -10.8      0.000      0.000
REMARK SMILES Cc1nc(CN(C)C(=O)NCc2ccc(C(=O)NCCCCNC(=O)c3ccc(-c4c5nc(c(-c6ccccc6)c6ccc([nH]6)c(-c6ccccc6)c6nc(c(-c7ccccc7)c7ccc4[nH]7)C=C6)C=C5)cc3)o2)n[nH]1
REMARK SMILES IDX 19 1 18 2 16 3 17 4 15 6 12 7 13 8 74 9 14 10 11 11 10 12
REMARK SMILES IDX 8 13 9 14 6 16 7 17 5 18 4 19 1 20 2 21 3 22 76 23 75 24
REMARK SMILES IDX 20 26 21 27 22 28 23 29 24 30 25 32 26 33 27 34 73 35 28 36
REMARK SMILES IDX 72 37 29 38 30 39 31 40 66 41 32 42 71 43 65 44 67 45 33 46
REMARK SMILES IDX 70 47 64 48 63 49 34 51 56 52 41 53 55 54 42 55 45 56 54 57
REMARK SMILES IDX 68 58 43 59 44 60 53 62 69 63 46 64 35 65 36 66 40 67 37 68
REMARK SMILES IDX 39 69 38 70 57 71 58 72 62 73 59 74 61 75 60 76 47 77 48 78
REMARK SMILES IDX 52 79 49 80 51 81 50 82
REMARK H PARENT 18 5 10 15 76 25 23 31 67 50 45 61
REMARK Flexibility Score: inf
ROOT
ATOM      1  C   UNL A   1      35.624  21.328  25.644  1.00  0.00     0.116 C 
ENDROOT
BRANCH   1   2
ATOM      2  N   UNL A   1      34.537  20.433  25.321  1.00  0.00    -0.349 N 
ATOM      3  C   UNL A   1      33.435  20.599  24.512  1.00  0.00     0.286 C 
ATOM      4  O   UNL A   1      32.702  19.611  24.416  1.00  0.00    -0.266 OA
ATOM      5  H   UNL A   1      34.594  19.551  25.753  1.00  0.00     0.163 HD
BRANCH   3   6
ATOM      6  C   UNL A   1      33.168  21.848  23.818  1.00  0.00     0.191 A 
ATOM      7  C   UNL A   1      31.875  23.601  23.379  1.00  0.00     0.124 A 
ATOM      8  C   UNL A   1      33.007  23.751  22.610  1.00  0.00     0.048 A 
ATOM      9  O   UNL A   1      31.958  22.447  24.096  1.00  0.00    -0.454 OA
ATOM     10  C   UNL A   1      33.846  22.655  22.921  1.00  0.00     0.056 A 
BRANCH   7  11
ATOM     11  C   UNL A   1      30.659  24.425  23.600  1.00  0.00     0.193 C 
BRANCH  11  12
ATOM     12  N   UNL A   1      30.247  24.283  24.980  1.00  0.00    -0.331 N 
ATOM     13  C   UNL A   1      30.802  24.547  26.174  1.00  0.00     0.317 C 
ATOM     14  O   UNL A   1      30.287  23.948  27.123  1.00  0.00    -0.249 OA
ATOM     15  H   UNL A   1      29.342  23.903  25.063  1.00  0.00     0.165 HD
BRANCH  13  16
ATOM     16  N   UNL A   1      31.859  25.397  26.336  1.00  0.00    -0.320 N 
ATOM     17  C   UNL A   1      33.266  25.075  26.217  1.00  0.00     0.149 C 
BRANCH  16  18
ATOM     18  C   UNL A   1      31.527  26.827  26.438  1.00  0.00     0.200 C 
BRANCH  18  19
ATOM     19  C   UNL A   1      32.465  27.679  25.632  1.00  0.00     0.170 A 
ATOM     20  C   UNL A   1      34.110  28.548  22.591  1.00  0.00     0.089 C 
ATOM     21  C   UNL A   1      33.531  28.345  23.934  1.00  0.00     0.121 A 
ATOM     22  N   UNL A   1      32.492  27.611  24.258  1.00  0.00    -0.215 NA
ATOM     23  N   UNL A   1      34.058  28.890  25.070  1.00  0.00    -0.263 N 
ATOM     24  N   UNL A   1      33.366  28.524  26.162  1.00  0.00    -0.157 NA
ATOM     25  H   UNL A   1      34.847  29.480  25.086  1.00  0.00     0.192 HD
ENDBRANCH  18  19
ENDBRANCH  16  18
ENDBRANCH  13  16
ENDBRANCH  11  12
ENDBRANCH   7  11
ENDBRANCH   3   6
ENDBRANCH   1   2
BRANCH   1  26
ATOM     26  C   UNL A   1      36.767  21.202  24.637  1.00  0.00     0.023 C 
BRANCH  26  27
ATOM     27  C   UNL A   1      37.740  20.055  24.938  1.00  0.00     0.023 C 
BRANCH  27  28
ATOM     28  C   UNL A   1      38.971  20.446  25.753  1.00  0.00     0.116 C 
BRANCH  28  29
ATOM     29  N   UNL A   1      40.022  19.440  25.740  1.00  0.00    -0.352 N 
ATOM     30  C   UNL A   1      41.343  19.578  26.095  1.00  0.00     0.251 C 
ATOM     31  H   UNL A   1      39.751  18.543  25.438  1.00  0.00     0.163 HD
ATOM     32  O   UNL A   1      42.128  18.653  25.938  1.00  0.00    -0.269 OA
BRANCH  30  33
ATOM     33  C   UNL A   1      41.815  20.874  26.623  1.00  0.00     0.039 A 
ATOM     34  C   UNL A   1      42.312  21.822  25.726  1.00  0.00     0.014 A 
ATOM     35  C   UNL A   1      41.737  21.162  27.988  1.00  0.00     0.014 A 
ATOM     36  C   UNL A   1      42.666  23.090  26.189  1.00  0.00     0.010 A 
ATOM     37  C   UNL A   1      42.031  22.444  28.438  1.00  0.00     0.010 A 
ATOM     38  C   UNL A   1      42.494  23.422  27.543  1.00  0.00    -0.014 A 
BRANCH  38  39
ATOM     39  C   UNL A   1      42.779  24.790  28.039  1.00  0.00     0.031 A 
ATOM     40  C   UNL A   1      44.175  25.171  28.445  1.00  0.00     0.074 A 
ATOM     41  C   UNL A   1      41.768  25.667  28.191  1.00  0.00     0.049 A 
ATOM     42  N   UNL A   1      44.607  26.294  28.959  1.00  0.00    -0.248 NA
ATOM     43  C   UNL A   1      45.220  24.147  28.275  1.00  0.00     0.031 C 
ATOM     44  C   UNL A   1      40.361  25.405  27.878  1.00  0.00     0.029 A 
ATOM     45  N   UNL A   1      41.769  26.958  28.657  1.00  0.00    -0.354 N 
ATOM     46  C   UNL A   1      45.963  26.105  29.191  1.00  0.00     0.074 A 
ATOM     47  C   UNL A   1      46.275  24.747  28.803  1.00  0.00     0.031 C 
ATOM     48  C   UNL A   1      39.640  26.507  28.140  1.00  0.00     0.029 A 
ATOM     49  C   UNL A   1      40.524  27.539  28.670  1.00  0.00     0.049 A 
ATOM     50  H   UNL A   1      42.584  27.424  28.954  1.00  0.00     0.167 HD
ATOM     51  C   UNL A   1      46.872  26.989  29.668  1.00  0.00     0.031 A 
ATOM     52  C   UNL A   1      40.137  28.765  29.069  1.00  0.00     0.031 A 
ATOM     53  C   UNL A   1      46.567  28.346  30.035  1.00  0.00     0.049 A 
ATOM     54  C   UNL A   1      41.168  29.729  29.588  1.00  0.00     0.074 A 
ATOM     55  C   UNL A   1      47.433  29.335  30.468  1.00  0.00     0.029 A 
ATOM     56  N   UNL A   1      45.299  28.902  30.011  1.00  0.00    -0.354 N 
ATOM     57  N   UNL A   1      42.459  29.557  29.734  1.00  0.00    -0.248 NA
ATOM     58  C   UNL A   1      40.688  31.060  29.985  1.00  0.00     0.031 C 
ATOM     59  C   UNL A   1      46.680  30.481  30.747  1.00  0.00     0.029 A 
ATOM     60  C   UNL A   1      45.355  30.218  30.440  1.00  0.00     0.049 A 
ATOM     61  H   UNL A   1      44.480  28.434  29.731  1.00  0.00     0.167 HD
ATOM     62  C   UNL A   1      42.950  30.765  30.211  1.00  0.00     0.074 A 
ATOM     63  C   UNL A   1      41.820  31.665  30.316  1.00  0.00     0.031 C 
ATOM     64  C   UNL A   1      44.222  31.101  30.534  1.00  0.00     0.031 A 
BRANCH  51  65
ATOM     65  C   UNL A   1      48.289  26.511  29.821  1.00  0.00    -0.014 A 
ATOM     66  C   UNL A   1      49.232  26.699  28.800  1.00  0.00     0.009 A 
ATOM     67  C   UNL A   1      48.695  25.903  31.018  1.00  0.00     0.009 A 
ATOM     68  C   UNL A   1      50.547  26.259  28.961  1.00  0.00     0.001 A 
ATOM     69  C   UNL A   1      50.018  25.488  31.189  1.00  0.00     0.001 A 
ATOM     70  C   UNL A   1      50.940  25.659  30.157  1.00  0.00     0.000 A 
ENDBRANCH  51  65
BRANCH  52  71
ATOM     71  C   UNL A   1      38.709  29.165  28.980  1.00  0.00    -0.014 A 
ATOM     72  C   UNL A   1      37.866  29.041  30.095  1.00  0.00     0.009 A 
ATOM     73  C   UNL A   1      38.178  29.656  27.777  1.00  0.00     0.009 A 
ATOM     74  C   UNL A   1      36.511  29.371  29.998  1.00  0.00     0.001 A 
ATOM     75  C   UNL A   1      36.831  30.011  27.692  1.00  0.00     0.001 A 
ATOM     76  C   UNL A   1      35.996  29.858  28.798  1.00  0.00     0.000 A 
ENDBRANCH  52  71
BRANCH  64  77
ATOM     77  C   UNL A   1      44.465  32.509  30.993  1.00  0.00    -0.014 A 
ATOM     78  C   UNL A   1      44.733  33.539  30.078  1.00  0.00     0.009 A 
ATOM     79  C   UNL A   1      44.382  32.816  32.360  1.00  0.00     0.009 A 
ATOM     80  C   UNL A   1      44.947  34.843  30.527  1.00  0.00     0.001 A 
ATOM     81  C   UNL A   1      44.569  34.126  32.804  1.00  0.00     0.001 A 
ATOM     82  C   UNL A   1      44.859  35.136  31.888  1.00  0.00     0.000 A 
ENDBRANCH  64  77
ENDBRANCH  38  39
ENDBRANCH  30  33
ENDBRANCH  28  29
ENDBRANCH  27  28
ENDBRANCH  26  27
ENDBRANCH   1  26
TORSDOF 16
ENDMDL
MODEL 2
REMARK VINA RESULT:     -10.8      3.983      9.158
REMARK SMILES Cc1nc(CN(C)C(=O)NCc2ccc(C(=O)NCCCCNC(=O)c3ccc(-c4c5nc(c(-c6ccccc6)c6ccc([nH]6)c(-c6ccccc6)c6nc(c(-c7ccccc7)c7ccc4[nH]7)C=C6)C=C5)cc3)o2)n[nH]1
REMARK SMILES IDX 19 1 18 2 16 3 17 4 15 6 12 7 13 8 74 9 14 10 11 11 10 12
REMARK SMILES IDX 8 13 9 14 6 16 7 17 5 18 4 19 1 20 2 21 3 22 76 23 75 24
REMARK SMILES IDX 20 26 21 27 22 28 23 29 24 30 25 32 26 33 27 34 73 35 28 36
REMARK SMILES IDX 72 37 29 38 30 39 31 40 66 41 32 42 71 43 65 44 67 45 33 46
REMARK SMILES IDX 70 47 64 48 63 49 34 51 56 52 41 53 55 54 42 55 45 56 54 57
REMARK SMILES IDX 68 58 43 59 44 60 53 62 69 63 46 64 35 65 36 66 40 67 37 68
REMARK SMILES IDX 39 69 38 70 57 71 58 72 62 73 59 74 61 75 60 76 47 77 48 78
REMARK SMILES IDX 52 79 49 80 51 81 50 82
REMARK H PARENT 18 5 10 15 76 25 23 31 67 50 45 61
REMARK Flexibility Score: inf
ROOT
ATOM      1  C   UNL A   1      32.880  30.001  26.135  1.00  0.00     0.116 C 
ENDROOT
BRANCH   1   2
ATOM      2  N   UNL A   1      33.531  29.472  24.960  1.00  0.00    -0.349 N 
ATOM      3  C   UNL A   1      33.302  28.323  24.236  1.00  0.00     0.286 C 
ATOM      4  O   UNL A   1      34.021  28.177  23.244  1.00  0.00    -0.266 OA
ATOM      5  H   UNL A   1      34.266  30.028  24.616  1.00  0.00     0.163 HD
BRANCH   3   6
ATOM      6  C   UNL A   1      32.278  27.362  24.615  1.00  0.00     0.191 A 
ATOM      7  C   UNL A   1      31.641  25.467  25.582  1.00  0.00     0.124 A 
ATOM      8  C   UNL A   1      30.500  26.045  25.070  1.00  0.00     0.048 A 
ATOM      9  O   UNL A   1      32.717  26.248  25.295  1.00  0.00    -0.454 OA
ATOM     10  C   UNL A   1      30.902  27.270  24.489  1.00  0.00     0.056 A 
BRANCH   7  11
ATOM     11  C   UNL A   1      31.910  24.242  26.378  1.00  0.00     0.193 C 
BRANCH  11  12
ATOM     12  N   UNL A   1      33.342  24.078  26.505  1.00  0.00    -0.331 N 
ATOM     13  C   UNL A   1      34.218  23.097  26.234  1.00  0.00     0.317 C 
ATOM     14  O   UNL A   1      35.299  23.197  26.821  1.00  0.00    -0.249 OA
ATOM     15  H   UNL A   1      33.779  24.877  26.879  1.00  0.00     0.165 HD
BRANCH  13  16
ATOM     16  N   UNL A   1      33.941  22.060  25.389  1.00  0.00    -0.320 N 
ATOM     17  C   UNL A   1      33.062  20.937  25.642  1.00  0.00     0.149 C 
BRANCH  16  18
ATOM     18  C   UNL A   1      34.424  22.207  24.006  1.00  0.00     0.200 C 
BRANCH  18  19
ATOM     19  C   UNL A   1      33.479  23.016  23.165  1.00  0.00     0.170 A 
ATOM     20  C   UNL A   1      32.650  25.902  21.244  1.00  0.00     0.089 C 
ATOM     21  C   UNL A   1      32.803  24.641  21.997  1.00  0.00     0.121 A 
ATOM     22  N   UNL A   1      33.914  24.103  22.442  1.00  0.00    -0.215 NA
ATOM     23  N   UNL A   1      31.750  23.861  22.380  1.00  0.00    -0.263 N 
ATOM     24  N   UNL A   1      32.156  22.790  23.081  1.00  0.00    -0.157 NA
ATOM     25  H   UNL A   1      30.809  24.059  22.166  1.00  0.00     0.192 HD
ENDBRANCH  18  19
ENDBRANCH  16  18
ENDBRANCH  13  16
ENDBRANCH  11  12
ENDBRANCH   7  11
ENDBRANCH   3   6
ENDBRANCH   1   2
BRANCH   1  26
ATOM     26  C   UNL A   1      31.617  30.781  25.768  1.00  0.00     0.023 C 
BRANCH  26  27
ATOM     27  C   UNL A   1      31.318  31.959  26.704  1.00  0.00     0.023 C 
BRANCH  27  28
ATOM     28  C   UNL A   1      32.546  32.692  27.239  1.00  0.00     0.116 C 
BRANCH  28  29
ATOM     29  N   UNL A   1      32.283  34.073  27.612  1.00  0.00    -0.352 N 
ATOM     30  C   UNL A   1      32.966  34.862  28.509  1.00  0.00     0.251 C 
ATOM     31  H   UNL A   1      31.518  34.499  27.164  1.00  0.00     0.163 HD
ATOM     32  O   UNL A   1      32.561  35.983  28.784  1.00  0.00    -0.269 OA
BRANCH  30  33
ATOM     33  C   UNL A   1      34.169  34.320  29.174  1.00  0.00     0.039 A 
ATOM     34  C   UNL A   1      34.012  33.605  30.363  1.00  0.00     0.014 A 
ATOM     35  C   UNL A   1      35.436  34.490  28.611  1.00  0.00     0.014 A 
ATOM     36  C   UNL A   1      35.120  32.997  30.953  1.00  0.00     0.010 A 
ATOM     37  C   UNL A   1      36.529  33.832  29.165  1.00  0.00     0.010 A 
ATOM     38  C   UNL A   1      36.381  33.076  30.338  1.00  0.00    -0.014 A 
BRANCH  38  39
ATOM     39  C   UNL A   1      37.554  32.363  30.900  1.00  0.00     0.031 A 
ATOM     40  C   UNL A   1      38.212  32.863  32.155  1.00  0.00     0.074 A 
ATOM     41  C   UNL A   1      38.069  31.307  30.241  1.00  0.00     0.049 A 
ATOM     42  N   UNL A   1      39.281  32.412  32.760  1.00  0.00    -0.248 NA
ATOM     43  C   UNL A   1      37.606  34.039  32.800  1.00  0.00     0.031 C 
ATOM     44  C   UNL A   1      37.551  30.752  28.988  1.00  0.00     0.029 A 
ATOM     45  N   UNL A   1      39.152  30.516  30.531  1.00  0.00    -0.354 N 
ATOM     46  C   UNL A   1      39.486  33.259  33.842  1.00  0.00     0.074 A 
ATOM     47  C   UNL A   1      38.458  34.275  33.786  1.00  0.00     0.031 C 
ATOM     48  C   UNL A   1      38.302  29.698  28.630  1.00  0.00     0.029 A 
ATOM     49  C   UNL A   1      39.372  29.524  29.606  1.00  0.00     0.049 A 
ATOM     50  H   UNL A   1      39.718  30.646  31.327  1.00  0.00     0.167 HD
ATOM     51  C   UNL A   1      40.433  33.187  34.807  1.00  0.00     0.031 A 
ATOM     52  C   UNL A   1      40.334  28.583  29.548  1.00  0.00     0.031 A 
ATOM     53  C   UNL A   1      41.444  32.166  34.875  1.00  0.00     0.049 A 
ATOM     54  C   UNL A   1      41.369  28.521  30.635  1.00  0.00     0.074 A 
ATOM     55  C   UNL A   1      42.408  31.973  35.849  1.00  0.00     0.029 A 
ATOM     56  N   UNL A   1      41.618  31.166  33.932  1.00  0.00    -0.354 N 
ATOM     57  N   UNL A   1      41.505  29.287  31.690  1.00  0.00    -0.248 NA
ATOM     58  C   UNL A   1      42.377  27.456  30.529  1.00  0.00     0.031 C 
ATOM     59  C   UNL A   1      43.195  30.880  35.473  1.00  0.00     0.029 A 
ATOM     60  C   UNL A   1      42.688  30.363  34.291  1.00  0.00     0.049 A 
ATOM     61  H   UNL A   1      41.065  31.044  33.128  1.00  0.00     0.167 HD
ATOM     62  C   UNL A   1      42.593  28.780  32.388  1.00  0.00     0.074 A 
ATOM     63  C   UNL A   1      43.072  27.633  31.644  1.00  0.00     0.031 C 
ATOM     64  C   UNL A   1      43.148  29.223  33.542  1.00  0.00     0.031 A 
BRANCH  51  65
ATOM     65  C   UNL A   1      40.422  34.249  35.871  1.00  0.00    -0.014 A 
ATOM     66  C   UNL A   1      41.079  35.474  35.680  1.00  0.00     0.009 A 
ATOM     67  C   UNL A   1      39.710  34.038  37.061  1.00  0.00     0.009 A 
ATOM     68  C   UNL A   1      41.051  36.454  36.673  1.00  0.00     0.001 A 
ATOM     69  C   UNL A   1      39.659  35.031  38.042  1.00  0.00     0.001 A 
ATOM     70  C   UNL A   1      40.337  36.234  37.850  1.00  0.00     0.000 A 
ENDBRANCH  51  65
BRANCH  52  71
ATOM     71  C   UNL A   1      40.357  27.606  28.428  1.00  0.00    -0.014 A 
ATOM     72  C   UNL A   1      39.640  26.403  28.520  1.00  0.00     0.009 A 
ATOM     73  C   UNL A   1      41.108  27.863  27.271  1.00  0.00     0.009 A 
ATOM     74  C   UNL A   1      39.700  25.463  27.488  1.00  0.00     0.001 A 
ATOM     75  C   UNL A   1      41.144  26.933  26.230  1.00  0.00     0.001 A 
ATOM     76  C   UNL A   1      40.449  25.730  26.344  1.00  0.00     0.000 A 
ENDBRANCH  52  71
BRANCH  64  77
ATOM     77  C   UNL A   1      44.308  28.444  34.090  1.00  0.00    -0.014 A 
ATOM     78  C   UNL A   1      45.630  28.777  33.761  1.00  0.00     0.009 A 
ATOM     79  C   UNL A   1      44.073  27.385  34.982  1.00  0.00     0.009 A 
ATOM     80  C   UNL A   1      46.695  28.044  34.289  1.00  0.00     0.001 A 
ATOM     81  C   UNL A   1      45.140  26.672  35.530  1.00  0.00     0.001 A 
ATOM     82  C   UNL A   1      46.449  26.996  35.176  1.00  0.00     0.000 A 
ENDBRANCH  64  77
ENDBRANCH  38  39
ENDBRANCH  30  33
ENDBRANCH  28  29
ENDBRANCH  27  28
ENDBRANCH  26  27
ENDBRANCH   1  26
TORSDOF 16
ENDMDL
MODEL 3
REMARK VINA RESULT:     -10.7      4.048      9.528
REMARK SMILES Cc1nc(CN(C)C(=O)NCc2ccc(C(=O)NCCCCNC(=O)c3ccc(-c4c5nc(c(-c6ccccc6)c6ccc([nH]6)c(-c6ccccc6)c6nc(c(-c7ccccc7)c7ccc4[nH]7)C=C6)C=C5)cc3)o2)n[nH]1
REMARK SMILES IDX 19 1 18 2 16 3 17 4 15 6 12 7 13 8 74 9 14 10 11 11 10 12
REMARK SMILES IDX 8 13 9 14 6 16 7 17 5 18 4 19 1 20 2 21 3 22 76 23 75 24
REMARK SMILES IDX 20 26 21 27 22 28 23 29 24 30 25 32 26 33 27 34 73 35 28 36
REMARK SMILES IDX 72 37 29 38 30 39 31 40 66 41 32 42 71 43 65 44 67 45 33 46
REMARK SMILES IDX 70 47 64 48 63 49 34 51 56 52 41 53 55 54 42 55 45 56 54 57
REMARK SMILES IDX 68 58 43 59 44 60 53 62 69 63 46 64 35 65 36 66 40 67 37 68
REMARK SMILES IDX 39 69 38 70 57 71 58 72 62 73 59 74 61 75 60 76 47 77 48 78
REMARK SMILES IDX 52 79 49 80 51 81 50 82
REMARK H PARENT 18 5 10 15 76 25 23 31 67 50 45 61
REMARK Flexibility Score: inf
ROOT
ATOM      1  C   UNL A   1      32.849  29.683  26.243  1.00  0.00     0.116 C 
ENDROOT
BRANCH   1   2
ATOM      2  N   UNL A   1      33.101  29.699  24.820  1.00  0.00    -0.349 N 
ATOM      3  C   UNL A   1      32.576  28.942  23.797  1.00  0.00     0.286 C 
ATOM      4  O   UNL A   1      32.979  29.236  22.669  1.00  0.00    -0.266 OA
ATOM      5  H   UNL A   1      33.763  30.368  24.532  1.00  0.00     0.163 HD
BRANCH   3   6
ATOM      6  C   UNL A   1      31.610  27.883  24.038  1.00  0.00     0.191 A 
ATOM      7  C   UNL A   1      31.085  25.838  24.728  1.00  0.00     0.124 A 
ATOM      8  C   UNL A   1      29.910  26.418  24.304  1.00  0.00     0.048 A 
ATOM      9  O   UNL A   1      32.115  26.709  24.554  1.00  0.00    -0.454 OA
ATOM     10  C   UNL A   1      30.240  27.733  23.902  1.00  0.00     0.056 A 
BRANCH   7  11
ATOM     11  C   UNL A   1      31.428  24.530  25.343  1.00  0.00     0.193 C 
BRANCH  11  12
ATOM     12  N   UNL A   1      32.705  24.093  24.822  1.00  0.00    -0.331 N 
ATOM     13  C   UNL A   1      33.587  23.132  25.139  1.00  0.00     0.317 C 
ATOM     14  O   UNL A   1      34.725  23.311  24.694  1.00  0.00    -0.249 OA
ATOM     15  H   UNL A   1      32.997  24.629  24.049  1.00  0.00     0.165 HD
BRANCH  13  16
ATOM     16  N   UNL A   1      33.266  22.045  25.902  1.00  0.00    -0.320 N 
ATOM     17  C   UNL A   1      33.607  21.822  27.292  1.00  0.00     0.149 C 
BRANCH  16  18
ATOM     18  C   UNL A   1      32.303  21.102  25.311  1.00  0.00     0.200 C 
BRANCH  18  19
ATOM     19  C   UNL A   1      32.912  19.748  25.084  1.00  0.00     0.170 A 
ATOM     20  C   UNL A   1      32.987  16.211  25.526  1.00  0.00     0.089 C 
ATOM     21  C   UNL A   1      33.127  17.651  25.232  1.00  0.00     0.121 A 
ATOM     22  N   UNL A   1      32.228  18.595  25.394  1.00  0.00    -0.215 NA
ATOM     23  N   UNL A   1      34.281  18.216  24.771  1.00  0.00    -0.263 N 
ATOM     24  N   UNL A   1      34.156  19.545  24.618  1.00  0.00    -0.157 NA
ATOM     25  H   UNL A   1      35.104  17.711  24.574  1.00  0.00     0.192 HD
ENDBRANCH  18  19
ENDBRANCH  16  18
ENDBRANCH  13  16
ENDBRANCH  11  12
ENDBRANCH   7  11
ENDBRANCH   3   6
ENDBRANCH   1   2
BRANCH   1  26
ATOM     26  C   UNL A   1      31.503  30.324  26.577  1.00  0.00     0.023 C 
BRANCH  26  27
ATOM     27  C   UNL A   1      31.508  31.856  26.508  1.00  0.00     0.023 C 
BRANCH  27  28
ATOM     28  C   UNL A   1      32.642  32.537  27.270  1.00  0.00     0.116 C 
BRANCH  28  29
ATOM     29  N   UNL A   1      32.358  33.919  27.625  1.00  0.00    -0.352 N 
ATOM     30  C   UNL A   1      33.013  34.722  28.529  1.00  0.00     0.251 C 
ATOM     31  H   UNL A   1      31.598  34.334  27.158  1.00  0.00     0.163 HD
ATOM     32  O   UNL A   1      32.592  35.841  28.786  1.00  0.00    -0.269 OA
BRANCH  30  33
ATOM     33  C   UNL A   1      34.207  34.198  29.224  1.00  0.00     0.039 A 
ATOM     34  C   UNL A   1      34.028  33.433  30.379  1.00  0.00     0.014 A 
ATOM     35  C   UNL A   1      35.489  34.434  28.722  1.00  0.00     0.014 A 
ATOM     36  C   UNL A   1      35.133  32.843  30.992  1.00  0.00     0.010 A 
ATOM     37  C   UNL A   1      36.582  33.795  29.298  1.00  0.00     0.010 A 
ATOM     38  C   UNL A   1      36.414  32.989  30.435  1.00  0.00    -0.014 A 
BRANCH  38  39
ATOM     39  C   UNL A   1      37.588  32.297  31.020  1.00  0.00     0.031 A 
ATOM     40  C   UNL A   1      38.225  32.819  32.277  1.00  0.00     0.074 A 
ATOM     41  C   UNL A   1      38.125  31.241  30.379  1.00  0.00     0.049 A 
ATOM     42  N   UNL A   1      39.291  32.388  32.902  1.00  0.00    -0.248 NA
ATOM     43  C   UNL A   1      37.595  33.995  32.902  1.00  0.00     0.031 C 
ATOM     44  C   UNL A   1      37.630  30.666  29.125  1.00  0.00     0.029 A 
ATOM     45  N   UNL A   1      39.214  30.467  30.691  1.00  0.00    -0.354 N 
ATOM     46  C   UNL A   1      39.471  33.250  33.977  1.00  0.00     0.074 A 
ATOM     47  C   UNL A   1      38.431  34.252  33.896  1.00  0.00     0.031 C 
ATOM     48  C   UNL A   1      38.400  29.618  28.789  1.00  0.00     0.029 A 
ATOM     49  C   UNL A   1      39.459  29.468  29.780  1.00  0.00     0.049 A 
ATOM     50  H   UNL A   1      39.768  30.613  31.493  1.00  0.00     0.167 HD
ATOM     51  C   UNL A   1      40.406  33.200  34.955  1.00  0.00     0.031 A 
ATOM     52  C   UNL A   1      40.433  28.538  29.745  1.00  0.00     0.031 A 
ATOM     53  C   UNL A   1      41.429  32.192  35.047  1.00  0.00     0.049 A 
ATOM     54  C   UNL A   1      41.455  28.502  30.846  1.00  0.00     0.074 A 
ATOM     55  C   UNL A   1      42.383  32.022  36.035  1.00  0.00     0.029 A 
ATOM     56  N   UNL A   1      41.628  31.185  34.117  1.00  0.00    -0.354 N 
ATOM     57  N   UNL A   1      41.567  29.280  31.894  1.00  0.00    -0.248 NA
ATOM     58  C   UNL A   1      42.477  27.449  30.764  1.00  0.00     0.031 C 
ATOM     59  C   UNL A   1      43.188  30.935  35.681  1.00  0.00     0.029 A 
ATOM     60  C   UNL A   1      42.703  30.399  34.498  1.00  0.00     0.049 A 
ATOM     61  H   UNL A   1      41.087  31.047  33.307  1.00  0.00     0.167 HD
ATOM     62  C   UNL A   1      42.653  28.794  32.612  1.00  0.00     0.074 A 
ATOM     63  C   UNL A   1      43.155  27.646  31.887  1.00  0.00     0.031 C 
ATOM     64  C   UNL A   1      43.186  29.257  33.768  1.00  0.00     0.031 A 
BRANCH  51  65
ATOM     65  C   UNL A   1      40.368  34.273  36.006  1.00  0.00    -0.014 A 
ATOM     66  C   UNL A   1      41.107  35.457  35.862  1.00  0.00     0.009 A 
ATOM     67  C   UNL A   1      39.550  34.116  37.135  1.00  0.00     0.009 A 
ATOM     68  C   UNL A   1      41.053  36.449  36.842  1.00  0.00     0.001 A 
ATOM     69  C   UNL A   1      39.476  35.121  38.102  1.00  0.00     0.001 A 
ATOM     70  C   UNL A   1      40.234  36.282  37.958  1.00  0.00     0.000 A 
ENDBRANCH  51  65
BRANCH  52  71
ATOM     71  C   UNL A   1      40.483  27.550  28.636  1.00  0.00    -0.014 A 
ATOM     72  C   UNL A   1      41.196  27.834  27.463  1.00  0.00     0.009 A 
ATOM     73  C   UNL A   1      39.803  26.326  28.740  1.00  0.00     0.009 A 
ATOM     74  C   UNL A   1      41.204  26.925  26.401  1.00  0.00     0.001 A 
ATOM     75  C   UNL A   1      39.836  25.409  27.688  1.00  0.00     0.001 A 
ATOM     76  C   UNL A   1      40.526  25.713  26.516  1.00  0.00     0.000 A 
ENDBRANCH  52  71
BRANCH  64  77
ATOM     77  C   UNL A   1      44.349  28.498  34.339  1.00  0.00    -0.014 A 
ATOM     78  C   UNL A   1      44.157  27.434  35.233  1.00  0.00     0.009 A 
ATOM     79  C   UNL A   1      45.655  28.828  33.942  1.00  0.00     0.009 A 
ATOM     80  C   UNL A   1      45.252  26.737  35.745  1.00  0.00     0.001 A 
ATOM     81  C   UNL A   1      46.746  28.111  34.434  1.00  0.00     0.001 A 
ATOM     82  C   UNL A   1      46.544  27.072  35.341  1.00  0.00     0.000 A 
ENDBRANCH  64  77
ENDBRANCH  38  39
ENDBRANCH  30  33
ENDBRANCH  28  29
ENDBRANCH  27  28
ENDBRANCH  26  27
ENDBRANCH   1  26
TORSDOF 16
ENDMDL
