MODEL 1
REMARK VINA RESULT:     -11.2      0.000      0.000
REMARK SMILES CC[C@@](C)([NH2+]CC(=O)Nc1ccc(Br)cc1F)C(=O)NCCCCNC(=O)c1ccc(-c2c3nc(c(-c4ccccc4)c4ccc([nH]4)c(-c4ccccc4)c4nc(c(-c5ccccc5)c5ccc2[nH]5)C=C4)C=C3)cc1
REMARK SMILES IDX 21 1 20 2 18 3 19 4 3 6 4 7 2 8 1 9 5 10 6 13 7 14 8 15 9 16
REMARK SMILES IDX 10 18 11 19 16 20 12 21 15 22 17 23 13 24 14 25 22 26 23 27
REMARK SMILES IDX 24 28 25 29 26 30 27 32 28 33 29 34 75 35 30 36 74 37 31 38
REMARK SMILES IDX 32 39 33 40 68 41 34 42 73 43 67 44 69 45 35 46 72 47 66 48
REMARK SMILES IDX 65 49 36 51 58 52 43 53 57 54 44 55 47 56 56 57 70 58 45 59
REMARK SMILES IDX 46 60 55 62 71 63 48 64 37 65 38 66 42 67 39 68 41 69 40 70
REMARK SMILES IDX 59 71 60 72 64 73 61 74 63 75 62 76 49 77 50 78 54 79 51 80
REMARK SMILES IDX 53 81 52 82
REMARK H PARENT 20 5 5 11 5 12 9 17 25 31 69 50 47 61
REMARK Flexibility Score: inf
ROOT
ATOM      1  C   UNL A   1      37.037  22.520  25.722  1.00  0.00     0.116 C 
ENDROOT
BRANCH   1   2
ATOM      2  N   UNL A   1      35.751  22.614  26.424  1.00  0.00    -0.351 N 
ATOM      3  C   UNL A   1      34.668  21.754  26.492  1.00  0.00     0.281 C 
ATOM      4  O   UNL A   1      34.441  21.386  27.654  1.00  0.00    -0.268 OA
ATOM      5  H   UNL A   1      35.639  23.443  26.944  1.00  0.00     0.163 HD
BRANCH   3   6
ATOM      6  C   UNL A   1      33.569  21.526  25.299  1.00  0.00     0.172 C 
ATOM      7  C   UNL A   1      33.381  22.172  23.894  1.00  0.00     0.090 C 
BRANCH   6   8
ATOM      8  C   UNL A   1      33.829  20.007  24.910  1.00  0.00     0.075 C 
ATOM      9  C   UNL A   1      32.823  18.989  25.525  1.00  0.00     0.011 C 
ENDBRANCH   6   8
BRANCH   6  10
ATOM     10  N   UNL A   1      32.264  21.758  25.929  1.00  0.00    -0.326 N 
ATOM     11  H   UNL A   1      32.228  21.193  26.778  1.00  0.00     0.347 HD
ATOM     12  H   UNL A   1      31.580  21.509  25.215  1.00  0.00     0.347 HD
BRANCH  10  13
ATOM     13  C   UNL A   1      31.930  23.153  26.308  1.00  0.00     0.363 C 
BRANCH  13  14
ATOM     14  C   UNL A   1      30.512  23.724  26.638  1.00  0.00     0.279 C 
ATOM     15  O   UNL A   1      29.846  23.057  27.457  1.00  0.00    -0.268 OA
ATOM     16  N   UNL A   1      29.917  24.932  26.354  1.00  0.00    -0.319 N 
ATOM     17  H   UNL A   1      29.178  25.092  26.984  1.00  0.00     0.170 HD
BRANCH  16  18
ATOM     18  C   UNL A   1      30.018  26.024  25.452  1.00  0.00     0.077 A 
ATOM     19  C   UNL A   1      29.041  26.102  24.450  1.00  0.00     0.030 A 
ATOM     20  C   UNL A   1      31.106  26.903  25.306  1.00  0.00     0.147 A 
ATOM     21  C   UNL A   1      29.038  27.149  23.510  1.00  0.00     0.018 A 
ATOM     22  C   UNL A   1      31.100  27.968  24.402  1.00  0.00     0.057 A 
ATOM     23  F   UNL A   1      32.248  26.749  25.979  1.00  0.00    -0.205 F 
ATOM     24  C   UNL A   1      30.042  28.111  23.527  1.00  0.00     0.021 A 
ATOM     25  Br  UNL A   1      29.990  29.582  22.347  1.00  0.00    -0.051 Br
ENDBRANCH  16  18
ENDBRANCH  13  14
ENDBRANCH  10  13
ENDBRANCH   6  10
ENDBRANCH   3   6
ENDBRANCH   1   2
BRANCH   1  26
ATOM     26  C   UNL A   1      37.088  21.462  24.611  1.00  0.00     0.023 C 
BRANCH  26  27
ATOM     27  C   UNL A   1      37.902  20.212  24.960  1.00  0.00     0.023 C 
BRANCH  27  28
ATOM     28  C   UNL A   1      39.158  20.422  25.806  1.00  0.00     0.116 C 
BRANCH  28  29
ATOM     29  N   UNL A   1      40.108  19.318  25.777  1.00  0.00    -0.352 N 
ATOM     30  C   UNL A   1      41.454  19.338  26.084  1.00  0.00     0.251 C 
ATOM     31  H   UNL A   1      39.744  18.445  25.504  1.00  0.00     0.163 HD
ATOM     32  O   UNL A   1      42.140  18.326  25.970  1.00  0.00    -0.269 OA
BRANCH  30  33
ATOM     33  C   UNL A   1      42.084  20.610  26.504  1.00  0.00     0.039 A 
ATOM     34  C   UNL A   1      42.589  21.474  25.528  1.00  0.00     0.014 A 
ATOM     35  C   UNL A   1      42.096  20.986  27.849  1.00  0.00     0.014 A 
ATOM     36  C   UNL A   1      43.005  22.758  25.890  1.00  0.00     0.010 A 
ATOM     37  C   UNL A   1      42.430  22.292  28.194  1.00  0.00     0.010 A 
ATOM     38  C   UNL A   1      42.876  23.198  27.218  1.00  0.00    -0.014 A 
BRANCH  38  39
ATOM     39  C   UNL A   1      43.182  24.602  27.604  1.00  0.00     0.031 A 
ATOM     40  C   UNL A   1      44.609  25.064  27.707  1.00  0.00     0.074 A 
ATOM     41  C   UNL A   1      42.180  25.441  27.939  1.00  0.00     0.049 A 
ATOM     42  N   UNL A   1      45.077  26.224  28.094  1.00  0.00    -0.248 NA
ATOM     43  C   UNL A   1      45.651  24.084  27.358  1.00  0.00     0.031 C 
ATOM     44  C   UNL A   1      40.753  25.109  27.933  1.00  0.00     0.029 A 
ATOM     45  N   UNL A   1      42.212  26.749  28.358  1.00  0.00    -0.354 N 
ATOM     46  C   UNL A   1      46.461  26.104  28.059  1.00  0.00     0.074 A 
ATOM     47  C   UNL A   1      46.757  24.745  27.664  1.00  0.00     0.031 C 
ATOM     48  C   UNL A   1      40.046  26.194  28.293  1.00  0.00     0.029 A 
ATOM     49  C   UNL A   1      40.967  27.283  28.596  1.00  0.00     0.049 A 
ATOM     50  H   UNL A   1      43.047  27.256  28.476  1.00  0.00     0.167 HD
ATOM     51  C   UNL A   1      47.402  27.044  28.310  1.00  0.00     0.031 A 
ATOM     52  C   UNL A   1      40.607  28.513  29.013  1.00  0.00     0.031 A 
ATOM     53  C   UNL A   1      47.112  28.403  28.679  1.00  0.00     0.049 A 
ATOM     54  C   UNL A   1      41.672  29.540  29.286  1.00  0.00     0.074 A 
ATOM     55  C   UNL A   1      47.995  29.449  28.884  1.00  0.00     0.029 A 
ATOM     56  N   UNL A   1      45.839  28.906  28.895  1.00  0.00    -0.354 N 
ATOM     57  N   UNL A   1      42.973  29.429  29.173  1.00  0.00    -0.248 NA
ATOM     58  C   UNL A   1      41.216  30.864  29.732  1.00  0.00     0.031 C 
ATOM     59  C   UNL A   1      47.260  30.572  29.274  1.00  0.00     0.029 A 
ATOM     60  C   UNL A   1      45.915  30.240  29.256  1.00  0.00     0.049 A 
ATOM     61  H   UNL A   1      45.004  28.391  28.805  1.00  0.00     0.167 HD
ATOM     62  C   UNL A   1      43.488  30.677  29.504  1.00  0.00     0.074 A 
ATOM     63  C   UNL A   1      42.359  31.531  29.806  1.00  0.00     0.031 C 
ATOM     64  C   UNL A   1      44.781  31.079  29.550  1.00  0.00     0.031 A 
BRANCH  51  65
ATOM     65  C   UNL A   1      48.842  26.627  28.195  1.00  0.00    -0.014 A 
ATOM     66  C   UNL A   1      49.564  26.186  29.317  1.00  0.00     0.009 A 
ATOM     67  C   UNL A   1      49.477  26.646  26.945  1.00  0.00     0.009 A 
ATOM     68  C   UNL A   1      50.903  25.812  29.194  1.00  0.00     0.001 A 
ATOM     69  C   UNL A   1      50.808  26.243  26.819  1.00  0.00     0.001 A 
ATOM     70  C   UNL A   1      51.523  25.837  27.946  1.00  0.00     0.000 A 
ENDBRANCH  51  65
BRANCH  52  71
ATOM     71  C   UNL A   1      39.170  28.859  29.179  1.00  0.00    -0.014 A 
ATOM     72  C   UNL A   1      38.531  28.661  30.413  1.00  0.00     0.009 A 
ATOM     73  C   UNL A   1      38.424  29.368  28.105  1.00  0.00     0.009 A 
ATOM     74  C   UNL A   1      37.170  28.938  30.561  1.00  0.00     0.001 A 
ATOM     75  C   UNL A   1      37.069  29.672  28.264  1.00  0.00     0.001 A 
ATOM     76  C   UNL A   1      36.441  29.446  29.487  1.00  0.00     0.000 A 
ENDBRANCH  52  71
BRANCH  64  77
ATOM     77  C   UNL A   1      45.045  32.516  29.904  1.00  0.00    -0.014 A 
ATOM     78  C   UNL A   1      44.876  33.542  28.962  1.00  0.00     0.009 A 
ATOM     79  C   UNL A   1      45.428  32.848  31.212  1.00  0.00     0.009 A 
ATOM     80  C   UNL A   1      45.115  34.871  29.318  1.00  0.00     0.001 A 
ATOM     81  C   UNL A   1      45.637  34.179  31.573  1.00  0.00     0.001 A 
ATOM     82  C   UNL A   1      45.489  35.189  30.623  1.00  0.00     0.000 A 
ENDBRANCH  64  77
ENDBRANCH  38  39
ENDBRANCH  30  33
ENDBRANCH  28  29
ENDBRANCH  27  28
ENDBRANCH  26  27
ENDBRANCH   1  26
TORSDOF 16
ENDMDL
MODEL 2
REMARK VINA RESULT:     -11.1      0.799      5.960
REMARK SMILES CC[C@@](C)([NH2+]CC(=O)Nc1ccc(Br)cc1F)C(=O)NCCCCNC(=O)c1ccc(-c2c3nc(c(-c4ccccc4)c4ccc([nH]4)c(-c4ccccc4)c4nc(c(-c5ccccc5)c5ccc2[nH]5)C=C4)C=C3)cc1
REMARK SMILES IDX 21 1 20 2 18 3 19 4 3 6 4 7 2 8 1 9 5 10 6 13 7 14 8 15 9 16
REMARK SMILES IDX 10 18 11 19 16 20 12 21 15 22 17 23 13 24 14 25 22 26 23 27
REMARK SMILES IDX 24 28 25 29 26 30 27 32 28 33 29 34 75 35 30 36 74 37 31 38
REMARK SMILES IDX 32 39 33 40 68 41 34 42 73 43 67 44 69 45 35 46 72 47 66 48
REMARK SMILES IDX 65 49 36 51 58 52 43 53 57 54 44 55 47 56 56 57 70 58 45 59
REMARK SMILES IDX 46 60 55 62 71 63 48 64 37 65 38 66 42 67 39 68 41 69 40 70
REMARK SMILES IDX 59 71 60 72 64 73 61 74 63 75 62 76 49 77 50 78 54 79 51 80
REMARK SMILES IDX 53 81 52 82
REMARK H PARENT 20 5 5 11 5 12 9 17 25 31 69 50 47 61
REMARK Flexibility Score: inf
ROOT
ATOM      1  C   UNL A   1      36.508  23.108  25.760  1.00  0.00     0.116 C 
ENDROOT
BRANCH   1   2
ATOM      2  N   UNL A   1      35.194  22.855  26.365  1.00  0.00    -0.351 N 
ATOM      3  C   UNL A   1      34.342  21.765  26.310  1.00  0.00     0.281 C 
ATOM      4  O   UNL A   1      34.136  21.282  27.433  1.00  0.00    -0.268 OA
ATOM      5  H   UNL A   1      34.857  23.601  26.913  1.00  0.00     0.163 HD
BRANCH   3   6
ATOM      6  C   UNL A   1      33.406  21.364  25.027  1.00  0.00     0.172 C 
ATOM      7  C   UNL A   1      33.285  21.938  23.583  1.00  0.00     0.090 C 
BRANCH   6   8
ATOM      8  C   UNL A   1      33.887  19.878  24.731  1.00  0.00     0.075 C 
ATOM      9  C   UNL A   1      32.802  18.948  24.111  1.00  0.00     0.011 C 
ENDBRANCH   6   8
BRANCH   6  10
ATOM     10  N   UNL A   1      32.026  21.451  25.517  1.00  0.00    -0.326 N 
ATOM     11  H   UNL A   1      32.035  21.200  26.506  1.00  0.00     0.347 HD
ATOM     12  H   UNL A   1      31.494  20.822  24.915  1.00  0.00     0.347 HD
BRANCH  10  13
ATOM     13  C   UNL A   1      31.342  22.762  25.397  1.00  0.00     0.363 C 
BRANCH  13  14
ATOM     14  C   UNL A   1      31.226  23.868  26.497  1.00  0.00     0.279 C 
ATOM     15  O   UNL A   1      31.400  23.472  27.669  1.00  0.00    -0.268 OA
ATOM     16  N   UNL A   1      31.162  25.239  26.421  1.00  0.00    -0.319 N 
ATOM     17  H   UNL A   1      31.437  25.630  27.281  1.00  0.00     0.170 HD
BRANCH  16  18
ATOM     18  C   UNL A   1      30.831  26.278  25.511  1.00  0.00     0.077 A 
ATOM     19  C   UNL A   1      29.785  26.017  24.614  1.00  0.00     0.030 A 
ATOM     20  C   UNL A   1      31.575  27.443  25.251  1.00  0.00     0.147 A 
ATOM     21  C   UNL A   1      29.367  26.980  23.678  1.00  0.00     0.018 A 
ATOM     22  C   UNL A   1      31.151  28.424  24.349  1.00  0.00     0.057 A 
ATOM     23  F   UNL A   1      32.769  27.672  25.802  1.00  0.00    -0.205 F 
ATOM     24  C   UNL A   1      30.021  28.203  23.588  1.00  0.00     0.021 A 
ATOM     25  Br  UNL A   1      29.402  29.546  22.415  1.00  0.00    -0.051 Br
ENDBRANCH  16  18
ENDBRANCH  13  14
ENDBRANCH  10  13
ENDBRANCH   6  10
ENDBRANCH   3   6
ENDBRANCH   1   2
BRANCH   1  26
ATOM     26  C   UNL A   1      36.851  22.204  24.567  1.00  0.00     0.023 C 
BRANCH  26  27
ATOM     27  C   UNL A   1      37.568  20.903  24.942  1.00  0.00     0.023 C 
BRANCH  27  28
ATOM     28  C   UNL A   1      38.867  21.036  25.737  1.00  0.00     0.116 C 
BRANCH  28  29
ATOM     29  N   UNL A   1      39.747  19.878  25.672  1.00  0.00    -0.352 N 
ATOM     30  C   UNL A   1      41.074  19.787  26.044  1.00  0.00     0.251 C 
ATOM     31  H   UNL A   1      39.345  19.052  25.316  1.00  0.00     0.163 HD
ATOM     32  O   UNL A   1      41.702  18.743  25.888  1.00  0.00    -0.269 OA
BRANCH  30  33
ATOM     33  C   UNL A   1      41.757  20.981  26.590  1.00  0.00     0.039 A 
ATOM     34  C   UNL A   1      42.283  21.927  25.705  1.00  0.00     0.014 A 
ATOM     35  C   UNL A   1      41.800  21.207  27.968  1.00  0.00     0.014 A 
ATOM     36  C   UNL A   1      42.753  23.148  26.199  1.00  0.00     0.010 A 
ATOM     37  C   UNL A   1      42.189  22.455  28.448  1.00  0.00     0.010 A 
ATOM     38  C   UNL A   1      42.657  23.445  27.568  1.00  0.00    -0.014 A 
BRANCH  38  39
ATOM     39  C   UNL A   1      43.021  24.786  28.100  1.00  0.00     0.031 A 
ATOM     40  C   UNL A   1      41.957  25.826  28.317  1.00  0.00     0.074 A 
ATOM     41  C   UNL A   1      44.316  25.096  28.315  1.00  0.00     0.049 A 
ATOM     42  N   UNL A   1      42.084  27.070  28.707  1.00  0.00    -0.248 NA
ATOM     43  C   UNL A   1      40.569  25.427  28.031  1.00  0.00     0.031 C 
ATOM     44  C   UNL A   1      45.454  24.200  28.098  1.00  0.00     0.029 A 
ATOM     45  N   UNL A   1      44.895  26.261  28.759  1.00  0.00    -0.354 N 
ATOM     46  C   UNL A   1      40.802  27.605  28.686  1.00  0.00     0.074 A 
ATOM     47  C   UNL A   1      39.920  26.569  28.198  1.00  0.00     0.031 C 
ATOM     48  C   UNL A   1      46.587  24.834  28.443  1.00  0.00     0.029 A 
ATOM     49  C   UNL A   1      46.264  26.192  28.866  1.00  0.00     0.049 A 
ATOM     50  H   UNL A   1      44.377  27.068  28.981  1.00  0.00     0.167 HD
ATOM     51  C   UNL A   1      40.390  28.839  29.062  1.00  0.00     0.031 A 
ATOM     52  C   UNL A   1      47.159  27.118  29.258  1.00  0.00     0.031 A 
ATOM     53  C   UNL A   1      41.261  29.864  29.571  1.00  0.00     0.049 A 
ATOM     54  C   UNL A   1      46.676  28.482  29.670  1.00  0.00     0.074 A 
ATOM     55  C   UNL A   1      40.928  31.121  30.045  1.00  0.00     0.029 A 
ATOM     56  N   UNL A   1      42.637  29.748  29.676  1.00  0.00    -0.354 N 
ATOM     57  N   UNL A   1      45.450  28.944  29.717  1.00  0.00    -0.248 NA
ATOM     58  C   UNL A   1      47.701  29.447  30.094  1.00  0.00     0.031 C 
ATOM     59  C   UNL A   1      42.109  31.784  30.389  1.00  0.00     0.029 A 
ATOM     60  C   UNL A   1      43.171  30.920  30.183  1.00  0.00     0.049 A 
ATOM     61  H   UNL A   1      43.159  28.950  29.427  1.00  0.00     0.167 HD
ATOM     62  C   UNL A   1      45.554  30.241  30.204  1.00  0.00     0.074 A 
ATOM     63  C   UNL A   1      46.960  30.486  30.451  1.00  0.00     0.031 C 
ATOM     64  C   UNL A   1      44.572  31.148  30.428  1.00  0.00     0.031 A 
BRANCH  51  65
ATOM     65  C   UNL A   1      38.924  29.147  28.929  1.00  0.00    -0.014 A 
ATOM     66  C   UNL A   1      38.391  29.650  27.731  1.00  0.00     0.009 A 
ATOM     67  C   UNL A   1      38.059  28.904  30.007  1.00  0.00     0.009 A 
ATOM     68  C   UNL A   1      37.030  29.940  27.628  1.00  0.00     0.001 A 
ATOM     69  C   UNL A   1      36.693  29.166  29.892  1.00  0.00     0.001 A 
ATOM     70  C   UNL A   1      36.181  29.695  28.707  1.00  0.00     0.000 A 
ENDBRANCH  51  65
BRANCH  52  71
ATOM     71  C   UNL A   1      48.609  26.789  29.307  1.00  0.00    -0.014 A 
ATOM     72  C   UNL A   1      49.408  26.933  28.162  1.00  0.00     0.009 A 
ATOM     73  C   UNL A   1      49.199  26.311  30.487  1.00  0.00     0.009 A 
ATOM     74  C   UNL A   1      50.759  26.577  28.189  1.00  0.00     0.001 A 
ATOM     75  C   UNL A   1      50.557  25.984  30.520  1.00  0.00     0.001 A 
ATOM     76  C   UNL A   1      51.333  26.107  29.368  1.00  0.00     0.000 A 
ENDBRANCH  52  71
BRANCH  64  77
ATOM     77  C   UNL A   1      44.976  32.475  31.006  1.00  0.00    -0.014 A 
ATOM     78  C   UNL A   1      45.205  33.589  30.184  1.00  0.00     0.009 A 
ATOM     79  C   UNL A   1      45.088  32.620  32.397  1.00  0.00     0.009 A 
ATOM     80  C   UNL A   1      45.566  34.816  30.745  1.00  0.00     0.001 A 
ATOM     81  C   UNL A   1      45.421  33.854  32.956  1.00  0.00     0.001 A 
ATOM     82  C   UNL A   1      45.668  34.948  32.129  1.00  0.00     0.000 A 
ENDBRANCH  64  77
ENDBRANCH  38  39
ENDBRANCH  30  33
ENDBRANCH  28  29
ENDBRANCH  27  28
ENDBRANCH  26  27
ENDBRANCH   1  26
TORSDOF 16
ENDMDL
MODEL 3
REMARK VINA RESULT:     -11.1      2.075      2.770
REMARK SMILES CC[C@@](C)([NH2+]CC(=O)Nc1ccc(Br)cc1F)C(=O)NCCCCNC(=O)c1ccc(-c2c3nc(c(-c4ccccc4)c4ccc([nH]4)c(-c4ccccc4)c4nc(c(-c5ccccc5)c5ccc2[nH]5)C=C4)C=C3)cc1
REMARK SMILES IDX 21 1 20 2 18 3 19 4 3 6 4 7 2 8 1 9 5 10 6 13 7 14 8 15 9 16
REMARK SMILES IDX 10 18 11 19 16 20 12 21 15 22 17 23 13 24 14 25 22 26 23 27
REMARK SMILES IDX 24 28 25 29 26 30 27 32 28 33 29 34 75 35 30 36 74 37 31 38
REMARK SMILES IDX 32 39 33 40 68 41 34 42 73 43 67 44 69 45 35 46 72 47 66 48
REMARK SMILES IDX 65 49 36 51 58 52 43 53 57 54 44 55 47 56 56 57 70 58 45 59
REMARK SMILES IDX 46 60 55 62 71 63 48 64 37 65 38 66 42 67 39 68 41 69 40 70
REMARK SMILES IDX 59 71 60 72 64 73 61 74 63 75 62 76 49 77 50 78 54 79 51 80
REMARK SMILES IDX 53 81 52 82
REMARK H PARENT 20 5 5 11 5 12 9 17 25 31 69 50 47 61
REMARK Flexibility Score: inf
ROOT
ATOM      1  C   UNL A   1      35.558  22.326  25.888  1.00  0.00     0.116 C 
ENDROOT
BRANCH   1   2
ATOM      2  N   UNL A   1      34.122  22.432  26.174  1.00  0.00    -0.351 N 
ATOM      3  C   UNL A   1      33.013  22.487  25.347  1.00  0.00     0.281 C 
ATOM      4  O   UNL A   1      32.236  21.542  25.551  1.00  0.00    -0.268 OA
ATOM      5  H   UNL A   1      33.908  22.472  27.135  1.00  0.00     0.163 HD
BRANCH   3   6
ATOM      6  C   UNL A   1      32.550  23.795  24.476  1.00  0.00     0.172 C 
ATOM      7  C   UNL A   1      31.188  24.226  23.854  1.00  0.00     0.090 C 
BRANCH   6   8
ATOM      8  C   UNL A   1      32.807  24.976  25.509  1.00  0.00     0.075 C 
ATOM      9  C   UNL A   1      31.584  25.348  26.399  1.00  0.00     0.011 C 
ENDBRANCH   6   8
BRANCH   6  10
ATOM     10  N   UNL A   1      33.448  23.821  23.316  1.00  0.00    -0.326 N 
ATOM     11  H   UNL A   1      33.868  22.895  23.231  1.00  0.00     0.347 HD
ATOM     12  H   UNL A   1      34.105  24.578  23.510  1.00  0.00     0.347 HD
BRANCH  10  13
ATOM     13  C   UNL A   1      32.852  24.162  22.001  1.00  0.00     0.363 C 
BRANCH  13  14
ATOM     14  C   UNL A   1      32.923  25.539  21.264  1.00  0.00     0.279 C 
ATOM     15  O   UNL A   1      33.089  25.473  20.028  1.00  0.00    -0.268 OA
ATOM     16  N   UNL A   1      32.642  26.820  21.677  1.00  0.00    -0.319 N 
ATOM     17  H   UNL A   1      32.462  27.388  20.893  1.00  0.00     0.170 HD
BRANCH  16  18
ATOM     18  C   UNL A   1      32.524  27.595  22.862  1.00  0.00     0.077 A 
ATOM     19  C   UNL A   1      33.712  27.865  23.556  1.00  0.00     0.030 A 
ATOM     20  C   UNL A   1      31.338  27.927  23.541  1.00  0.00     0.147 A 
ATOM     21  C   UNL A   1      33.713  28.632  24.734  1.00  0.00     0.018 A 
ATOM     22  C   UNL A   1      31.323  28.718  24.693  1.00  0.00     0.057 A 
ATOM     23  F   UNL A   1      30.143  27.462  23.169  1.00  0.00    -0.205 F 
ATOM     24  C   UNL A   1      32.518  29.102  25.268  1.00  0.00     0.021 A 
ATOM     25  Br  UNL A   1      32.512  30.225  26.784  1.00  0.00    -0.051 Br
ENDBRANCH  16  18
ENDBRANCH  13  14
ENDBRANCH  10  13
ENDBRANCH   6  10
ENDBRANCH   3   6
ENDBRANCH   1   2
BRANCH   1  26
ATOM     26  C   UNL A   1      35.943  21.173  24.950  1.00  0.00     0.023 C 
BRANCH  26  27
ATOM     27  C   UNL A   1      37.424  21.135  24.563  1.00  0.00     0.023 C 
BRANCH  27  28
ATOM     28  C   UNL A   1      38.432  21.024  25.707  1.00  0.00     0.116 C 
BRANCH  28  29
ATOM     29  N   UNL A   1      39.359  19.906  25.602  1.00  0.00    -0.352 N 
ATOM     30  C   UNL A   1      40.689  19.856  25.972  1.00  0.00     0.251 C 
ATOM     31  H   UNL A   1      38.991  19.077  25.218  1.00  0.00     0.163 HD
ATOM     32  O   UNL A   1      41.358  18.845  25.780  1.00  0.00    -0.269 OA
BRANCH  30  33
ATOM     33  C   UNL A   1      41.323  21.058  26.559  1.00  0.00     0.039 A 
ATOM     34  C   UNL A   1      41.930  21.989  25.711  1.00  0.00     0.014 A 
ATOM     35  C   UNL A   1      41.241  21.305  27.932  1.00  0.00     0.014 A 
ATOM     36  C   UNL A   1      42.357  23.216  26.226  1.00  0.00     0.010 A 
ATOM     37  C   UNL A   1      41.589  22.559  28.425  1.00  0.00     0.010 A 
ATOM     38  C   UNL A   1      42.138  23.535  27.577  1.00  0.00    -0.014 A 
BRANCH  38  39
ATOM     39  C   UNL A   1      42.457  24.883  28.119  1.00  0.00     0.031 A 
ATOM     40  C   UNL A   1      43.859  25.211  28.554  1.00  0.00     0.074 A 
ATOM     41  C   UNL A   1      41.471  25.788  28.294  1.00  0.00     0.049 A 
ATOM     42  N   UNL A   1      44.317  26.303  29.113  1.00  0.00    -0.248 NA
ATOM     43  C   UNL A   1      44.875  24.164  28.363  1.00  0.00     0.031 C 
ATOM     44  C   UNL A   1      40.059  25.584  27.962  1.00  0.00     0.029 A 
ATOM     45  N   UNL A   1      41.509  27.064  28.803  1.00  0.00    -0.354 N 
ATOM     46  C   UNL A   1      45.662  26.064  29.363  1.00  0.00     0.074 A 
ATOM     47  C   UNL A   1      45.934  24.707  28.943  1.00  0.00     0.031 C 
ATOM     48  C   UNL A   1      39.374  26.706  28.242  1.00  0.00     0.029 A 
ATOM     49  C   UNL A   1      40.286  27.692  28.810  1.00  0.00     0.049 A 
ATOM     50  H   UNL A   1      42.335  27.488  29.130  1.00  0.00     0.167 HD
ATOM     51  C   UNL A   1      46.595  26.902  29.874  1.00  0.00     0.031 A 
ATOM     52  C   UNL A   1      39.937  28.924  29.229  1.00  0.00     0.031 A 
ATOM     53  C   UNL A   1      46.333  28.259  30.269  1.00  0.00     0.049 A 
ATOM     54  C   UNL A   1      40.992  29.837  29.793  1.00  0.00     0.074 A 
ATOM     55  C   UNL A   1      47.227  29.210  30.732  1.00  0.00     0.029 A 
ATOM     56  N   UNL A   1      45.084  28.860  30.247  1.00  0.00    -0.354 N 
ATOM     57  N   UNL A   1      42.274  29.618  29.950  1.00  0.00    -0.248 NA
ATOM     58  C   UNL A   1      40.550  31.170  30.226  1.00  0.00     0.031 C 
ATOM     59  C   UNL A   1      46.510  30.371  31.036  1.00  0.00     0.029 A 
ATOM     60  C   UNL A   1      45.180  30.161  30.711  1.00  0.00     0.049 A 
ATOM     61  H   UNL A   1      44.253  28.427  29.946  1.00  0.00     0.167 HD
ATOM     62  C   UNL A   1      42.797  30.796  30.471  1.00  0.00     0.074 A 
ATOM     63  C   UNL A   1      41.696  31.728  30.588  1.00  0.00     0.031 C 
ATOM     64  C   UNL A   1      44.076  31.080  30.818  1.00  0.00     0.031 A 
BRANCH  51  65
ATOM     65  C   UNL A   1      47.990  26.366  30.036  1.00  0.00    -0.014 A 
ATOM     66  C   UNL A   1      48.922  26.431  28.987  1.00  0.00     0.009 A 
ATOM     67  C   UNL A   1      48.388  25.818  31.265  1.00  0.00     0.009 A 
ATOM     68  C   UNL A   1      50.210  25.919  29.152  1.00  0.00     0.001 A 
ATOM     69  C   UNL A   1      49.687  25.335  31.437  1.00  0.00     0.001 A 
ATOM     70  C   UNL A   1      50.593  25.375  30.377  1.00  0.00     0.000 A 
ENDBRANCH  51  65
BRANCH  52  71
ATOM     71  C   UNL A   1      38.528  29.386  29.112  1.00  0.00    -0.014 A 
ATOM     72  C   UNL A   1      38.069  29.965  27.918  1.00  0.00     0.009 A 
ATOM     73  C   UNL A   1      37.641  29.271  30.193  1.00  0.00     0.009 A 
ATOM     74  C   UNL A   1      36.760  30.445  27.819  1.00  0.00     0.001 A 
ATOM     75  C   UNL A   1      36.324  29.726  30.082  1.00  0.00     0.001 A 
ATOM     76  C   UNL A   1      35.888  30.323  28.900  1.00  0.00     0.000 A 
ENDBRANCH  52  71
BRANCH  64  77
ATOM     77  C   UNL A   1      44.363  32.466  31.322  1.00  0.00    -0.014 A 
ATOM     78  C   UNL A   1      44.353  32.761  32.693  1.00  0.00     0.009 A 
ATOM     79  C   UNL A   1      44.690  33.480  30.409  1.00  0.00     0.009 A 
ATOM     80  C   UNL A   1      44.637  34.053  33.138  1.00  0.00     0.001 A 
ATOM     81  C   UNL A   1      45.001  34.764  30.858  1.00  0.00     0.001 A 
ATOM     82  C   UNL A   1      44.966  35.051  32.221  1.00  0.00     0.000 A 
ENDBRANCH  64  77
ENDBRANCH  38  39
ENDBRANCH  30  33
ENDBRANCH  28  29
ENDBRANCH  27  28
ENDBRANCH  26  27
ENDBRANCH   1  26
TORSDOF 16
ENDMDL
