MODEL 1
REMARK VINA RESULT:     -11.0      0.000      0.000
REMARK SMILES COc1ccc2cc([C@H](C)C(=O)NCCCCNC(=O)c3ccc(-c4c5nc(c(-c6ccccc6)c6ccc([nH]6)c(-c6ccccc6)c6nc(c(-c7ccccc7)c7ccc4[nH]7)C=C6)C=C5)cc3)ccc2c1
REMARK SMILES IDX 15 1 14 2 13 3 11 4 12 5 9 7 10 8 8 9 3 10 4 11 72 12 5 13
REMARK SMILES IDX 71 14 6 15 70 16 7 17 69 18 2 19 1 20 16 21 17 22 18 23
REMARK SMILES IDX 19 24 20 26 21 27 22 28 68 29 23 30 67 31 24 32 25 33 26 34
REMARK SMILES IDX 61 35 27 36 66 37 60 38 62 39 28 40 65 41 59 42 58 43 29 45
REMARK SMILES IDX 51 46 36 47 50 48 37 49 40 50 49 51 63 52 38 53 39 54 48 56
REMARK SMILES IDX 64 57 41 58 30 59 31 60 35 61 32 62 34 63 33 64 52 65 53 66
REMARK SMILES IDX 57 67 54 68 56 69 55 70 42 71 43 72 47 73 44 74 46 75 45 76
REMARK H PARENT 13 6 18 25 62 44 40 55
REMARK Flexibility Score: inf
ROOT
ATOM      1  C   UNL A   1      38.756  22.733  26.299  1.00  0.00     0.023 C 
ENDROOT
BRANCH   1   2
ATOM      2  C   UNL A   1      37.653  23.606  25.715  1.00  0.00     0.116 C 
BRANCH   2   3
ATOM      3  N   UNL A   1      37.389  23.298  24.322  1.00  0.00    -0.356 N 
ATOM      4  C   UNL A   1      36.199  23.242  23.654  1.00  0.00     0.227 C 
ATOM      5  O   UNL A   1      36.235  23.033  22.437  1.00  0.00    -0.274 OA
ATOM      6  H   UNL A   1      38.185  23.099  23.779  1.00  0.00     0.163 HD
BRANCH   4   7
ATOM      7  C   UNL A   1      34.853  23.434  24.379  1.00  0.00     0.105 C 
ATOM      8  C   UNL A   1      33.998  24.446  23.609  1.00  0.00     0.023 C 
BRANCH   7   9
ATOM      9  C   UNL A   1      34.229  22.086  24.731  1.00  0.00    -0.035 A 
ATOM     10  C   UNL A   1      33.488  17.077  24.506  1.00  0.00     0.119 A 
ATOM     11  C   UNL A   1      34.868  17.254  24.551  1.00  0.00     0.047 A 
ATOM     12  C   UNL A   1      32.639  18.180  24.611  1.00  0.00     0.055 A 
ATOM     13  C   UNL A   1      35.399  18.540  24.682  1.00  0.00     0.012 A 
ATOM     14  C   UNL A   1      33.157  19.476  24.757  1.00  0.00    -0.015 A 
ATOM     15  C   UNL A   1      34.555  19.658  24.758  1.00  0.00    -0.018 A 
ATOM     16  C   UNL A   1      32.321  20.596  24.870  1.00  0.00     0.009 A 
ATOM     17  C   UNL A   1      35.074  20.961  24.762  1.00  0.00     0.013 A 
ATOM     18  C   UNL A   1      32.852  21.888  24.881  1.00  0.00     0.005 A 
BRANCH  10  19
ATOM     19  O   UNL A   1      32.875  15.875  24.279  1.00  0.00    -0.497 OA
ATOM     20  C   UNL A   1      32.652  15.101  25.452  1.00  0.00     0.278 C 
ENDBRANCH  10  19
ENDBRANCH   7   9
ENDBRANCH   4   7
ENDBRANCH   2   3
ENDBRANCH   1   2
BRANCH   1  21
ATOM     21  C   UNL A   1      38.958  21.405  25.579  1.00  0.00     0.023 C 
BRANCH  21  22
ATOM     22  C   UNL A   1      39.374  20.243  26.475  1.00  0.00     0.116 C 
BRANCH  22  23
ATOM     23  N   UNL A   1      40.496  19.481  25.946  1.00  0.00    -0.352 N 
ATOM     24  C   UNL A   1      41.818  19.845  25.847  1.00  0.00     0.251 C 
ATOM     25  H   UNL A   1      40.279  18.580  25.613  1.00  0.00     0.163 HD
ATOM     26  O   UNL A   1      42.622  19.129  25.258  1.00  0.00    -0.269 OA
BRANCH  24  27
ATOM     27  C   UNL A   1      42.257  21.130  26.428  1.00  0.00     0.039 A 
ATOM     28  C   UNL A   1      42.642  22.164  25.571  1.00  0.00     0.014 A 
ATOM     29  C   UNL A   1      42.238  21.324  27.810  1.00  0.00     0.014 A 
ATOM     30  C   UNL A   1      42.930  23.422  26.101  1.00  0.00     0.010 A 
ATOM     31  C   UNL A   1      42.444  22.598  28.327  1.00  0.00     0.010 A 
ATOM     32  C   UNL A   1      42.791  23.659  27.479  1.00  0.00    -0.014 A 
BRANCH  32  33
ATOM     33  C   UNL A   1      43.004  25.009  28.055  1.00  0.00     0.031 A 
ATOM     34  C   UNL A   1      44.376  25.430  28.504  1.00  0.00     0.074 A 
ATOM     35  C   UNL A   1      41.953  25.833  28.237  1.00  0.00     0.049 A 
ATOM     36  N   UNL A   1      44.750  26.544  29.080  1.00  0.00    -0.248 NA
ATOM     37  C   UNL A   1      45.462  24.458  28.305  1.00  0.00     0.031 C 
ATOM     38  C   UNL A   1      40.566  25.532  27.879  1.00  0.00     0.029 A 
ATOM     39  N   UNL A   1      41.892  27.093  28.775  1.00  0.00    -0.354 N 
ATOM     40  C   UNL A   1      46.111  26.399  29.324  1.00  0.00     0.074 A 
ATOM     41  C   UNL A   1      46.479  25.070  28.891  1.00  0.00     0.031 C 
ATOM     42  C   UNL A   1      39.798  26.595  28.168  1.00  0.00     0.029 A 
ATOM     43  C   UNL A   1      40.629  27.632  28.771  1.00  0.00     0.049 A 
ATOM     44  H   UNL A   1      42.679  27.568  29.130  1.00  0.00     0.167 HD
ATOM     45  C   UNL A   1      46.981  27.298  29.842  1.00  0.00     0.031 A 
ATOM     46  C   UNL A   1      40.189  28.829  29.201  1.00  0.00     0.031 A 
ATOM     47  C   UNL A   1      46.616  28.621  30.272  1.00  0.00     0.049 A 
ATOM     48  C   UNL A   1      41.166  29.799  29.802  1.00  0.00     0.074 A 
ATOM     49  C   UNL A   1      47.432  29.625  30.764  1.00  0.00     0.029 A 
ATOM     50  N   UNL A   1      45.324  29.122  30.265  1.00  0.00    -0.354 N 
ATOM     51  N   UNL A   1      42.460  29.672  29.971  1.00  0.00    -0.248 NA
ATOM     52  C   UNL A   1      40.620  31.082  30.266  1.00  0.00     0.031 C 
ATOM     53  C   UNL A   1      46.624  30.717  31.102  1.00  0.00     0.029 A 
ATOM     54  C   UNL A   1      45.314  30.412  30.768  1.00  0.00     0.049 A 
ATOM     55  H   UNL A   1      44.529  28.633  29.950  1.00  0.00     0.167 HD
ATOM     56  C   UNL A   1      42.888  30.868  30.532  1.00  0.00     0.074 A 
ATOM     57  C   UNL A   1      41.717  31.711  30.665  1.00  0.00     0.031 C 
ATOM     58  C   UNL A   1      44.140  31.236  30.899  1.00  0.00     0.031 A 
BRANCH  45  59
ATOM     59  C   UNL A   1      48.414  26.859  29.977  1.00  0.00    -0.014 A 
ATOM     60  C   UNL A   1      49.341  27.071  28.942  1.00  0.00     0.009 A 
ATOM     61  C   UNL A   1      48.842  26.221  31.150  1.00  0.00     0.009 A 
ATOM     62  C   UNL A   1      50.651  26.605  29.059  1.00  0.00     0.001 A 
ATOM     63  C   UNL A   1      50.163  25.786  31.278  1.00  0.00     0.001 A 
ATOM     64  C   UNL A   1      51.062  25.965  30.227  1.00  0.00     0.000 A 
ENDBRANCH  45  59
BRANCH  46  65
ATOM     65  C   UNL A   1      38.757  29.193  29.043  1.00  0.00    -0.014 A 
ATOM     66  C   UNL A   1      37.867  29.030  30.117  1.00  0.00     0.009 A 
ATOM     67  C   UNL A   1      38.274  29.711  27.832  1.00  0.00     0.009 A 
ATOM     68  C   UNL A   1      36.518  29.362  29.975  1.00  0.00     0.001 A 
ATOM     69  C   UNL A   1      36.929  30.065  27.702  1.00  0.00     0.001 A 
ATOM     70  C   UNL A   1      36.052  29.883  28.769  1.00  0.00     0.000 A 
ENDBRANCH  46  65
BRANCH  58  71
ATOM     71  C   UNL A   1      44.312  32.624  31.450  1.00  0.00    -0.014 A 
ATOM     72  C   UNL A   1      44.247  32.877  32.828  1.00  0.00     0.009 A 
ATOM     73  C   UNL A   1      44.582  33.688  30.575  1.00  0.00     0.009 A 
ATOM     74  C   UNL A   1      44.416  34.174  33.316  1.00  0.00     0.001 A 
ATOM     75  C   UNL A   1      44.779  34.979  31.067  1.00  0.00     0.001 A 
ATOM     76  C   UNL A   1      44.687  35.222  32.436  1.00  0.00     0.000 A 
ENDBRANCH  58  71
ENDBRANCH  32  33
ENDBRANCH  24  27
ENDBRANCH  22  23
ENDBRANCH  21  22
ENDBRANCH   1  21
TORSDOF 13
ENDMDL
MODEL 2
REMARK VINA RESULT:     -11.0      2.078      4.107
REMARK SMILES COc1ccc2cc([C@H](C)C(=O)NCCCCNC(=O)c3ccc(-c4c5nc(c(-c6ccccc6)c6ccc([nH]6)c(-c6ccccc6)c6nc(c(-c7ccccc7)c7ccc4[nH]7)C=C6)C=C5)cc3)ccc2c1
REMARK SMILES IDX 15 1 14 2 13 3 11 4 12 5 9 7 10 8 8 9 3 10 4 11 72 12 5 13
REMARK SMILES IDX 71 14 6 15 70 16 7 17 69 18 2 19 1 20 16 21 17 22 18 23
REMARK SMILES IDX 19 24 20 26 21 27 22 28 68 29 23 30 67 31 24 32 25 33 26 34
REMARK SMILES IDX 61 35 27 36 66 37 60 38 62 39 28 40 65 41 59 42 58 43 29 45
REMARK SMILES IDX 51 46 36 47 50 48 37 49 40 50 49 51 63 52 38 53 39 54 48 56
REMARK SMILES IDX 64 57 41 58 30 59 31 60 35 61 32 62 34 63 33 64 52 65 53 66
REMARK SMILES IDX 57 67 54 68 56 69 55 70 42 71 43 72 47 73 44 74 46 75 45 76
REMARK H PARENT 13 6 18 25 62 44 40 55
REMARK Flexibility Score: inf
ROOT
ATOM      1  C   UNL A   1      36.375  20.709  25.032  1.00  0.00     0.023 C 
ENDROOT
BRANCH   1   2
ATOM      2  C   UNL A   1      36.312  22.016  25.811  1.00  0.00     0.116 C 
BRANCH   2   3
ATOM      3  N   UNL A   1      35.372  21.952  26.914  1.00  0.00    -0.356 N 
ATOM      4  C   UNL A   1      34.007  22.014  26.898  1.00  0.00     0.227 C 
ATOM      5  O   UNL A   1      33.415  21.857  27.972  1.00  0.00    -0.274 OA
ATOM      6  H   UNL A   1      35.777  21.849  27.805  1.00  0.00     0.163 HD
BRANCH   4   7
ATOM      7  C   UNL A   1      33.222  22.269  25.597  1.00  0.00     0.105 C 
ATOM      8  C   UNL A   1      32.291  21.084  25.323  1.00  0.00     0.023 C 
BRANCH   7   9
ATOM      9  C   UNL A   1      32.623  23.673  25.591  1.00  0.00    -0.035 A 
ATOM     10  C   UNL A   1      32.271  28.610  26.681  1.00  0.00     0.119 A 
ATOM     11  C   UNL A   1      33.592  28.400  26.295  1.00  0.00     0.047 A 
ATOM     12  C   UNL A   1      31.352  27.561  26.622  1.00  0.00     0.055 A 
ATOM     13  C   UNL A   1      33.997  27.134  25.865  1.00  0.00     0.012 A 
ATOM     14  C   UNL A   1      31.740  26.288  26.179  1.00  0.00    -0.015 A 
ATOM     15  C   UNL A   1      33.088  26.066  25.831  1.00  0.00    -0.018 A 
ATOM     16  C   UNL A   1      30.830  25.223  26.107  1.00  0.00     0.009 A 
ATOM     17  C   UNL A   1      33.509  24.764  25.524  1.00  0.00     0.013 A 
ATOM     18  C   UNL A   1      31.263  23.932  25.793  1.00  0.00     0.005 A 
BRANCH  10  19
ATOM     19  O   UNL A   1      31.802  29.782  27.209  1.00  0.00    -0.497 OA
ATOM     20  C   UNL A   1      32.697  30.881  27.083  1.00  0.00     0.278 C 
ENDBRANCH  10  19
ENDBRANCH   7   9
ENDBRANCH   4   7
ENDBRANCH   2   3
ENDBRANCH   1   2
BRANCH   1  21
ATOM     21  C   UNL A   1      37.785  20.265  24.657  1.00  0.00     0.023 C 
BRANCH  21  22
ATOM     22  C   UNL A   1      38.838  20.483  25.737  1.00  0.00     0.116 C 
BRANCH  22  23
ATOM     23  N   UNL A   1      39.869  19.455  25.753  1.00  0.00    -0.352 N 
ATOM     24  C   UNL A   1      41.197  19.569  26.089  1.00  0.00     0.251 C 
ATOM     25  H   UNL A   1      39.575  18.554  25.486  1.00  0.00     0.163 HD
ATOM     26  O   UNL A   1      41.966  18.627  25.929  1.00  0.00    -0.269 OA
BRANCH  24  27
ATOM     27  C   UNL A   1      41.701  20.855  26.614  1.00  0.00     0.039 A 
ATOM     28  C   UNL A   1      42.186  21.809  25.717  1.00  0.00     0.014 A 
ATOM     29  C   UNL A   1      41.642  21.132  27.981  1.00  0.00     0.014 A 
ATOM     30  C   UNL A   1      42.540  23.075  26.186  1.00  0.00     0.010 A 
ATOM     31  C   UNL A   1      41.915  22.417  28.433  1.00  0.00     0.010 A 
ATOM     32  C   UNL A   1      42.365  23.402  27.541  1.00  0.00    -0.014 A 
BRANCH  32  33
ATOM     33  C   UNL A   1      42.648  24.766  28.048  1.00  0.00     0.031 A 
ATOM     34  C   UNL A   1      44.050  25.155  28.427  1.00  0.00     0.074 A 
ATOM     35  C   UNL A   1      41.635  25.635  28.233  1.00  0.00     0.049 A 
ATOM     36  N   UNL A   1      44.485  26.279  28.938  1.00  0.00    -0.248 NA
ATOM     37  C   UNL A   1      45.092  24.137  28.230  1.00  0.00     0.031 C 
ATOM     38  C   UNL A   1      40.224  25.370  27.940  1.00  0.00     0.029 A 
ATOM     39  N   UNL A   1      41.638  26.919  28.715  1.00  0.00    -0.354 N 
ATOM     40  C   UNL A   1      45.848  26.094  29.138  1.00  0.00     0.074 A 
ATOM     41  C   UNL A   1      46.153  24.735  28.751  1.00  0.00     0.031 C 
ATOM     42  C   UNL A   1      39.506  26.472  28.210  1.00  0.00     0.029 A 
ATOM     43  C   UNL A   1      40.395  27.503  28.734  1.00  0.00     0.049 A 
ATOM     44  H   UNL A   1      42.455  27.379  29.019  1.00  0.00     0.167 HD
ATOM     45  C   UNL A   1      46.769  26.982  29.582  1.00  0.00     0.031 A 
ATOM     46  C   UNL A   1      40.015  28.733  29.127  1.00  0.00     0.031 A 
ATOM     47  C   UNL A   1      46.468  28.336  29.965  1.00  0.00     0.049 A 
ATOM     48  C   UNL A   1      41.048  29.691  29.647  1.00  0.00     0.074 A 
ATOM     49  C   UNL A   1      47.337  29.329  30.382  1.00  0.00     0.029 A 
ATOM     50  N   UNL A   1      45.194  28.883  29.984  1.00  0.00    -0.354 N 
ATOM     51  N   UNL A   1      42.342  29.524  29.774  1.00  0.00    -0.248 NA
ATOM     52  C   UNL A   1      40.566  31.013  30.073  1.00  0.00     0.031 C 
ATOM     53  C   UNL A   1      46.581  30.464  30.701  1.00  0.00     0.029 A 
ATOM     54  C   UNL A   1      45.249  30.193  30.429  1.00  0.00     0.049 A 
ATOM     55  H   UNL A   1      44.372  28.410  29.721  1.00  0.00     0.167 HD
ATOM     56  C   UNL A   1      42.833  30.727  30.264  1.00  0.00     0.074 A 
ATOM     57  C   UNL A   1      41.699  31.617  30.403  1.00  0.00     0.031 C 
ATOM     58  C   UNL A   1      44.111  31.064  30.568  1.00  0.00     0.031 A 
BRANCH  45  59
ATOM     59  C   UNL A   1      48.189  26.498  29.683  1.00  0.00    -0.014 A 
ATOM     60  C   UNL A   1      48.649  25.825  30.827  1.00  0.00     0.009 A 
ATOM     61  C   UNL A   1      49.082  26.722  28.624  1.00  0.00     0.009 A 
ATOM     62  C   UNL A   1      49.985  25.434  30.931  1.00  0.00     0.001 A 
ATOM     63  C   UNL A   1      50.410  26.301  28.717  1.00  0.00     0.001 A 
ATOM     64  C   UNL A   1      50.864  25.670  29.875  1.00  0.00     0.000 A 
ENDBRANCH  45  59
BRANCH  46  65
ATOM     65  C   UNL A   1      38.591  29.142  29.007  1.00  0.00    -0.014 A 
ATOM     66  C   UNL A   1      38.103  29.639  27.789  1.00  0.00     0.009 A 
ATOM     67  C   UNL A   1      37.715  29.030  30.096  1.00  0.00     0.009 A 
ATOM     68  C   UNL A   1      36.768  30.034  27.669  1.00  0.00     0.001 A 
ATOM     69  C   UNL A   1      36.374  29.401  29.965  1.00  0.00     0.001 A 
ATOM     70  C   UNL A   1      35.905  29.910  28.756  1.00  0.00     0.000 A 
ENDBRANCH  46  65
BRANCH  58  71
ATOM     71  C   UNL A   1      44.353  32.467  31.049  1.00  0.00    -0.014 A 
ATOM     72  C   UNL A   1      44.344  32.783  32.416  1.00  0.00     0.009 A 
ATOM     73  C   UNL A   1      44.631  33.481  30.118  1.00  0.00     0.009 A 
ATOM     74  C   UNL A   1      44.578  34.093  32.839  1.00  0.00     0.001 A 
ATOM     75  C   UNL A   1      44.892  34.784  30.545  1.00  0.00     0.001 A 
ATOM     76  C   UNL A   1      44.856  35.090  31.904  1.00  0.00     0.000 A 
ENDBRANCH  58  71
ENDBRANCH  32  33
ENDBRANCH  24  27
ENDBRANCH  22  23
ENDBRANCH  21  22
ENDBRANCH   1  21
TORSDOF 13
ENDMDL
MODEL 3
REMARK VINA RESULT:     -10.9      1.064      6.217
REMARK SMILES COc1ccc2cc([C@H](C)C(=O)NCCCCNC(=O)c3ccc(-c4c5nc(c(-c6ccccc6)c6ccc([nH]6)c(-c6ccccc6)c6nc(c(-c7ccccc7)c7ccc4[nH]7)C=C6)C=C5)cc3)ccc2c1
REMARK SMILES IDX 15 1 14 2 13 3 11 4 12 5 9 7 10 8 8 9 3 10 4 11 72 12 5 13
REMARK SMILES IDX 71 14 6 15 70 16 7 17 69 18 2 19 1 20 16 21 17 22 18 23
REMARK SMILES IDX 19 24 20 26 21 27 22 28 68 29 23 30 67 31 24 32 25 33 26 34
REMARK SMILES IDX 61 35 27 36 66 37 60 38 62 39 28 40 65 41 59 42 58 43 29 45
REMARK SMILES IDX 51 46 36 47 50 48 37 49 40 50 49 51 63 52 38 53 39 54 48 56
REMARK SMILES IDX 64 57 41 58 30 59 31 60 35 61 32 62 34 63 33 64 52 65 53 66
REMARK SMILES IDX 57 67 54 68 56 69 55 70 42 71 43 72 47 73 44 74 46 75 45 76
REMARK H PARENT 13 6 18 25 62 44 40 55
REMARK Flexibility Score: inf
ROOT
ATOM      1  C   UNL A   1      36.978  22.328  23.958  1.00  0.00     0.023 C 
ENDROOT
BRANCH   1   2
ATOM      2  C   UNL A   1      35.550  22.809  24.184  1.00  0.00     0.116 C 
BRANCH   2   3
ATOM      3  N   UNL A   1      34.984  23.425  22.999  1.00  0.00    -0.356 N 
ATOM      4  C   UNL A   1      33.680  23.700  22.700  1.00  0.00     0.227 C 
ATOM      5  O   UNL A   1      33.450  24.308  21.649  1.00  0.00    -0.274 OA
ATOM      6  H   UNL A   1      35.637  23.685  22.310  1.00  0.00     0.163 HD
BRANCH   4   7
ATOM      7  C   UNL A   1      32.528  23.273  23.629  1.00  0.00     0.105 C 
ATOM      8  C   UNL A   1      31.335  24.212  23.428  1.00  0.00     0.023 C 
BRANCH   7   9
ATOM      9  C   UNL A   1      32.284  21.769  23.537  1.00  0.00    -0.035 A 
ATOM     10  C   UNL A   1      32.972  16.851  24.552  1.00  0.00     0.119 A 
ATOM     11  C   UNL A   1      32.969  17.496  25.785  1.00  0.00     0.047 A 
ATOM     12  C   UNL A   1      32.723  17.575  23.385  1.00  0.00     0.055 A 
ATOM     13  C   UNL A   1      32.734  18.871  25.849  1.00  0.00     0.012 A 
ATOM     14  C   UNL A   1      32.471  18.955  23.434  1.00  0.00    -0.015 A 
ATOM     15  C   UNL A   1      32.512  19.614  24.680  1.00  0.00    -0.018 A 
ATOM     16  C   UNL A   1      32.213  19.699  22.274  1.00  0.00     0.009 A 
ATOM     17  C   UNL A   1      32.401  21.012  24.717  1.00  0.00     0.013 A 
ATOM     18  C   UNL A   1      32.097  21.090  22.327  1.00  0.00     0.005 A 
BRANCH  10  19
ATOM     19  O   UNL A   1      33.291  15.532  24.375  1.00  0.00    -0.497 OA
ATOM     20  C   UNL A   1      32.873  14.682  25.438  1.00  0.00     0.278 C 
ENDBRANCH  10  19
ENDBRANCH   7   9
ENDBRANCH   4   7
ENDBRANCH   2   3
ENDBRANCH   1   2
BRANCH   1  21
ATOM     21  C   UNL A   1      37.300  20.983  24.598  1.00  0.00     0.023 C 
BRANCH  21  22
ATOM     22  C   UNL A   1      38.356  21.028  25.697  1.00  0.00     0.116 C 
BRANCH  22  23
ATOM     23  N   UNL A   1      39.289  19.911  25.646  1.00  0.00    -0.352 N 
ATOM     24  C   UNL A   1      40.624  19.886  25.973  1.00  0.00     0.251 C 
ATOM     25  H   UNL A   1      38.913  19.057  25.334  1.00  0.00     0.163 HD
ATOM     26  O   UNL A   1      41.303  18.888  25.754  1.00  0.00    -0.269 OA
BRANCH  24  27
ATOM     27  C   UNL A   1      41.245  21.090  26.561  1.00  0.00     0.039 A 
ATOM     28  C   UNL A   1      41.826  22.035  25.713  1.00  0.00     0.014 A 
ATOM     29  C   UNL A   1      41.206  21.304  27.941  1.00  0.00     0.014 A 
ATOM     30  C   UNL A   1      42.297  23.237  26.245  1.00  0.00     0.010 A 
ATOM     31  C   UNL A   1      41.598  22.533  28.456  1.00  0.00     0.010 A 
ATOM     32  C   UNL A   1      42.146  23.512  27.614  1.00  0.00    -0.014 A 
BRANCH  32  33
ATOM     33  C   UNL A   1      42.555  24.817  28.188  1.00  0.00     0.031 A 
ATOM     34  C   UNL A   1      41.537  25.904  28.393  1.00  0.00     0.074 A 
ATOM     35  C   UNL A   1      43.853  25.049  28.465  1.00  0.00     0.049 A 
ATOM     36  N   UNL A   1      41.710  27.125  28.830  1.00  0.00    -0.248 NA
ATOM     37  C   UNL A   1      40.148  25.583  28.031  1.00  0.00     0.031 C 
ATOM     38  C   UNL A   1      44.946  24.092  28.279  1.00  0.00     0.029 A 
ATOM     39  N   UNL A   1      44.472  26.168  28.960  1.00  0.00    -0.354 N 
ATOM     40  C   UNL A   1      40.455  27.721  28.780  1.00  0.00     0.074 A 
ATOM     41  C   UNL A   1      39.547  26.748  28.215  1.00  0.00     0.031 C 
ATOM     42  C   UNL A   1      46.094  24.651  28.694  1.00  0.00     0.029 A 
ATOM     43  C   UNL A   1      45.827  26.017  29.133  1.00  0.00     0.049 A 
ATOM     44  H   UNL A   1      43.992  27.002  29.172  1.00  0.00     0.167 HD
ATOM     45  C   UNL A   1      40.085  28.958  29.189  1.00  0.00     0.031 A 
ATOM     46  C   UNL A   1      46.749  26.880  29.597  1.00  0.00     0.031 A 
ATOM     47  C   UNL A   1      40.987  29.926  29.753  1.00  0.00     0.049 A 
ATOM     48  C   UNL A   1      46.322  28.259  30.014  1.00  0.00     0.074 A 
ATOM     49  C   UNL A   1      40.702  31.189  30.243  1.00  0.00     0.029 A 
ATOM     50  N   UNL A   1      42.353  29.738  29.897  1.00  0.00    -0.354 N 
ATOM     51  N   UNL A   1      45.123  28.787  30.018  1.00  0.00    -0.248 NA
ATOM     52  C   UNL A   1      47.380  29.158  30.497  1.00  0.00     0.031 C 
ATOM     53  C   UNL A   1      41.906  31.785  30.638  1.00  0.00     0.029 A 
ATOM     54  C   UNL A   1      42.930  30.871  30.445  1.00  0.00     0.049 A 
ATOM     55  H   UNL A   1      42.841  28.921  29.646  1.00  0.00     0.167 HD
ATOM     56  C   UNL A   1      45.275  30.068  30.532  1.00  0.00     0.074 A 
ATOM     57  C   UNL A   1      46.682  30.233  30.837  1.00  0.00     0.031 C 
ATOM     58  C   UNL A   1      44.333  31.022  30.737  1.00  0.00     0.031 A 
BRANCH  45  59
ATOM     59  C   UNL A   1      38.636  29.326  29.022  1.00  0.00    -0.014 A 
ATOM     60  C   UNL A   1      37.732  29.230  30.094  1.00  0.00     0.009 A 
ATOM     61  C   UNL A   1      38.166  29.768  27.777  1.00  0.00     0.009 A 
ATOM     62  C   UNL A   1      36.380  29.518  29.908  1.00  0.00     0.001 A 
ATOM     63  C   UNL A   1      36.818  30.088  27.602  1.00  0.00     0.001 A 
ATOM     64  C   UNL A   1      35.923  29.949  28.663  1.00  0.00     0.000 A 
ENDBRANCH  45  59
BRANCH  46  65
ATOM     65  C   UNL A   1      48.166  26.451  29.727  1.00  0.00    -0.014 A 
ATOM     66  C   UNL A   1      49.066  26.667  28.673  1.00  0.00     0.009 A 
ATOM     67  C   UNL A   1      48.627  25.837  30.901  1.00  0.00     0.009 A 
ATOM     68  C   UNL A   1      50.398  26.260  28.784  1.00  0.00     0.001 A 
ATOM     69  C   UNL A   1      49.966  25.454  31.018  1.00  0.00     0.001 A 
ATOM     70  C   UNL A   1      50.847  25.658  29.958  1.00  0.00     0.000 A 
ENDBRANCH  46  65
BRANCH  58  71
ATOM     71  C   UNL A   1      44.789  32.316  31.350  1.00  0.00    -0.014 A 
ATOM     72  C   UNL A   1      45.195  33.398  30.554  1.00  0.00     0.009 A 
ATOM     73  C   UNL A   1      44.776  32.464  32.745  1.00  0.00     0.009 A 
ATOM     74  C   UNL A   1      45.609  34.593  31.147  1.00  0.00     0.001 A 
ATOM     75  C   UNL A   1      45.164  33.669  33.335  1.00  0.00     0.001 A 
ATOM     76  C   UNL A   1      45.588  34.728  32.535  1.00  0.00     0.000 A 
ENDBRANCH  58  71
ENDBRANCH  32  33
ENDBRANCH  24  27
ENDBRANCH  22  23
ENDBRANCH  21  22
ENDBRANCH   1  21
TORSDOF 13
ENDMDL
