MODEL 1
REMARK VINA RESULT:     -11.0      0.000      0.000
REMARK SMILES O=C(Cc1ccccc1-c1ccn(C(F)F)c(=O)c1)NCCCCNC(=O)c1ccc(-c2c3nc(c(-c4ccccc4)c4ccc([nH]4)c(-c4ccccc4)c4nc(c(-c5ccccc5)c5ccc2[nH]5)C=C4)C=C3)cc1
REMARK SMILES IDX 22 1 21 2 20 3 1 4 2 5 3 7 4 8 5 9 9 10 6 11 8 12 7 13 10 14
REMARK SMILES IDX 11 15 19 16 12 17 17 18 13 19 18 20 14 21 15 22 16 23 23 24
REMARK SMILES IDX 24 25 25 26 26 27 27 29 28 30 29 31 75 32 30 33 74 34 31 35
REMARK SMILES IDX 32 36 33 37 68 38 34 39 73 40 67 41 69 42 35 43 72 44 66 45
REMARK SMILES IDX 65 46 36 48 58 49 43 50 57 51 44 52 47 53 56 54 70 55 45 56
REMARK SMILES IDX 46 57 55 59 71 60 48 61 37 62 38 63 42 64 39 65 41 66 40 67
REMARK SMILES IDX 59 68 60 69 64 70 61 71 63 72 62 73 49 74 50 75 54 76 51 77
REMARK SMILES IDX 53 78 52 79
REMARK H PARENT 20 6 25 28 69 47 47 58
REMARK Flexibility Score: inf
ROOT
ATOM      1  C   UNL A   1      39.096  22.553  26.441  1.00  0.00     0.023 C 
ENDROOT
BRANCH   1   2
ATOM      2  C   UNL A   1      38.076  23.596  25.981  1.00  0.00     0.116 C 
BRANCH   2   3
ATOM      3  N   UNL A   1      37.242  23.095  24.908  1.00  0.00    -0.356 N 
ATOM      4  O   UNL A   1      35.271  23.015  26.085  1.00  0.00    -0.275 OA
ATOM      5  C   UNL A   1      35.890  22.850  25.038  1.00  0.00     0.224 C 
ATOM      6  H   UNL A   1      37.664  22.919  24.035  1.00  0.00     0.163 HD
BRANCH   5   7
ATOM      7  C   UNL A   1      35.233  22.339  23.759  1.00  0.00     0.136 C 
BRANCH   7   8
ATOM      8  C   UNL A   1      33.880  22.978  23.504  1.00  0.00    -0.031 A 
ATOM      9  C   UNL A   1      33.841  24.325  23.092  1.00  0.00     0.005 A 
ATOM     10  C   UNL A   1      32.660  22.287  23.679  1.00  0.00    -0.014 A 
ATOM     11  C   UNL A   1      32.630  24.989  22.906  1.00  0.00     0.000 A 
ATOM     12  C   UNL A   1      31.446  22.977  23.500  1.00  0.00     0.009 A 
ATOM     13  C   UNL A   1      31.433  24.319  23.124  1.00  0.00     0.001 A 
BRANCH  10  14
ATOM     14  C   UNL A   1      32.607  20.836  23.959  1.00  0.00    -0.011 A 
ATOM     15  C   UNL A   1      32.812  20.258  25.271  1.00  0.00     0.027 A 
ATOM     16  C   UNL A   1      32.424  20.018  22.907  1.00  0.00     0.080 A 
ATOM     17  C   UNL A   1      32.907  18.932  25.420  1.00  0.00     0.095 A 
ATOM     18  C   UNL A   1      32.474  18.540  23.066  1.00  0.00     0.255 A 
ATOM     19  N   UNL A   1      32.763  18.080  24.339  1.00  0.00    -0.258 N 
ATOM     20  O   UNL A   1      32.286  17.839  22.075  1.00  0.00    -0.269 OA
BRANCH  19  21
ATOM     21  C   UNL A   1      32.918  16.658  24.500  1.00  0.00     0.451 C 
ATOM     22  F   UNL A   1      34.204  16.332  24.772  1.00  0.00    -0.185 F 
ATOM     23  F   UNL A   1      32.146  16.199  25.516  1.00  0.00    -0.185 F 
ENDBRANCH  19  21
ENDBRANCH  10  14
ENDBRANCH   7   8
ENDBRANCH   5   7
ENDBRANCH   2   3
ENDBRANCH   1   2
BRANCH   1  24
ATOM     24  C   UNL A   1      39.144  21.269  25.605  1.00  0.00     0.023 C 
BRANCH  24  25
ATOM     25  C   UNL A   1      39.464  19.991  26.375  1.00  0.00     0.116 C 
BRANCH  25  26
ATOM     26  N   UNL A   1      40.660  19.326  25.888  1.00  0.00    -0.352 N 
ATOM     27  C   UNL A   1      41.949  19.790  25.803  1.00  0.00     0.251 C 
ATOM     28  H   UNL A   1      40.527  18.403  25.572  1.00  0.00     0.163 HD
ATOM     29  O   UNL A   1      42.801  19.123  25.214  1.00  0.00    -0.269 OA
BRANCH  27  30
ATOM     30  C   UNL A   1      42.324  21.099  26.384  1.00  0.00     0.039 A 
ATOM     31  C   UNL A   1      42.699  22.135  25.522  1.00  0.00     0.014 A 
ATOM     32  C   UNL A   1      42.332  21.309  27.765  1.00  0.00     0.014 A 
ATOM     33  C   UNL A   1      43.012  23.396  26.038  1.00  0.00     0.010 A 
ATOM     34  C   UNL A   1      42.576  22.585  28.276  1.00  0.00     0.010 A 
ATOM     35  C   UNL A   1      42.915  23.642  27.417  1.00  0.00    -0.014 A 
BRANCH  35  36
ATOM     36  C   UNL A   1      43.151  25.000  27.975  1.00  0.00     0.031 A 
ATOM     37  C   UNL A   1      44.526  25.417  28.421  1.00  0.00     0.074 A 
ATOM     38  C   UNL A   1      42.111  25.844  28.140  1.00  0.00     0.049 A 
ATOM     39  N   UNL A   1      44.907  26.535  28.989  1.00  0.00    -0.248 NA
ATOM     40  C   UNL A   1      45.611  24.444  28.223  1.00  0.00     0.031 C 
ATOM     41  C   UNL A   1      40.721  25.556  27.784  1.00  0.00     0.029 A 
ATOM     42  N   UNL A   1      42.064  27.113  28.661  1.00  0.00    -0.354 N 
ATOM     43  C   UNL A   1      46.268  26.393  29.229  1.00  0.00     0.074 A 
ATOM     44  C   UNL A   1      46.636  25.064  28.789  1.00  0.00     0.031 C 
ATOM     45  C   UNL A   1      39.962  26.625  28.074  1.00  0.00     0.029 A 
ATOM     46  C   UNL A   1      40.801  27.656  28.676  1.00  0.00     0.049 A 
ATOM     47  H   UNL A   1      42.860  27.590  28.992  1.00  0.00     0.167 HD
ATOM     48  C   UNL A   1      47.139  27.292  29.748  1.00  0.00     0.031 A 
ATOM     49  C   UNL A   1      40.363  28.845  29.130  1.00  0.00     0.031 A 
ATOM     50  C   UNL A   1      46.779  28.616  30.181  1.00  0.00     0.049 A 
ATOM     51  C   UNL A   1      41.345  29.817  29.724  1.00  0.00     0.074 A 
ATOM     52  C   UNL A   1      47.601  29.614  30.677  1.00  0.00     0.029 A 
ATOM     53  N   UNL A   1      45.490  29.127  30.175  1.00  0.00    -0.354 N 
ATOM     54  N   UNL A   1      42.639  29.688  29.886  1.00  0.00    -0.248 NA
ATOM     55  C   UNL A   1      40.804  31.103  30.187  1.00  0.00     0.031 C 
ATOM     56  C   UNL A   1      46.801  30.710  31.019  1.00  0.00     0.029 A 
ATOM     57  C   UNL A   1      45.491  30.417  30.680  1.00  0.00     0.049 A 
ATOM     58  H   UNL A   1      44.693  28.645  29.857  1.00  0.00     0.167 HD
ATOM     59  C   UNL A   1      43.070  30.885  30.444  1.00  0.00     0.074 A 
ATOM     60  C   UNL A   1      41.903  31.732  30.575  1.00  0.00     0.031 C 
ATOM     61  C   UNL A   1      44.323  31.249  30.811  1.00  0.00     0.031 A 
BRANCH  48  62
ATOM     62  C   UNL A   1      48.575  26.864  29.882  1.00  0.00    -0.014 A 
ATOM     63  C   UNL A   1      49.030  26.195  31.029  1.00  0.00     0.009 A 
ATOM     64  C   UNL A   1      49.477  27.101  28.833  1.00  0.00     0.009 A 
ATOM     65  C   UNL A   1      50.367  25.807  31.140  1.00  0.00     0.001 A 
ATOM     66  C   UNL A   1      50.807  26.686  28.934  1.00  0.00     0.001 A 
ATOM     67  C   UNL A   1      51.253  26.049  30.091  1.00  0.00     0.000 A 
ENDBRANCH  48  62
BRANCH  49  68
ATOM     68  C   UNL A   1      38.920  29.190  29.034  1.00  0.00    -0.014 A 
ATOM     69  C   UNL A   1      38.077  29.049  30.148  1.00  0.00     0.009 A 
ATOM     70  C   UNL A   1      38.377  29.656  27.827  1.00  0.00     0.009 A 
ATOM     71  C   UNL A   1      36.716  29.343  30.046  1.00  0.00     0.001 A 
ATOM     72  C   UNL A   1      37.021  29.978  27.737  1.00  0.00     0.001 A 
ATOM     73  C   UNL A   1      36.191  29.812  28.843  1.00  0.00     0.000 A 
ENDBRANCH  49  68
BRANCH  61  74
ATOM     74  C   UNL A   1      44.504  32.638  31.360  1.00  0.00    -0.014 A 
ATOM     75  C   UNL A   1      44.761  33.729  30.517  1.00  0.00     0.009 A 
ATOM     76  C   UNL A   1      44.378  32.859  32.739  1.00  0.00     0.009 A 
ATOM     77  C   UNL A   1      44.921  35.010  31.049  1.00  0.00     0.001 A 
ATOM     78  C   UNL A   1      44.508  34.145  33.266  1.00  0.00     0.001 A 
ATOM     79  C   UNL A   1      44.788  35.218  32.422  1.00  0.00     0.000 A 
ENDBRANCH  61  74
ENDBRANCH  35  36
ENDBRANCH  27  30
ENDBRANCH  25  26
ENDBRANCH  24  25
ENDBRANCH   1  24
TORSDOF 14
ENDMDL
MODEL 2
REMARK VINA RESULT:     -10.9      4.888      9.456
REMARK SMILES O=C(Cc1ccccc1-c1ccn(C(F)F)c(=O)c1)NCCCCNC(=O)c1ccc(-c2c3nc(c(-c4ccccc4)c4ccc([nH]4)c(-c4ccccc4)c4nc(c(-c5ccccc5)c5ccc2[nH]5)C=C4)C=C3)cc1
REMARK SMILES IDX 22 1 21 2 20 3 1 4 2 5 3 7 4 8 5 9 9 10 6 11 8 12 7 13 10 14
REMARK SMILES IDX 11 15 19 16 12 17 17 18 13 19 18 20 14 21 15 22 16 23 23 24
REMARK SMILES IDX 24 25 25 26 26 27 27 29 28 30 29 31 75 32 30 33 74 34 31 35
REMARK SMILES IDX 32 36 33 37 68 38 34 39 73 40 67 41 69 42 35 43 72 44 66 45
REMARK SMILES IDX 65 46 36 48 58 49 43 50 57 51 44 52 47 53 56 54 70 55 45 56
REMARK SMILES IDX 46 57 55 59 71 60 48 61 37 62 38 63 42 64 39 65 41 66 40 67
REMARK SMILES IDX 59 68 60 69 64 70 61 71 63 72 62 73 49 74 50 75 54 76 51 77
REMARK SMILES IDX 53 78 52 79
REMARK H PARENT 20 6 25 28 69 47 47 58
REMARK Flexibility Score: inf
ROOT
ATOM      1  C   UNL A   1      34.377  30.683  27.618  1.00  0.00     0.023 C 
ENDROOT
BRANCH   1   2
ATOM      2  C   UNL A   1      34.417  29.336  26.895  1.00  0.00     0.116 C 
BRANCH   2   3
ATOM      3  N   UNL A   1      33.117  28.698  26.873  1.00  0.00    -0.356 N 
ATOM      4  O   UNL A   1      33.273  27.793  24.767  1.00  0.00    -0.275 OA
ATOM      5  C   UNL A   1      32.643  27.961  25.807  1.00  0.00     0.224 C 
ATOM      6  H   UNL A   1      32.537  28.798  27.663  1.00  0.00     0.163 HD
BRANCH   5   7
ATOM      7  C   UNL A   1      31.250  27.380  26.032  1.00  0.00     0.136 C 
BRANCH   7   8
ATOM      8  C   UNL A   1      31.025  26.090  25.266  1.00  0.00    -0.031 A 
ATOM      9  C   UNL A   1      31.472  24.882  25.839  1.00  0.00     0.005 A 
ATOM     10  C   UNL A   1      30.404  26.049  23.997  1.00  0.00    -0.014 A 
ATOM     11  C   UNL A   1      31.356  23.673  25.157  1.00  0.00     0.000 A 
ATOM     12  C   UNL A   1      30.307  24.821  23.317  1.00  0.00     0.009 A 
ATOM     13  C   UNL A   1      30.786  23.644  23.891  1.00  0.00     0.001 A 
BRANCH  10  14
ATOM     14  C   UNL A   1      29.770  27.239  23.390  1.00  0.00    -0.011 A 
ATOM     15  C   UNL A   1      30.498  28.268  22.679  1.00  0.00     0.027 A 
ATOM     16  C   UNL A   1      28.446  27.389  23.580  1.00  0.00     0.080 A 
ATOM     17  C   UNL A   1      29.882  29.393  22.294  1.00  0.00     0.095 A 
ATOM     18  C   UNL A   1      27.736  28.609  23.112  1.00  0.00     0.255 A 
ATOM     19  N   UNL A   1      28.529  29.578  22.521  1.00  0.00    -0.258 N 
ATOM     20  O   UNL A   1      26.526  28.688  23.298  1.00  0.00    -0.269 OA
BRANCH  19  21
ATOM     21  C   UNL A   1      27.886  30.812  22.152  1.00  0.00     0.451 C 
ATOM     22  F   UNL A   1      27.621  31.573  23.240  1.00  0.00    -0.185 F 
ATOM     23  F   UNL A   1      28.671  31.535  21.315  1.00  0.00    -0.185 F 
ENDBRANCH  19  21
ENDBRANCH  10  14
ENDBRANCH   7   8
ENDBRANCH   5   7
ENDBRANCH   2   3
ENDBRANCH   1   2
BRANCH   1  24
ATOM     24  C   UNL A   1      33.009  31.375  27.639  1.00  0.00     0.023 C 
BRANCH  24  25
ATOM     25  C   UNL A   1      32.903  32.654  26.813  1.00  0.00     0.116 C 
BRANCH  25  26
ATOM     26  N   UNL A   1      32.543  33.812  27.613  1.00  0.00    -0.352 N 
ATOM     27  C   UNL A   1      33.170  34.351  28.709  1.00  0.00     0.251 C 
ATOM     28  H   UNL A   1      31.726  34.281  27.327  1.00  0.00     0.163 HD
ATOM     29  O   UNL A   1      32.621  35.250  29.346  1.00  0.00    -0.269 OA
BRANCH  27  30
ATOM     30  C   UNL A   1      34.489  33.845  29.154  1.00  0.00     0.039 A 
ATOM     31  C   UNL A   1      34.557  33.091  30.330  1.00  0.00     0.014 A 
ATOM     32  C   UNL A   1      35.657  34.123  28.439  1.00  0.00     0.014 A 
ATOM     33  C   UNL A   1      35.781  32.560  30.750  1.00  0.00     0.010 A 
ATOM     34  C   UNL A   1      36.864  33.535  28.818  1.00  0.00     0.010 A 
ATOM     35  C   UNL A   1      36.938  32.744  29.976  1.00  0.00    -0.014 A 
BRANCH  35  36
ATOM     36  C   UNL A   1      38.227  32.108  30.354  1.00  0.00     0.031 A 
ATOM     37  C   UNL A   1      39.180  32.803  31.288  1.00  0.00     0.074 A 
ATOM     38  C   UNL A   1      38.572  30.924  29.808  1.00  0.00     0.049 A 
ATOM     39  N   UNL A   1      40.374  32.430  31.679  1.00  0.00    -0.248 NA
ATOM     40  C   UNL A   1      38.744  34.096  31.838  1.00  0.00     0.031 C 
ATOM     41  C   UNL A   1      37.760  30.157  28.861  1.00  0.00     0.029 A 
ATOM     42  N   UNL A   1      39.706  30.164  29.963  1.00  0.00    -0.354 N 
ATOM     43  C   UNL A   1      40.836  33.446  32.506  1.00  0.00     0.074 A 
ATOM     44  C   UNL A   1      39.815  34.472  32.521  1.00  0.00     0.031 C 
ATOM     45  C   UNL A   1      38.409  29.027  28.539  1.00  0.00     0.029 A 
ATOM     46  C   UNL A   1      39.700  29.008  29.220  1.00  0.00     0.049 A 
ATOM     47  H   UNL A   1      40.452  30.423  30.552  1.00  0.00     0.167 HD
ATOM     48  C   UNL A   1      41.995  33.513  33.206  1.00  0.00     0.031 A 
ATOM     49  C   UNL A   1      40.630  28.044  29.090  1.00  0.00     0.031 A 
ATOM     50  C   UNL A   1      43.009  32.493  33.197  1.00  0.00     0.049 A 
ATOM     51  C   UNL A   1      41.918  28.152  29.859  1.00  0.00     0.074 A 
ATOM     52  C   UNL A   1      44.196  32.452  33.911  1.00  0.00     0.029 A 
ATOM     53  N   UNL A   1      42.962  31.337  32.434  1.00  0.00    -0.354 N 
ATOM     54  N   UNL A   1      42.311  29.091  30.684  1.00  0.00    -0.248 NA
ATOM     55  C   UNL A   1      42.886  27.058  29.686  1.00  0.00     0.031 C 
ATOM     56  C   UNL A   1      44.889  31.295  33.539  1.00  0.00     0.029 A 
ATOM     57  C   UNL A   1      44.109  30.587  32.641  1.00  0.00     0.049 A 
ATOM     58  H   UNL A   1      42.223  31.086  31.835  1.00  0.00     0.167 HD
ATOM     59  C   UNL A   1      43.558  28.689  31.148  1.00  0.00     0.074 A 
ATOM     60  C   UNL A   1      43.846  27.414  30.525  1.00  0.00     0.031 C 
ATOM     61  C   UNL A   1      44.387  29.321  32.014  1.00  0.00     0.031 A 
BRANCH  48  62
ATOM     62  C   UNL A   1      42.228  34.744  34.038  1.00  0.00    -0.014 A 
ATOM     63  C   UNL A   1      41.839  34.796  35.386  1.00  0.00     0.009 A 
ATOM     64  C   UNL A   1      42.878  35.855  33.477  1.00  0.00     0.009 A 
ATOM     65  C   UNL A   1      42.058  35.948  36.143  1.00  0.00     0.001 A 
ATOM     66  C   UNL A   1      43.124  36.995  34.246  1.00  0.00     0.001 A 
ATOM     67  C   UNL A   1      42.704  37.045  35.574  1.00  0.00     0.000 A 
ENDBRANCH  48  62
BRANCH  49  68
ATOM     68  C   UNL A   1      40.376  26.881  28.200  1.00  0.00    -0.014 A 
ATOM     69  C   UNL A   1      40.876  26.863  26.889  1.00  0.00     0.009 A 
ATOM     70  C   UNL A   1      39.625  25.785  28.655  1.00  0.00     0.009 A 
ATOM     71  C   UNL A   1      40.608  25.784  26.044  1.00  0.00     0.001 A 
ATOM     72  C   UNL A   1      39.384  24.694  27.817  1.00  0.00     0.001 A 
ATOM     73  C   UNL A   1      39.867  24.699  26.511  1.00  0.00     0.000 A 
ENDBRANCH  49  68
BRANCH  61  74
ATOM     74  C   UNL A   1      45.673  28.626  32.368  1.00  0.00    -0.014 A 
ATOM     75  C   UNL A   1      46.854  28.863  31.648  1.00  0.00     0.009 A 
ATOM     76  C   UNL A   1      45.708  27.750  33.463  1.00  0.00     0.009 A 
ATOM     77  C   UNL A   1      48.037  28.209  31.998  1.00  0.00     0.001 A 
ATOM     78  C   UNL A   1      46.899  27.121  33.830  1.00  0.00     0.001 A 
ATOM     79  C   UNL A   1      48.060  27.344  33.092  1.00  0.00     0.000 A 
ENDBRANCH  61  74
ENDBRANCH  35  36
ENDBRANCH  27  30
ENDBRANCH  25  26
ENDBRANCH  24  25
ENDBRANCH   1  24
TORSDOF 14
ENDMDL
MODEL 3
REMARK VINA RESULT:     -10.9      2.314      3.324
REMARK SMILES O=C(Cc1ccccc1-c1ccn(C(F)F)c(=O)c1)NCCCCNC(=O)c1ccc(-c2c3nc(c(-c4ccccc4)c4ccc([nH]4)c(-c4ccccc4)c4nc(c(-c5ccccc5)c5ccc2[nH]5)C=C4)C=C3)cc1
REMARK SMILES IDX 22 1 21 2 20 3 1 4 2 5 3 7 4 8 5 9 9 10 6 11 8 12 7 13 10 14
REMARK SMILES IDX 11 15 19 16 12 17 17 18 13 19 18 20 14 21 15 22 16 23 23 24
REMARK SMILES IDX 24 25 25 26 26 27 27 29 28 30 29 31 75 32 30 33 74 34 31 35
REMARK SMILES IDX 32 36 33 37 68 38 34 39 73 40 67 41 69 42 35 43 72 44 66 45
REMARK SMILES IDX 65 46 36 48 58 49 43 50 57 51 44 52 47 53 56 54 70 55 45 56
REMARK SMILES IDX 46 57 55 59 71 60 48 61 37 62 38 63 42 64 39 65 41 66 40 67
REMARK SMILES IDX 59 68 60 69 64 70 61 71 63 72 62 73 49 74 50 75 54 76 51 77
REMARK SMILES IDX 53 78 52 79
REMARK H PARENT 20 6 25 28 69 47 47 58
REMARK Flexibility Score: inf
ROOT
ATOM      1  C   UNL A   1      37.323  21.207  24.524  1.00  0.00     0.023 C 
ENDROOT
BRANCH   1   2
ATOM      2  C   UNL A   1      36.609  21.910  25.681  1.00  0.00     0.116 C 
BRANCH   2   3
ATOM      3  N   UNL A   1      35.211  21.538  25.754  1.00  0.00    -0.356 N 
ATOM      4  O   UNL A   1      34.372  23.640  26.146  1.00  0.00    -0.275 OA
ATOM      5  C   UNL A   1      34.189  22.439  25.973  1.00  0.00     0.224 C 
ATOM      6  H   UNL A   1      34.977  20.588  25.643  1.00  0.00     0.163 HD
BRANCH   5   7
ATOM      7  C   UNL A   1      32.802  21.802  25.994  1.00  0.00     0.136 C 
BRANCH   7   8
ATOM      8  C   UNL A   1      32.528  20.962  24.760  1.00  0.00    -0.031 A 
ATOM      9  C   UNL A   1      32.564  19.559  24.881  1.00  0.00     0.005 A 
ATOM     10  C   UNL A   1      32.255  21.526  23.493  1.00  0.00    -0.014 A 
ATOM     11  C   UNL A   1      32.387  18.733  23.773  1.00  0.00     0.000 A 
ATOM     12  C   UNL A   1      32.092  20.678  22.383  1.00  0.00     0.009 A 
ATOM     13  C   UNL A   1      32.165  19.293  22.521  1.00  0.00     0.001 A 
BRANCH  10  14
ATOM     14  C   UNL A   1      32.046  22.978  23.304  1.00  0.00    -0.011 A 
ATOM     15  C   UNL A   1      30.875  23.693  23.766  1.00  0.00     0.027 A 
ATOM     16  C   UNL A   1      32.979  23.642  22.598  1.00  0.00     0.080 A 
ATOM     17  C   UNL A   1      30.680  24.972  23.421  1.00  0.00     0.095 A 
ATOM     18  C   UNL A   1      32.803  25.078  22.251  1.00  0.00     0.255 A 
ATOM     19  N   UNL A   1      31.613  25.654  22.659  1.00  0.00    -0.258 N 
ATOM     20  O   UNL A   1      33.692  25.638  21.617  1.00  0.00    -0.269 OA
BRANCH  19  21
ATOM     21  C   UNL A   1      31.371  27.013  22.248  1.00  0.00     0.451 C 
ATOM     22  F   UNL A   1      30.054  27.320  22.317  1.00  0.00    -0.185 F 
ATOM     23  F   UNL A   1      32.046  27.884  23.040  1.00  0.00    -0.185 F 
ENDBRANCH  19  21
ENDBRANCH  10  14
ENDBRANCH   7   8
ENDBRANCH   5   7
ENDBRANCH   2   3
ENDBRANCH   1   2
BRANCH   1  24
ATOM     24  C   UNL A   1      38.102  19.943  24.906  1.00  0.00     0.023 C 
BRANCH  24  25
ATOM     25  C   UNL A   1      39.107  20.105  26.042  1.00  0.00     0.116 C 
BRANCH  25  26
ATOM     26  N   UNL A   1      40.288  19.277  25.871  1.00  0.00    -0.352 N 
ATOM     27  C   UNL A   1      41.615  19.599  26.018  1.00  0.00     0.251 C 
ATOM     28  H   UNL A   1      40.112  18.344  25.611  1.00  0.00     0.163 HD
ATOM     29  O   UNL A   1      42.481  18.793  25.676  1.00  0.00    -0.269 OA
BRANCH  27  30
ATOM     30  C   UNL A   1      42.021  20.918  26.556  1.00  0.00     0.039 A 
ATOM     31  C   UNL A   1      42.428  21.912  25.660  1.00  0.00     0.014 A 
ATOM     32  C   UNL A   1      42.024  21.177  27.928  1.00  0.00     0.014 A 
ATOM     33  C   UNL A   1      42.771  23.182  26.134  1.00  0.00     0.010 A 
ATOM     34  C   UNL A   1      42.298  22.463  28.395  1.00  0.00     0.010 A 
ATOM     35  C   UNL A   1      42.671  23.480  27.503  1.00  0.00    -0.014 A 
BRANCH  35  36
ATOM     36  C   UNL A   1      42.938  24.850  28.014  1.00  0.00     0.031 A 
ATOM     37  C   UNL A   1      44.327  25.256  28.428  1.00  0.00     0.074 A 
ATOM     38  C   UNL A   1      41.916  25.717  28.165  1.00  0.00     0.049 A 
ATOM     39  N   UNL A   1      44.735  26.384  28.955  1.00  0.00    -0.248 NA
ATOM     40  C   UNL A   1      45.391  24.258  28.247  1.00  0.00     0.031 C 
ATOM     41  C   UNL A   1      40.516  25.444  27.837  1.00  0.00     0.029 A 
ATOM     42  N   UNL A   1      41.899  27.003  28.646  1.00  0.00    -0.354 N 
ATOM     43  C   UNL A   1      46.097  26.225  29.181  1.00  0.00     0.074 A 
ATOM     44  C   UNL A   1      46.435  24.876  28.780  1.00  0.00     0.031 C 
ATOM     45  C   UNL A   1      39.781  26.535  28.103  1.00  0.00     0.029 A 
ATOM     46  C   UNL A   1      40.646  27.569  28.660  1.00  0.00     0.049 A 
ATOM     47  H   UNL A   1      42.708  27.476  28.951  1.00  0.00     0.167 HD
ATOM     48  C   UNL A   1      46.991  27.124  29.660  1.00  0.00     0.031 A 
ATOM     49  C   UNL A   1      40.235  28.780  29.082  1.00  0.00     0.031 A 
ATOM     50  C   UNL A   1      46.660  28.467  30.055  1.00  0.00     0.049 A 
ATOM     51  C   UNL A   1      41.243  29.752  29.632  1.00  0.00     0.074 A 
ATOM     52  C   UNL A   1      47.507  29.465  30.508  1.00  0.00     0.029 A 
ATOM     53  N   UNL A   1      45.381  29.002  30.050  1.00  0.00    -0.354 N 
ATOM     54  N   UNL A   1      42.536  29.605  29.780  1.00  0.00    -0.248 NA
ATOM     55  C   UNL A   1      40.731  31.062  30.060  1.00  0.00     0.031 C 
ATOM     56  C   UNL A   1      46.731  30.586  30.826  1.00  0.00     0.029 A 
ATOM     57  C   UNL A   1      45.412  30.306  30.514  1.00  0.00     0.049 A 
ATOM     58  H   UNL A   1      44.571  28.524  29.758  1.00  0.00     0.167 HD
ATOM     59  C   UNL A   1      42.997  30.811  30.294  1.00  0.00     0.074 A 
ATOM     60  C   UNL A   1      41.847  31.683  30.414  1.00  0.00     0.031 C 
ATOM     61  C   UNL A   1      44.261  31.163  30.633  1.00  0.00     0.031 A 
BRANCH  48  62
ATOM     62  C   UNL A   1      48.420  26.674  29.789  1.00  0.00    -0.014 A 
ATOM     63  C   UNL A   1      48.885  26.052  30.959  1.00  0.00     0.009 A 
ATOM     64  C   UNL A   1      49.307  26.842  28.714  1.00  0.00     0.009 A 
ATOM     65  C   UNL A   1      50.216  25.644  31.065  1.00  0.00     0.001 A 
ATOM     66  C   UNL A   1      50.630  26.405  28.810  1.00  0.00     0.001 A 
ATOM     67  C   UNL A   1      51.086  25.817  29.989  1.00  0.00     0.000 A 
ENDBRANCH  48  62
BRANCH  49  68
ATOM     68  C   UNL A   1      38.798  29.148  28.994  1.00  0.00    -0.014 A 
ATOM     69  C   UNL A   1      37.953  28.994  30.104  1.00  0.00     0.009 A 
ATOM     70  C   UNL A   1      38.262  29.650  27.798  1.00  0.00     0.009 A 
ATOM     71  C   UNL A   1      36.596  29.310  30.010  1.00  0.00     0.001 A 
ATOM     72  C   UNL A   1      36.911  29.993  27.715  1.00  0.00     0.001 A 
ATOM     73  C   UNL A   1      36.078  29.815  28.817  1.00  0.00     0.000 A 
ENDBRANCH  49  68
BRANCH  61  74
ATOM     74  C   UNL A   1      44.474  32.565  31.136  1.00  0.00    -0.014 A 
ATOM     75  C   UNL A   1      44.422  32.866  32.505  1.00  0.00     0.009 A 
ATOM     76  C   UNL A   1      44.769  33.590  30.225  1.00  0.00     0.009 A 
ATOM     77  C   UNL A   1      44.628  34.174  32.948  1.00  0.00     0.001 A 
ATOM     78  C   UNL A   1      45.003  34.891  30.673  1.00  0.00     0.001 A 
ATOM     79  C   UNL A   1      44.924  35.184  32.033  1.00  0.00     0.000 A 
ENDBRANCH  61  74
ENDBRANCH  35  36
ENDBRANCH  27  30
ENDBRANCH  25  26
ENDBRANCH  24  25
ENDBRANCH   1  24
TORSDOF 14
ENDMDL
