MODEL 1
REMARK VINA RESULT:     -11.8      0.000      0.000
REMARK SMILES Cc1ccc([N+](=O)[O-])c(NCc2ccc(C(=O)NCCCCNC(=O)c3ccc(-c4c5nc(c(-c6ccccc6)c6ccc([nH]6)c(-c6ccccc6)c6nc(c(-c7ccccc7)c7ccc4[nH]7)C=C6)C=C5)cc3)cc2)c1
REMARK SMILES IDX 19 1 18 2 16 3 17 4 15 6 12 7 13 8 75 9 14 10 74 11 11 12
REMARK SMILES IDX 10 13 9 15 1 16 2 17 3 18 76 19 4 20 5 21 6 22 7 23 8 24
REMARK SMILES IDX 20 25 21 26 22 27 23 28 24 29 25 31 26 32 27 33 73 34 28 35
REMARK SMILES IDX 72 36 29 37 30 38 31 39 66 40 32 41 71 42 65 43 67 44 33 45
REMARK SMILES IDX 70 46 64 47 63 48 34 50 56 51 41 52 55 53 42 54 45 55 54 56
REMARK SMILES IDX 68 57 43 58 44 59 53 61 69 62 46 63 35 64 36 65 40 66 37 67
REMARK SMILES IDX 39 68 38 69 57 70 58 71 62 72 59 73 61 74 60 75 47 76 48 77
REMARK SMILES IDX 52 78 49 79 51 80 50 81
REMARK H PARENT 18 5 10 14 23 30 67 49 45 60
REMARK Flexibility Score: inf
ROOT
ATOM      1  C   UNL A   1      36.477  23.246  26.098  1.00  0.00     0.116 C 
ENDROOT
BRANCH   1   2
ATOM      2  N   UNL A   1      36.096  21.896  25.729  1.00  0.00    -0.352 N 
ATOM      3  C   UNL A   1      34.994  21.358  25.113  1.00  0.00     0.251 C 
ATOM      4  O   UNL A   1      35.044  20.150  24.864  1.00  0.00    -0.269 OA
ATOM      5  H   UNL A   1      36.772  21.222  25.972  1.00  0.00     0.163 HD
BRANCH   3   6
ATOM      6  C   UNL A   1      33.765  22.120  24.727  1.00  0.00     0.039 A 
ATOM      7  C   UNL A   1      31.495  23.559  23.763  1.00  0.00    -0.029 A 
ATOM      8  C   UNL A   1      32.708  23.569  23.060  1.00  0.00     0.006 A 
ATOM      9  C   UNL A   1      31.430  22.791  24.931  1.00  0.00     0.006 A 
ATOM     10  C   UNL A   1      33.821  22.862  23.535  1.00  0.00     0.014 A 
ATOM     11  C   UNL A   1      32.550  22.097  25.410  1.00  0.00     0.014 A 
BRANCH   7  12
ATOM     12  C   UNL A   1      30.288  24.275  23.176  1.00  0.00     0.149 C 
BRANCH  12  13
ATOM     13  N   UNL A   1      29.783  25.318  24.054  1.00  0.00    -0.375 N 
ATOM     14  H   UNL A   1      28.986  25.079  24.581  1.00  0.00     0.161 HD
BRANCH  13  15
ATOM     15  C   UNL A   1      30.265  26.599  24.251  1.00  0.00     0.114 A 
ATOM     16  C   UNL A   1      29.484  29.937  22.495  1.00  0.00     0.044 C 
ATOM     17  C   UNL A   1      30.097  28.940  23.435  1.00  0.00    -0.049 A 
ATOM     18  C   UNL A   1      31.026  29.358  24.385  1.00  0.00     0.010 A 
ATOM     19  C   UNL A   1      29.736  27.582  23.380  1.00  0.00     0.036 A 
ATOM     20  C   UNL A   1      31.600  28.424  25.242  1.00  0.00     0.088 A 
ATOM     21  C   UNL A   1      31.233  27.065  25.155  1.00  0.00     0.292 A 
BRANCH  21  22
ATOM     22  N   UNL A   1      31.868  26.204  26.132  1.00  0.00     0.064 N 
ATOM     23  O   UNL A   1      33.089  26.019  26.011  1.00  0.00    -0.258 OA
ATOM     24  O   UNL A   1      31.143  25.656  26.973  1.00  0.00    -0.258 OA
ENDBRANCH  21  22
ENDBRANCH  13  15
ENDBRANCH  12  13
ENDBRANCH   7  12
ENDBRANCH   3   6
ENDBRANCH   1   2
BRANCH   1  25
ATOM     25  C   UNL A   1      38.001  23.420  26.207  1.00  0.00     0.023 C 
BRANCH  25  26
ATOM     26  C   UNL A   1      38.829  22.250  25.664  1.00  0.00     0.023 C 
BRANCH  26  27
ATOM     27  C   UNL A   1      39.857  21.719  26.651  1.00  0.00     0.116 C 
BRANCH  27  28
ATOM     28  N   UNL A   1      40.780  20.730  26.110  1.00  0.00    -0.352 N 
ATOM     29  C   UNL A   1      42.169  20.739  26.070  1.00  0.00     0.251 C 
ATOM     30  H   UNL A   1      40.356  19.935  25.713  1.00  0.00     0.163 HD
ATOM     31  O   UNL A   1      42.766  19.858  25.482  1.00  0.00    -0.269 OA
BRANCH  29  32
ATOM     32  C   UNL A   1      42.923  21.736  26.881  1.00  0.00     0.039 A 
ATOM     33  C   UNL A   1      42.735  21.704  28.268  1.00  0.00     0.014 A 
ATOM     34  C   UNL A   1      43.569  22.818  26.293  1.00  0.00     0.014 A 
ATOM     35  C   UNL A   1      42.910  22.872  29.005  1.00  0.00     0.010 A 
ATOM     36  C   UNL A   1      43.632  24.007  26.993  1.00  0.00     0.010 A 
ATOM     37  C   UNL A   1      43.217  24.049  28.326  1.00  0.00    -0.014 A 
BRANCH  37  38
ATOM     38  C   UNL A   1      42.967  25.372  28.884  1.00  0.00     0.031 A 
ATOM     39  C   UNL A   1      41.792  26.157  28.461  1.00  0.00     0.074 A 
ATOM     40  C   UNL A   1      43.806  25.867  29.822  1.00  0.00     0.049 A 
ATOM     41  N   UNL A   1      41.702  27.438  28.576  1.00  0.00    -0.248 NA
ATOM     42  C   UNL A   1      40.649  25.560  27.776  1.00  0.00     0.031 C 
ATOM     43  C   UNL A   1      43.606  27.029  30.683  1.00  0.00     0.029 A 
ATOM     44  N   UNL A   1      45.137  25.521  30.028  1.00  0.00    -0.354 N 
ATOM     45  C   UNL A   1      40.412  27.792  28.269  1.00  0.00     0.074 A 
ATOM     46  C   UNL A   1      39.840  26.618  27.657  1.00  0.00     0.031 C 
ATOM     47  C   UNL A   1      44.799  27.444  31.141  1.00  0.00     0.029 A 
ATOM     48  C   UNL A   1      45.823  26.658  30.474  1.00  0.00     0.049 A 
ATOM     49  H   UNL A   1      45.529  24.631  29.885  1.00  0.00     0.167 HD
ATOM     50  C   UNL A   1      39.937  28.994  28.698  1.00  0.00     0.031 A 
ATOM     51  C   UNL A   1      46.847  27.186  29.739  1.00  0.00     0.031 A 
ATOM     52  C   UNL A   1      41.014  29.846  29.206  1.00  0.00     0.049 A 
ATOM     53  C   UNL A   1      46.560  28.576  29.205  1.00  0.00     0.074 A 
ATOM     54  C   UNL A   1      41.422  30.213  30.477  1.00  0.00     0.029 A 
ATOM     55  N   UNL A   1      42.036  30.224  28.340  1.00  0.00    -0.354 N 
ATOM     56  N   UNL A   1      45.375  29.122  29.181  1.00  0.00    -0.248 NA
ATOM     57  C   UNL A   1      47.580  29.439  28.612  1.00  0.00     0.031 C 
ATOM     58  C   UNL A   1      42.748  30.717  30.379  1.00  0.00     0.029 A 
ATOM     59  C   UNL A   1      43.123  30.701  29.047  1.00  0.00     0.049 A 
ATOM     60  H   UNL A   1      41.991  30.161  27.358  1.00  0.00     0.167 HD
ATOM     61  C   UNL A   1      45.444  30.343  28.565  1.00  0.00     0.074 A 
ATOM     62  C   UNL A   1      46.851  30.509  28.249  1.00  0.00     0.031 C 
ATOM     63  C   UNL A   1      44.335  31.106  28.343  1.00  0.00     0.031 A 
BRANCH  50  64
ATOM     64  C   UNL A   1      38.466  29.316  28.879  1.00  0.00    -0.014 A 
ATOM     65  C   UNL A   1      37.719  29.781  27.779  1.00  0.00     0.009 A 
ATOM     66  C   UNL A   1      37.780  29.295  30.108  1.00  0.00     0.009 A 
ATOM     67  C   UNL A   1      36.395  30.230  27.911  1.00  0.00     0.001 A 
ATOM     68  C   UNL A   1      36.455  29.729  30.247  1.00  0.00     0.001 A 
ATOM     69  C   UNL A   1      35.764  30.209  29.148  1.00  0.00     0.000 A 
ENDBRANCH  50  64
BRANCH  51  70
ATOM     70  C   UNL A   1      47.667  26.160  29.036  1.00  0.00    -0.014 A 
ATOM     71  C   UNL A   1      47.423  25.942  27.664  1.00  0.00     0.009 A 
ATOM     72  C   UNL A   1      48.868  25.691  29.584  1.00  0.00     0.009 A 
ATOM     73  C   UNL A   1      48.405  25.380  26.842  1.00  0.00     0.001 A 
ATOM     74  C   UNL A   1      49.846  25.120  28.757  1.00  0.00     0.001 A 
ATOM     75  C   UNL A   1      49.629  24.999  27.385  1.00  0.00     0.000 A 
ENDBRANCH  51  70
BRANCH  63  76
ATOM     76  C   UNL A   1      44.282  32.339  27.473  1.00  0.00    -0.014 A 
ATOM     77  C   UNL A   1      44.473  32.334  26.085  1.00  0.00     0.009 A 
ATOM     78  C   UNL A   1      43.881  33.564  28.053  1.00  0.00     0.009 A 
ATOM     79  C   UNL A   1      44.320  33.501  25.322  1.00  0.00     0.001 A 
ATOM     80  C   UNL A   1      43.682  34.718  27.290  1.00  0.00     0.001 A 
ATOM     81  C   UNL A   1      43.915  34.688  25.923  1.00  0.00     0.000 A 
ENDBRANCH  63  76
ENDBRANCH  37  38
ENDBRANCH  29  32
ENDBRANCH  27  28
ENDBRANCH  26  27
ENDBRANCH  25  26
ENDBRANCH   1  25
TORSDOF 15
ENDMDL
MODEL 2
REMARK VINA RESULT:     -11.8      3.782      9.029
REMARK SMILES Cc1ccc([N+](=O)[O-])c(NCc2ccc(C(=O)NCCCCNC(=O)c3ccc(-c4c5nc(c(-c6ccccc6)c6ccc([nH]6)c(-c6ccccc6)c6nc(c(-c7ccccc7)c7ccc4[nH]7)C=C6)C=C5)cc3)cc2)c1
REMARK SMILES IDX 19 1 18 2 16 3 17 4 15 6 12 7 13 8 75 9 14 10 74 11 11 12
REMARK SMILES IDX 10 13 9 15 1 16 2 17 3 18 76 19 4 20 5 21 6 22 7 23 8 24
REMARK SMILES IDX 20 25 21 26 22 27 23 28 24 29 25 31 26 32 27 33 73 34 28 35
REMARK SMILES IDX 72 36 29 37 30 38 31 39 66 40 32 41 71 42 65 43 67 44 33 45
REMARK SMILES IDX 70 46 64 47 63 48 34 50 56 51 41 52 55 53 42 54 45 55 54 56
REMARK SMILES IDX 68 57 43 58 44 59 53 61 69 62 46 63 35 64 36 65 40 66 37 67
REMARK SMILES IDX 39 68 38 69 57 70 58 71 62 72 59 73 61 74 60 75 47 76 48 77
REMARK SMILES IDX 52 78 49 79 51 80 50 81
REMARK H PARENT 18 5 10 14 23 30 67 49 45 60
REMARK Flexibility Score: inf
ROOT
ATOM      1  C   UNL A   1      32.848  29.638  25.287  1.00  0.00     0.116 C 
ENDROOT
BRANCH   1   2
ATOM      2  N   UNL A   1      31.603  29.961  24.617  1.00  0.00    -0.352 N 
ATOM      3  C   UNL A   1      30.612  29.204  24.044  1.00  0.00     0.251 C 
ATOM      4  O   UNL A   1      29.623  29.820  23.638  1.00  0.00    -0.269 OA
ATOM      5  H   UNL A   1      31.433  30.929  24.560  1.00  0.00     0.163 HD
BRANCH   3   6
ATOM      6  C   UNL A   1      30.646  27.716  23.886  1.00  0.00     0.039 A 
ATOM      7  C   UNL A   1      30.919  24.906  23.463  1.00  0.00    -0.029 A 
ATOM      8  C   UNL A   1      31.488  25.828  22.575  1.00  0.00     0.006 A 
ATOM      9  C   UNL A   1      30.246  25.414  24.580  1.00  0.00     0.006 A 
ATOM     10  C   UNL A   1      31.353  27.208  22.784  1.00  0.00     0.014 A 
ATOM     11  C   UNL A   1      30.101  26.794  24.778  1.00  0.00     0.014 A 
BRANCH   7  12
ATOM     12  C   UNL A   1      31.153  23.419  23.244  1.00  0.00     0.149 C 
BRANCH  12  13
ATOM     13  N   UNL A   1      31.728  22.772  24.412  1.00  0.00    -0.375 N 
ATOM     14  H   UNL A   1      31.123  22.171  24.905  1.00  0.00     0.161 HD
BRANCH  13  15
ATOM     15  C   UNL A   1      33.006  22.884  24.928  1.00  0.00     0.114 A 
ATOM     16  C   UNL A   1      36.467  22.901  23.238  1.00  0.00     0.044 C 
ATOM     17  C   UNL A   1      35.410  22.941  24.303  1.00  0.00    -0.049 A 
ATOM     18  C   UNL A   1      35.774  23.099  25.638  1.00  0.00     0.010 A 
ATOM     19  C   UNL A   1      34.048  22.834  23.971  1.00  0.00     0.036 A 
ATOM     20  C   UNL A   1      34.788  23.120  26.620  1.00  0.00     0.088 A 
ATOM     21  C   UNL A   1      33.429  22.993  26.263  1.00  0.00     0.292 A 
BRANCH  21  22
ATOM     22  N   UNL A   1      32.503  23.076  27.372  1.00  0.00     0.064 N 
ATOM     23  O   UNL A   1      31.629  23.955  27.313  1.00  0.00    -0.258 OA
ATOM     24  O   UNL A   1      32.687  22.317  28.334  1.00  0.00    -0.258 OA
ENDBRANCH  21  22
ENDBRANCH  13  15
ENDBRANCH  12  13
ENDBRANCH   7  12
ENDBRANCH   3   6
ENDBRANCH   1   2
BRANCH   1  25
ATOM     25  C   UNL A   1      32.943  30.262  26.689  1.00  0.00     0.023 C 
BRANCH  25  26
ATOM     26  C   UNL A   1      34.265  30.011  27.424  1.00  0.00     0.023 C 
BRANCH  26  27
ATOM     27  C   UNL A   1      35.003  31.284  27.807  1.00  0.00     0.116 C 
BRANCH  27  28
ATOM     28  N   UNL A   1      34.150  32.404  28.183  1.00  0.00    -0.352 N 
ATOM     29  C   UNL A   1      34.269  33.295  29.243  1.00  0.00     0.251 C 
ATOM     30  H   UNL A   1      33.372  32.553  27.597  1.00  0.00     0.163 HD
ATOM     31  O   UNL A   1      33.393  34.113  29.450  1.00  0.00    -0.269 OA
BRANCH  29  32
ATOM     32  C   UNL A   1      35.539  33.351  30.020  1.00  0.00     0.039 A 
ATOM     33  C   UNL A   1      36.602  34.066  29.454  1.00  0.00     0.014 A 
ATOM     34  C   UNL A   1      35.763  32.523  31.114  1.00  0.00     0.014 A 
ATOM     35  C   UNL A   1      37.907  33.713  29.782  1.00  0.00     0.010 A 
ATOM     36  C   UNL A   1      37.051  32.087  31.357  1.00  0.00     0.010 A 
ATOM     37  C   UNL A   1      38.113  32.623  30.625  1.00  0.00    -0.014 A 
BRANCH  37  38
ATOM     38  C   UNL A   1      39.367  31.880  30.667  1.00  0.00     0.031 A 
ATOM     39  C   UNL A   1      39.506  30.599  29.949  1.00  0.00     0.074 A 
ATOM     40  C   UNL A   1      40.419  32.390  31.345  1.00  0.00     0.049 A 
ATOM     41  N   UNL A   1      40.387  29.703  30.239  1.00  0.00    -0.248 NA
ATOM     42  C   UNL A   1      38.587  30.180  28.895  1.00  0.00     0.031 C 
ATOM     43  C   UNL A   1      41.812  31.954  31.304  1.00  0.00     0.029 A 
ATOM     44  N   UNL A   1      40.381  33.296  32.399  1.00  0.00    -0.354 N 
ATOM     45  C   UNL A   1      40.351  28.751  29.250  1.00  0.00     0.074 A 
ATOM     46  C   UNL A   1      39.138  29.022  28.519  1.00  0.00     0.031 C 
ATOM     47  C   UNL A   1      42.442  32.397  32.405  1.00  0.00     0.029 A 
ATOM     48  C   UNL A   1      41.442  33.007  33.267  1.00  0.00     0.049 A 
ATOM     49  H   UNL A   1      39.723  34.018  32.516  1.00  0.00     0.167 HD
ATOM     50  C   UNL A   1      41.425  27.932  29.082  1.00  0.00     0.031 A 
ATOM     51  C   UNL A   1      41.202  32.630  34.558  1.00  0.00     0.031 A 
ATOM     52  C   UNL A   1      42.362  28.041  30.202  1.00  0.00     0.049 A 
ATOM     53  C   UNL A   1      41.638  31.212  34.871  1.00  0.00     0.074 A 
ATOM     54  C   UNL A   1      43.593  28.656  30.360  1.00  0.00     0.029 A 
ATOM     55  N   UNL A   1      41.927  27.698  31.478  1.00  0.00    -0.354 N 
ATOM     56  N   UNL A   1      41.944  30.322  33.965  1.00  0.00    -0.248 NA
ATOM     57  C   UNL A   1      41.716  30.671  36.226  1.00  0.00     0.031 C 
ATOM     58  C   UNL A   1      43.842  28.776  31.755  1.00  0.00     0.029 A 
ATOM     59  C   UNL A   1      42.789  28.194  32.438  1.00  0.00     0.049 A 
ATOM     60  H   UNL A   1      41.116  27.175  31.671  1.00  0.00     0.167 HD
ATOM     61  C   UNL A   1      42.215  29.124  34.571  1.00  0.00     0.074 A 
ATOM     62  C   UNL A   1      42.084  29.399  35.990  1.00  0.00     0.031 C 
ATOM     63  C   UNL A   1      42.499  27.998  33.854  1.00  0.00     0.031 A 
BRANCH  50  64
ATOM     64  C   UNL A   1      41.750  27.204  27.793  1.00  0.00    -0.014 A 
ATOM     65  C   UNL A   1      42.529  27.849  26.811  1.00  0.00     0.009 A 
ATOM     66  C   UNL A   1      41.241  25.945  27.426  1.00  0.00     0.009 A 
ATOM     67  C   UNL A   1      42.746  27.288  25.542  1.00  0.00     0.001 A 
ATOM     68  C   UNL A   1      41.463  25.371  26.166  1.00  0.00     0.001 A 
ATOM     69  C   UNL A   1      42.208  26.050  25.217  1.00  0.00     0.000 A 
ENDBRANCH  50  64
BRANCH  51  70
ATOM     70  C   UNL A   1      40.024  33.308  35.168  1.00  0.00    -0.014 A 
ATOM     71  C   UNL A   1      38.805  32.602  35.220  1.00  0.00     0.009 A 
ATOM     72  C   UNL A   1      40.179  34.434  35.988  1.00  0.00     0.009 A 
ATOM     73  C   UNL A   1      37.819  32.941  36.152  1.00  0.00     0.001 A 
ATOM     74  C   UNL A   1      39.184  34.776  36.914  1.00  0.00     0.001 A 
ATOM     75  C   UNL A   1      38.024  34.009  37.020  1.00  0.00     0.000 A 
ENDBRANCH  51  70
BRANCH  63  76
ATOM     76  C   UNL A   1      42.577  26.600  34.418  1.00  0.00    -0.014 A 
ATOM     77  C   UNL A   1      41.560  25.994  35.167  1.00  0.00     0.009 A 
ATOM     78  C   UNL A   1      43.676  25.784  34.064  1.00  0.00     0.009 A 
ATOM     79  C   UNL A   1      41.656  24.659  35.584  1.00  0.00     0.001 A 
ATOM     80  C   UNL A   1      43.753  24.440  34.437  1.00  0.00     0.001 A 
ATOM     81  C   UNL A   1      42.747  23.880  35.211  1.00  0.00     0.000 A 
ENDBRANCH  63  76
ENDBRANCH  37  38
ENDBRANCH  29  32
ENDBRANCH  27  28
ENDBRANCH  26  27
ENDBRANCH  25  26
ENDBRANCH   1  25
TORSDOF 15
ENDMDL
MODEL 3
REMARK VINA RESULT:     -11.8      2.981      8.453
REMARK SMILES Cc1ccc([N+](=O)[O-])c(NCc2ccc(C(=O)NCCCCNC(=O)c3ccc(-c4c5nc(c(-c6ccccc6)c6ccc([nH]6)c(-c6ccccc6)c6nc(c(-c7ccccc7)c7ccc4[nH]7)C=C6)C=C5)cc3)cc2)c1
REMARK SMILES IDX 19 1 18 2 16 3 17 4 15 6 12 7 13 8 75 9 14 10 74 11 11 12
REMARK SMILES IDX 10 13 9 15 1 16 2 17 3 18 76 19 4 20 5 21 6 22 7 23 8 24
REMARK SMILES IDX 20 25 21 26 22 27 23 28 24 29 25 31 26 32 27 33 73 34 28 35
REMARK SMILES IDX 72 36 29 37 30 38 31 39 66 40 32 41 71 42 65 43 67 44 33 45
REMARK SMILES IDX 70 46 64 47 63 48 34 50 56 51 41 52 55 53 42 54 45 55 54 56
REMARK SMILES IDX 68 57 43 58 44 59 53 61 69 62 46 63 35 64 36 65 40 66 37 67
REMARK SMILES IDX 39 68 38 69 57 70 58 71 62 72 59 73 61 74 60 75 47 76 48 77
REMARK SMILES IDX 52 78 49 79 51 80 50 81
REMARK H PARENT 18 5 10 14 23 30 67 49 45 60
REMARK Flexibility Score: inf
ROOT
ATOM      1  C   UNL A   1      33.601  29.167  25.278  1.00  0.00     0.116 C 
ENDROOT
BRANCH   1   2
ATOM      2  N   UNL A   1      32.359  29.724  24.776  1.00  0.00    -0.352 N 
ATOM      3  C   UNL A   1      31.190  29.170  24.318  1.00  0.00     0.251 C 
ATOM      4  O   UNL A   1      30.281  29.960  24.050  1.00  0.00    -0.269 OA
ATOM      5  H   UNL A   1      32.353  30.708  24.760  1.00  0.00     0.163 HD
BRANCH   3   6
ATOM      6  C   UNL A   1      30.948  27.705  24.127  1.00  0.00     0.039 A 
ATOM      7  C   UNL A   1      30.644  24.919  23.582  1.00  0.00    -0.029 A 
ATOM      8  C   UNL A   1      31.040  25.812  22.577  1.00  0.00     0.006 A 
ATOM      9  C   UNL A   1      30.440  25.438  24.865  1.00  0.00     0.006 A 
ATOM     10  C   UNL A   1      31.188  27.180  22.846  1.00  0.00     0.014 A 
ATOM     11  C   UNL A   1      30.576  26.809  25.127  1.00  0.00     0.014 A 
BRANCH   7  12
ATOM     12  C   UNL A   1      30.570  23.432  23.270  1.00  0.00     0.149 C 
BRANCH  12  13
ATOM     13  N   UNL A   1      31.838  22.903  22.793  1.00  0.00    -0.375 N 
ATOM     14  H   UNL A   1      32.047  23.090  21.849  1.00  0.00     0.161 HD
BRANCH  13  15
ATOM     15  C   UNL A   1      32.791  22.173  23.480  1.00  0.00     0.114 A 
ATOM     16  C   UNL A   1      32.846  18.518  24.693  1.00  0.00     0.044 C 
ATOM     17  C   UNL A   1      33.275  19.934  24.442  1.00  0.00    -0.049 A 
ATOM     18  C   UNL A   1      34.527  20.369  24.873  1.00  0.00     0.010 A 
ATOM     19  C   UNL A   1      32.434  20.833  23.762  1.00  0.00     0.036 A 
ATOM     20  C   UNL A   1      34.909  21.688  24.649  1.00  0.00     0.088 A 
ATOM     21  C   UNL A   1      34.040  22.574  23.980  1.00  0.00     0.292 A 
BRANCH  21  22
ATOM     22  N   UNL A   1      34.576  23.903  23.771  1.00  0.00     0.064 N 
ATOM     23  O   UNL A   1      34.342  24.439  22.677  1.00  0.00    -0.258 OA
ATOM     24  O   UNL A   1      35.288  24.383  24.663  1.00  0.00    -0.258 OA
ENDBRANCH  21  22
ENDBRANCH  13  15
ENDBRANCH  12  13
ENDBRANCH   7  12
ENDBRANCH   3   6
ENDBRANCH   1   2
BRANCH   1  25
ATOM     25  C   UNL A   1      33.586  28.974  26.804  1.00  0.00     0.023 C 
BRANCH  25  26
ATOM     26  C   UNL A   1      33.238  30.228  27.614  1.00  0.00     0.023 C 
BRANCH  26  27
ATOM     27  C   UNL A   1      34.167  31.404  27.351  1.00  0.00     0.116 C 
BRANCH  27  28
ATOM     28  N   UNL A   1      34.746  32.011  28.541  1.00  0.00    -0.352 N 
ATOM     29  C   UNL A   1      35.706  31.515  29.415  1.00  0.00     0.251 C 
ATOM     30  H   UNL A   1      34.407  32.910  28.760  1.00  0.00     0.163 HD
ATOM     31  O   UNL A   1      35.994  32.137  30.419  1.00  0.00    -0.269 OA
BRANCH  29  32
ATOM     32  C   UNL A   1      36.493  30.307  29.037  1.00  0.00     0.039 A 
ATOM     33  C   UNL A   1      36.710  29.349  30.035  1.00  0.00     0.014 A 
ATOM     34  C   UNL A   1      37.209  30.245  27.846  1.00  0.00     0.014 A 
ATOM     35  C   UNL A   1      37.839  28.539  29.964  1.00  0.00     0.010 A 
ATOM     36  C   UNL A   1      38.391  29.531  27.826  1.00  0.00     0.010 A 
ATOM     37  C   UNL A   1      38.746  28.746  28.927  1.00  0.00    -0.014 A 
BRANCH  37  38
ATOM     38  C   UNL A   1      40.138  28.320  28.995  1.00  0.00     0.031 A 
ATOM     39  C   UNL A   1      40.548  27.004  28.472  1.00  0.00     0.074 A 
ATOM     40  C   UNL A   1      41.064  29.157  29.514  1.00  0.00     0.049 A 
ATOM     41  N   UNL A   1      41.622  26.388  28.834  1.00  0.00    -0.248 NA
ATOM     42  C   UNL A   1      39.718  26.223  27.559  1.00  0.00     0.031 C 
ATOM     43  C   UNL A   1      42.518  29.043  29.444  1.00  0.00     0.029 A 
ATOM     44  N   UNL A   1      40.851  30.192  30.419  1.00  0.00    -0.354 N 
ATOM     45  C   UNL A   1      41.776  25.303  28.006  1.00  0.00     0.074 A 
ATOM     46  C   UNL A   1      40.510  25.172  27.326  1.00  0.00     0.031 C 
ATOM     47  C   UNL A   1      43.062  29.790  30.420  1.00  0.00     0.029 A 
ATOM     48  C   UNL A   1      41.977  30.293  31.246  1.00  0.00     0.049 A 
ATOM     49  H   UNL A   1      40.047  30.756  30.469  1.00  0.00     0.167 HD
ATOM     50  C   UNL A   1      43.005  24.730  27.891  1.00  0.00     0.031 A 
ATOM     51  C   UNL A   1      41.872  30.088  32.592  1.00  0.00     0.031 A 
ATOM     52  C   UNL A   1      43.927  25.227  28.914  1.00  0.00     0.049 A 
ATOM     53  C   UNL A   1      42.635  28.874  33.086  1.00  0.00     0.074 A 
ATOM     54  C   UNL A   1      44.985  26.119  28.893  1.00  0.00     0.029 A 
ATOM     55  N   UNL A   1      43.623  25.009  30.255  1.00  0.00    -0.354 N 
ATOM     56  N   UNL A   1      43.110  27.941  32.308  1.00  0.00    -0.248 NA
ATOM     57  C   UNL A   1      42.880  28.594  34.499  1.00  0.00     0.031 C 
ATOM     58  C   UNL A   1      45.244  26.519  30.233  1.00  0.00     0.029 A 
ATOM     59  C   UNL A   1      44.377  25.835  31.067  1.00  0.00     0.049 A 
ATOM     60  H   UNL A   1      42.962  24.356  30.580  1.00  0.00     0.167 HD
ATOM     61  C   UNL A   1      43.671  26.949  33.068  1.00  0.00     0.074 A 
ATOM     62  C   UNL A   1      43.524  27.416  34.434  1.00  0.00     0.031 C 
ATOM     63  C   UNL A   1      44.186  25.814  32.513  1.00  0.00     0.031 A 
BRANCH  50  64
ATOM     64  C   UNL A   1      43.449  23.892  26.708  1.00  0.00    -0.014 A 
ATOM     65  C   UNL A   1      43.471  22.488  26.823  1.00  0.00     0.009 A 
ATOM     66  C   UNL A   1      43.961  24.405  25.502  1.00  0.00     0.009 A 
ATOM     67  C   UNL A   1      44.004  21.664  25.819  1.00  0.00     0.001 A 
ATOM     68  C   UNL A   1      44.483  23.589  24.488  1.00  0.00     0.001 A 
ATOM     69  C   UNL A   1      44.516  22.215  24.652  1.00  0.00     0.000 A 
ENDBRANCH  50  64
BRANCH  51  70
ATOM     70  C   UNL A   1      40.588  30.576  33.171  1.00  0.00    -0.014 A 
ATOM     71  C   UNL A   1      40.220  31.916  32.934  1.00  0.00     0.009 A 
ATOM     72  C   UNL A   1      39.604  29.680  33.610  1.00  0.00     0.009 A 
ATOM     73  C   UNL A   1      38.883  32.318  33.017  1.00  0.00     0.001 A 
ATOM     74  C   UNL A   1      38.267  30.090  33.700  1.00  0.00     0.001 A 
ATOM     75  C   UNL A   1      37.903  31.395  33.370  1.00  0.00     0.000 A 
ENDBRANCH  51  70
BRANCH  63  76
ATOM     76  C   UNL A   1      44.604  24.580  33.275  1.00  0.00    -0.014 A 
ATOM     77  C   UNL A   1      45.936  24.207  33.501  1.00  0.00     0.009 A 
ATOM     78  C   UNL A   1      43.612  23.814  33.928  1.00  0.00     0.009 A 
ATOM     79  C   UNL A   1      46.258  23.097  34.296  1.00  0.00     0.001 A 
ATOM     80  C   UNL A   1      43.931  22.737  34.759  1.00  0.00     0.001 A 
ATOM     81  C   UNL A   1      45.257  22.370  34.932  1.00  0.00     0.000 A 
ENDBRANCH  63  76
ENDBRANCH  37  38
ENDBRANCH  29  32
ENDBRANCH  27  28
ENDBRANCH  26  27
ENDBRANCH  25  26
ENDBRANCH   1  25
TORSDOF 15
ENDMDL
