MODEL 1
REMARK VINA RESULT:     -10.4      0.000      0.000
REMARK SMILES CNC(=O)NC(=O)CCSc1csc(C(=O)NCCCCNC(=O)c2ccc(-c3c4nc(c(-c5ccccc5)c5ccc([nH]5)c(-c5ccccc5)c5nc(c(-c6ccccc6)c6ccc3[nH]6)C=C5)C=C4)cc2)c1
REMARK SMILES IDX 18 1 17 2 15 3 16 4 14 6 11 7 12 8 73 9 13 10 10 11 9 12
REMARK SMILES IDX 8 13 6 14 1 15 2 16 3 17 4 19 5 20 7 22 19 23 20 24 21 25
REMARK SMILES IDX 22 26 23 27 24 29 25 30 26 31 72 32 27 33 71 34 28 35 29 36
REMARK SMILES IDX 30 37 65 38 31 39 70 40 64 41 66 42 32 43 69 44 63 45 62 46
REMARK SMILES IDX 33 48 55 49 40 50 54 51 41 52 44 53 53 54 67 55 42 56 43 57
REMARK SMILES IDX 52 59 68 60 45 61 34 62 35 63 39 64 36 65 38 66 37 67 56 68
REMARK SMILES IDX 57 69 61 70 58 71 60 72 59 73 46 74 47 75 51 76 48 77 50 78
REMARK SMILES IDX 49 79
REMARK H PARENT 17 5 2 18 5 21 22 28 66 47 44 58
REMARK Flexibility Score: inf
ROOT
ATOM      1  C   UNL A   1      33.612  28.759  26.338  1.00  0.00     0.116 C 
ENDROOT
BRANCH   1   2
ATOM      2  N   UNL A   1      33.737  29.187  24.957  1.00  0.00    -0.351 N 
ATOM      3  C   UNL A   1      33.527  28.455  23.801  1.00  0.00     0.261 C 
ATOM      4  O   UNL A   1      33.784  29.016  22.733  1.00  0.00    -0.268 OA
ATOM      5  H   UNL A   1      34.007  30.124  24.825  1.00  0.00     0.163 HD
BRANCH   3   6
ATOM      6  C   UNL A   1      33.067  27.080  23.909  1.00  0.00     0.093 A 
ATOM      7  C   UNL A   1      32.975  24.803  23.551  1.00  0.00     0.019 A 
ATOM      8  C   UNL A   1      31.641  25.074  23.742  1.00  0.00     0.080 A 
ATOM      9  C   UNL A   1      33.788  25.900  23.921  1.00  0.00     0.040 A 
ATOM     10  S   UNL A   1      31.387  26.745  24.039  1.00  0.00    -0.137 S 
BRANCH   7  11
ATOM     11  S   UNL A   1      33.612  23.300  22.914  1.00  0.00    -0.125 SA
BRANCH  11  12
ATOM     12  C   UNL A   1      35.194  23.151  23.822  1.00  0.00     0.085 C 
BRANCH  12  13
ATOM     13  C   UNL A   1      35.274  22.403  25.156  1.00  0.00     0.112 C 
BRANCH  13  14
ATOM     14  C   UNL A   1      35.264  20.899  25.176  1.00  0.00     0.228 C 
ATOM     15  C   UNL A   1      32.313  22.434  26.467  1.00  0.00     0.144 C 
ATOM     16  N   UNL A   1      32.048  21.254  25.690  1.00  0.00    -0.341 N 
ATOM     17  C   UNL A   1      32.779  20.180  25.380  1.00  0.00     0.321 C 
ATOM     18  H   UNL A   1      31.141  21.232  25.309  1.00  0.00     0.165 HD
ATOM     19  O   UNL A   1      32.172  19.165  25.028  1.00  0.00    -0.248 OA
ATOM     20  N   UNL A   1      34.140  20.132  25.387  1.00  0.00    -0.278 N 
ATOM     21  H   UNL A   1      34.421  19.221  25.631  1.00  0.00     0.174 HD
ATOM     22  O   UNL A   1      36.328  20.288  25.020  1.00  0.00    -0.275 OA
ENDBRANCH  13  14
ENDBRANCH  12  13
ENDBRANCH  11  12
ENDBRANCH   7  11
ENDBRANCH   3   6
ENDBRANCH   1   2
BRANCH   1  23
ATOM     23  C   UNL A   1      32.420  29.343  27.083  1.00  0.00     0.023 C 
BRANCH  23  24
ATOM     24  C   UNL A   1      32.117  30.800  26.780  1.00  0.00     0.023 C 
BRANCH  24  25
ATOM     25  C   UNL A   1      33.179  31.788  27.237  1.00  0.00     0.116 C 
BRANCH  25  26
ATOM     26  N   UNL A   1      32.662  33.123  27.513  1.00  0.00    -0.352 N 
ATOM     27  C   UNL A   1      33.163  34.077  28.371  1.00  0.00     0.251 C 
ATOM     28  H   UNL A   1      31.848  33.377  27.022  1.00  0.00     0.163 HD
ATOM     29  O   UNL A   1      32.562  35.126  28.570  1.00  0.00    -0.269 OA
BRANCH  27  30
ATOM     30  C   UNL A   1      34.424  33.791  29.084  1.00  0.00     0.039 A 
ATOM     31  C   UNL A   1      34.398  32.974  30.217  1.00  0.00     0.014 A 
ATOM     32  C   UNL A   1      35.637  34.241  28.559  1.00  0.00     0.014 A 
ATOM     33  C   UNL A   1      35.602  32.527  30.766  1.00  0.00     0.010 A 
ATOM     34  C   UNL A   1      36.825  33.712  29.042  1.00  0.00     0.010 A 
ATOM     35  C   UNL A   1      36.822  32.849  30.149  1.00  0.00    -0.014 A 
BRANCH  35  36
ATOM     36  C   UNL A   1      38.117  32.310  30.636  1.00  0.00     0.031 A 
ATOM     37  C   UNL A   1      38.671  31.053  30.024  1.00  0.00     0.074 A 
ATOM     38  C   UNL A   1      38.742  32.883  31.684  1.00  0.00     0.049 A 
ATOM     39  N   UNL A   1      39.706  30.339  30.390  1.00  0.00    -0.248 NA
ATOM     40  C   UNL A   1      37.943  30.504  28.868  1.00  0.00     0.031 C 
ATOM     41  C   UNL A   1      38.295  34.086  32.390  1.00  0.00     0.029 A 
ATOM     42  N   UNL A   1      39.887  32.518  32.350  1.00  0.00    -0.354 N 
ATOM     43  C   UNL A   1      39.732  29.249  29.530  1.00  0.00     0.074 A 
ATOM     44  C   UNL A   1      38.582  29.363  28.663  1.00  0.00     0.031 C 
ATOM     45  C   UNL A   1      39.166  34.371  33.372  1.00  0.00     0.029 A 
ATOM     46  C   UNL A   1      40.204  33.345  33.400  1.00  0.00     0.049 A 
ATOM     47  H   UNL A   1      40.428  31.736  32.098  1.00  0.00     0.167 HD
ATOM     48  C   UNL A   1      40.645  28.253  29.453  1.00  0.00     0.031 A 
ATOM     49  C   UNL A   1      41.208  33.276  34.296  1.00  0.00     0.031 A 
ATOM     50  C   UNL A   1      41.797  28.149  30.306  1.00  0.00     0.049 A 
ATOM     51  C   UNL A   1      42.196  32.145  34.206  1.00  0.00     0.074 A 
ATOM     52  C   UNL A   1      42.809  27.207  30.273  1.00  0.00     0.029 A 
ATOM     53  N   UNL A   1      42.088  29.017  31.345  1.00  0.00    -0.354 N 
ATOM     54  N   UNL A   1      42.241  31.153  33.349  1.00  0.00    -0.248 NA
ATOM     55  C   UNL A   1      43.277  32.128  35.202  1.00  0.00     0.031 C 
ATOM     56  C   UNL A   1      43.684  27.472  31.330  1.00  0.00     0.029 A 
ATOM     57  C   UNL A   1      43.254  28.620  31.976  1.00  0.00     0.049 A 
ATOM     58  H   UNL A   1      41.547  29.801  31.597  1.00  0.00     0.167 HD
ATOM     59  C   UNL A   1      43.375  30.420  33.675  1.00  0.00     0.074 A 
ATOM     60  C   UNL A   1      43.992  31.083  34.805  1.00  0.00     0.031 C 
ATOM     61  C   UNL A   1      43.865  29.301  33.089  1.00  0.00     0.031 A 
BRANCH  48  62
ATOM     62  C   UNL A   1      40.422  27.191  28.413  1.00  0.00    -0.014 A 
ATOM     63  C   UNL A   1      40.977  27.299  27.126  1.00  0.00     0.009 A 
ATOM     64  C   UNL A   1      39.670  26.050  28.731  1.00  0.00     0.009 A 
ATOM     65  C   UNL A   1      40.747  26.308  26.170  1.00  0.00     0.001 A 
ATOM     66  C   UNL A   1      39.472  25.043  27.784  1.00  0.00     0.001 A 
ATOM     67  C   UNL A   1      40.000  25.179  26.501  1.00  0.00     0.000 A 
ENDBRANCH  48  62
BRANCH  49  68
ATOM     68  C   UNL A   1      41.341  34.315  35.353  1.00  0.00    -0.014 A 
ATOM     69  C   UNL A   1      42.106  35.469  35.126  1.00  0.00     0.009 A 
ATOM     70  C   UNL A   1      40.719  34.152  36.602  1.00  0.00     0.009 A 
ATOM     71  C   UNL A   1      42.270  36.423  36.134  1.00  0.00     0.001 A 
ATOM     72  C   UNL A   1      40.858  35.122  37.597  1.00  0.00     0.001 A 
ATOM     73  C   UNL A   1      41.642  36.251  37.366  1.00  0.00     0.000 A 
ENDBRANCH  49  68
BRANCH  61  74
ATOM     74  C   UNL A   1      45.164  28.754  33.608  1.00  0.00    -0.014 A 
ATOM     75  C   UNL A   1      45.208  27.850  34.680  1.00  0.00     0.009 A 
ATOM     76  C   UNL A   1      46.361  29.100  32.961  1.00  0.00     0.009 A 
ATOM     77  C   UNL A   1      46.428  27.325  35.110  1.00  0.00     0.001 A 
ATOM     78  C   UNL A   1      47.576  28.549  33.372  1.00  0.00     0.001 A 
ATOM     79  C   UNL A   1      47.609  27.668  34.451  1.00  0.00     0.000 A 
ENDBRANCH  61  74
ENDBRANCH  35  36
ENDBRANCH  27  30
ENDBRANCH  25  26
ENDBRANCH  24  25
ENDBRANCH  23  24
ENDBRANCH   1  23
TORSDOF 15
ENDMDL
MODEL 2
REMARK VINA RESULT:     -10.0      2.321      8.000
REMARK SMILES CNC(=O)NC(=O)CCSc1csc(C(=O)NCCCCNC(=O)c2ccc(-c3c4nc(c(-c5ccccc5)c5ccc([nH]5)c(-c5ccccc5)c5nc(c(-c6ccccc6)c6ccc3[nH]6)C=C5)C=C4)cc2)c1
REMARK SMILES IDX 18 1 17 2 15 3 16 4 14 6 11 7 12 8 73 9 13 10 10 11 9 12
REMARK SMILES IDX 8 13 6 14 1 15 2 16 3 17 4 19 5 20 7 22 19 23 20 24 21 25
REMARK SMILES IDX 22 26 23 27 24 29 25 30 26 31 72 32 27 33 71 34 28 35 29 36
REMARK SMILES IDX 30 37 65 38 31 39 70 40 64 41 66 42 32 43 69 44 63 45 62 46
REMARK SMILES IDX 33 48 55 49 40 50 54 51 41 52 44 53 53 54 67 55 42 56 43 57
REMARK SMILES IDX 52 59 68 60 45 61 34 62 35 63 39 64 36 65 38 66 37 67 56 68
REMARK SMILES IDX 57 69 61 70 58 71 60 72 59 73 46 74 47 75 51 76 48 77 50 78
REMARK SMILES IDX 49 79
REMARK H PARENT 17 5 2 18 5 21 22 28 66 47 44 58
REMARK Flexibility Score: inf
ROOT
ATOM      1  C   UNL A   1      34.781  23.248  26.404  1.00  0.00     0.116 C 
ENDROOT
BRANCH   1   2
ATOM      2  N   UNL A   1      33.400  23.517  26.760  1.00  0.00    -0.351 N 
ATOM      3  C   UNL A   1      32.523  24.430  26.201  1.00  0.00     0.261 C 
ATOM      4  O   UNL A   1      31.418  24.539  26.737  1.00  0.00    -0.268 OA
ATOM      5  H   UNL A   1      33.039  22.977  27.500  1.00  0.00     0.163 HD
BRANCH   3   6
ATOM      6  C   UNL A   1      32.960  25.225  25.065  1.00  0.00     0.093 A 
ATOM      7  C   UNL A   1      33.436  27.090  23.793  1.00  0.00     0.019 A 
ATOM      8  C   UNL A   1      33.065  26.209  22.806  1.00  0.00     0.080 A 
ATOM      9  C   UNL A   1      33.633  26.432  25.031  1.00  0.00     0.040 A 
ATOM     10  S   UNL A   1      32.640  24.683  23.466  1.00  0.00    -0.137 S 
BRANCH   7  11
ATOM     11  S   UNL A   1      33.630  28.818  23.576  1.00  0.00    -0.125 SA
BRANCH  11  12
ATOM     12  C   UNL A   1      32.773  29.478  25.053  1.00  0.00     0.085 C 
BRANCH  12  13
ATOM     13  C   UNL A   1      31.264  29.732  25.044  1.00  0.00     0.112 C 
BRANCH  13  14
ATOM     14  C   UNL A   1      30.735  31.129  25.218  1.00  0.00     0.228 C 
ATOM     15  C   UNL A   1      30.014  29.638  22.058  1.00  0.00     0.144 C 
ATOM     16  N   UNL A   1      28.928  30.423  22.579  1.00  0.00    -0.341 N 
ATOM     17  C   UNL A   1      28.866  31.438  23.445  1.00  0.00     0.321 C 
ATOM     18  H   UNL A   1      28.049  30.159  22.223  1.00  0.00     0.165 HD
ATOM     19  O   UNL A   1      27.863  32.155  23.405  1.00  0.00    -0.248 OA
ATOM     20  N   UNL A   1      29.807  31.718  24.389  1.00  0.00    -0.278 N 
ATOM     21  H   UNL A   1      29.832  32.692  24.529  1.00  0.00     0.174 HD
ATOM     22  O   UNL A   1      31.167  31.825  26.146  1.00  0.00    -0.275 OA
ENDBRANCH  13  14
ENDBRANCH  12  13
ENDBRANCH  11  12
ENDBRANCH   7  11
ENDBRANCH   3   6
ENDBRANCH   1   2
BRANCH   1  23
ATOM     23  C   UNL A   1      34.967  22.239  25.280  1.00  0.00     0.023 C 
BRANCH  23  24
ATOM     24  C   UNL A   1      36.260  22.376  24.494  1.00  0.00     0.023 C 
BRANCH  24  25
ATOM     25  C   UNL A   1      37.345  23.194  25.178  1.00  0.00     0.116 C 
BRANCH  25  26
ATOM     26  N   UNL A   1      38.521  22.417  25.552  1.00  0.00    -0.352 N 
ATOM     27  C   UNL A   1      39.619  22.818  26.279  1.00  0.00     0.251 C 
ATOM     28  H   UNL A   1      38.532  21.482  25.244  1.00  0.00     0.163 HD
ATOM     29  O   UNL A   1      40.581  22.074  26.434  1.00  0.00    -0.269 OA
BRANCH  27  30
ATOM     30  C   UNL A   1      39.635  24.186  26.835  1.00  0.00     0.039 A 
ATOM     31  C   UNL A   1      39.114  24.411  28.111  1.00  0.00     0.014 A 
ATOM     32  C   UNL A   1      40.268  25.214  26.133  1.00  0.00     0.014 A 
ATOM     33  C   UNL A   1      39.319  25.649  28.725  1.00  0.00     0.010 A 
ATOM     34  C   UNL A   1      40.560  26.403  26.785  1.00  0.00     0.010 A 
ATOM     35  C   UNL A   1      40.091  26.635  28.087  1.00  0.00    -0.014 A 
BRANCH  35  36
ATOM     36  C   UNL A   1      40.421  27.924  28.745  1.00  0.00     0.031 A 
ATOM     37  C   UNL A   1      41.749  28.083  29.434  1.00  0.00     0.074 A 
ATOM     38  C   UNL A   1      39.503  28.909  28.814  1.00  0.00     0.049 A 
ATOM     39  N   UNL A   1      42.182  29.065  30.183  1.00  0.00    -0.248 NA
ATOM     40  C   UNL A   1      42.705  26.971  29.291  1.00  0.00     0.031 C 
ATOM     41  C   UNL A   1      38.166  28.871  28.218  1.00  0.00     0.029 A 
ATOM     42  N   UNL A   1      39.553  30.135  29.432  1.00  0.00    -0.354 N 
ATOM     43  C   UNL A   1      43.442  28.676  30.619  1.00  0.00     0.074 A 
ATOM     44  C   UNL A   1      43.681  27.348  30.101  1.00  0.00     0.031 C 
ATOM     45  C   UNL A   1      37.534  30.027  28.479  1.00  0.00     0.029 A 
ATOM     46  C   UNL A   1      38.398  30.866  29.303  1.00  0.00     0.049 A 
ATOM     47  H   UNL A   1      40.343  30.458  29.922  1.00  0.00     0.167 HD
ATOM     48  C   UNL A   1      44.331  29.370  31.368  1.00  0.00     0.031 A 
ATOM     49  C   UNL A   1      38.064  32.071  29.807  1.00  0.00     0.031 A 
ATOM     50  C   UNL A   1      44.098  30.696  31.870  1.00  0.00     0.049 A 
ATOM     51  C   UNL A   1      39.060  32.813  30.657  1.00  0.00     0.074 A 
ATOM     52  C   UNL A   1      44.957  31.505  32.592  1.00  0.00     0.029 A 
ATOM     53  N   UNL A   1      42.920  31.406  31.702  1.00  0.00    -0.354 N 
ATOM     54  N   UNL A   1      40.271  32.456  31.012  1.00  0.00    -0.248 NA
ATOM     55  C   UNL A   1      38.646  34.127  31.168  1.00  0.00     0.031 C 
ATOM     56  C   UNL A   1      44.278  32.684  32.910  1.00  0.00     0.029 A 
ATOM     57  C   UNL A   1      43.022  32.637  32.326  1.00  0.00     0.049 A 
ATOM     58  H   UNL A   1      42.130  31.084  31.211  1.00  0.00     0.167 HD
ATOM     59  C   UNL A   1      40.778  33.518  31.751  1.00  0.00     0.074 A 
ATOM     60  C   UNL A   1      39.746  34.533  31.789  1.00  0.00     0.031 C 
ATOM     61  C   UNL A   1      41.991  33.643  32.341  1.00  0.00     0.031 A 
BRANCH  48  62
ATOM     62  C   UNL A   1      45.635  28.696  31.693  1.00  0.00    -0.014 A 
ATOM     63  C   UNL A   1      46.812  29.001  30.989  1.00  0.00     0.009 A 
ATOM     64  C   UNL A   1      45.695  27.762  32.738  1.00  0.00     0.009 A 
ATOM     65  C   UNL A   1      48.010  28.354  31.297  1.00  0.00     0.001 A 
ATOM     66  C   UNL A   1      46.902  27.143  33.068  1.00  0.00     0.001 A 
ATOM     67  C   UNL A   1      48.055  27.430  32.340  1.00  0.00     0.000 A 
ENDBRANCH  48  62
BRANCH  49  68
ATOM     68  C   UNL A   1      36.730  32.662  29.514  1.00  0.00    -0.014 A 
ATOM     69  C   UNL A   1      35.679  32.541  30.436  1.00  0.00     0.009 A 
ATOM     70  C   UNL A   1      36.494  33.338  28.306  1.00  0.00     0.009 A 
ATOM     71  C   UNL A   1      34.413  33.055  30.143  1.00  0.00     0.001 A 
ATOM     72  C   UNL A   1      35.237  33.879  28.029  1.00  0.00     0.001 A 
ATOM     73  C   UNL A   1      34.195  33.727  28.942  1.00  0.00     0.000 A 
ENDBRANCH  49  68
BRANCH  61  74
ATOM     74  C   UNL A   1      42.303  34.945  33.024  1.00  0.00    -0.014 A 
ATOM     75  C   UNL A   1      41.844  35.226  34.319  1.00  0.00     0.009 A 
ATOM     76  C   UNL A   1      43.133  35.876  32.378  1.00  0.00     0.009 A 
ATOM     77  C   UNL A   1      42.189  36.427  34.943  1.00  0.00     0.001 A 
ATOM     78  C   UNL A   1      43.502  37.060  33.017  1.00  0.00     0.001 A 
ATOM     79  C   UNL A   1      43.023  37.338  34.295  1.00  0.00     0.000 A 
ENDBRANCH  61  74
ENDBRANCH  35  36
ENDBRANCH  27  30
ENDBRANCH  25  26
ENDBRANCH  24  25
ENDBRANCH  23  24
ENDBRANCH   1  23
TORSDOF 15
ENDMDL
MODEL 3
REMARK VINA RESULT:     -10.0      1.757      7.691
REMARK SMILES CNC(=O)NC(=O)CCSc1csc(C(=O)NCCCCNC(=O)c2ccc(-c3c4nc(c(-c5ccccc5)c5ccc([nH]5)c(-c5ccccc5)c5nc(c(-c6ccccc6)c6ccc3[nH]6)C=C5)C=C4)cc2)c1
REMARK SMILES IDX 18 1 17 2 15 3 16 4 14 6 11 7 12 8 73 9 13 10 10 11 9 12
REMARK SMILES IDX 8 13 6 14 1 15 2 16 3 17 4 19 5 20 7 22 19 23 20 24 21 25
REMARK SMILES IDX 22 26 23 27 24 29 25 30 26 31 72 32 27 33 71 34 28 35 29 36
REMARK SMILES IDX 30 37 65 38 31 39 70 40 64 41 66 42 32 43 69 44 63 45 62 46
REMARK SMILES IDX 33 48 55 49 40 50 54 51 41 52 44 53 53 54 67 55 42 56 43 57
REMARK SMILES IDX 52 59 68 60 45 61 34 62 35 63 39 64 36 65 38 66 37 67 56 68
REMARK SMILES IDX 57 69 61 70 58 71 60 72 59 73 46 74 47 75 51 76 48 77 50 78
REMARK SMILES IDX 49 79
REMARK H PARENT 17 5 2 18 5 21 22 28 66 47 44 58
REMARK Flexibility Score: inf
ROOT
ATOM      1  C   UNL A   1      34.074  22.524  27.001  1.00  0.00     0.116 C 
ENDROOT
BRANCH   1   2
ATOM      2  N   UNL A   1      32.703  22.071  26.862  1.00  0.00    -0.351 N 
ATOM      3  C   UNL A   1      31.851  22.204  25.780  1.00  0.00     0.261 C 
ATOM      4  O   UNL A   1      30.692  21.812  25.932  1.00  0.00    -0.268 OA
ATOM      5  H   UNL A   1      32.328  21.605  27.645  1.00  0.00     0.163 HD
BRANCH   3   6
ATOM      6  C   UNL A   1      32.347  22.827  24.563  1.00  0.00     0.093 A 
ATOM      7  C   UNL A   1      32.568  24.379  22.870  1.00  0.00     0.019 A 
ATOM      8  C   UNL A   1      32.853  23.224  22.182  1.00  0.00     0.080 A 
ATOM      9  C   UNL A   1      32.555  24.162  24.269  1.00  0.00     0.040 A 
ATOM     10  S   UNL A   1      32.765  21.853  23.211  1.00  0.00    -0.137 S 
BRANCH   7  11
ATOM     11  S   UNL A   1      32.240  25.933  22.131  1.00  0.00    -0.125 SA
BRANCH  11  12
ATOM     12  C   UNL A   1      31.742  26.937  23.578  1.00  0.00     0.085 C 
BRANCH  12  13
ATOM     13  C   UNL A   1      32.783  27.503  24.546  1.00  0.00     0.112 C 
BRANCH  13  14
ATOM     14  C   UNL A   1      33.274  28.915  24.380  1.00  0.00     0.228 C 
ATOM     15  C   UNL A   1      31.772  28.214  27.539  1.00  0.00     0.144 C 
ATOM     16  N   UNL A   1      32.921  29.073  27.632  1.00  0.00    -0.341 N 
ATOM     17  C   UNL A   1      33.519  29.898  26.769  1.00  0.00     0.321 C 
ATOM     18  H   UNL A   1      33.356  29.050  28.515  1.00  0.00     0.165 HD
ATOM     19  O   UNL A   1      34.239  30.783  27.238  1.00  0.00    -0.248 OA
ATOM     20  N   UNL A   1      33.423  29.813  25.413  1.00  0.00    -0.278 N 
ATOM     21  H   UNL A   1      33.480  30.721  25.036  1.00  0.00     0.174 HD
ATOM     22  O   UNL A   1      33.545  29.329  23.245  1.00  0.00    -0.275 OA
ENDBRANCH  13  14
ENDBRANCH  12  13
ENDBRANCH  11  12
ENDBRANCH   7  11
ENDBRANCH   3   6
ENDBRANCH   1   2
BRANCH   1  23
ATOM     23  C   UNL A   1      35.122  21.578  26.433  1.00  0.00     0.023 C 
BRANCH  23  24
ATOM     24  C   UNL A   1      35.953  22.140  25.294  1.00  0.00     0.023 C 
BRANCH  24  25
ATOM     25  C   UNL A   1      37.095  23.052  25.718  1.00  0.00     0.116 C 
BRANCH  25  26
ATOM     26  N   UNL A   1      38.388  22.383  25.789  1.00  0.00    -0.352 N 
ATOM     27  C   UNL A   1      39.586  22.877  26.256  1.00  0.00     0.251 C 
ATOM     28  H   UNL A   1      38.409  21.456  25.459  1.00  0.00     0.163 HD
ATOM     29  O   UNL A   1      40.618  22.223  26.163  1.00  0.00    -0.269 OA
BRANCH  27  30
ATOM     30  C   UNL A   1      39.610  24.236  26.834  1.00  0.00     0.039 A 
ATOM     31  C   UNL A   1      39.105  24.441  28.120  1.00  0.00     0.014 A 
ATOM     32  C   UNL A   1      40.236  25.274  26.142  1.00  0.00     0.014 A 
ATOM     33  C   UNL A   1      39.319  25.668  28.752  1.00  0.00     0.010 A 
ATOM     34  C   UNL A   1      40.538  26.451  26.809  1.00  0.00     0.010 A 
ATOM     35  C   UNL A   1      40.084  26.663  28.121  1.00  0.00    -0.014 A 
BRANCH  35  36
ATOM     36  C   UNL A   1      40.424  27.941  28.796  1.00  0.00     0.031 A 
ATOM     37  C   UNL A   1      41.754  28.080  29.485  1.00  0.00     0.074 A 
ATOM     38  C   UNL A   1      39.513  28.931  28.878  1.00  0.00     0.049 A 
ATOM     39  N   UNL A   1      42.195  29.049  30.247  1.00  0.00    -0.248 NA
ATOM     40  C   UNL A   1      42.702  26.965  29.326  1.00  0.00     0.031 C 
ATOM     41  C   UNL A   1      38.175  28.911  28.283  1.00  0.00     0.029 A 
ATOM     42  N   UNL A   1      39.573  30.148  29.513  1.00  0.00    -0.354 N 
ATOM     43  C   UNL A   1      43.452  28.646  30.677  1.00  0.00     0.074 A 
ATOM     44  C   UNL A   1      43.682  27.324  30.140  1.00  0.00     0.031 C 
ATOM     45  C   UNL A   1      37.552  30.068  28.561  1.00  0.00     0.029 A 
ATOM     46  C   UNL A   1      38.422  30.889  29.395  1.00  0.00     0.049 A 
ATOM     47  H   UNL A   1      40.365  30.458  30.007  1.00  0.00     0.167 HD
ATOM     48  C   UNL A   1      44.346  29.323  31.434  1.00  0.00     0.031 A 
ATOM     49  C   UNL A   1      38.098  32.089  29.916  1.00  0.00     0.031 A 
ATOM     50  C   UNL A   1      44.124  30.644  31.954  1.00  0.00     0.049 A 
ATOM     51  C   UNL A   1      39.100  32.812  30.775  1.00  0.00     0.074 A 
ATOM     52  C   UNL A   1      44.988  31.437  32.686  1.00  0.00     0.029 A 
ATOM     53  N   UNL A   1      42.951  31.364  31.797  1.00  0.00    -0.354 N 
ATOM     54  N   UNL A   1      40.308  32.443  31.124  1.00  0.00    -0.248 NA
ATOM     55  C   UNL A   1      38.695  34.123  31.304  1.00  0.00     0.031 C 
ATOM     56  C   UNL A   1      44.318  32.616  33.021  1.00  0.00     0.029 A 
ATOM     57  C   UNL A   1      43.061  32.586  32.438  1.00  0.00     0.049 A 
ATOM     58  H   UNL A   1      42.157  31.055  31.302  1.00  0.00     0.167 HD
ATOM     59  C   UNL A   1      40.823  33.491  31.876  1.00  0.00     0.074 A 
ATOM     60  C   UNL A   1      39.798  34.512  31.930  1.00  0.00     0.031 C 
ATOM     61  C   UNL A   1      42.038  33.600  32.467  1.00  0.00     0.031 A 
BRANCH  48  62
ATOM     62  C   UNL A   1      45.646  28.636  31.748  1.00  0.00    -0.014 A 
ATOM     63  C   UNL A   1      46.755  28.738  30.891  1.00  0.00     0.009 A 
ATOM     64  C   UNL A   1      45.774  27.897  32.935  1.00  0.00     0.009 A 
ATOM     65  C   UNL A   1      47.948  28.081  31.195  1.00  0.00     0.001 A 
ATOM     66  C   UNL A   1      46.981  27.271  33.254  1.00  0.00     0.001 A 
ATOM     67  C   UNL A   1      48.062  27.353  32.378  1.00  0.00     0.000 A 
ENDBRANCH  48  62
BRANCH  49  68
ATOM     68  C   UNL A   1      36.768  32.694  29.632  1.00  0.00    -0.014 A 
ATOM     69  C   UNL A   1      36.553  33.422  28.452  1.00  0.00     0.009 A 
ATOM     70  C   UNL A   1      35.709  32.560  30.546  1.00  0.00     0.009 A 
ATOM     71  C   UNL A   1      35.319  34.029  28.207  1.00  0.00     0.001 A 
ATOM     72  C   UNL A   1      34.467  33.141  30.283  1.00  0.00     0.001 A 
ATOM     73  C   UNL A   1      34.276  33.884  29.120  1.00  0.00     0.000 A 
ENDBRANCH  49  68
BRANCH  61  74
ATOM     74  C   UNL A   1      42.359  34.889  33.167  1.00  0.00    -0.014 A 
ATOM     75  C   UNL A   1      43.111  35.898  32.547  1.00  0.00     0.009 A 
ATOM     76  C   UNL A   1      41.836  35.122  34.450  1.00  0.00     0.009 A 
ATOM     77  C   UNL A   1      43.354  37.103  33.208  1.00  0.00     0.001 A 
ATOM     78  C   UNL A   1      42.053  36.340  35.095  1.00  0.00     0.001 A 
ATOM     79  C   UNL A   1      42.819  37.326  34.477  1.00  0.00     0.000 A 
ENDBRANCH  61  74
ENDBRANCH  35  36
ENDBRANCH  27  30
ENDBRANCH  25  26
ENDBRANCH  24  25
ENDBRANCH  23  24
ENDBRANCH   1  23
TORSDOF 15
ENDMDL
