MODEL 1
REMARK VINA RESULT:     -11.7      0.000      0.000
REMARK SMILES O=C(NCCCCNC(=O)c1ccc(-c2c3nc(c(-c4ccccc4)c4ccc([nH]4)c(-c4ccccc4)c4nc(c(-c5ccccc5)c5ccc2[nH]5)C=C4)C=C3)cc1)C1=NN(c2ccccc2-c2ccccc2)[C@@H](c2ccccc2)C1
REMARK SMILES IDX 5 1 4 2 3 3 1 4 2 5 59 7 60 8 81 9 61 10 74 11 62 12 63 13
REMARK SMILES IDX 67 14 64 15 66 16 65 17 68 18 69 19 73 20 70 21 72 22 71 23
REMARK SMILES IDX 75 24 76 25 80 26 77 27 79 28 78 29 6 30 7 31 8 32 9 33
REMARK SMILES IDX 10 35 11 36 12 37 58 38 13 39 57 40 14 41 15 42 16 43 51 44
REMARK SMILES IDX 17 45 56 46 50 47 52 48 18 49 55 50 49 51 48 52 19 54 41 55
REMARK SMILES IDX 26 56 40 57 27 58 30 59 39 60 53 61 28 62 29 63 38 65 54 66
REMARK SMILES IDX 31 67 20 68 21 69 25 70 22 71 24 72 23 73 42 74 43 75 47 76
REMARK SMILES IDX 44 77 46 78 45 79 32 80 33 81 37 82 34 83 36 84 35 85
REMARK H PARENT 3 6 8 34 52 53 30 64
REMARK Flexibility Score: inf
ROOT
ATOM      1  C   UNL A   1      34.030  33.635  28.738  1.00  0.00     0.023 C 
ENDROOT
BRANCH   1   2
ATOM      2  C   UNL A   1      33.613  32.365  28.001  1.00  0.00     0.116 C 
BRANCH   2   3
ATOM      3  N   UNL A   1      34.721  31.447  27.812  1.00  0.00    -0.351 N 
ATOM      4  O   UNL A   1      35.715  29.520  27.125  1.00  0.00    -0.268 OA
ATOM      5  C   UNL A   1      34.712  30.216  27.197  1.00  0.00     0.267 C 
ATOM      6  H   UNL A   1      35.589  31.742  28.171  1.00  0.00     0.163 HD
BRANCH   5   7
ATOM      7  C   UNL A   1      33.421  29.678  26.648  1.00  0.00     0.128 C 
ATOM      8  N   UNL A   1      32.939  30.017  25.494  1.00  0.00    -0.171 NA
ATOM      9  C   UNL A   1      32.622  28.721  27.467  1.00  0.00     0.096 C 
ATOM     10  N   UNL A   1      31.714  29.424  25.418  1.00  0.00    -0.257 N 
ATOM     11  C   UNL A   1      31.441  28.491  26.519  1.00  0.00     0.144 C 
BRANCH  10  12
ATOM     12  C   UNL A   1      30.875  29.681  24.334  1.00  0.00     0.068 A 
ATOM     13  C   UNL A   1      29.824  30.604  24.509  1.00  0.00     0.028 A 
ATOM     14  C   UNL A   1      31.005  29.050  23.070  1.00  0.00     0.007 A 
ATOM     15  C   UNL A   1      28.962  30.952  23.468  1.00  0.00     0.002 A 
ATOM     16  C   UNL A   1      30.125  29.420  22.028  1.00  0.00     0.011 A 
ATOM     17  C   UNL A   1      29.119  30.366  22.222  1.00  0.00     0.001 A 
BRANCH  14  18
ATOM     18  C   UNL A   1      31.942  27.940  22.816  1.00  0.00    -0.016 A 
ATOM     19  C   UNL A   1      33.304  28.050  23.133  1.00  0.00     0.009 A 
ATOM     20  C   UNL A   1      31.487  26.742  22.235  1.00  0.00     0.009 A 
ATOM     21  C   UNL A   1      34.180  26.987  22.899  1.00  0.00     0.001 A 
ATOM     22  C   UNL A   1      32.361  25.679  22.001  1.00  0.00     0.001 A 
ATOM     23  C   UNL A   1      33.708  25.801  22.336  1.00  0.00     0.000 A 
ENDBRANCH  14  18
ENDBRANCH  10  12
BRANCH  11  24
ATOM     24  C   UNL A   1      31.341  27.051  26.041  1.00  0.00    -0.023 A 
ATOM     25  C   UNL A   1      30.140  26.516  25.546  1.00  0.00     0.006 A 
ATOM     26  C   UNL A   1      32.472  26.221  26.093  1.00  0.00     0.006 A 
ATOM     27  C   UNL A   1      30.073  25.189  25.119  1.00  0.00     0.000 A 
ATOM     28  C   UNL A   1      32.403  24.894  25.665  1.00  0.00     0.000 A 
ATOM     29  C   UNL A   1      31.204  24.378  25.178  1.00  0.00     0.000 A 
ENDBRANCH  11  24
ENDBRANCH   5   7
ENDBRANCH   2   3
ENDBRANCH   1   2
BRANCH   1  30
ATOM     30  C   UNL A   1      33.033  34.799  28.654  1.00  0.00     0.023 C 
BRANCH  30  31
ATOM     31  C   UNL A   1      33.367  36.034  29.495  1.00  0.00     0.116 C 
BRANCH  31  32
ATOM     32  N   UNL A   1      32.488  36.208  30.637  1.00  0.00    -0.352 N 
ATOM     33  C   UNL A   1      32.637  35.771  31.929  1.00  0.00     0.251 C 
ATOM     34  H   UNL A   1      31.664  36.716  30.458  1.00  0.00     0.163 HD
ATOM     35  O   UNL A   1      31.732  35.955  32.739  1.00  0.00    -0.269 OA
BRANCH  33  36
ATOM     36  C   UNL A   1      33.853  35.042  32.353  1.00  0.00     0.039 A 
ATOM     37  C   UNL A   1      33.707  33.720  32.789  1.00  0.00     0.014 A 
ATOM     38  C   UNL A   1      35.113  35.647  32.372  1.00  0.00     0.014 A 
ATOM     39  C   UNL A   1      34.825  32.984  33.185  1.00  0.00     0.010 A 
ATOM     40  C   UNL A   1      36.236  34.906  32.749  1.00  0.00     0.010 A 
ATOM     41  C   UNL A   1      36.100  33.567  33.147  1.00  0.00    -0.014 A 
BRANCH  41  42
ATOM     42  C   UNL A   1      37.302  32.774  33.487  1.00  0.00     0.031 A 
ATOM     43  C   UNL A   1      38.001  32.964  34.799  1.00  0.00     0.074 A 
ATOM     44  C   UNL A   1      37.789  31.900  32.588  1.00  0.00     0.049 A 
ATOM     45  N   UNL A   1      39.128  32.442  35.212  1.00  0.00    -0.248 NA
ATOM     46  C   UNL A   1      37.358  33.865  35.767  1.00  0.00     0.031 C 
ATOM     47  C   UNL A   1      37.213  31.629  31.269  1.00  0.00     0.029 A 
ATOM     48  N   UNL A   1      38.889  31.084  32.649  1.00  0.00    -0.354 N 
ATOM     49  C   UNL A   1      39.352  32.979  36.471  1.00  0.00     0.074 A 
ATOM     50  C   UNL A   1      38.231  33.848  36.766  1.00  0.00     0.031 C 
ATOM     51  C   UNL A   1      37.964  30.704  30.648  1.00  0.00     0.029 A 
ATOM     52  C   UNL A   1      39.076  30.332  31.516  1.00  0.00     0.049 A 
ATOM     53  H   UNL A   1      39.486  31.040  33.430  1.00  0.00     0.167 HD
ATOM     54  C   UNL A   1      40.400  32.776  37.302  1.00  0.00     0.031 A 
ATOM     55  C   UNL A   1      40.042  29.450  31.207  1.00  0.00     0.031 A 
ATOM     56  C   UNL A   1      41.504  31.895  37.035  1.00  0.00     0.049 A 
ATOM     57  C   UNL A   1      41.148  29.179  32.181  1.00  0.00     0.074 A 
ATOM     58  C   UNL A   1      42.626  31.652  37.810  1.00  0.00     0.029 A 
ATOM     59  N   UNL A   1      41.616  31.097  35.909  1.00  0.00    -0.354 N 
ATOM     60  N   UNL A   1      41.367  29.730  33.349  1.00  0.00    -0.248 NA
ATOM     61  C   UNL A   1      42.140  28.167  31.790  1.00  0.00     0.031 C 
ATOM     62  C   UNL A   1      43.412  30.693  37.157  1.00  0.00     0.029 A 
ATOM     63  C   UNL A   1      42.776  30.345  35.977  1.00  0.00     0.049 A 
ATOM     64  H   UNL A   1      40.967  31.068  35.170  1.00  0.00     0.167 HD
ATOM     65  C   UNL A   1      42.529  29.143  33.827  1.00  0.00     0.074 A 
ATOM     66  C   UNL A   1      42.960  28.182  32.832  1.00  0.00     0.031 C 
ATOM     67  C   UNL A   1      43.187  29.390  34.984  1.00  0.00     0.031 A 
BRANCH  54  68
ATOM     68  C   UNL A   1      40.406  33.550  38.583  1.00  0.00    -0.014 A 
ATOM     69  C   UNL A   1      39.797  33.032  39.734  1.00  0.00     0.009 A 
ATOM     70  C   UNL A   1      41.040  34.800  38.642  1.00  0.00     0.009 A 
ATOM     71  C   UNL A   1      39.811  33.762  40.923  1.00  0.00     0.001 A 
ATOM     72  C   UNL A   1      41.054  35.526  39.833  1.00  0.00     0.001 A 
ATOM     73  C   UNL A   1      40.437  35.008  40.972  1.00  0.00     0.000 A 
ENDBRANCH  54  68
BRANCH  55  74
ATOM     74  C   UNL A   1      40.010  28.762  29.898  1.00  0.00    -0.014 A 
ATOM     75  C   UNL A   1      40.591  29.361  28.771  1.00  0.00     0.009 A 
ATOM     76  C   UNL A   1      39.411  27.501  29.778  1.00  0.00     0.009 A 
ATOM     77  C   UNL A   1      40.566  28.706  27.538  1.00  0.00     0.001 A 
ATOM     78  C   UNL A   1      39.390  26.849  28.544  1.00  0.00     0.001 A 
ATOM     79  C   UNL A   1      39.966  27.452  27.426  1.00  0.00     0.000 A 
ENDBRANCH  55  74
BRANCH  67  80
ATOM     80  C   UNL A   1      44.440  28.611  35.226  1.00  0.00    -0.014 A 
ATOM     81  C   UNL A   1      45.675  29.106  34.783  1.00  0.00     0.009 A 
ATOM     82  C   UNL A   1      44.393  27.384  35.904  1.00  0.00     0.009 A 
ATOM     83  C   UNL A   1      46.845  28.377  35.005  1.00  0.00     0.001 A 
ATOM     84  C   UNL A   1      45.564  26.658  36.123  1.00  0.00     0.001 A 
ATOM     85  C   UNL A   1      46.787  27.154  35.672  1.00  0.00     0.000 A 
ENDBRANCH  67  80
ENDBRANCH  41  42
ENDBRANCH  33  36
ENDBRANCH  31  32
ENDBRANCH  30  31
ENDBRANCH   1  30
TORSDOF 14
ENDMDL
MODEL 2
REMARK VINA RESULT:     -11.1      3.890      9.788
REMARK SMILES O=C(NCCCCNC(=O)c1ccc(-c2c3nc(c(-c4ccccc4)c4ccc([nH]4)c(-c4ccccc4)c4nc(c(-c5ccccc5)c5ccc2[nH]5)C=C4)C=C3)cc1)C1=NN(c2ccccc2-c2ccccc2)[C@@H](c2ccccc2)C1
REMARK SMILES IDX 5 1 4 2 3 3 1 4 2 5 59 7 60 8 81 9 61 10 74 11 62 12 63 13
REMARK SMILES IDX 67 14 64 15 66 16 65 17 68 18 69 19 73 20 70 21 72 22 71 23
REMARK SMILES IDX 75 24 76 25 80 26 77 27 79 28 78 29 6 30 7 31 8 32 9 33
REMARK SMILES IDX 10 35 11 36 12 37 58 38 13 39 57 40 14 41 15 42 16 43 51 44
REMARK SMILES IDX 17 45 56 46 50 47 52 48 18 49 55 50 49 51 48 52 19 54 41 55
REMARK SMILES IDX 26 56 40 57 27 58 30 59 39 60 53 61 28 62 29 63 38 65 54 66
REMARK SMILES IDX 31 67 20 68 21 69 25 70 22 71 24 72 23 73 42 74 43 75 47 76
REMARK SMILES IDX 44 77 46 78 45 79 32 80 33 81 37 82 34 83 36 84 35 85
REMARK H PARENT 3 6 8 34 52 53 30 64
REMARK Flexibility Score: inf
ROOT
ATOM      1  C   UNL A   1      34.796  34.044  30.255  1.00  0.00     0.023 C 
ENDROOT
BRANCH   1   2
ATOM      2  C   UNL A   1      34.761  32.766  31.092  1.00  0.00     0.116 C 
BRANCH   2   3
ATOM      3  N   UNL A   1      34.281  33.003  32.441  1.00  0.00    -0.351 N 
ATOM      4  O   UNL A   1      34.494  33.408  34.669  1.00  0.00    -0.268 OA
ATOM      5  C   UNL A   1      35.019  33.250  33.576  1.00  0.00     0.267 C 
ATOM      6  H   UNL A   1      33.304  32.983  32.559  1.00  0.00     0.163 HD
BRANCH   5   7
ATOM      7  C   UNL A   1      36.519  33.268  33.488  1.00  0.00     0.128 C 
ATOM      8  N   UNL A   1      37.253  32.206  33.600  1.00  0.00    -0.171 NA
ATOM      9  C   UNL A   1      37.224  34.567  33.287  1.00  0.00     0.096 C 
ATOM     10  N   UNL A   1      38.542  32.647  33.593  1.00  0.00    -0.257 N 
ATOM     11  C   UNL A   1      38.675  34.076  33.282  1.00  0.00     0.144 C 
BRANCH  10  12
ATOM     12  C   UNL A   1      39.592  31.754  33.810  1.00  0.00     0.068 A 
ATOM     13  C   UNL A   1      39.551  30.505  33.158  1.00  0.00     0.028 A 
ATOM     14  C   UNL A   1      40.692  32.024  34.665  1.00  0.00     0.007 A 
ATOM     15  C   UNL A   1      40.576  29.568  33.286  1.00  0.00     0.002 A 
ATOM     16  C   UNL A   1      41.723  31.064  34.777  1.00  0.00     0.011 A 
ATOM     17  C   UNL A   1      41.670  29.852  34.089  1.00  0.00     0.001 A 
BRANCH  14  18
ATOM     18  C   UNL A   1      40.761  33.210  35.539  1.00  0.00    -0.016 A 
ATOM     19  C   UNL A   1      41.686  34.238  35.300  1.00  0.00     0.009 A 
ATOM     20  C   UNL A   1      39.901  33.332  36.645  1.00  0.00     0.009 A 
ATOM     21  C   UNL A   1      41.735  35.363  36.127  1.00  0.00     0.001 A 
ATOM     22  C   UNL A   1      39.948  34.456  37.473  1.00  0.00     0.001 A 
ATOM     23  C   UNL A   1      40.864  35.472  37.211  1.00  0.00     0.000 A 
ENDBRANCH  14  18
ENDBRANCH  10  12
BRANCH  11  24
ATOM     24  C   UNL A   1      39.372  34.312  31.951  1.00  0.00    -0.023 A 
ATOM     25  C   UNL A   1      38.672  34.286  30.733  1.00  0.00     0.006 A 
ATOM     26  C   UNL A   1      40.754  34.559  31.924  1.00  0.00     0.006 A 
ATOM     27  C   UNL A   1      39.336  34.500  29.524  1.00  0.00     0.000 A 
ATOM     28  C   UNL A   1      41.416  34.773  30.713  1.00  0.00     0.000 A 
ATOM     29  C   UNL A   1      40.708  34.743  29.514  1.00  0.00     0.000 A 
ENDBRANCH  11  24
ENDBRANCH   5   7
ENDBRANCH   2   3
ENDBRANCH   1   2
BRANCH   1  30
ATOM     30  C   UNL A   1      34.316  33.891  28.806  1.00  0.00     0.023 C 
BRANCH  30  31
ATOM     31  C   UNL A   1      35.025  32.822  27.971  1.00  0.00     0.116 C 
BRANCH  31  32
ATOM     32  N   UNL A   1      34.235  31.618  27.782  1.00  0.00    -0.352 N 
ATOM     33  C   UNL A   1      34.630  30.304  27.782  1.00  0.00     0.251 C 
ATOM     34  H   UNL A   1      33.273  31.767  27.633  1.00  0.00     0.163 HD
ATOM     35  O   UNL A   1      33.812  29.426  27.521  1.00  0.00    -0.269 OA
BRANCH  33  36
ATOM     36  C   UNL A   1      36.037  29.931  28.049  1.00  0.00     0.039 A 
ATOM     37  C   UNL A   1      36.360  29.467  29.329  1.00  0.00     0.014 A 
ATOM     38  C   UNL A   1      37.039  30.075  27.086  1.00  0.00     0.014 A 
ATOM     39  C   UNL A   1      37.670  29.087  29.627  1.00  0.00     0.010 A 
ATOM     40  C   UNL A   1      38.347  29.678  27.377  1.00  0.00     0.010 A 
ATOM     41  C   UNL A   1      38.668  29.171  28.646  1.00  0.00    -0.014 A 
BRANCH  41  42
ATOM     42  C   UNL A   1      40.041  28.698  28.925  1.00  0.00     0.031 A 
ATOM     43  C   UNL A   1      41.057  29.611  29.544  1.00  0.00     0.074 A 
ATOM     44  C   UNL A   1      40.388  27.444  28.582  1.00  0.00     0.049 A 
ATOM     45  N   UNL A   1      42.332  29.400  29.749  1.00  0.00    -0.248 NA
ATOM     46  C   UNL A   1      40.581  30.932  29.977  1.00  0.00     0.031 C 
ATOM     47  C   UNL A   1      39.500  26.459  27.961  1.00  0.00     0.029 A 
ATOM     48  N   UNL A   1      41.586  26.789  28.703  1.00  0.00    -0.354 N 
ATOM     49  C   UNL A   1      42.823  30.575  30.300  1.00  0.00     0.074 A 
ATOM     50  C   UNL A   1      41.703  31.486  30.420  1.00  0.00     0.031 C 
ATOM     51  C   UNL A   1      40.186  25.321  27.760  1.00  0.00     0.029 A 
ATOM     52  C   UNL A   1      41.558  25.504  28.223  1.00  0.00     0.049 A 
ATOM     53  H   UNL A   1      42.389  27.200  29.097  1.00  0.00     0.167 HD
ATOM     54  C   UNL A   1      44.092  30.873  30.662  1.00  0.00     0.031 A 
ATOM     55  C   UNL A   1      42.531  24.579  28.154  1.00  0.00     0.031 A 
ATOM     56  C   UNL A   1      45.207  29.970  30.574  1.00  0.00     0.049 A 
ATOM     57  C   UNL A   1      43.910  24.906  28.641  1.00  0.00     0.074 A 
ATOM     58  C   UNL A   1      46.536  30.200  30.892  1.00  0.00     0.029 A 
ATOM     59  N   UNL A   1      45.119  28.654  30.152  1.00  0.00    -0.354 N 
ATOM     60  N   UNL A   1      44.365  26.038  29.117  1.00  0.00    -0.248 NA
ATOM     61  C   UNL A   1      44.907  23.827  28.576  1.00  0.00     0.031 C 
ATOM     62  C   UNL A   1      47.250  29.015  30.675  1.00  0.00     0.029 A 
ATOM     63  C   UNL A   1      46.364  28.053  30.221  1.00  0.00     0.049 A 
ATOM     64  H   UNL A   1      44.294  28.211  29.850  1.00  0.00     0.167 HD
ATOM     65  C   UNL A   1      45.706  25.813  29.396  1.00  0.00     0.074 A 
ATOM     66  C   UNL A   1      45.986  24.434  29.051  1.00  0.00     0.031 C 
ATOM     67  C   UNL A   1      46.625  26.680  29.882  1.00  0.00     0.031 A 
BRANCH  54  68
ATOM     68  C   UNL A   1      44.341  32.258  31.171  1.00  0.00    -0.014 A 
ATOM     69  C   UNL A   1      44.150  32.568  32.524  1.00  0.00     0.009 A 
ATOM     70  C   UNL A   1      44.787  33.256  30.292  1.00  0.00     0.009 A 
ATOM     71  C   UNL A   1      44.388  33.862  32.987  1.00  0.00     0.001 A 
ATOM     72  C   UNL A   1      45.026  34.550  30.759  1.00  0.00     0.001 A 
ATOM     73  C   UNL A   1      44.824  34.852  32.105  1.00  0.00     0.000 A 
ENDBRANCH  54  68
BRANCH  55  74
ATOM     74  C   UNL A   1      42.233  23.247  27.584  1.00  0.00    -0.014 A 
ATOM     75  C   UNL A   1      41.596  22.271  28.364  1.00  0.00     0.009 A 
ATOM     76  C   UNL A   1      42.573  22.955  26.256  1.00  0.00     0.009 A 
ATOM     77  C   UNL A   1      41.309  21.017  27.821  1.00  0.00     0.001 A 
ATOM     78  C   UNL A   1      42.283  21.702  25.717  1.00  0.00     0.001 A 
ATOM     79  C   UNL A   1      41.653  20.734  26.499  1.00  0.00     0.000 A 
ENDBRANCH  55  74
BRANCH  67  80
ATOM     80  C   UNL A   1      48.014  26.157  30.062  1.00  0.00    -0.014 A 
ATOM     81  C   UNL A   1      48.440  25.701  31.317  1.00  0.00     0.009 A 
ATOM     82  C   UNL A   1      48.900  26.110  28.975  1.00  0.00     0.009 A 
ATOM     83  C   UNL A   1      49.738  25.215  31.486  1.00  0.00     0.001 A 
ATOM     84  C   UNL A   1      50.197  25.625  29.147  1.00  0.00     0.001 A 
ATOM     85  C   UNL A   1      50.615  25.181  30.402  1.00  0.00     0.000 A 
ENDBRANCH  67  80
ENDBRANCH  41  42
ENDBRANCH  33  36
ENDBRANCH  31  32
ENDBRANCH  30  31
ENDBRANCH   1  30
TORSDOF 14
ENDMDL
MODEL 3
REMARK VINA RESULT:     -11.1      3.588      8.184
REMARK SMILES O=C(NCCCCNC(=O)c1ccc(-c2c3nc(c(-c4ccccc4)c4ccc([nH]4)c(-c4ccccc4)c4nc(c(-c5ccccc5)c5ccc2[nH]5)C=C4)C=C3)cc1)C1=NN(c2ccccc2-c2ccccc2)[C@@H](c2ccccc2)C1
REMARK SMILES IDX 5 1 4 2 3 3 1 4 2 5 59 7 60 8 81 9 61 10 74 11 62 12 63 13
REMARK SMILES IDX 67 14 64 15 66 16 65 17 68 18 69 19 73 20 70 21 72 22 71 23
REMARK SMILES IDX 75 24 76 25 80 26 77 27 79 28 78 29 6 30 7 31 8 32 9 33
REMARK SMILES IDX 10 35 11 36 12 37 58 38 13 39 57 40 14 41 15 42 16 43 51 44
REMARK SMILES IDX 17 45 56 46 50 47 52 48 18 49 55 50 49 51 48 52 19 54 41 55
REMARK SMILES IDX 26 56 40 57 27 58 30 59 39 60 53 61 28 62 29 63 38 65 54 66
REMARK SMILES IDX 31 67 20 68 21 69 25 70 22 71 24 72 23 73 42 74 43 75 47 76
REMARK SMILES IDX 44 77 46 78 45 79 32 80 33 81 37 82 34 83 36 84 35 85
REMARK H PARENT 3 6 8 34 52 53 30 64
REMARK Flexibility Score: inf
ROOT
ATOM      1  C   UNL A   1      34.638  22.787  25.668  1.00  0.00     0.023 C 
ENDROOT
BRANCH   1   2
ATOM      2  C   UNL A   1      33.224  22.977  25.122  1.00  0.00     0.116 C 
BRANCH   2   3
ATOM      3  N   UNL A   1      32.206  22.585  26.080  1.00  0.00    -0.351 N 
ATOM      4  O   UNL A   1      30.513  22.937  27.557  1.00  0.00    -0.268 OA
ATOM      5  C   UNL A   1      31.310  23.389  26.747  1.00  0.00     0.267 C 
ATOM      6  H   UNL A   1      32.151  21.622  26.278  1.00  0.00     0.163 HD
BRANCH   5   7
ATOM      7  C   UNL A   1      31.348  24.874  26.524  1.00  0.00     0.128 C 
ATOM      8  N   UNL A   1      32.428  25.583  26.623  1.00  0.00    -0.171 NA
ATOM      9  C   UNL A   1      30.085  25.596  26.195  1.00  0.00     0.096 C 
ATOM     10  N   UNL A   1      32.032  26.879  26.477  1.00  0.00    -0.257 N 
ATOM     11  C   UNL A   1      30.625  27.026  26.084  1.00  0.00     0.144 C 
BRANCH  10  12
ATOM     12  C   UNL A   1      32.949  27.918  26.643  1.00  0.00     0.068 A 
ATOM     13  C   UNL A   1      32.939  28.627  27.862  1.00  0.00     0.028 A 
ATOM     14  C   UNL A   1      33.879  28.314  25.648  1.00  0.00     0.007 A 
ATOM     15  C   UNL A   1      33.846  29.653  28.129  1.00  0.00     0.002 A 
ATOM     16  C   UNL A   1      34.792  29.352  25.941  1.00  0.00     0.011 A 
ATOM     17  C   UNL A   1      34.781  30.009  27.171  1.00  0.00     0.001 A 
BRANCH  14  18
ATOM     18  C   UNL A   1      33.868  27.777  24.275  1.00  0.00    -0.016 A 
ATOM     19  C   UNL A   1      33.884  26.395  24.034  1.00  0.00     0.009 A 
ATOM     20  C   UNL A   1      33.851  28.647  23.169  1.00  0.00     0.009 A 
ATOM     21  C   UNL A   1      33.861  25.897  22.728  1.00  0.00     0.001 A 
ATOM     22  C   UNL A   1      33.828  28.150  21.864  1.00  0.00     0.001 A 
ATOM     23  C   UNL A   1      33.830  26.775  21.645  1.00  0.00     0.000 A 
ENDBRANCH  14  18
ENDBRANCH  10  12
BRANCH  11  24
ATOM     24  C   UNL A   1      30.476  27.604  24.686  1.00  0.00    -0.023 A 
ATOM     25  C   UNL A   1      30.421  28.990  24.460  1.00  0.00     0.006 A 
ATOM     26  C   UNL A   1      30.385  26.742  23.582  1.00  0.00     0.006 A 
ATOM     27  C   UNL A   1      30.278  29.497  23.166  1.00  0.00     0.000 A 
ATOM     28  C   UNL A   1      30.242  27.250  22.290  1.00  0.00     0.000 A 
ATOM     29  C   UNL A   1      30.188  28.627  22.082  1.00  0.00     0.000 A 
ENDBRANCH  11  24
ENDBRANCH   5   7
ENDBRANCH   2   3
ENDBRANCH   1   2
BRANCH   1  30
ATOM     30  C   UNL A   1      35.763  22.921  24.633  1.00  0.00     0.023 C 
BRANCH  30  31
ATOM     31  C   UNL A   1      37.045  23.603  25.116  1.00  0.00     0.116 C 
BRANCH  31  32
ATOM     32  N   UNL A   1      38.116  22.671  25.418  1.00  0.00    -0.352 N 
ATOM     33  C   UNL A   1      39.279  22.871  26.119  1.00  0.00     0.251 C 
ATOM     34  H   UNL A   1      37.989  21.759  25.068  1.00  0.00     0.163 HD
ATOM     35  O   UNL A   1      40.104  21.965  26.195  1.00  0.00    -0.269 OA
BRANCH  33  36
ATOM     36  C   UNL A   1      39.574  24.177  26.748  1.00  0.00     0.039 A 
ATOM     37  C   UNL A   1      39.127  24.390  28.057  1.00  0.00     0.014 A 
ATOM     38  C   UNL A   1      40.233  25.201  26.062  1.00  0.00     0.014 A 
ATOM     39  C   UNL A   1      39.393  25.599  28.702  1.00  0.00     0.010 A 
ATOM     40  C   UNL A   1      40.517  26.405  26.712  1.00  0.00     0.010 A 
ATOM     41  C   UNL A   1      40.108  26.607  28.039  1.00  0.00    -0.014 A 
BRANCH  41  42
ATOM     42  C   UNL A   1      40.466  27.861  28.738  1.00  0.00     0.031 A 
ATOM     43  C   UNL A   1      41.816  28.031  29.366  1.00  0.00     0.074 A 
ATOM     44  C   UNL A   1      39.551  28.842  28.839  1.00  0.00     0.049 A 
ATOM     45  N   UNL A   1      42.256  29.011  30.114  1.00  0.00    -0.248 NA
ATOM     46  C   UNL A   1      42.794  26.958  29.134  1.00  0.00     0.031 C 
ATOM     47  C   UNL A   1      38.196  28.799  28.285  1.00  0.00     0.029 A 
ATOM     48  N   UNL A   1      39.625  30.066  29.453  1.00  0.00    -0.354 N 
ATOM     49  C   UNL A   1      43.548  28.658  30.475  1.00  0.00     0.074 A 
ATOM     50  C   UNL A   1      43.830  27.384  29.844  1.00  0.00     0.031 C 
ATOM     51  C   UNL A   1      37.568  29.949  28.582  1.00  0.00     0.029 A 
ATOM     52  C   UNL A   1      38.469  30.798  29.355  1.00  0.00     0.049 A 
ATOM     53  H   UNL A   1      40.430  30.389  29.918  1.00  0.00     0.167 HD
ATOM     54  C   UNL A   1      44.415  29.326  31.270  1.00  0.00     0.031 A 
ATOM     55  C   UNL A   1      38.164  32.013  29.843  1.00  0.00     0.031 A 
ATOM     56  C   UNL A   1      44.159  30.602  31.879  1.00  0.00     0.049 A 
ATOM     57  C   UNL A   1      39.174  32.770  30.649  1.00  0.00     0.074 A 
ATOM     58  C   UNL A   1      44.974  31.338  32.724  1.00  0.00     0.029 A 
ATOM     59  N   UNL A   1      43.004  31.342  31.693  1.00  0.00    -0.354 N 
ATOM     60  N   UNL A   1      40.375  32.400  31.018  1.00  0.00    -0.248 NA
ATOM     61  C   UNL A   1      38.783  34.111  31.108  1.00  0.00     0.031 C 
ATOM     62  C   UNL A   1      44.314  32.533  33.039  1.00  0.00     0.029 A 
ATOM     63  C   UNL A   1      43.091  32.535  32.389  1.00  0.00     0.049 A 
ATOM     64  H   UNL A   1      42.236  31.062  31.145  1.00  0.00     0.167 HD
ATOM     65  C   UNL A   1      40.879  33.455  31.765  1.00  0.00     0.074 A 
ATOM     66  C   UNL A   1      39.862  34.486  31.783  1.00  0.00     0.031 C 
ATOM     67  C   UNL A   1      42.075  33.553  32.391  1.00  0.00     0.031 A 
BRANCH  54  68
ATOM     68  C   UNL A   1      45.730  28.663  31.541  1.00  0.00    -0.014 A 
ATOM     69  C   UNL A   1      45.873  27.770  32.611  1.00  0.00     0.009 A 
ATOM     70  C   UNL A   1      46.829  28.923  30.708  1.00  0.00     0.009 A 
ATOM     71  C   UNL A   1      47.103  27.158  32.853  1.00  0.00     0.001 A 
ATOM     72  C   UNL A   1      48.057  28.306  30.951  1.00  0.00     0.001 A 
ATOM     73  C   UNL A   1      48.194  27.426  32.024  1.00  0.00     0.000 A 
ENDBRANCH  54  68
BRANCH  55  74
ATOM     74  C   UNL A   1      36.824  32.586  29.589  1.00  0.00    -0.014 A 
ATOM     75  C   UNL A   1      35.814  32.478  30.555  1.00  0.00     0.009 A 
ATOM     76  C   UNL A   1      36.559  33.254  28.386  1.00  0.00     0.009 A 
ATOM     77  C   UNL A   1      34.553  33.026  30.315  1.00  0.00     0.001 A 
ATOM     78  C   UNL A   1      35.298  33.803  28.151  1.00  0.00     0.001 A 
ATOM     79  C   UNL A   1      34.296  33.688  29.114  1.00  0.00     0.000 A 
ENDBRANCH  55  74
BRANCH  67  80
ATOM     80  C   UNL A   1      42.338  34.816  33.147  1.00  0.00    -0.014 A 
ATOM     81  C   UNL A   1      41.837  34.977  34.447  1.00  0.00     0.009 A 
ATOM     82  C   UNL A   1      43.094  35.845  32.568  1.00  0.00     0.009 A 
ATOM     83  C   UNL A   1      42.080  36.157  35.152  1.00  0.00     0.001 A 
ATOM     84  C   UNL A   1      43.334  37.024  33.275  1.00  0.00     0.001 A 
ATOM     85  C   UNL A   1      42.824  37.179  34.565  1.00  0.00     0.000 A 
ENDBRANCH  67  80
ENDBRANCH  41  42
ENDBRANCH  33  36
ENDBRANCH  31  32
ENDBRANCH  30  31
ENDBRANCH   1  30
TORSDOF 14
ENDMDL
