MODEL 1
REMARK VINA RESULT:     -11.4      0.000      0.000
REMARK SMILES C[C@@H]1CC[C@@](C(=O)NCCCCNC(=O)c2ccc(-c3c4nc(c(-c5ccccc5)c5ccc([nH]5)c(-c5ccccc5)c5nc(c(-c6ccccc6)c6ccc3[nH]6)C=C5)C=C4)cc2)([C@@H]2CCC[C@H](S(C)(=O)=O)C2)C1
REMARK SMILES IDX 10 1 9 2 8 3 6 4 7 5 5 7 1 8 2 9 3 10 74 11 4 12 64 13 65 14
REMARK SMILES IDX 73 15 66 16 68 17 67 18 69 19 70 20 71 21 72 22 11 23 12 24
REMARK SMILES IDX 13 25 14 26 15 28 16 29 17 30 63 31 18 32 62 33 19 34 20 35
REMARK SMILES IDX 21 36 56 37 22 38 61 39 55 40 57 41 23 42 60 43 54 44 53 45
REMARK SMILES IDX 24 47 46 48 31 49 45 50 32 51 35 52 44 53 58 54 33 55 34 56
REMARK SMILES IDX 43 58 59 59 36 60 25 61 26 62 30 63 27 64 29 65 28 66 47 67
REMARK SMILES IDX 48 68 52 69 49 70 51 71 50 72 37 73 38 74 42 75 39 76 41 77
REMARK SMILES IDX 40 78
REMARK H PARENT 8 6 13 27 57 46 35 57
REMARK Flexibility Score: inf
ROOT
ATOM      1  C   UNL A   1      37.034  21.966  24.182  1.00  0.00     0.023 C 
ENDROOT
BRANCH   1   2
ATOM      2  C   UNL A   1      36.836  23.309  24.873  1.00  0.00     0.116 C 
BRANCH   2   3
ATOM      3  N   UNL A   1      36.140  23.199  26.136  1.00  0.00    -0.356 N 
ATOM      4  C   UNL A   1      34.839  23.364  26.492  1.00  0.00     0.226 C 
ATOM      5  O   UNL A   1      34.558  22.950  27.624  1.00  0.00    -0.274 OA
ATOM      6  H   UNL A   1      36.726  22.955  26.889  1.00  0.00     0.163 HD
BRANCH   4   7
ATOM      7  C   UNL A   1      33.723  23.911  25.550  1.00  0.00     0.052 C 
ATOM      8  C   UNL A   1      33.862  27.401  26.423  1.00  0.00     0.007 C 
ATOM      9  C   UNL A   1      33.227  26.364  25.493  1.00  0.00    -0.013 C 
ATOM     10  C   UNL A   1      32.021  25.637  26.082  1.00  0.00     0.004 C 
ATOM     11  C   UNL A   1      34.217  25.291  25.039  1.00  0.00     0.020 C 
ATOM     12  C   UNL A   1      32.366  24.157  26.234  1.00  0.00     0.017 C 
BRANCH   7  13
ATOM     13  C   UNL A   1      33.552  22.886  24.343  1.00  0.00     0.006 C 
ATOM     14  C   UNL A   1      32.370  23.213  23.396  1.00  0.00     0.005 C 
ATOM     15  C   UNL A   1      33.417  21.418  24.833  1.00  0.00     0.024 C 
ATOM     16  C   UNL A   1      32.263  22.211  22.248  1.00  0.00     0.002 C 
ATOM     17  C   UNL A   1      33.303  20.415  23.674  1.00  0.00     0.108 C 
ATOM     18  C   UNL A   1      32.140  20.779  22.753  1.00  0.00     0.020 C 
BRANCH  17  19
ATOM     19  S   UNL A   1      33.138  18.743  24.338  1.00  0.00     0.150 S 
ATOM     20  C   UNL A   1      32.512  17.777  22.984  1.00  0.00     0.158 C 
ATOM     21  O   UNL A   1      34.470  18.243  24.625  1.00  0.00    -0.229 OA
ATOM     22  O   UNL A   1      32.119  18.753  25.371  1.00  0.00    -0.229 OA
ENDBRANCH  17  19
ENDBRANCH   7  13
ENDBRANCH   4   7
ENDBRANCH   2   3
ENDBRANCH   1   2
BRANCH   1  23
ATOM     23  C   UNL A   1      37.498  20.838  25.100  1.00  0.00     0.023 C 
BRANCH  23  24
ATOM     24  C   UNL A   1      38.857  21.044  25.763  1.00  0.00     0.116 C 
BRANCH  24  25
ATOM     25  N   UNL A   1      39.738  19.883  25.689  1.00  0.00    -0.352 N 
ATOM     26  C   UNL A   1      41.062  19.791  26.049  1.00  0.00     0.251 C 
ATOM     27  H   UNL A   1      39.333  19.060  25.333  1.00  0.00     0.163 HD
ATOM     28  O   UNL A   1      41.693  18.754  25.885  1.00  0.00    -0.269 OA
BRANCH  26  29
ATOM     29  C   UNL A   1      41.728  20.991  26.590  1.00  0.00     0.039 A 
ATOM     30  C   UNL A   1      42.307  21.897  25.698  1.00  0.00     0.014 A 
ATOM     31  C   UNL A   1      41.666  21.269  27.957  1.00  0.00     0.014 A 
ATOM     32  C   UNL A   1      42.729  23.141  26.168  1.00  0.00     0.010 A 
ATOM     33  C   UNL A   1      42.024  22.534  28.410  1.00  0.00     0.010 A 
ATOM     34  C   UNL A   1      42.534  23.488  27.514  1.00  0.00    -0.014 A 
BRANCH  34  35
ATOM     35  C   UNL A   1      42.803  24.861  28.006  1.00  0.00     0.031 A 
ATOM     36  C   UNL A   1      44.181  25.239  28.466  1.00  0.00     0.074 A 
ATOM     37  C   UNL A   1      41.783  25.730  28.145  1.00  0.00     0.049 A 
ATOM     38  N   UNL A   1      44.582  26.339  29.052  1.00  0.00    -0.248 NA
ATOM     39  C   UNL A   1      45.240  24.235  28.274  1.00  0.00     0.031 C 
ATOM     40  C   UNL A   1      40.386  25.468  27.787  1.00  0.00     0.029 A 
ATOM     41  N   UNL A   1      41.762  27.008  28.645  1.00  0.00    -0.354 N 
ATOM     42  C   UNL A   1      45.927  26.144  29.331  1.00  0.00     0.074 A 
ATOM     43  C   UNL A   1      46.267  24.812  28.879  1.00  0.00     0.031 C 
ATOM     44  C   UNL A   1      39.649  26.556  28.065  1.00  0.00     0.029 A 
ATOM     45  C   UNL A   1      40.511  27.576  28.652  1.00  0.00     0.049 A 
ATOM     46  H   UNL A   1      42.567  27.473  28.969  1.00  0.00     0.167 HD
ATOM     47  C   UNL A   1      46.805  27.000  29.906  1.00  0.00     0.031 A 
ATOM     48  C   UNL A   1      40.100  28.779  29.092  1.00  0.00     0.031 A 
ATOM     49  C   UNL A   1      46.478  28.335  30.328  1.00  0.00     0.049 A 
ATOM     50  C   UNL A   1      41.101  29.727  29.690  1.00  0.00     0.074 A 
ATOM     51  C   UNL A   1      47.316  29.302  30.853  1.00  0.00     0.029 A 
ATOM     52  N   UNL A   1      45.210  28.890  30.269  1.00  0.00    -0.354 N 
ATOM     53  N   UNL A   1      42.384  29.551  29.891  1.00  0.00    -0.248 NA
ATOM     54  C   UNL A   1      40.597  31.041  30.113  1.00  0.00     0.031 C 
ATOM     55  C   UNL A   1      46.549  30.437  31.137  1.00  0.00     0.029 A 
ATOM     56  C   UNL A   1      45.241  30.185  30.757  1.00  0.00     0.049 A 
ATOM     57  H   UNL A   1      44.408  28.432  29.930  1.00  0.00     0.167 HD
ATOM     58  C   UNL A   1      42.845  30.738  30.442  1.00  0.00     0.074 A 
ATOM     59  C   UNL A   1      41.707  31.631  30.534  1.00  0.00     0.031 C 
ATOM     60  C   UNL A   1      44.101  31.059  30.836  1.00  0.00     0.031 A 
BRANCH  47  61
ATOM     61  C   UNL A   1      48.207  26.506  30.114  1.00  0.00    -0.014 A 
ATOM     62  C   UNL A   1      48.568  25.818  31.282  1.00  0.00     0.009 A 
ATOM     63  C   UNL A   1      49.175  26.721  29.121  1.00  0.00     0.009 A 
ATOM     64  C   UNL A   1      49.882  25.386  31.468  1.00  0.00     0.001 A 
ATOM     65  C   UNL A   1      50.482  26.266  29.299  1.00  0.00     0.001 A 
ATOM     66  C   UNL A   1      50.837  25.607  30.476  1.00  0.00     0.000 A 
ENDBRANCH  47  61
BRANCH  48  67
ATOM     67  C   UNL A   1      38.673  29.168  28.967  1.00  0.00    -0.014 A 
ATOM     68  C   UNL A   1      37.801  29.013  30.055  1.00  0.00     0.009 A 
ATOM     69  C   UNL A   1      38.177  29.695  27.765  1.00  0.00     0.009 A 
ATOM     70  C   UNL A   1      36.454  29.361  29.935  1.00  0.00     0.001 A 
ATOM     71  C   UNL A   1      36.834  30.062  27.657  1.00  0.00     0.001 A 
ATOM     72  C   UNL A   1      35.973  29.887  28.738  1.00  0.00     0.000 A 
ENDBRANCH  48  67
BRANCH  60  73
ATOM     73  C   UNL A   1      44.317  32.445  31.369  1.00  0.00    -0.014 A 
ATOM     74  C   UNL A   1      44.210  32.718  32.739  1.00  0.00     0.009 A 
ATOM     75  C   UNL A   1      44.676  33.478  30.489  1.00  0.00     0.009 A 
ATOM     76  C   UNL A   1      44.438  34.010  33.219  1.00  0.00     0.001 A 
ATOM     77  C   UNL A   1      44.923  34.762  30.974  1.00  0.00     0.001 A 
ATOM     78  C   UNL A   1      44.797  35.030  32.336  1.00  0.00     0.000 A 
ENDBRANCH  60  73
ENDBRANCH  34  35
ENDBRANCH  26  29
ENDBRANCH  24  25
ENDBRANCH  23  24
ENDBRANCH   1  23
TORSDOF 13
ENDMDL
MODEL 2
REMARK VINA RESULT:     -11.3      4.094      8.830
REMARK SMILES C[C@@H]1CC[C@@](C(=O)NCCCCNC(=O)c2ccc(-c3c4nc(c(-c5ccccc5)c5ccc([nH]5)c(-c5ccccc5)c5nc(c(-c6ccccc6)c6ccc3[nH]6)C=C5)C=C4)cc2)([C@@H]2CCC[C@H](S(C)(=O)=O)C2)C1
REMARK SMILES IDX 10 1 9 2 8 3 6 4 7 5 5 7 1 8 2 9 3 10 74 11 4 12 64 13 65 14
REMARK SMILES IDX 73 15 66 16 68 17 67 18 69 19 70 20 71 21 72 22 11 23 12 24
REMARK SMILES IDX 13 25 14 26 15 28 16 29 17 30 63 31 18 32 62 33 19 34 20 35
REMARK SMILES IDX 21 36 56 37 22 38 61 39 55 40 57 41 23 42 60 43 54 44 53 45
REMARK SMILES IDX 24 47 46 48 31 49 45 50 32 51 35 52 44 53 58 54 33 55 34 56
REMARK SMILES IDX 43 58 59 59 36 60 25 61 26 62 30 63 27 64 29 65 28 66 47 67
REMARK SMILES IDX 48 68 52 69 49 70 51 71 50 72 37 73 38 74 42 75 39 76 41 77
REMARK SMILES IDX 40 78
REMARK H PARENT 8 6 13 27 57 46 35 57
REMARK Flexibility Score: inf
ROOT
ATOM      1  C   UNL A   1      32.080  29.505  26.960  1.00  0.00     0.023 C 
ENDROOT
BRANCH   1   2
ATOM      2  C   UNL A   1      33.395  28.741  26.860  1.00  0.00     0.116 C 
BRANCH   2   3
ATOM      3  N   UNL A   1      34.001  28.825  25.549  1.00  0.00    -0.356 N 
ATOM      4  C   UNL A   1      33.888  28.066  24.429  1.00  0.00     0.226 C 
ATOM      5  O   UNL A   1      34.371  28.576  23.410  1.00  0.00    -0.274 OA
ATOM      6  H   UNL A   1      34.618  29.586  25.449  1.00  0.00     0.163 HD
BRANCH   4   7
ATOM      7  C   UNL A   1      33.118  26.712  24.348  1.00  0.00     0.052 C 
ATOM      8  C   UNL A   1      35.759  24.464  25.316  1.00  0.00     0.007 C 
ATOM      9  C   UNL A   1      34.273  24.578  24.967  1.00  0.00    -0.013 C 
ATOM     10  C   UNL A   1      33.969  24.551  23.471  1.00  0.00     0.004 C 
ATOM     11  C   UNL A   1      33.628  25.845  25.530  1.00  0.00     0.020 C 
ATOM     12  C   UNL A   1      33.378  25.899  23.065  1.00  0.00     0.017 C 
BRANCH   7  13
ATOM     13  C   UNL A   1      31.563  27.020  24.498  1.00  0.00     0.006 C 
ATOM     14  C   UNL A   1      30.654  25.774  24.358  1.00  0.00     0.005 C 
ATOM     15  C   UNL A   1      31.082  28.111  23.503  1.00  0.00     0.024 C 
ATOM     16  C   UNL A   1      29.176  26.121  24.528  1.00  0.00     0.002 C 
ATOM     17  C   UNL A   1      29.594  28.453  23.673  1.00  0.00     0.108 C 
ATOM     18  C   UNL A   1      28.730  27.199  23.548  1.00  0.00     0.020 C 
BRANCH  17  19
ATOM     19  S   UNL A   1      29.123  29.718  22.471  1.00  0.00     0.150 S 
ATOM     20  C   UNL A   1      28.973  31.212  23.421  1.00  0.00     0.158 C 
ATOM     21  O   UNL A   1      30.241  29.911  21.565  1.00  0.00    -0.229 OA
ATOM     22  O   UNL A   1      27.806  29.397  21.955  1.00  0.00    -0.229 OA
ENDBRANCH  17  19
ENDBRANCH   7  13
ENDBRANCH   4   7
ENDBRANCH   2   3
ENDBRANCH   1   2
BRANCH   1  23
ATOM     23  C   UNL A   1      32.154  30.964  26.515  1.00  0.00     0.023 C 
BRANCH  23  24
ATOM     24  C   UNL A   1      33.153  31.834  27.272  1.00  0.00     0.116 C 
BRANCH  24  25
ATOM     25  N   UNL A   1      32.644  33.155  27.625  1.00  0.00    -0.352 N 
ATOM     26  C   UNL A   1      33.214  34.100  28.447  1.00  0.00     0.251 C 
ATOM     27  H   UNL A   1      31.780  33.402  27.225  1.00  0.00     0.163 HD
ATOM     28  O   UNL A   1      32.643  35.156  28.690  1.00  0.00    -0.269 OA
BRANCH  26  29
ATOM     29  C   UNL A   1      34.510  33.790  29.079  1.00  0.00     0.039 A 
ATOM     30  C   UNL A   1      34.519  33.077  30.279  1.00  0.00     0.014 A 
ATOM     31  C   UNL A   1      35.701  34.099  28.418  1.00  0.00     0.014 A 
ATOM     32  C   UNL A   1      35.726  32.574  30.765  1.00  0.00     0.010 A 
ATOM     33  C   UNL A   1      36.892  33.540  28.868  1.00  0.00     0.010 A 
ATOM     34  C   UNL A   1      36.909  32.752  30.031  1.00  0.00    -0.014 A 
BRANCH  34  35
ATOM     35  C   UNL A   1      38.172  32.080  30.423  1.00  0.00     0.031 A 
ATOM     36  C   UNL A   1      39.142  32.774  31.334  1.00  0.00     0.074 A 
ATOM     37  C   UNL A   1      38.496  30.896  29.867  1.00  0.00     0.049 A 
ATOM     38  N   UNL A   1      40.351  32.412  31.681  1.00  0.00    -0.248 NA
ATOM     39  C   UNL A   1      38.709  34.060  31.903  1.00  0.00     0.031 C 
ATOM     40  C   UNL A   1      37.667  30.143  28.922  1.00  0.00     0.029 A 
ATOM     41  N   UNL A   1      39.625  30.127  30.003  1.00  0.00    -0.354 N 
ATOM     42  C   UNL A   1      40.835  33.442  32.476  1.00  0.00     0.074 A 
ATOM     43  C   UNL A   1      39.803  34.454  32.536  1.00  0.00     0.031 C 
ATOM     44  C   UNL A   1      38.307  29.014  28.578  1.00  0.00     0.029 A 
ATOM     45  C   UNL A   1      39.604  28.981  29.245  1.00  0.00     0.049 A 
ATOM     46  H   UNL A   1      40.377  30.374  30.587  1.00  0.00     0.167 HD
ATOM     47  C   UNL A   1      42.030  33.533  33.107  1.00  0.00     0.031 A 
ATOM     48  C   UNL A   1      40.530  28.017  29.095  1.00  0.00     0.031 A 
ATOM     49  C   UNL A   1      43.044  32.515  33.074  1.00  0.00     0.049 A 
ATOM     50  C   UNL A   1      41.832  28.121  29.837  1.00  0.00     0.074 A 
ATOM     51  C   UNL A   1      44.256  32.485  33.742  1.00  0.00     0.029 A 
ATOM     52  N   UNL A   1      42.962  31.345  32.337  1.00  0.00    -0.354 N 
ATOM     53  N   UNL A   1      42.250  29.073  30.635  1.00  0.00    -0.248 NA
ATOM     54  C   UNL A   1      42.784  27.015  29.663  1.00  0.00     0.031 C 
ATOM     55  C   UNL A   1      44.921  31.306  33.385  1.00  0.00     0.029 A 
ATOM     56  C   UNL A   1      44.106  30.590  32.524  1.00  0.00     0.049 A 
ATOM     57  H   UNL A   1      42.203  31.090  31.765  1.00  0.00     0.167 HD
ATOM     58  C   UNL A   1      43.503  28.671  31.076  1.00  0.00     0.074 A 
ATOM     59  C   UNL A   1      43.772  27.384  30.466  1.00  0.00     0.031 C 
ATOM     60  C   UNL A   1      44.354  29.311  31.913  1.00  0.00     0.031 A 
BRANCH  47  61
ATOM     61  C   UNL A   1      42.300  34.789  33.884  1.00  0.00    -0.014 A 
ATOM     62  C   UNL A   1      41.998  34.874  35.252  1.00  0.00     0.009 A 
ATOM     63  C   UNL A   1      42.876  35.895  33.242  1.00  0.00     0.009 A 
ATOM     64  C   UNL A   1      42.235  36.057  35.953  1.00  0.00     0.001 A 
ATOM     65  C   UNL A   1      43.134  37.069  33.951  1.00  0.00     0.001 A 
ATOM     66  C   UNL A   1      42.805  37.152  35.304  1.00  0.00     0.000 A 
ENDBRANCH  47  61
BRANCH  48  67
ATOM     67  C   UNL A   1      40.253  26.852  28.217  1.00  0.00    -0.014 A 
ATOM     68  C   UNL A   1      40.749  26.822  26.905  1.00  0.00     0.009 A 
ATOM     69  C   UNL A   1      39.495  25.767  28.684  1.00  0.00     0.009 A 
ATOM     70  C   UNL A   1      40.475  25.737  26.071  1.00  0.00     0.001 A 
ATOM     71  C   UNL A   1      39.242  24.674  27.854  1.00  0.00     0.001 A 
ATOM     72  C   UNL A   1      39.725  24.663  26.547  1.00  0.00     0.000 A 
ENDBRANCH  48  67
BRANCH  60  73
ATOM     73  C   UNL A   1      45.639  28.613  32.246  1.00  0.00    -0.014 A 
ATOM     74  C   UNL A   1      45.721  27.720  33.323  1.00  0.00     0.009 A 
ATOM     75  C   UNL A   1      46.770  28.821  31.441  1.00  0.00     0.009 A 
ATOM     76  C   UNL A   1      46.921  27.063  33.603  1.00  0.00     0.001 A 
ATOM     77  C   UNL A   1      47.961  28.147  31.710  1.00  0.00     0.001 A 
ATOM     78  C   UNL A   1      48.039  27.274  32.794  1.00  0.00     0.000 A 
ENDBRANCH  60  73
ENDBRANCH  34  35
ENDBRANCH  26  29
ENDBRANCH  24  25
ENDBRANCH  23  24
ENDBRANCH   1  23
TORSDOF 13
ENDMDL
MODEL 3
REMARK VINA RESULT:     -11.3      0.472      5.916
REMARK SMILES C[C@@H]1CC[C@@](C(=O)NCCCCNC(=O)c2ccc(-c3c4nc(c(-c5ccccc5)c5ccc([nH]5)c(-c5ccccc5)c5nc(c(-c6ccccc6)c6ccc3[nH]6)C=C5)C=C4)cc2)([C@@H]2CCC[C@H](S(C)(=O)=O)C2)C1
REMARK SMILES IDX 10 1 9 2 8 3 6 4 7 5 5 7 1 8 2 9 3 10 74 11 4 12 64 13 65 14
REMARK SMILES IDX 73 15 66 16 68 17 67 18 69 19 70 20 71 21 72 22 11 23 12 24
REMARK SMILES IDX 13 25 14 26 15 28 16 29 17 30 63 31 18 32 62 33 19 34 20 35
REMARK SMILES IDX 21 36 56 37 22 38 61 39 55 40 57 41 23 42 60 43 54 44 53 45
REMARK SMILES IDX 24 47 46 48 31 49 45 50 32 51 35 52 44 53 58 54 33 55 34 56
REMARK SMILES IDX 43 58 59 59 36 60 25 61 26 62 30 63 27 64 29 65 28 66 47 67
REMARK SMILES IDX 48 68 52 69 49 70 51 71 50 72 37 73 38 74 42 75 39 76 41 77
REMARK SMILES IDX 40 78
REMARK H PARENT 8 6 13 27 57 46 35 57
REMARK Flexibility Score: inf
ROOT
ATOM      1  C   UNL A   1      37.019  22.499  24.253  1.00  0.00     0.023 C 
ENDROOT
BRANCH   1   2
ATOM      2  C   UNL A   1      36.759  23.738  25.100  1.00  0.00     0.116 C 
BRANCH   2   3
ATOM      3  N   UNL A   1      36.017  23.452  26.309  1.00  0.00    -0.356 N 
ATOM      4  C   UNL A   1      34.691  23.459  26.604  1.00  0.00     0.226 C 
ATOM      5  O   UNL A   1      34.400  22.923  27.680  1.00  0.00    -0.274 OA
ATOM      6  H   UNL A   1      36.588  23.202  27.071  1.00  0.00     0.163 HD
BRANCH   4   7
ATOM      7  C   UNL A   1      33.572  23.975  25.647  1.00  0.00     0.052 C 
ATOM      8  C   UNL A   1      33.555  27.455  26.572  1.00  0.00     0.007 C 
ATOM      9  C   UNL A   1      32.980  26.407  25.615  1.00  0.00    -0.013 C 
ATOM     10  C   UNL A   1      31.793  25.624  26.171  1.00  0.00     0.004 C 
ATOM     11  C   UNL A   1      34.020  25.381  25.166  1.00  0.00     0.020 C 
ATOM     12  C   UNL A   1      32.194  24.157  26.309  1.00  0.00     0.017 C 
BRANCH   7  13
ATOM     13  C   UNL A   1      33.465  22.963  24.423  1.00  0.00     0.006 C 
ATOM     14  C   UNL A   1      32.294  23.261  23.454  1.00  0.00     0.005 C 
ATOM     15  C   UNL A   1      33.371  21.484  24.890  1.00  0.00     0.024 C 
ATOM     16  C   UNL A   1      32.248  22.273  22.290  1.00  0.00     0.002 C 
ATOM     17  C   UNL A   1      33.318  20.494  23.716  1.00  0.00     0.108 C 
ATOM     18  C   UNL A   1      32.164  20.831  22.773  1.00  0.00     0.020 C 
BRANCH  17  19
ATOM     19  S   UNL A   1      33.197  18.808  24.353  1.00  0.00     0.150 S 
ATOM     20  C   UNL A   1      32.585  17.850  22.987  1.00  0.00     0.158 C 
ATOM     21  O   UNL A   1      34.543  18.335  24.624  1.00  0.00    -0.229 OA
ATOM     22  O   UNL A   1      32.185  18.777  25.393  1.00  0.00    -0.229 OA
ENDBRANCH  17  19
ENDBRANCH   7  13
ENDBRANCH   4   7
ENDBRANCH   2   3
ENDBRANCH   1   2
BRANCH   1  23
ATOM     23  C   UNL A   1      37.442  21.263  25.043  1.00  0.00     0.023 C 
BRANCH  23  24
ATOM     24  C   UNL A   1      38.802  21.352  25.730  1.00  0.00     0.116 C 
BRANCH  24  25
ATOM     25  N   UNL A   1      39.590  20.127  25.652  1.00  0.00    -0.352 N 
ATOM     26  C   UNL A   1      40.899  19.927  26.027  1.00  0.00     0.251 C 
ATOM     27  H   UNL A   1      39.126  19.342  25.282  1.00  0.00     0.163 HD
ATOM     28  O   UNL A   1      41.448  18.846  25.857  1.00  0.00    -0.269 OA
BRANCH  26  29
ATOM     29  C   UNL A   1      41.650  21.065  26.589  1.00  0.00     0.039 A 
ATOM     30  C   UNL A   1      42.105  22.062  25.724  1.00  0.00     0.014 A 
ATOM     31  C   UNL A   1      41.788  21.196  27.973  1.00  0.00     0.014 A 
ATOM     32  C   UNL A   1      42.605  23.251  26.256  1.00  0.00     0.010 A 
ATOM     33  C   UNL A   1      42.223  22.407  28.499  1.00  0.00     0.010 A 
ATOM     34  C   UNL A   1      42.611  23.453  27.646  1.00  0.00    -0.014 A 
BRANCH  34  35
ATOM     35  C   UNL A   1      42.964  24.767  28.236  1.00  0.00     0.031 A 
ATOM     36  C   UNL A   1      41.898  25.798  28.466  1.00  0.00     0.074 A 
ATOM     37  C   UNL A   1      44.258  25.072  28.455  1.00  0.00     0.049 A 
ATOM     38  N   UNL A   1      42.026  27.045  28.843  1.00  0.00    -0.248 NA
ATOM     39  C   UNL A   1      40.511  25.383  28.208  1.00  0.00     0.031 C 
ATOM     40  C   UNL A   1      45.396  24.178  28.219  1.00  0.00     0.029 A 
ATOM     41  N   UNL A   1      44.836  26.230  28.909  1.00  0.00    -0.354 N 
ATOM     42  C   UNL A   1      40.743  27.573  28.829  1.00  0.00     0.074 A 
ATOM     43  C   UNL A   1      39.855  26.521  28.380  1.00  0.00     0.031 C 
ATOM     44  C   UNL A   1      46.532  24.816  28.546  1.00  0.00     0.029 A 
ATOM     45  C   UNL A   1      46.207  26.171  28.977  1.00  0.00     0.049 A 
ATOM     46  H   UNL A   1      44.318  27.028  29.161  1.00  0.00     0.167 HD
ATOM     47  C   UNL A   1      40.337  28.820  29.167  1.00  0.00     0.031 A 
ATOM     48  C   UNL A   1      47.105  27.107  29.335  1.00  0.00     0.031 A 
ATOM     49  C   UNL A   1      41.211  29.856  29.644  1.00  0.00     0.049 A 
ATOM     50  C   UNL A   1      46.626  28.470  29.746  1.00  0.00     0.074 A 
ATOM     51  C   UNL A   1      40.882  31.127  30.082  1.00  0.00     0.029 A 
ATOM     52  N   UNL A   1      42.588  29.738  29.748  1.00  0.00    -0.354 N 
ATOM     53  N   UNL A   1      45.401  28.935  29.786  1.00  0.00    -0.248 NA
ATOM     54  C   UNL A   1      47.654  29.434  30.166  1.00  0.00     0.031 C 
ATOM     55  C   UNL A   1      42.065  31.789  30.426  1.00  0.00     0.029 A 
ATOM     56  C   UNL A   1      43.125  30.917  30.234  1.00  0.00     0.049 A 
ATOM     57  H   UNL A   1      43.105  28.936  29.511  1.00  0.00     0.167 HD
ATOM     58  C   UNL A   1      45.508  30.236  30.258  1.00  0.00     0.074 A 
ATOM     59  C   UNL A   1      46.915  30.483  30.499  1.00  0.00     0.031 C 
ATOM     60  C   UNL A   1      44.526  31.144  30.472  1.00  0.00     0.031 A 
BRANCH  47  61
ATOM     61  C   UNL A   1      38.874  29.125  29.027  1.00  0.00    -0.014 A 
ATOM     62  C   UNL A   1      37.999  29.003  30.118  1.00  0.00     0.009 A 
ATOM     63  C   UNL A   1      38.367  29.554  27.791  1.00  0.00     0.009 A 
ATOM     64  C   UNL A   1      36.638  29.270  29.962  1.00  0.00     0.001 A 
ATOM     65  C   UNL A   1      37.010  29.843  27.645  1.00  0.00     0.001 A 
ATOM     66  C   UNL A   1      36.145  29.692  28.728  1.00  0.00     0.000 A 
ENDBRANCH  47  61
BRANCH  48  67
ATOM     67  C   UNL A   1      48.554  26.782  29.342  1.00  0.00    -0.014 A 
ATOM     68  C   UNL A   1      49.144  26.211  30.480  1.00  0.00     0.009 A 
ATOM     69  C   UNL A   1      49.350  27.037  28.216  1.00  0.00     0.009 A 
ATOM     70  C   UNL A   1      50.509  25.920  30.496  1.00  0.00     0.001 A 
ATOM     71  C   UNL A   1      50.711  26.725  28.229  1.00  0.00     0.001 A 
ATOM     72  C   UNL A   1      51.291  26.174  29.370  1.00  0.00     0.000 A 
ENDBRANCH  48  67
BRANCH  60  73
ATOM     73  C   UNL A   1      44.935  32.475  31.027  1.00  0.00    -0.014 A 
ATOM     74  C   UNL A   1      45.030  32.686  32.410  1.00  0.00     0.009 A 
ATOM     75  C   UNL A   1      45.273  33.518  30.150  1.00  0.00     0.009 A 
ATOM     76  C   UNL A   1      45.436  33.927  32.906  1.00  0.00     0.001 A 
ATOM     77  C   UNL A   1      45.698  34.749  30.649  1.00  0.00     0.001 A 
ATOM     78  C   UNL A   1      45.773  34.956  32.026  1.00  0.00     0.000 A 
ENDBRANCH  60  73
ENDBRANCH  34  35
ENDBRANCH  26  29
ENDBRANCH  24  25
ENDBRANCH  23  24
ENDBRANCH   1  23
TORSDOF 13
ENDMDL
