MODEL 1
REMARK VINA RESULT:     -13.1      0.000      0.000
REMARK SMILES NS(=O)(=O)c1ccc(-n2nc(C(=O)NCCCC(=O)NCCCCNC(=O)c3ccc(-c4c5nc(c(-c6ccccc6)c6ccc([nH]6)c(-c6ccccc6)c6nc(c(-c7ccccc7)c7ccc4[nH]7)C=C6)C=C5)cc3)cc2-c2ccccc2)cc1
REMARK SMILES IDX 18 1 19 2 20 3 17 5 16 6 15 7 14 8 12 9 13 10 11 12 9 13
REMARK SMILES IDX 10 14 77 15 76 16 8 17 5 18 6 19 85 20 7 21 84 22 2 23 3 24
REMARK SMILES IDX 4 25 1 26 78 29 79 30 83 31 80 32 82 33 81 34 21 35 22 36
REMARK SMILES IDX 23 37 24 38 25 39 26 40 27 42 28 43 29 44 75 45 30 46 74 47
REMARK SMILES IDX 31 48 32 49 33 50 68 51 34 52 73 53 67 54 69 55 35 56 72 57
REMARK SMILES IDX 66 58 65 59 36 61 58 62 43 63 57 64 44 65 47 66 56 67 70 68
REMARK SMILES IDX 45 69 46 70 55 72 71 73 48 74 37 75 38 76 42 77 39 78 41 79
REMARK SMILES IDX 40 80 59 81 60 82 64 83 61 84 63 85 62 86 49 87 50 88 54 89
REMARK SMILES IDX 51 90 53 91 52 92
REMARK H PARENT 20 4 14 11 1 27 1 28 25 41 69 60 47 71
REMARK Flexibility Score: inf
ROOT
ATOM      1  C   UNL A   1      33.613  23.970  23.181  1.00  0.00     0.220 C 
ATOM      2  O   UNL A   1      33.092  25.084  23.261  1.00  0.00    -0.275 OA
ATOM      3  N   UNL A   1      34.937  23.864  23.477  1.00  0.00    -0.356 N 
ATOM      4  H   UNL A   1      35.352  24.694  23.805  1.00  0.00     0.163 HD
ENDROOT
BRANCH   1   5
ATOM      5  C   UNL A   1      32.789  22.758  22.791  1.00  0.00     0.102 C 
BRANCH   5   6
ATOM      6  C   UNL A   1      31.661  22.408  23.764  1.00  0.00     0.031 C 
BRANCH   6   7
ATOM      7  C   UNL A   1      32.090  21.817  25.102  1.00  0.00     0.116 C 
BRANCH   7   8
ATOM      8  N   UNL A   1      31.071  21.863  26.132  1.00  0.00    -0.351 N 
ATOM      9  C   UNL A   1      30.433  22.947  26.699  1.00  0.00     0.271 C 
ATOM     10  O   UNL A   1      29.581  22.707  27.555  1.00  0.00    -0.267 OA
ATOM     11  H   UNL A   1      30.791  20.985  26.481  1.00  0.00     0.163 HD
BRANCH   9  12
ATOM     12  C   UNL A   1      30.793  24.316  26.287  1.00  0.00     0.151 A 
ATOM     13  N   UNL A   1      30.585  26.236  25.354  1.00  0.00    -0.232 N 
ATOM     14  N   UNL A   1      29.923  25.080  25.596  1.00  0.00    -0.162 NA
ATOM     15  C   UNL A   1      31.753  26.321  26.098  1.00  0.00     0.075 A 
ATOM     16  C   UNL A   1      31.984  25.040  26.546  1.00  0.00     0.065 A 
BRANCH  13  17
ATOM     17  C   UNL A   1      30.062  27.220  24.476  1.00  0.00     0.065 A 
ATOM     18  C   UNL A   1      28.945  29.280  22.983  1.00  0.00     0.082 A 
ATOM     19  C   UNL A   1      30.231  29.431  23.503  1.00  0.00     0.024 A 
ATOM     20  C   UNL A   1      28.233  28.087  23.161  1.00  0.00     0.024 A 
ATOM     21  C   UNL A   1      30.787  28.403  24.256  1.00  0.00     0.030 A 
ATOM     22  C   UNL A   1      28.806  27.038  23.888  1.00  0.00     0.030 A 
BRANCH  18  23
ATOM     23  S   UNL A   1      28.257  30.619  22.060  1.00  0.00     0.238 S 
ATOM     24  O   UNL A   1      27.249  31.269  22.856  1.00  0.00    -0.207 OA
ATOM     25  O   UNL A   1      28.013  30.161  20.708  1.00  0.00    -0.207 OA
BRANCH  23  26
ATOM     26  N   UNL A   1      29.520  31.720  21.964  1.00  0.00    -0.225 NA
ATOM     27  H   UNL A   1      29.148  32.669  22.014  1.00  0.00     0.137 HD
ATOM     28  H   UNL A   1      30.015  31.594  21.082  1.00  0.00     0.137 HD
ENDBRANCH  23  26
ENDBRANCH  18  23
ENDBRANCH  13  17
BRANCH  15  29
ATOM     29  C   UNL A   1      32.458  27.557  26.438  1.00  0.00     0.000 A 
ATOM     30  C   UNL A   1      33.784  27.744  26.014  1.00  0.00     0.010 A 
ATOM     31  C   UNL A   1      31.820  28.580  27.144  1.00  0.00     0.010 A 
ATOM     32  C   UNL A   1      34.473  28.915  26.326  1.00  0.00     0.001 A 
ATOM     33  C   UNL A   1      32.509  29.756  27.449  1.00  0.00     0.001 A 
ATOM     34  C   UNL A   1      33.835  29.920  27.045  1.00  0.00     0.000 A 
ENDBRANCH  15  29
ENDBRANCH   9  12
ENDBRANCH   7   8
ENDBRANCH   6   7
ENDBRANCH   5   6
ENDBRANCH   1   5
BRANCH   3  35
ATOM     35  C   UNL A   1      35.839  22.731  23.389  1.00  0.00     0.116 C 
BRANCH  35  36
ATOM     36  C   UNL A   1      35.983  22.028  24.745  1.00  0.00     0.023 C 
BRANCH  36  37
ATOM     37  C   UNL A   1      36.808  22.767  25.802  1.00  0.00     0.023 C 
BRANCH  37  38
ATOM     38  C   UNL A   1      38.305  22.757  25.542  1.00  0.00     0.116 C 
BRANCH  38  39
ATOM     39  N   UNL A   1      39.043  21.934  26.498  1.00  0.00    -0.352 N 
ATOM     40  C   UNL A   1      40.114  22.325  27.277  1.00  0.00     0.251 C 
ATOM     41  H   UNL A   1      38.746  21.002  26.596  1.00  0.00     0.163 HD
ATOM     42  O   UNL A   1      40.903  21.510  27.734  1.00  0.00    -0.269 OA
BRANCH  40  43
ATOM     43  C   UNL A   1      40.285  23.761  27.544  1.00  0.00     0.039 A 
ATOM     44  C   UNL A   1      39.207  24.645  27.462  1.00  0.00     0.014 A 
ATOM     45  C   UNL A   1      41.547  24.196  27.950  1.00  0.00     0.014 A 
ATOM     46  C   UNL A   1      39.386  25.958  27.885  1.00  0.00     0.010 A 
ATOM     47  C   UNL A   1      41.689  25.454  28.481  1.00  0.00     0.010 A 
ATOM     48  C   UNL A   1      40.623  26.348  28.421  1.00  0.00    -0.014 A 
BRANCH  48  49
ATOM     49  C   UNL A   1      40.770  27.653  29.056  1.00  0.00     0.031 A 
ATOM     50  C   UNL A   1      41.729  28.578  28.384  1.00  0.00     0.074 A 
ATOM     51  C   UNL A   1      39.940  28.088  30.027  1.00  0.00     0.049 A 
ATOM     52  N   UNL A   1      42.814  29.074  28.876  1.00  0.00    -0.248 NA
ATOM     53  C   UNL A   1      41.518  28.908  26.964  1.00  0.00     0.031 C 
ATOM     54  C   UNL A   1      38.748  27.427  30.570  1.00  0.00     0.029 A 
ATOM     55  N   UNL A   1      39.911  29.300  30.643  1.00  0.00    -0.354 N 
ATOM     56  C   UNL A   1      43.341  29.918  27.901  1.00  0.00     0.074 A 
ATOM     57  C   UNL A   1      42.588  29.662  26.700  1.00  0.00     0.031 C 
ATOM     58  C   UNL A   1      37.983  28.337  31.212  1.00  0.00     0.029 A 
ATOM     59  C   UNL A   1      38.703  29.597  31.265  1.00  0.00     0.049 A 
ATOM     60  H   UNL A   1      40.678  29.916  30.646  1.00  0.00     0.167 HD
ATOM     61  C   UNL A   1      44.210  30.918  28.221  1.00  0.00     0.031 A 
ATOM     62  C   UNL A   1      38.309  30.805  31.740  1.00  0.00     0.031 A 
ATOM     63  C   UNL A   1      44.736  30.756  29.553  1.00  0.00     0.049 A 
ATOM     64  C   UNL A   1      39.530  31.628  31.914  1.00  0.00     0.074 A 
ATOM     65  C   UNL A   1      45.445  29.761  30.197  1.00  0.00     0.029 A 
ATOM     66  N   UNL A   1      44.187  31.533  30.546  1.00  0.00    -0.354 N 
ATOM     67  N   UNL A   1      40.442  31.370  32.807  1.00  0.00    -0.248 NA
ATOM     68  C   UNL A   1      39.968  32.444  30.790  1.00  0.00     0.031 C 
ATOM     69  C   UNL A   1      44.856  29.684  31.492  1.00  0.00     0.029 A 
ATOM     70  C   UNL A   1      43.898  30.696  31.592  1.00  0.00     0.049 A 
ATOM     71  H   UNL A   1      44.031  32.504  30.513  1.00  0.00     0.167 HD
ATOM     72  C   UNL A   1      41.644  31.579  32.149  1.00  0.00     0.074 A 
ATOM     73  C   UNL A   1      41.292  32.332  30.944  1.00  0.00     0.031 C 
ATOM     74  C   UNL A   1      42.768  30.873  32.475  1.00  0.00     0.031 A 
BRANCH  61  75
ATOM     75  C   UNL A   1      44.279  32.247  27.508  1.00  0.00    -0.014 A 
ATOM     76  C   UNL A   1      43.728  33.378  28.139  1.00  0.00     0.009 A 
ATOM     77  C   UNL A   1      44.588  32.375  26.141  1.00  0.00     0.009 A 
ATOM     78  C   UNL A   1      43.416  34.538  27.419  1.00  0.00     0.001 A 
ATOM     79  C   UNL A   1      44.317  33.546  25.428  1.00  0.00     0.001 A 
ATOM     80  C   UNL A   1      43.700  34.617  26.060  1.00  0.00     0.000 A 
ENDBRANCH  61  75
BRANCH  62  81
ATOM     81  C   UNL A   1      36.945  31.378  31.802  1.00  0.00    -0.014 A 
ATOM     82  C   UNL A   1      36.426  31.874  33.010  1.00  0.00     0.009 A 
ATOM     83  C   UNL A   1      36.240  31.680  30.622  1.00  0.00     0.009 A 
ATOM     84  C   UNL A   1      35.275  32.677  33.027  1.00  0.00     0.001 A 
ATOM     85  C   UNL A   1      35.088  32.475  30.640  1.00  0.00     0.001 A 
ATOM     86  C   UNL A   1      34.615  32.988  31.842  1.00  0.00     0.000 A 
ENDBRANCH  62  81
BRANCH  74  87
ATOM     87  C   UNL A   1      42.744  29.998  33.706  1.00  0.00    -0.014 A 
ATOM     88  C   UNL A   1      43.183  30.427  34.971  1.00  0.00     0.009 A 
ATOM     89  C   UNL A   1      42.078  28.765  33.622  1.00  0.00     0.009 A 
ATOM     90  C   UNL A   1      42.985  29.636  36.108  1.00  0.00     0.001 A 
ATOM     91  C   UNL A   1      41.859  27.985  34.760  1.00  0.00     0.001 A 
ATOM     92  C   UNL A   1      42.316  28.419  36.002  1.00  0.00     0.000 A 
ENDBRANCH  74  87
ENDBRANCH  48  49
ENDBRANCH  40  43
ENDBRANCH  38  39
ENDBRANCH  37  38
ENDBRANCH  36  37
ENDBRANCH  35  36
ENDBRANCH   3  35
TORSDOF 19
ENDMDL
MODEL 2
REMARK VINA RESULT:     -13.1      3.317      8.448
REMARK SMILES NS(=O)(=O)c1ccc(-n2nc(C(=O)NCCCC(=O)NCCCCNC(=O)c3ccc(-c4c5nc(c(-c6ccccc6)c6ccc([nH]6)c(-c6ccccc6)c6nc(c(-c7ccccc7)c7ccc4[nH]7)C=C6)C=C5)cc3)cc2-c2ccccc2)cc1
REMARK SMILES IDX 18 1 19 2 20 3 17 5 16 6 15 7 14 8 12 9 13 10 11 12 9 13
REMARK SMILES IDX 10 14 77 15 76 16 8 17 5 18 6 19 85 20 7 21 84 22 2 23 3 24
REMARK SMILES IDX 4 25 1 26 78 29 79 30 83 31 80 32 82 33 81 34 21 35 22 36
REMARK SMILES IDX 23 37 24 38 25 39 26 40 27 42 28 43 29 44 75 45 30 46 74 47
REMARK SMILES IDX 31 48 32 49 33 50 68 51 34 52 73 53 67 54 69 55 35 56 72 57
REMARK SMILES IDX 66 58 65 59 36 61 58 62 43 63 57 64 44 65 47 66 56 67 70 68
REMARK SMILES IDX 45 69 46 70 55 72 71 73 48 74 37 75 38 76 42 77 39 78 41 79
REMARK SMILES IDX 40 80 59 81 60 82 64 83 61 84 63 85 62 86 49 87 50 88 54 89
REMARK SMILES IDX 51 90 53 91 52 92
REMARK H PARENT 20 4 14 11 1 27 1 28 25 41 69 60 47 71
REMARK Flexibility Score: inf
ROOT
ATOM      1  C   UNL A   1      31.761  29.359  25.413  1.00  0.00     0.220 C 
ATOM      2  O   UNL A   1      30.993  30.194  24.932  1.00  0.00    -0.275 OA
ATOM      3  N   UNL A   1      32.830  29.814  26.123  1.00  0.00    -0.356 N 
ATOM      4  H   UNL A   1      32.853  30.789  26.251  1.00  0.00     0.163 HD
ENDROOT
BRANCH   1   5
ATOM      5  C   UNL A   1      31.500  27.876  25.238  1.00  0.00     0.102 C 
BRANCH   5   6
ATOM      6  C   UNL A   1      31.049  27.465  23.835  1.00  0.00     0.031 C 
BRANCH   6   7
ATOM      7  C   UNL A   1      30.147  26.238  23.754  1.00  0.00     0.116 C 
BRANCH   7   8
ATOM      8  N   UNL A   1      29.490  25.894  25.000  1.00  0.00    -0.351 N 
ATOM      9  C   UNL A   1      29.836  24.960  25.955  1.00  0.00     0.271 C 
ATOM     10  O   UNL A   1      29.107  24.878  26.944  1.00  0.00    -0.267 OA
ATOM     11  H   UNL A   1      28.671  26.406  25.194  1.00  0.00     0.163 HD
BRANCH   9  12
ATOM     12  C   UNL A   1      31.021  24.106  25.759  1.00  0.00     0.151 A 
ATOM     13  N   UNL A   1      32.155  22.356  25.258  1.00  0.00    -0.232 N 
ATOM     14  N   UNL A   1      30.898  22.856  25.268  1.00  0.00    -0.162 NA
ATOM     15  C   UNL A   1      33.101  23.346  25.484  1.00  0.00     0.075 A 
ATOM     16  C   UNL A   1      32.387  24.412  25.982  1.00  0.00     0.065 A 
BRANCH  13  17
ATOM     17  C   UNL A   1      32.407  20.985  24.990  1.00  0.00     0.065 A 
ATOM     18  C   UNL A   1      33.168  18.373  24.428  1.00  0.00     0.082 A 
ATOM     19  C   UNL A   1      33.277  18.852  25.734  1.00  0.00     0.024 A 
ATOM     20  C   UNL A   1      32.634  19.173  23.411  1.00  0.00     0.024 A 
ATOM     21  C   UNL A   1      32.903  20.162  26.014  1.00  0.00     0.030 A 
ATOM     22  C   UNL A   1      32.223  20.479  23.698  1.00  0.00     0.030 A 
BRANCH  18  23
ATOM     23  S   UNL A   1      33.684  16.715  24.103  1.00  0.00     0.238 S 
ATOM     24  O   UNL A   1      34.074  16.607  22.722  1.00  0.00    -0.207 OA
ATOM     25  O   UNL A   1      32.733  15.815  24.722  1.00  0.00    -0.207 OA
BRANCH  23  26
ATOM     26  N   UNL A   1      35.110  16.569  24.977  1.00  0.00    -0.225 NA
ATOM     27  H   UNL A   1      35.905  16.626  24.340  1.00  0.00     0.137 HD
ATOM     28  H   UNL A   1      35.123  15.671  25.458  1.00  0.00     0.137 HD
ENDBRANCH  23  26
ENDBRANCH  18  23
ENDBRANCH  13  17
BRANCH  15  29
ATOM     29  C   UNL A   1      34.513  23.278  25.106  1.00  0.00     0.000 A 
ATOM     30  C   UNL A   1      34.868  23.095  23.759  1.00  0.00     0.010 A 
ATOM     31  C   UNL A   1      35.522  23.436  26.059  1.00  0.00     0.010 A 
ATOM     32  C   UNL A   1      36.207  23.029  23.378  1.00  0.00     0.001 A 
ATOM     33  C   UNL A   1      36.864  23.378  25.674  1.00  0.00     0.001 A 
ATOM     34  C   UNL A   1      37.205  23.170  24.337  1.00  0.00     0.000 A 
ENDBRANCH  15  29
ENDBRANCH   9  12
ENDBRANCH   7   8
ENDBRANCH   6   7
ENDBRANCH   5   6
ENDBRANCH   1   5
BRANCH   3  35
ATOM     35  C   UNL A   1      33.942  29.099  26.722  1.00  0.00     0.116 C 
BRANCH  35  36
ATOM     36  C   UNL A   1      34.891  30.058  27.452  1.00  0.00     0.023 C 
BRANCH  36  37
ATOM     37  C   UNL A   1      34.369  31.480  27.677  1.00  0.00     0.023 C 
BRANCH  37  38
ATOM     38  C   UNL A   1      35.412  32.450  28.206  1.00  0.00     0.116 C 
BRANCH  38  39
ATOM     39  N   UNL A   1      35.294  32.684  29.644  1.00  0.00    -0.352 N 
ATOM     40  C   UNL A   1      35.848  31.927  30.657  1.00  0.00     0.251 C 
ATOM     41  H   UNL A   1      34.762  33.464  29.919  1.00  0.00     0.163 HD
ATOM     42  O   UNL A   1      35.393  31.947  31.793  1.00  0.00    -0.269 OA
BRANCH  40  43
ATOM     43  C   UNL A   1      37.010  31.085  30.333  1.00  0.00     0.039 A 
ATOM     44  C   UNL A   1      38.262  31.650  30.077  1.00  0.00     0.014 A 
ATOM     45  C   UNL A   1      36.832  29.702  30.359  1.00  0.00     0.014 A 
ATOM     46  C   UNL A   1      39.359  30.806  29.941  1.00  0.00     0.010 A 
ATOM     47  C   UNL A   1      37.931  28.880  30.348  1.00  0.00     0.010 A 
ATOM     48  C   UNL A   1      39.191  29.422  30.107  1.00  0.00    -0.014 A 
BRANCH  48  49
ATOM     49  C   UNL A   1      40.354  28.543  30.172  1.00  0.00     0.031 A 
ATOM     50  C   UNL A   1      40.949  28.384  31.530  1.00  0.00     0.074 A 
ATOM     51  C   UNL A   1      40.724  27.747  29.146  1.00  0.00     0.049 A 
ATOM     52  N   UNL A   1      42.140  28.713  31.907  1.00  0.00    -0.248 NA
ATOM     53  C   UNL A   1      40.093  27.904  32.628  1.00  0.00     0.031 C 
ATOM     54  C   UNL A   1      40.048  27.547  27.859  1.00  0.00     0.029 A 
ATOM     55  N   UNL A   1      41.725  26.829  29.099  1.00  0.00    -0.354 N 
ATOM     56  C   UNL A   1      42.254  28.325  33.240  1.00  0.00     0.074 A 
ATOM     57  C   UNL A   1      40.925  27.973  33.671  1.00  0.00     0.031 C 
ATOM     58  C   UNL A   1      40.490  26.403  27.293  1.00  0.00     0.029 A 
ATOM     59  C   UNL A   1      41.585  25.881  28.091  1.00  0.00     0.049 A 
ATOM     60  H   UNL A   1      42.483  26.833  29.726  1.00  0.00     0.167 HD
ATOM     61  C   UNL A   1      43.471  28.116  33.818  1.00  0.00     0.031 A 
ATOM     62  C   UNL A   1      42.286  24.727  27.958  1.00  0.00     0.031 A 
ATOM     63  C   UNL A   1      44.537  28.659  33.015  1.00  0.00     0.049 A 
ATOM     64  C   UNL A   1      43.520  24.866  28.769  1.00  0.00     0.074 A 
ATOM     65  C   UNL A   1      44.840  29.917  32.534  1.00  0.00     0.029 A 
ATOM     66  N   UNL A   1      45.258  27.776  32.245  1.00  0.00    -0.354 N 
ATOM     67  N   UNL A   1      44.478  25.697  28.472  1.00  0.00    -0.248 NA
ATOM     68  C   UNL A   1      43.474  24.436  30.159  1.00  0.00     0.031 C 
ATOM     69  C   UNL A   1      45.291  29.691  31.201  1.00  0.00     0.029 A 
ATOM     70  C   UNL A   1      45.330  28.311  30.986  1.00  0.00     0.049 A 
ATOM     71  H   UNL A   1      45.649  26.922  32.542  1.00  0.00     0.167 HD
ATOM     72  C   UNL A   1      44.852  26.247  29.689  1.00  0.00     0.074 A 
ATOM     73  C   UNL A   1      44.270  25.364  30.701  1.00  0.00     0.031 C 
ATOM     74  C   UNL A   1      45.338  27.522  29.775  1.00  0.00     0.031 A 
BRANCH  61  75
ATOM     75  C   UNL A   1      43.740  27.082  34.884  1.00  0.00    -0.014 A 
ATOM     76  C   UNL A   1      43.745  25.723  34.517  1.00  0.00     0.009 A 
ATOM     77  C   UNL A   1      43.695  27.364  36.262  1.00  0.00     0.009 A 
ATOM     78  C   UNL A   1      43.613  24.708  35.472  1.00  0.00     0.001 A 
ATOM     79  C   UNL A   1      43.606  26.351  37.221  1.00  0.00     0.001 A 
ATOM     80  C   UNL A   1      43.532  25.024  36.824  1.00  0.00     0.000 A 
ENDBRANCH  61  75
BRANCH  62  81
ATOM     81  C   UNL A   1      41.842  23.430  27.398  1.00  0.00    -0.014 A 
ATOM     82  C   UNL A   1      42.719  22.335  27.336  1.00  0.00     0.009 A 
ATOM     83  C   UNL A   1      40.477  23.182  27.160  1.00  0.00     0.009 A 
ATOM     84  C   UNL A   1      42.240  21.038  27.090  1.00  0.00     0.001 A 
ATOM     85  C   UNL A   1      40.001  21.891  26.907  1.00  0.00     0.001 A 
ATOM     86  C   UNL A   1      40.881  20.815  26.889  1.00  0.00     0.000 A 
ENDBRANCH  62  81
BRANCH  74  87
ATOM     87  C   UNL A   1      45.658  28.265  28.501  1.00  0.00    -0.014 A 
ATOM     88  C   UNL A   1      44.710  29.015  27.782  1.00  0.00     0.009 A 
ATOM     89  C   UNL A   1      47.005  28.367  28.119  1.00  0.00     0.009 A 
ATOM     90  C   UNL A   1      45.096  29.818  26.702  1.00  0.00     0.001 A 
ATOM     91  C   UNL A   1      47.394  29.187  27.058  1.00  0.00     0.001 A 
ATOM     92  C   UNL A   1      46.440  29.908  26.347  1.00  0.00     0.000 A 
ENDBRANCH  74  87
ENDBRANCH  48  49
ENDBRANCH  40  43
ENDBRANCH  38  39
ENDBRANCH  37  38
ENDBRANCH  36  37
ENDBRANCH  35  36
ENDBRANCH   3  35
TORSDOF 19
ENDMDL
MODEL 3
REMARK VINA RESULT:     -12.8      1.512      5.309
REMARK SMILES NS(=O)(=O)c1ccc(-n2nc(C(=O)NCCCC(=O)NCCCCNC(=O)c3ccc(-c4c5nc(c(-c6ccccc6)c6ccc([nH]6)c(-c6ccccc6)c6nc(c(-c7ccccc7)c7ccc4[nH]7)C=C6)C=C5)cc3)cc2-c2ccccc2)cc1
REMARK SMILES IDX 18 1 19 2 20 3 17 5 16 6 15 7 14 8 12 9 13 10 11 12 9 13
REMARK SMILES IDX 10 14 77 15 76 16 8 17 5 18 6 19 85 20 7 21 84 22 2 23 3 24
REMARK SMILES IDX 4 25 1 26 78 29 79 30 83 31 80 32 82 33 81 34 21 35 22 36
REMARK SMILES IDX 23 37 24 38 25 39 26 40 27 42 28 43 29 44 75 45 30 46 74 47
REMARK SMILES IDX 31 48 32 49 33 50 68 51 34 52 73 53 67 54 69 55 35 56 72 57
REMARK SMILES IDX 66 58 65 59 36 61 58 62 43 63 57 64 44 65 47 66 56 67 70 68
REMARK SMILES IDX 45 69 46 70 55 72 71 73 48 74 37 75 38 76 42 77 39 78 41 79
REMARK SMILES IDX 40 80 59 81 60 82 64 83 61 84 63 85 62 86 49 87 50 88 54 89
REMARK SMILES IDX 51 90 53 91 52 92
REMARK H PARENT 20 4 14 11 1 27 1 28 25 41 69 60 47 71
REMARK Flexibility Score: inf
ROOT
ATOM      1  C   UNL A   1      33.837  23.867  23.173  1.00  0.00     0.220 C 
ATOM      2  O   UNL A   1      33.177  24.907  23.209  1.00  0.00    -0.275 OA
ATOM      3  N   UNL A   1      35.143  23.930  23.550  1.00  0.00    -0.356 N 
ATOM      4  H   UNL A   1      35.429  24.806  23.895  1.00  0.00     0.163 HD
ENDROOT
BRANCH   1   5
ATOM      5  C   UNL A   1      33.198  22.560  22.746  1.00  0.00     0.102 C 
BRANCH   5   6
ATOM      6  C   UNL A   1      32.151  22.009  23.716  1.00  0.00     0.031 C 
BRANCH   6   7
ATOM      7  C   UNL A   1      32.576  21.916  25.178  1.00  0.00     0.116 C 
BRANCH   7   8
ATOM      8  N   UNL A   1      31.476  21.909  26.122  1.00  0.00    -0.351 N 
ATOM      9  C   UNL A   1      30.737  22.958  26.629  1.00  0.00     0.271 C 
ATOM     10  O   UNL A   1      29.832  22.673  27.415  1.00  0.00    -0.267 OA
ATOM     11  H   UNL A   1      31.217  21.018  26.453  1.00  0.00     0.163 HD
BRANCH   9  12
ATOM     12  C   UNL A   1      31.054  24.343  26.239  1.00  0.00     0.151 A 
ATOM     13  N   UNL A   1      30.785  26.272  25.340  1.00  0.00    -0.232 N 
ATOM     14  N   UNL A   1      30.159  25.093  25.565  1.00  0.00    -0.162 NA
ATOM     15  C   UNL A   1      31.954  26.379  26.080  1.00  0.00     0.075 A 
ATOM     16  C   UNL A   1      32.224  25.098  26.505  1.00  0.00     0.065 A 
BRANCH  13  17
ATOM     17  C   UNL A   1      30.230  27.255  24.481  1.00  0.00     0.065 A 
ATOM     18  C   UNL A   1      29.023  29.291  23.026  1.00  0.00     0.082 A 
ATOM     19  C   UNL A   1      30.259  29.523  23.631  1.00  0.00     0.024 A 
ATOM     20  C   UNL A   1      28.410  28.034  23.098  1.00  0.00     0.024 A 
ATOM     21  C   UNL A   1      30.859  28.505  24.366  1.00  0.00     0.030 A 
ATOM     22  C   UNL A   1      29.030  26.999  23.807  1.00  0.00     0.030 A 
BRANCH  18  23
ATOM     23  S   UNL A   1      28.274  30.616  22.129  1.00  0.00     0.238 S 
ATOM     24  O   UNL A   1      27.296  31.257  22.969  1.00  0.00    -0.207 OA
ATOM     25  O   UNL A   1      27.974  30.146  20.793  1.00  0.00    -0.207 OA
BRANCH  23  26
ATOM     26  N   UNL A   1      29.517  31.733  21.968  1.00  0.00    -0.225 NA
ATOM     27  H   UNL A   1      29.165  32.565  21.493  1.00  0.00     0.137 HD
ATOM     28  H   UNL A   1      30.274  31.324  21.423  1.00  0.00     0.137 HD
ENDBRANCH  23  26
ENDBRANCH  18  23
ENDBRANCH  13  17
BRANCH  15  29
ATOM     29  C   UNL A   1      32.624  27.629  26.438  1.00  0.00     0.000 A 
ATOM     30  C   UNL A   1      31.944  28.594  27.198  1.00  0.00     0.010 A 
ATOM     31  C   UNL A   1      33.952  27.865  26.072  1.00  0.00     0.010 A 
ATOM     32  C   UNL A   1      32.566  29.791  27.551  1.00  0.00     0.001 A 
ATOM     33  C   UNL A   1      34.576  29.062  26.432  1.00  0.00     0.001 A 
ATOM     34  C   UNL A   1      33.882  30.024  27.166  1.00  0.00     0.000 A 
ENDBRANCH  15  29
ENDBRANCH   9  12
ENDBRANCH   7   8
ENDBRANCH   6   7
ENDBRANCH   5   6
ENDBRANCH   1   5
BRANCH   3  35
ATOM     35  C   UNL A   1      36.184  22.919  23.530  1.00  0.00     0.116 C 
BRANCH  35  36
ATOM     36  C   UNL A   1      36.397  22.312  24.923  1.00  0.00     0.023 C 
BRANCH  36  37
ATOM     37  C   UNL A   1      36.466  23.304  26.086  1.00  0.00     0.023 C 
BRANCH  37  38
ATOM     38  C   UNL A   1      37.549  24.360  25.940  1.00  0.00     0.116 C 
BRANCH  38  39
ATOM     39  N   UNL A   1      38.895  23.827  26.139  1.00  0.00    -0.352 N 
ATOM     40  C   UNL A   1      39.985  24.498  26.655  1.00  0.00     0.251 C 
ATOM     41  H   UNL A   1      39.039  22.890  25.876  1.00  0.00     0.163 HD
ATOM     42  O   UNL A   1      41.130  24.130  26.426  1.00  0.00    -0.269 OA
BRANCH  40  43
ATOM     43  C   UNL A   1      39.736  25.680  27.494  1.00  0.00     0.039 A 
ATOM     44  C   UNL A   1      39.277  25.549  28.807  1.00  0.00     0.014 A 
ATOM     45  C   UNL A   1      40.038  26.930  26.955  1.00  0.00     0.014 A 
ATOM     46  C   UNL A   1      39.216  26.685  29.609  1.00  0.00     0.010 A 
ATOM     47  C   UNL A   1      40.096  28.025  27.780  1.00  0.00     0.010 A 
ATOM     48  C   UNL A   1      39.655  27.916  29.097  1.00  0.00    -0.014 A 
BRANCH  48  49
ATOM     49  C   UNL A   1      39.793  29.071  29.978  1.00  0.00     0.031 A 
ATOM     50  C   UNL A   1      38.536  29.839  30.212  1.00  0.00     0.074 A 
ATOM     51  C   UNL A   1      40.901  29.296  30.715  1.00  0.00     0.049 A 
ATOM     52  N   UNL A   1      38.303  31.071  29.904  1.00  0.00    -0.248 NA
ATOM     53  C   UNL A   1      37.363  29.131  30.753  1.00  0.00     0.031 C 
ATOM     54  C   UNL A   1      42.097  28.456  30.843  1.00  0.00     0.029 A 
ATOM     55  N   UNL A   1      41.131  30.277  31.629  1.00  0.00    -0.354 N 
ATOM     56  C   UNL A   1      37.020  31.357  30.366  1.00  0.00     0.074 A 
ATOM     57  C   UNL A   1      36.437  30.094  30.742  1.00  0.00     0.031 C 
ATOM     58  C   UNL A   1      42.778  28.811  31.954  1.00  0.00     0.029 A 
ATOM     59  C   UNL A   1      42.162  29.998  32.519  1.00  0.00     0.049 A 
ATOM     60  H   UNL A   1      40.610  31.111  31.659  1.00  0.00     0.167 HD
ATOM     61  C   UNL A   1      36.620  32.638  30.607  1.00  0.00     0.031 A 
ATOM     62  C   UNL A   1      42.450  30.667  33.663  1.00  0.00     0.031 A 
ATOM     63  C   UNL A   1      37.525  33.593  30.019  1.00  0.00     0.049 A 
ATOM     64  C   UNL A   1      41.803  31.998  33.569  1.00  0.00     0.074 A 
ATOM     65  C   UNL A   1      37.972  33.839  28.736  1.00  0.00     0.029 A 
ATOM     66  N   UNL A   1      38.431  34.200  30.858  1.00  0.00    -0.354 N 
ATOM     67  N   UNL A   1      42.177  32.914  32.723  1.00  0.00    -0.248 NA
ATOM     68  C   UNL A   1      40.445  32.133  34.076  1.00  0.00     0.031 C 
ATOM     69  C   UNL A   1      39.363  34.109  28.888  1.00  0.00     0.029 A 
ATOM     70  C   UNL A   1      39.657  34.109  30.253  1.00  0.00     0.049 A 
ATOM     71  H   UNL A   1      38.236  34.621  31.727  1.00  0.00     0.167 HD
ATOM     72  C   UNL A   1      40.992  33.450  32.242  1.00  0.00     0.074 A 
ATOM     73  C   UNL A   1      39.963  33.000  33.180  1.00  0.00     0.031 C 
ATOM     74  C   UNL A   1      40.900  33.952  30.974  1.00  0.00     0.031 A 
BRANCH  61  75
ATOM     75  C   UNL A   1      35.657  33.038  31.698  1.00  0.00    -0.014 A 
ATOM     76  C   UNL A   1      34.630  33.950  31.388  1.00  0.00     0.009 A 
ATOM     77  C   UNL A   1      35.892  32.793  33.063  1.00  0.00     0.009 A 
ATOM     78  C   UNL A   1      33.946  34.648  32.390  1.00  0.00     0.001 A 
ATOM     79  C   UNL A   1      35.181  33.457  34.067  1.00  0.00     0.001 A 
ATOM     80  C   UNL A   1      34.230  34.409  33.730  1.00  0.00     0.000 A 
ENDBRANCH  61  75
BRANCH  62  81
ATOM     81  C   UNL A   1      43.018  30.144  34.927  1.00  0.00    -0.014 A 
ATOM     82  C   UNL A   1      42.475  29.006  35.545  1.00  0.00     0.009 A 
ATOM     83  C   UNL A   1      44.262  30.606  35.398  1.00  0.00     0.009 A 
ATOM     84  C   UNL A   1      43.171  28.333  36.561  1.00  0.00     0.001 A 
ATOM     85  C   UNL A   1      44.952  29.940  36.417  1.00  0.00     0.001 A 
ATOM     86  C   UNL A   1      44.414  28.791  36.987  1.00  0.00     0.000 A 
ENDBRANCH  62  81
BRANCH  74  87
ATOM     87  C   UNL A   1      42.163  34.107  30.160  1.00  0.00    -0.014 A 
ATOM     88  C   UNL A   1      42.844  33.025  29.574  1.00  0.00     0.009 A 
ATOM     89  C   UNL A   1      42.568  35.405  29.816  1.00  0.00     0.009 A 
ATOM     90  C   UNL A   1      43.911  33.238  28.695  1.00  0.00     0.001 A 
ATOM     91  C   UNL A   1      43.617  35.620  28.920  1.00  0.00     0.001 A 
ATOM     92  C   UNL A   1      44.292  34.537  28.362  1.00  0.00     0.000 A 
ENDBRANCH  74  87
ENDBRANCH  48  49
ENDBRANCH  40  43
ENDBRANCH  38  39
ENDBRANCH  37  38
ENDBRANCH  36  37
ENDBRANCH  35  36
ENDBRANCH   3  35
TORSDOF 19
ENDMDL
