MODEL 1
REMARK VINA RESULT:     -12.4      0.000      0.000
REMARK SMILES C[C@@H](NC(=O)[C@H]1CC=CC[C@@H]1C(=O)NCCCCNC(=O)c1ccc(-c2c3nc(c(-c4ccccc4)c4ccc([nH]4)c(-c4ccccc4)c4nc(c(-c5ccccc5)c5ccc2[nH]5)C=C4)C=C3)cc1)c1ccc(-n2ccnc2)cc1
REMARK SMILES IDX 15 1 14 2 12 3 13 4 11 6 6 7 7 8 8 9 10 10 9 11 4 12 3 13
REMARK SMILES IDX 5 15 2 16 1 17 70 18 71 19 80 20 72 21 79 22 73 23 74 24
REMARK SMILES IDX 75 25 78 26 76 27 77 28 16 29 17 30 18 31 19 32 20 33 21 35
REMARK SMILES IDX 22 36 23 37 69 38 24 39 68 40 25 41 26 42 27 43 62 44 28 45
REMARK SMILES IDX 67 46 61 47 63 48 29 49 66 50 60 51 59 52 30 54 52 55 37 56
REMARK SMILES IDX 51 57 38 58 41 59 50 60 64 61 39 62 40 63 49 65 65 66 42 67
REMARK SMILES IDX 31 68 32 69 36 70 33 71 35 72 34 73 53 74 54 75 58 76 55 77
REMARK SMILES IDX 57 78 56 79 43 80 44 81 48 82 45 83 47 84 46 85
REMARK H PARENT 14 5 3 14 19 34 63 53 41 64
REMARK Flexibility Score: inf
ROOT
ATOM      1  C   UNL A   1      40.744  22.293  26.628  1.00  0.00     0.116 C 
ENDROOT
BRANCH   1   2
ATOM      2  N   UNL A   1      39.751  23.539  26.708  1.00  0.00    -0.356 N 
ATOM      3  C   UNL A   1      38.469  24.110  26.528  1.00  0.00     0.224 C 
ATOM      4  O   UNL A   1      38.413  25.279  26.967  1.00  0.00    -0.275 OA
ATOM      5  H   UNL A   1      40.305  24.277  27.053  1.00  0.00     0.163 HD
BRANCH   3   6
ATOM      6  C   UNL A   1      36.921  23.503  25.817  1.00  0.00     0.095 C 
ATOM      7  C   UNL A   1      34.879  24.385  25.599  1.00  0.00     0.095 C 
ATOM      8  C   UNL A   1      33.457  23.065  25.304  1.00  0.00     0.041 C 
ATOM      9  C   UNL A   1      33.948  21.362  24.847  1.00  0.00    -0.030 C 
ATOM     10  C   UNL A   1      36.888  21.561  25.409  1.00  0.00     0.041 C 
ATOM     11  C   UNL A   1      35.277  20.784  24.864  1.00  0.00    -0.030 C 
BRANCH   7  12
ATOM     12  C   UNL A   1      34.221  25.177  24.170  1.00  0.00     0.224 C 
ATOM     13  N   UNL A   1      33.518  26.373  24.437  1.00  0.00    -0.349 N 
ATOM     14  H   UNL A   1      33.282  26.990  23.706  1.00  0.00     0.164 HD
ATOM     15  O   UNL A   1      34.315  24.714  23.036  1.00  0.00    -0.275 OA
BRANCH  13  16
ATOM     16  C   UNL A   1      33.143  26.680  25.825  1.00  0.00     0.109 C 
ATOM     17  C   UNL A   1      31.758  26.167  26.192  1.00  0.00     0.036 C 
BRANCH  16  18
ATOM     18  C   UNL A   1      33.797  28.056  26.022  1.00  0.00    -0.026 A 
ATOM     19  C   UNL A   1      35.186  28.911  27.114  1.00  0.00     0.008 A 
ATOM     20  C   UNL A   1      32.336  29.100  25.781  1.00  0.00     0.008 A 
ATOM     21  C   UNL A   1      35.100  30.381  27.785  1.00  0.00     0.027 A 
ATOM     22  C   UNL A   1      32.385  30.581  26.632  1.00  0.00     0.027 A 
ATOM     23  C   UNL A   1      33.796  31.215  27.562  1.00  0.00     0.046 A 
BRANCH  23  24
ATOM     24  N   UNL A   1      34.219  32.605  27.780  1.00  0.00    -0.306 N 
ATOM     25  C   UNL A   1      33.453  33.571  28.417  1.00  0.00     0.113 A 
ATOM     26  C   UNL A   1      35.517  32.977  28.183  1.00  0.00     0.204 A 
ATOM     27  C   UNL A   1      34.312  34.581  28.800  1.00  0.00     0.131 A 
ATOM     28  N   UNL A   1      35.603  34.208  28.626  1.00  0.00    -0.245 NA
ENDBRANCH  23  24
ENDBRANCH  16  18
ENDBRANCH  13  16
ENDBRANCH   7  12
ENDBRANCH   3   6
ENDBRANCH   1   2
BRANCH   1  29
ATOM     29  C   UNL A   1      40.434  20.719  26.753  1.00  0.00     0.023 C 
BRANCH  29  30
ATOM     30  C   UNL A   1      41.322  19.671  26.115  1.00  0.00     0.023 C 
BRANCH  30  31
ATOM     31  C   UNL A   1      42.710  20.128  25.846  1.00  0.00     0.116 C 
BRANCH  31  32
ATOM     32  N   UNL A   1      43.452  19.264  24.947  1.00  0.00    -0.352 N 
ATOM     33  C   UNL A   1      44.602  19.620  24.282  1.00  0.00     0.251 C 
ATOM     34  H   UNL A   1      43.105  18.354  24.803  1.00  0.00     0.163 HD
ATOM     35  O   UNL A   1      45.134  18.882  23.465  1.00  0.00    -0.269 OA
BRANCH  33  36
ATOM     36  C   UNL A   1      45.109  20.983  24.541  1.00  0.00     0.039 A 
ATOM     37  C   UNL A   1      44.728  22.004  23.673  1.00  0.00     0.014 A 
ATOM     38  C   UNL A   1      45.706  21.265  25.775  1.00  0.00     0.014 A 
ATOM     39  C   UNL A   1      44.884  23.328  24.080  1.00  0.00     0.010 A 
ATOM     40  C   UNL A   1      45.734  22.575  26.226  1.00  0.00     0.010 A 
ATOM     41  C   UNL A   1      45.334  23.620  25.379  1.00  0.00    -0.014 A 
BRANCH  41  42
ATOM     42  C   UNL A   1      45.410  25.015  25.873  1.00  0.00     0.031 A 
ATOM     43  C   UNL A   1      46.735  25.723  25.873  1.00  0.00     0.074 A 
ATOM     44  C   UNL A   1      44.312  25.613  26.377  1.00  0.00     0.049 A 
ATOM     45  N   UNL A   1      47.032  26.914  26.325  1.00  0.00    -0.248 NA
ATOM     46  C   UNL A   1      47.887  24.989  25.318  1.00  0.00     0.031 C 
ATOM     47  C   UNL A   1      42.978  25.011  26.469  1.00  0.00     0.029 A 
ATOM     48  N   UNL A   1      44.146  26.864  26.918  1.00  0.00    -0.354 N 
ATOM     49  C   UNL A   1      48.399  27.058  26.128  1.00  0.00     0.074 A 
ATOM     50  C   UNL A   1      48.886  25.822  25.563  1.00  0.00     0.031 C 
ATOM     51  C   UNL A   1      42.130  25.902  27.009  1.00  0.00     0.029 A 
ATOM     52  C   UNL A   1      42.866  27.113  27.354  1.00  0.00     0.049 A 
ATOM     53  H   UNL A   1      44.876  27.521  26.986  1.00  0.00     0.167 HD
ATOM     54  C   UNL A   1      49.176  28.135  26.382  1.00  0.00     0.031 A 
ATOM     55  C   UNL A   1      42.351  28.187  27.984  1.00  0.00     0.031 A 
ATOM     56  C   UNL A   1      48.684  29.367  26.930  1.00  0.00     0.049 A 
ATOM     57  C   UNL A   1      43.251  29.356  28.283  1.00  0.00     0.074 A 
ATOM     58  C   UNL A   1      49.378  30.542  27.153  1.00  0.00     0.029 A 
ATOM     59  N   UNL A   1      47.382  29.580  27.355  1.00  0.00    -0.354 N 
ATOM     60  N   UNL A   1      44.520  29.517  27.994  1.00  0.00    -0.248 NA
ATOM     61  C   UNL A   1      42.648  30.493  28.993  1.00  0.00     0.031 C 
ATOM     62  C   UNL A   1      48.518  31.439  27.790  1.00  0.00     0.029 A 
ATOM     63  C   UNL A   1      47.268  30.851  27.890  1.00  0.00     0.049 A 
ATOM     64  H   UNL A   1      46.650  28.925  27.287  1.00  0.00     0.167 HD
ATOM     65  C   UNL A   1      44.860  30.778  28.468  1.00  0.00     0.074 A 
ATOM     66  C   UNL A   1      43.657  31.352  29.035  1.00  0.00     0.031 C 
ATOM     67  C   UNL A   1      46.062  31.403  28.447  1.00  0.00     0.031 A 
BRANCH  54  68
ATOM     68  C   UNL A   1      50.646  28.027  26.094  1.00  0.00    -0.014 A 
ATOM     69  C   UNL A   1      51.548  27.534  27.050  1.00  0.00     0.009 A 
ATOM     70  C   UNL A   1      51.122  28.353  24.814  1.00  0.00     0.009 A 
ATOM     71  C   UNL A   1      52.900  27.387  26.733  1.00  0.00     0.001 A 
ATOM     72  C   UNL A   1      52.467  28.173  24.491  1.00  0.00     0.001 A 
ATOM     73  C   UNL A   1      53.356  27.695  25.451  1.00  0.00     0.000 A 
ENDBRANCH  54  68
BRANCH  55  74
ATOM     74  C   UNL A   1      40.926  28.199  28.417  1.00  0.00    -0.014 A 
ATOM     75  C   UNL A   1      39.942  28.843  27.652  1.00  0.00     0.009 A 
ATOM     76  C   UNL A   1      40.551  27.603  29.633  1.00  0.00     0.009 A 
ATOM     77  C   UNL A   1      38.626  28.930  28.115  1.00  0.00     0.001 A 
ATOM     78  C   UNL A   1      39.227  27.656  30.075  1.00  0.00     0.001 A 
ATOM     79  C   UNL A   1      38.269  28.334  29.323  1.00  0.00     0.000 A 
ENDBRANCH  55  74
BRANCH  67  80
ATOM     80  C   UNL A   1      46.135  32.786  29.031  1.00  0.00    -0.014 A 
ATOM     81  C   UNL A   1      45.894  33.922  28.244  1.00  0.00     0.009 A 
ATOM     82  C   UNL A   1      46.379  32.948  30.404  1.00  0.00     0.009 A 
ATOM     83  C   UNL A   1      45.926  35.196  28.815  1.00  0.00     0.001 A 
ATOM     84  C   UNL A   1      46.374  34.218  30.980  1.00  0.00     0.001 A 
ATOM     85  C   UNL A   1      46.157  35.342  30.183  1.00  0.00     0.000 A 
ENDBRANCH  67  80
ENDBRANCH  41  42
ENDBRANCH  33  36
ENDBRANCH  31  32
ENDBRANCH  30  31
ENDBRANCH  29  30
ENDBRANCH   1  29
TORSDOF 15
ENDMDL
MODEL 2
REMARK VINA RESULT:     -12.1      0.354      5.752
REMARK SMILES C[C@@H](NC(=O)[C@H]1CC=CC[C@@H]1C(=O)NCCCCNC(=O)c1ccc(-c2c3nc(c(-c4ccccc4)c4ccc([nH]4)c(-c4ccccc4)c4nc(c(-c5ccccc5)c5ccc2[nH]5)C=C4)C=C3)cc1)c1ccc(-n2ccnc2)cc1
REMARK SMILES IDX 15 1 14 2 12 3 13 4 11 6 6 7 7 8 8 9 10 10 9 11 4 12 3 13
REMARK SMILES IDX 5 15 2 16 1 17 70 18 71 19 80 20 72 21 79 22 73 23 74 24
REMARK SMILES IDX 75 25 78 26 76 27 77 28 16 29 17 30 18 31 19 32 20 33 21 35
REMARK SMILES IDX 22 36 23 37 69 38 24 39 68 40 25 41 26 42 27 43 62 44 28 45
REMARK SMILES IDX 67 46 61 47 63 48 29 49 66 50 60 51 59 52 30 54 52 55 37 56
REMARK SMILES IDX 51 57 38 58 41 59 50 60 64 61 39 62 40 63 49 65 65 66 42 67
REMARK SMILES IDX 31 68 32 69 36 70 33 71 35 72 34 73 53 74 54 75 58 76 55 77
REMARK SMILES IDX 57 78 56 79 43 80 44 81 48 82 45 83 47 84 46 85
REMARK H PARENT 14 5 3 14 19 34 63 53 41 64
REMARK Flexibility Score: inf
ROOT
ATOM      1  C   UNL A   1      40.631  22.370  26.633  1.00  0.00     0.116 C 
ENDROOT
BRANCH   1   2
ATOM      2  N   UNL A   1      39.640  23.619  26.689  1.00  0.00    -0.356 N 
ATOM      3  C   UNL A   1      38.362  24.192  26.490  1.00  0.00     0.224 C 
ATOM      4  O   UNL A   1      38.304  25.364  26.917  1.00  0.00    -0.275 OA
ATOM      5  H   UNL A   1      40.193  24.359  27.032  1.00  0.00     0.163 HD
BRANCH   3   6
ATOM      6  C   UNL A   1      36.820  23.580  25.770  1.00  0.00     0.095 C 
ATOM      7  C   UNL A   1      34.781  24.464  25.525  1.00  0.00     0.095 C 
ATOM      8  C   UNL A   1      33.360  23.143  25.227  1.00  0.00     0.041 C 
ATOM      9  C   UNL A   1      33.853  21.437  24.789  1.00  0.00    -0.030 C 
ATOM     10  C   UNL A   1      36.787  21.636  25.377  1.00  0.00     0.041 C 
ATOM     11  C   UNL A   1      35.181  20.856  24.823  1.00  0.00    -0.030 C 
BRANCH   7  12
ATOM     12  C   UNL A   1      34.138  25.245  24.083  1.00  0.00     0.224 C 
ATOM     13  N   UNL A   1      33.402  26.424  24.338  1.00  0.00    -0.349 N 
ATOM     14  H   UNL A   1      33.169  27.038  23.603  1.00  0.00     0.164 HD
ATOM     15  O   UNL A   1      34.268  24.789  22.951  1.00  0.00    -0.275 OA
BRANCH  13  16
ATOM     16  C   UNL A   1      32.989  26.718  25.718  1.00  0.00     0.109 C 
ATOM     17  C   UNL A   1      31.606  26.176  26.051  1.00  0.00     0.036 C 
BRANCH  16  18
ATOM     18  C   UNL A   1      33.610  28.106  25.935  1.00  0.00    -0.026 A 
ATOM     19  C   UNL A   1      35.072  28.953  26.934  1.00  0.00     0.008 A 
ATOM     20  C   UNL A   1      32.096  29.101  25.907  1.00  0.00     0.008 A 
ATOM     21  C   UNL A   1      35.002  30.375  27.702  1.00  0.00     0.027 A 
ATOM     22  C   UNL A   1      32.178  30.529  26.840  1.00  0.00     0.027 A 
ATOM     23  C   UNL A   1      33.653  31.166  27.664  1.00  0.00     0.046 A 
BRANCH  23  24
ATOM     24  N   UNL A   1      34.047  32.557  27.925  1.00  0.00    -0.306 N 
ATOM     25  C   UNL A   1      33.163  33.625  28.001  1.00  0.00     0.113 A 
ATOM     26  C   UNL A   1      35.012  32.934  28.879  1.00  0.00     0.204 A 
ATOM     27  C   UNL A   1      33.819  34.646  28.658  1.00  0.00     0.131 A 
ATOM     28  N   UNL A   1      34.989  34.209  29.183  1.00  0.00    -0.245 NA
ENDBRANCH  23  24
ENDBRANCH  16  18
ENDBRANCH  13  16
ENDBRANCH   7  12
ENDBRANCH   3   6
ENDBRANCH   1   2
BRANCH   1  29
ATOM     29  C   UNL A   1      40.303  20.799  26.517  1.00  0.00     0.023 C 
BRANCH  29  30
ATOM     30  C   UNL A   1      41.385  19.743  26.596  1.00  0.00     0.023 C 
BRANCH  30  31
ATOM     31  C   UNL A   1      42.719  20.199  26.126  1.00  0.00     0.116 C 
BRANCH  31  32
ATOM     32  N   UNL A   1      43.274  19.392  25.055  1.00  0.00    -0.352 N 
ATOM     33  C   UNL A   1      44.332  19.762  24.257  1.00  0.00     0.251 C 
ATOM     34  H   UNL A   1      42.862  18.514  24.886  1.00  0.00     0.163 HD
ATOM     35  O   UNL A   1      44.699  19.082  23.309  1.00  0.00    -0.269 OA
BRANCH  33  36
ATOM     36  C   UNL A   1      44.945  21.073  24.553  1.00  0.00     0.039 A 
ATOM     37  C   UNL A   1      44.562  22.168  23.781  1.00  0.00     0.014 A 
ATOM     38  C   UNL A   1      45.653  21.240  25.748  1.00  0.00     0.014 A 
ATOM     39  C   UNL A   1      44.835  23.452  24.250  1.00  0.00     0.010 A 
ATOM     40  C   UNL A   1      45.801  22.515  26.271  1.00  0.00     0.010 A 
ATOM     41  C   UNL A   1      45.403  23.633  25.522  1.00  0.00    -0.014 A 
BRANCH  41  42
ATOM     42  C   UNL A   1      45.607  24.987  26.090  1.00  0.00     0.031 A 
ATOM     43  C   UNL A   1      44.428  25.734  26.648  1.00  0.00     0.074 A 
ATOM     44  C   UNL A   1      46.825  25.562  26.045  1.00  0.00     0.049 A 
ATOM     45  N   UNL A   1      44.376  26.950  27.126  1.00  0.00    -0.248 NA
ATOM     46  C   UNL A   1      43.130  25.036  26.643  1.00  0.00     0.031 C 
ATOM     47  C   UNL A   1      48.037  24.952  25.490  1.00  0.00     0.029 A 
ATOM     48  N   UNL A   1      47.244  26.800  26.468  1.00  0.00    -0.354 N 
ATOM     49  C   UNL A   1      43.044  27.165  27.455  1.00  0.00     0.074 A 
ATOM     50  C   UNL A   1      42.311  25.979  27.082  1.00  0.00     0.031 C 
ATOM     51  C   UNL A   1      49.064  25.807  25.629  1.00  0.00     0.029 A 
ATOM     52  C   UNL A   1      48.575  27.044  26.228  1.00  0.00     0.049 A 
ATOM     53  H   UNL A   1      46.646  27.450  26.902  1.00  0.00     0.167 HD
ATOM     54  C   UNL A   1      42.486  28.252  28.034  1.00  0.00     0.031 A 
ATOM     55  C   UNL A   1      49.313  28.151  26.444  1.00  0.00     0.031 A 
ATOM     56  C   UNL A   1      43.223  29.423  28.418  1.00  0.00     0.049 A 
ATOM     57  C   UNL A   1      48.653  29.356  27.059  1.00  0.00     0.074 A 
ATOM     58  C   UNL A   1      42.761  30.545  29.081  1.00  0.00     0.029 A 
ATOM     59  N   UNL A   1      44.568  29.630  28.161  1.00  0.00    -0.354 N 
ATOM     60  N   UNL A   1      47.414  29.505  27.462  1.00  0.00    -0.248 NA
ATOM     61  C   UNL A   1      49.494  30.547  27.252  1.00  0.00     0.031 C 
ATOM     62  C   UNL A   1      43.807  31.468  29.151  1.00  0.00     0.029 A 
ATOM     63  C   UNL A   1      44.940  30.887  28.604  1.00  0.00     0.049 A 
ATOM     64  H   UNL A   1      45.169  28.981  27.728  1.00  0.00     0.167 HD
ATOM     65  C   UNL A   1      47.334  30.794  27.973  1.00  0.00     0.074 A 
ATOM     66  C   UNL A   1      48.655  31.375  27.858  1.00  0.00     0.031 C 
ATOM     67  C   UNL A   1      46.260  31.446  28.482  1.00  0.00     0.031 A 
BRANCH  54  68
ATOM     68  C   UNL A   1      41.002  28.241  28.271  1.00  0.00    -0.014 A 
ATOM     69  C   UNL A   1      40.445  27.632  29.406  1.00  0.00     0.009 A 
ATOM     70  C   UNL A   1      40.159  28.922  27.379  1.00  0.00     0.009 A 
ATOM     71  C   UNL A   1      39.068  27.691  29.632  1.00  0.00     0.001 A 
ATOM     72  C   UNL A   1      38.788  29.007  27.626  1.00  0.00     0.001 A 
ATOM     73  C   UNL A   1      38.243  28.388  28.749  1.00  0.00     0.000 A 
ENDBRANCH  54  68
BRANCH  55  74
ATOM     74  C   UNL A   1      50.745  28.197  26.039  1.00  0.00    -0.014 A 
ATOM     75  C   UNL A   1      51.767  27.909  26.957  1.00  0.00     0.009 A 
ATOM     76  C   UNL A   1      51.101  28.580  24.735  1.00  0.00     0.009 A 
ATOM     77  C   UNL A   1      53.109  28.047  26.593  1.00  0.00     0.001 A 
ATOM     78  C   UNL A   1      52.443  28.679  24.361  1.00  0.00     0.001 A 
ATOM     79  C   UNL A   1      53.446  28.428  25.295  1.00  0.00     0.000 A 
ENDBRANCH  55  74
BRANCH  67  80
ATOM     80  C   UNL A   1      46.470  32.850  28.975  1.00  0.00    -0.014 A 
ATOM     81  C   UNL A   1      46.895  33.104  30.288  1.00  0.00     0.009 A 
ATOM     82  C   UNL A   1      46.308  33.928  28.092  1.00  0.00     0.009 A 
ATOM     83  C   UNL A   1      47.125  34.414  30.714  1.00  0.00     0.001 A 
ATOM     84  C   UNL A   1      46.573  35.232  28.508  1.00  0.00     0.001 A 
ATOM     85  C   UNL A   1      46.972  35.474  29.822  1.00  0.00     0.000 A 
ENDBRANCH  67  80
ENDBRANCH  41  42
ENDBRANCH  33  36
ENDBRANCH  31  32
ENDBRANCH  30  31
ENDBRANCH  29  30
ENDBRANCH   1  29
TORSDOF 15
ENDMDL
MODEL 3
REMARK VINA RESULT:     -11.5      2.265      3.057
REMARK SMILES C[C@@H](NC(=O)[C@H]1CC=CC[C@@H]1C(=O)NCCCCNC(=O)c1ccc(-c2c3nc(c(-c4ccccc4)c4ccc([nH]4)c(-c4ccccc4)c4nc(c(-c5ccccc5)c5ccc2[nH]5)C=C4)C=C3)cc1)c1ccc(-n2ccnc2)cc1
REMARK SMILES IDX 15 1 14 2 12 3 13 4 11 6 6 7 7 8 8 9 10 10 9 11 4 12 3 13
REMARK SMILES IDX 5 15 2 16 1 17 70 18 71 19 80 20 72 21 79 22 73 23 74 24
REMARK SMILES IDX 75 25 78 26 76 27 77 28 16 29 17 30 18 31 19 32 20 33 21 35
REMARK SMILES IDX 22 36 23 37 69 38 24 39 68 40 25 41 26 42 27 43 62 44 28 45
REMARK SMILES IDX 67 46 61 47 63 48 29 49 66 50 60 51 59 52 30 54 52 55 37 56
REMARK SMILES IDX 51 57 38 58 41 59 50 60 64 61 39 62 40 63 49 65 65 66 42 67
REMARK SMILES IDX 31 68 32 69 36 70 33 71 35 72 34 73 53 74 54 75 58 76 55 77
REMARK SMILES IDX 57 78 56 79 43 80 44 81 48 82 45 83 47 84 46 85
REMARK H PARENT 14 5 3 14 19 34 63 53 41 64
REMARK Flexibility Score: inf
ROOT
ATOM      1  C   UNL A   1      39.905  21.800  26.318  1.00  0.00     0.116 C 
ENDROOT
BRANCH   1   2
ATOM      2  N   UNL A   1      38.648  22.727  25.994  1.00  0.00    -0.356 N 
ATOM      3  C   UNL A   1      37.283  22.884  25.658  1.00  0.00     0.224 C 
ATOM      4  O   UNL A   1      36.931  24.082  25.682  1.00  0.00    -0.275 OA
ATOM      5  H   UNL A   1      38.994  23.647  26.062  1.00  0.00     0.163 HD
BRANCH   3   6
ATOM      6  C   UNL A   1      35.965  21.725  25.222  1.00  0.00     0.095 C 
ATOM      7  C   UNL A   1      33.734  21.829  25.310  1.00  0.00     0.095 C 
ATOM      8  C   UNL A   1      32.843  20.081  25.283  1.00  0.00     0.041 C 
ATOM      9  C   UNL A   1      33.832  18.621  24.799  1.00  0.00    -0.030 C 
ATOM     10  C   UNL A   1      36.561  19.864  24.876  1.00  0.00     0.041 C 
ATOM     11  C   UNL A   1      35.268  18.538  24.618  1.00  0.00    -0.030 C 
BRANCH   7  12
ATOM     12  C   UNL A   1      32.645  22.227  23.985  1.00  0.00     0.224 C 
ATOM     13  N   UNL A   1      31.903  23.415  24.176  1.00  0.00    -0.349 N 
ATOM     14  H   UNL A   1      31.418  23.829  23.425  1.00  0.00     0.164 HD
ATOM     15  O   UNL A   1      32.495  21.517  22.995  1.00  0.00    -0.275 OA
BRANCH  13  16
ATOM     16  C   UNL A   1      31.866  24.020  25.515  1.00  0.00     0.109 C 
ATOM     17  C   UNL A   1      31.808  22.987  26.631  1.00  0.00     0.036 C 
BRANCH  16  18
ATOM     18  C   UNL A   1      31.025  25.280  25.259  1.00  0.00    -0.026 A 
ATOM     19  C   UNL A   1      29.317  25.800  24.443  1.00  0.00     0.008 A 
ATOM     20  C   UNL A   1      32.365  26.450  24.917  1.00  0.00     0.008 A 
ATOM     21  C   UNL A   1      29.059  27.107  23.525  1.00  0.00     0.027 A 
ATOM     22  C   UNL A   1      31.932  27.722  23.862  1.00  0.00     0.027 A 
ATOM     23  C   UNL A   1      30.269  28.057  23.243  1.00  0.00     0.046 A 
BRANCH  23  24
ATOM     24  N   UNL A   1      29.643  29.342  22.904  1.00  0.00    -0.306 N 
ATOM     25  C   UNL A   1      29.888  30.055  21.739  1.00  0.00     0.113 A 
ATOM     26  C   UNL A   1      28.282  29.635  23.121  1.00  0.00     0.204 A 
ATOM     27  C   UNL A   1      28.846  30.947  21.583  1.00  0.00     0.131 A 
ATOM     28  N   UNL A   1      27.855  30.690  22.471  1.00  0.00    -0.245 NA
ENDBRANCH  23  24
ENDBRANCH  16  18
ENDBRANCH  13  16
ENDBRANCH   7  12
ENDBRANCH   3   6
ENDBRANCH   1   2
BRANCH   1  29
ATOM     29  C   UNL A   1      40.094  20.215  26.122  1.00  0.00     0.023 C 
BRANCH  29  30
ATOM     30  C   UNL A   1      41.388  19.509  26.470  1.00  0.00     0.023 C 
BRANCH  30  31
ATOM     31  C   UNL A   1      42.601  20.130  25.878  1.00  0.00     0.116 C 
BRANCH  31  32
ATOM     32  N   UNL A   1      43.348  19.247  25.001  1.00  0.00    -0.352 N 
ATOM     33  C   UNL A   1      44.499  19.591  24.332  1.00  0.00     0.251 C 
ATOM     34  H   UNL A   1      43.004  18.334  24.877  1.00  0.00     0.163 HD
ATOM     35  O   UNL A   1      45.036  18.836  23.534  1.00  0.00    -0.269 OA
BRANCH  33  36
ATOM     36  C   UNL A   1      45.003  20.961  24.562  1.00  0.00     0.039 A 
ATOM     37  C   UNL A   1      44.587  21.970  23.695  1.00  0.00     0.014 A 
ATOM     38  C   UNL A   1      45.633  21.261  25.775  1.00  0.00     0.014 A 
ATOM     39  C   UNL A   1      44.744  23.299  24.084  1.00  0.00     0.010 A 
ATOM     40  C   UNL A   1      45.664  22.576  26.211  1.00  0.00     0.010 A 
ATOM     41  C   UNL A   1      45.230  23.608  25.365  1.00  0.00    -0.014 A 
BRANCH  41  42
ATOM     42  C   UNL A   1      45.308  25.009  25.843  1.00  0.00     0.031 A 
ATOM     43  C   UNL A   1      46.637  25.710  25.847  1.00  0.00     0.074 A 
ATOM     44  C   UNL A   1      44.209  25.619  26.329  1.00  0.00     0.049 A 
ATOM     45  N   UNL A   1      46.936  26.905  26.286  1.00  0.00    -0.248 NA
ATOM     46  C   UNL A   1      47.790  24.963  25.312  1.00  0.00     0.031 C 
ATOM     47  C   UNL A   1      42.871  25.026  26.416  1.00  0.00     0.029 A 
ATOM     48  N   UNL A   1      44.045  26.878  26.852  1.00  0.00    -0.354 N 
ATOM     49  C   UNL A   1      48.306  27.040  26.101  1.00  0.00     0.074 A 
ATOM     50  C   UNL A   1      48.791  25.794  25.556  1.00  0.00     0.031 C 
ATOM     51  C   UNL A   1      42.022  25.928  26.936  1.00  0.00     0.029 A 
ATOM     52  C   UNL A   1      42.762  27.139  27.273  1.00  0.00     0.049 A 
ATOM     53  H   UNL A   1      44.777  27.532  26.919  1.00  0.00     0.167 HD
ATOM     54  C   UNL A   1      49.086  28.115  26.349  1.00  0.00     0.031 A 
ATOM     55  C   UNL A   1      42.247  28.224  27.884  1.00  0.00     0.031 A 
ATOM     56  C   UNL A   1      48.596  29.357  26.876  1.00  0.00     0.049 A 
ATOM     57  C   UNL A   1      43.150  29.392  28.177  1.00  0.00     0.074 A 
ATOM     58  C   UNL A   1      49.294  30.531  27.091  1.00  0.00     0.029 A 
ATOM     59  N   UNL A   1      47.291  29.582  27.286  1.00  0.00    -0.354 N 
ATOM     60  N   UNL A   1      44.423  29.543  27.898  1.00  0.00    -0.248 NA
ATOM     61  C   UNL A   1      42.547  30.541  28.868  1.00  0.00     0.031 C 
ATOM     62  C   UNL A   1      48.433  31.441  27.708  1.00  0.00     0.029 A 
ATOM     63  C   UNL A   1      47.178  30.860  27.804  1.00  0.00     0.049 A 
ATOM     64  H   UNL A   1      46.556  28.930  27.219  1.00  0.00     0.167 HD
ATOM     65  C   UNL A   1      44.765  30.807  28.360  1.00  0.00     0.074 A 
ATOM     66  C   UNL A   1      43.560  31.395  28.908  1.00  0.00     0.031 C 
ATOM     67  C   UNL A   1      45.971  31.426  28.343  1.00  0.00     0.031 A 
BRANCH  54  68
ATOM     68  C   UNL A   1      50.559  27.996  26.075  1.00  0.00    -0.014 A 
ATOM     69  C   UNL A   1      51.456  27.562  27.064  1.00  0.00     0.009 A 
ATOM     70  C   UNL A   1      51.041  28.250  24.782  1.00  0.00     0.009 A 
ATOM     71  C   UNL A   1      52.810  27.402  26.764  1.00  0.00     0.001 A 
ATOM     72  C   UNL A   1      52.389  28.057  24.478  1.00  0.00     0.001 A 
ATOM     73  C   UNL A   1      53.273  27.638  25.470  1.00  0.00     0.000 A 
ENDBRANCH  54  68
BRANCH  55  74
ATOM     74  C   UNL A   1      40.818  28.249  28.304  1.00  0.00    -0.014 A 
ATOM     75  C   UNL A   1      39.853  28.929  27.546  1.00  0.00     0.009 A 
ATOM     76  C   UNL A   1      40.420  27.628  29.500  1.00  0.00     0.009 A 
ATOM     77  C   UNL A   1      38.534  29.026  27.999  1.00  0.00     0.001 A 
ATOM     78  C   UNL A   1      39.093  27.692  29.930  1.00  0.00     0.001 A 
ATOM     79  C   UNL A   1      38.155  28.405  29.187  1.00  0.00     0.000 A 
ENDBRANCH  55  74
BRANCH  67  80
ATOM     80  C   UNL A   1      46.045  32.816  28.910  1.00  0.00    -0.014 A 
ATOM     81  C   UNL A   1      46.398  33.036  30.250  1.00  0.00     0.009 A 
ATOM     82  C   UNL A   1      45.826  33.921  28.073  1.00  0.00     0.009 A 
ATOM     83  C   UNL A   1      46.502  34.337  30.747  1.00  0.00     0.001 A 
ATOM     84  C   UNL A   1      45.966  35.219  28.562  1.00  0.00     0.001 A 
ATOM     85  C   UNL A   1      46.295  35.426  29.902  1.00  0.00     0.000 A 
ENDBRANCH  67  80
ENDBRANCH  41  42
ENDBRANCH  33  36
ENDBRANCH  31  32
ENDBRANCH  30  31
ENDBRANCH  29  30
ENDBRANCH   1  29
TORSDOF 15
ENDMDL
