MODEL 1
REMARK VINA RESULT:     -12.9      0.000      0.000
REMARK SMILES Cc1ccc(CCC(=O)N2CCC3(CC2)[C@H](C(=O)NCCCCNC(=O)c2ccc(-c4c5nc(c(-c6ccccc6)c6ccc([nH]6)c(-c6ccccc6)c6nc(c(-c7ccccc7)c7ccc4[nH]7)C=C6)C=C5)cc2)CC(=O)N3C)cc1
REMARK SMILES IDX 21 1 20 2 19 3 17 4 18 5 16 7 8 8 9 9 10 10 11 11 15 12
REMARK SMILES IDX 12 13 14 14 13 15 78 16 75 17 76 18 79 19 77 20 7 21 6 22
REMARK SMILES IDX 5 23 1 24 2 25 3 26 81 27 4 28 80 29 22 30 23 31 24 32 25 33
REMARK SMILES IDX 26 35 27 36 28 37 74 38 29 39 73 40 30 41 31 42 32 43 67 44
REMARK SMILES IDX 33 45 72 46 66 47 68 48 34 49 71 50 65 51 64 52 35 54 57 55
REMARK SMILES IDX 42 56 56 57 43 58 46 59 55 60 69 61 44 62 45 63 54 65 70 66
REMARK SMILES IDX 47 67 36 68 37 69 41 70 38 71 40 72 39 73 58 74 59 75 63 76
REMARK SMILES IDX 60 77 62 78 61 79 48 80 49 81 53 82 50 83 52 84 51 85
REMARK H PARENT 19 6 24 34 68 53 46 64
REMARK Flexibility Score: inf
ROOT
ATOM      1  C   UNL A   1      37.628  23.955  26.359  1.00  0.00     0.023 C 
ENDROOT
BRANCH   1   2
ATOM      2  C   UNL A   1      36.259  23.311  26.067  1.00  0.00     0.116 C 
BRANCH   2   3
ATOM      3  N   UNL A   1      36.275  21.914  25.639  1.00  0.00    -0.356 N 
ATOM      4  C   UNL A   1      35.347  20.991  25.284  1.00  0.00     0.226 C 
ATOM      5  O   UNL A   1      35.795  19.918  24.858  1.00  0.00    -0.275 OA
ATOM      6  H   UNL A   1      37.189  21.550  25.599  1.00  0.00     0.163 HD
BRANCH   4   7
ATOM      7  C   UNL A   1      33.826  21.149  25.385  1.00  0.00     0.113 C 
ATOM      8  C   UNL A   1      32.312  25.534  22.794  1.00  0.00     0.222 C 
ATOM      9  O   UNL A   1      32.918  26.181  21.933  1.00  0.00    -0.275 OA
ATOM     10  N   UNL A   1      32.302  24.153  22.762  1.00  0.00    -0.343 N 
ATOM     11  C   UNL A   1      33.417  23.424  22.200  1.00  0.00     0.122 C 
ATOM     12  C   UNL A   1      31.293  23.289  23.315  1.00  0.00     0.122 C 
ATOM     13  C   UNL A   1      34.030  22.587  23.318  1.00  0.00     0.051 C 
ATOM     14  C   UNL A   1      31.831  22.506  24.512  1.00  0.00     0.051 C 
ATOM     15  C   UNL A   1      33.072  21.658  24.125  1.00  0.00     0.058 C 
ATOM     16  N   UNL A   1      32.603  20.371  23.567  1.00  0.00    -0.339 N 
ATOM     17  C   UNL A   1      33.153  19.857  25.808  1.00  0.00     0.116 C 
ATOM     18  C   UNL A   1      32.529  19.365  24.540  1.00  0.00     0.223 C 
ATOM     19  C   UNL A   1      31.862  20.183  22.334  1.00  0.00     0.147 C 
ATOM     20  O   UNL A   1      32.015  18.264  24.406  1.00  0.00    -0.275 OA
BRANCH   8  21
ATOM     21  C   UNL A   1      31.787  26.260  24.039  1.00  0.00     0.105 C 
BRANCH  21  22
ATOM     22  C   UNL A   1      32.358  25.945  25.432  1.00  0.00     0.045 C 
BRANCH  22  23
ATOM     23  C   UNL A   1      32.646  27.174  26.278  1.00  0.00    -0.047 A 
ATOM     24  C   UNL A   1      33.236  31.267  27.425  1.00  0.00     0.044 C 
ATOM     25  C   UNL A   1      33.082  29.792  27.202  1.00  0.00    -0.051 A 
ATOM     26  C   UNL A   1      34.156  29.013  26.763  1.00  0.00     0.004 A 
ATOM     27  C   UNL A   1      31.822  29.196  27.336  1.00  0.00     0.004 A 
ATOM     28  C   UNL A   1      33.947  27.697  26.341  1.00  0.00     0.004 A 
ATOM     29  C   UNL A   1      31.607  27.893  26.884  1.00  0.00     0.004 A 
ENDBRANCH  22  23
ENDBRANCH  21  22
ENDBRANCH   8  21
ENDBRANCH   4   7
ENDBRANCH   2   3
ENDBRANCH   1   2
BRANCH   1  30
ATOM     30  C   UNL A   1      38.873  23.146  25.972  1.00  0.00     0.023 C 
BRANCH  30  31
ATOM     31  C   UNL A   1      39.776  22.882  27.152  1.00  0.00     0.116 C 
BRANCH  31  32
ATOM     32  N   UNL A   1      41.136  23.386  26.995  1.00  0.00    -0.352 N 
ATOM     33  C   UNL A   1      41.569  24.698  26.969  1.00  0.00     0.251 C 
ATOM     34  H   UNL A   1      41.836  22.702  26.894  1.00  0.00     0.163 HD
ATOM     35  O   UNL A   1      42.753  24.968  26.785  1.00  0.00    -0.269 OA
BRANCH  33  36
ATOM     36  C   UNL A   1      40.604  25.765  27.314  1.00  0.00     0.039 A 
ATOM     37  C   UNL A   1      40.681  26.959  26.595  1.00  0.00     0.014 A 
ATOM     38  C   UNL A   1      39.886  25.696  28.506  1.00  0.00     0.014 A 
ATOM     39  C   UNL A   1      40.283  28.141  27.210  1.00  0.00     0.010 A 
ATOM     40  C   UNL A   1      39.606  26.877  29.165  1.00  0.00     0.010 A 
ATOM     41  C   UNL A   1      39.872  28.099  28.543  1.00  0.00    -0.014 A 
BRANCH  41  42
ATOM     42  C   UNL A   1      39.740  29.297  29.362  1.00  0.00     0.031 A 
ATOM     43  C   UNL A   1      38.700  30.286  29.008  1.00  0.00     0.074 A 
ATOM     44  C   UNL A   1      40.565  29.527  30.411  1.00  0.00     0.049 A 
ATOM     45  N   UNL A   1      38.829  31.562  29.149  1.00  0.00    -0.248 NA
ATOM     46  C   UNL A   1      37.433  29.894  28.400  1.00  0.00     0.031 C 
ATOM     47  C   UNL A   1      40.473  30.629  31.368  1.00  0.00     0.029 A 
ATOM     48  N   UNL A   1      41.799  28.941  30.703  1.00  0.00    -0.354 N 
ATOM     49  C   UNL A   1      37.586  32.119  28.944  1.00  0.00     0.074 A 
ATOM     50  C   UNL A   1      36.780  31.058  28.387  1.00  0.00     0.031 C 
ATOM     51  C   UNL A   1      41.692  30.845  31.890  1.00  0.00     0.029 A 
ATOM     52  C   UNL A   1      42.619  29.974  31.185  1.00  0.00     0.049 A 
ATOM     53  H   UNL A   1      42.045  27.993  30.593  1.00  0.00     0.167 HD
ATOM     54  C   UNL A   1      37.317  33.371  29.411  1.00  0.00     0.031 A 
ATOM     55  C   UNL A   1      43.771  30.380  30.573  1.00  0.00     0.031 A 
ATOM     56  C   UNL A   1      38.488  33.973  30.043  1.00  0.00     0.049 A 
ATOM     57  C   UNL A   1      43.754  31.847  30.183  1.00  0.00     0.074 A 
ATOM     58  C   UNL A   1      38.874  34.095  31.368  1.00  0.00     0.029 A 
ATOM     59  N   UNL A   1      39.607  34.270  29.277  1.00  0.00    -0.354 N 
ATOM     60  N   UNL A   1      42.669  32.570  30.133  1.00  0.00    -0.248 NA
ATOM     61  C   UNL A   1      44.934  32.597  29.750  1.00  0.00     0.031 C 
ATOM     62  C   UNL A   1      40.261  34.388  31.394  1.00  0.00     0.029 A 
ATOM     63  C   UNL A   1      40.707  34.478  30.087  1.00  0.00     0.049 A 
ATOM     64  H   UNL A   1      39.616  34.325  28.294  1.00  0.00     0.167 HD
ATOM     65  C   UNL A   1      42.969  33.827  29.677  1.00  0.00     0.074 A 
ATOM     66  C   UNL A   1      44.403  33.800  29.460  1.00  0.00     0.031 C 
ATOM     67  C   UNL A   1      42.005  34.777  29.502  1.00  0.00     0.031 A 
BRANCH  54  68
ATOM     68  C   UNL A   1      35.913  33.905  29.576  1.00  0.00    -0.014 A 
ATOM     69  C   UNL A   1      35.217  34.385  28.451  1.00  0.00     0.009 A 
ATOM     70  C   UNL A   1      35.242  34.017  30.805  1.00  0.00     0.009 A 
ATOM     71  C   UNL A   1      33.983  35.041  28.563  1.00  0.00     0.001 A 
ATOM     72  C   UNL A   1      34.030  34.711  30.932  1.00  0.00     0.001 A 
ATOM     73  C   UNL A   1      33.406  35.236  29.810  1.00  0.00     0.000 A 
ENDBRANCH  54  68
BRANCH  55  74
ATOM     74  C   UNL A   1      44.459  29.314  29.796  1.00  0.00    -0.014 A 
ATOM     75  C   UNL A   1      45.333  28.446  30.481  1.00  0.00     0.009 A 
ATOM     76  C   UNL A   1      43.988  28.929  28.533  1.00  0.00     0.009 A 
ATOM     77  C   UNL A   1      45.625  27.177  29.974  1.00  0.00     0.001 A 
ATOM     78  C   UNL A   1      44.293  27.660  28.024  1.00  0.00     0.001 A 
ATOM     79  C   UNL A   1      45.076  26.771  28.762  1.00  0.00     0.000 A 
ENDBRANCH  55  74
BRANCH  67  80
ATOM     80  C   UNL A   1      42.183  36.110  28.820  1.00  0.00    -0.014 A 
ATOM     81  C   UNL A   1      42.735  37.242  29.431  1.00  0.00     0.009 A 
ATOM     82  C   UNL A   1      41.917  36.203  27.433  1.00  0.00     0.009 A 
ATOM     83  C   UNL A   1      42.974  38.417  28.704  1.00  0.00     0.001 A 
ATOM     84  C   UNL A   1      42.196  37.355  26.696  1.00  0.00     0.001 A 
ATOM     85  C   UNL A   1      42.716  38.469  27.336  1.00  0.00     0.000 A 
ENDBRANCH  67  80
ENDBRANCH  41  42
ENDBRANCH  33  36
ENDBRANCH  31  32
ENDBRANCH  30  31
ENDBRANCH   1  30
TORSDOF 14
ENDMDL
MODEL 2
REMARK VINA RESULT:     -12.8      3.229      8.481
REMARK SMILES Cc1ccc(CCC(=O)N2CCC3(CC2)[C@H](C(=O)NCCCCNC(=O)c2ccc(-c4c5nc(c(-c6ccccc6)c6ccc([nH]6)c(-c6ccccc6)c6nc(c(-c7ccccc7)c7ccc4[nH]7)C=C6)C=C5)cc2)CC(=O)N3C)cc1
REMARK SMILES IDX 21 1 20 2 19 3 17 4 18 5 16 7 8 8 9 9 10 10 11 11 15 12
REMARK SMILES IDX 12 13 14 14 13 15 78 16 75 17 76 18 79 19 77 20 7 21 6 22
REMARK SMILES IDX 5 23 1 24 2 25 3 26 81 27 4 28 80 29 22 30 23 31 24 32 25 33
REMARK SMILES IDX 26 35 27 36 28 37 74 38 29 39 73 40 30 41 31 42 32 43 67 44
REMARK SMILES IDX 33 45 72 46 66 47 68 48 34 49 71 50 65 51 64 52 35 54 57 55
REMARK SMILES IDX 42 56 56 57 43 58 46 59 55 60 69 61 44 62 45 63 54 65 70 66
REMARK SMILES IDX 47 67 36 68 37 69 41 70 38 71 40 72 39 73 58 74 59 75 63 76
REMARK SMILES IDX 60 77 62 78 61 79 48 80 49 81 53 82 50 83 52 84 51 85
REMARK H PARENT 19 6 24 34 68 53 46 64
REMARK Flexibility Score: inf
ROOT
ATOM      1  C   UNL A   1      35.476  29.458  27.341  1.00  0.00     0.023 C 
ENDROOT
BRANCH   1   2
ATOM      2  C   UNL A   1      34.236  28.671  26.875  1.00  0.00     0.116 C 
BRANCH   2   3
ATOM      3  N   UNL A   1      33.111  29.461  26.381  1.00  0.00    -0.356 N 
ATOM      4  C   UNL A   1      32.202  29.347  25.382  1.00  0.00     0.226 C 
ATOM      5  O   UNL A   1      31.306  30.202  25.373  1.00  0.00    -0.275 OA
ATOM      6  H   UNL A   1      32.979  30.284  26.907  1.00  0.00     0.163 HD
BRANCH   4   7
ATOM      7  C   UNL A   1      32.203  28.290  24.272  1.00  0.00     0.113 C 
ATOM      8  C   UNL A   1      32.298  23.436  26.433  1.00  0.00     0.222 C 
ATOM      9  O   UNL A   1      32.007  23.087  27.582  1.00  0.00    -0.275 OA
ATOM     10  N   UNL A   1      31.511  24.346  25.752  1.00  0.00    -0.343 N 
ATOM     11  C   UNL A   1      30.769  25.358  26.471  1.00  0.00     0.122 C 
ATOM     12  C   UNL A   1      31.381  24.468  24.324  1.00  0.00     0.122 C 
ATOM     13  C   UNL A   1      31.304  26.717  26.034  1.00  0.00     0.051 C 
ATOM     14  C   UNL A   1      32.003  25.772  23.823  1.00  0.00     0.051 C 
ATOM     15  C   UNL A   1      31.355  27.008  24.502  1.00  0.00     0.058 C 
ATOM     16  N   UNL A   1      30.133  27.368  23.750  1.00  0.00    -0.339 N 
ATOM     17  C   UNL A   1      31.768  28.872  22.940  1.00  0.00     0.116 C 
ATOM     18  C   UNL A   1      30.377  28.343  22.773  1.00  0.00     0.223 C 
ATOM     19  C   UNL A   1      28.926  26.572  23.630  1.00  0.00     0.147 C 
ATOM     20  O   UNL A   1      29.604  28.702  21.897  1.00  0.00    -0.275 OA
BRANCH   8  21
ATOM     21  C   UNL A   1      33.668  23.054  25.861  1.00  0.00     0.105 C 
BRANCH  21  22
ATOM     22  C   UNL A   1      34.788  24.101  25.735  1.00  0.00     0.045 C 
BRANCH  22  23
ATOM     23  C   UNL A   1      36.174  23.510  25.538  1.00  0.00    -0.047 A 
ATOM     24  C   UNL A   1      39.761  21.255  26.219  1.00  0.00     0.044 C 
ATOM     25  C   UNL A   1      38.594  22.112  25.826  1.00  0.00    -0.051 A 
ATOM     26  C   UNL A   1      38.486  23.431  26.275  1.00  0.00     0.004 A 
ATOM     27  C   UNL A   1      37.545  21.560  25.082  1.00  0.00     0.004 A 
ATOM     28  C   UNL A   1      37.295  24.141  26.097  1.00  0.00     0.004 A 
ATOM     29  C   UNL A   1      36.344  22.257  24.932  1.00  0.00     0.004 A 
ENDBRANCH  22  23
ENDBRANCH  21  22
ENDBRANCH   8  21
ENDBRANCH   4   7
ENDBRANCH   2   3
ENDBRANCH   1   2
BRANCH   1  30
ATOM     30  C   UNL A   1      35.250  30.551  28.394  1.00  0.00     0.023 C 
BRANCH  30  31
ATOM     31  C   UNL A   1      35.121  31.923  27.780  1.00  0.00     0.116 C 
BRANCH  31  32
ATOM     32  N   UNL A   1      34.249  32.833  28.516  1.00  0.00    -0.352 N 
ATOM     33  C   UNL A   1      34.524  33.546  29.667  1.00  0.00     0.251 C 
ATOM     34  H   UNL A   1      33.347  32.955  28.142  1.00  0.00     0.163 HD
ATOM     35  O   UNL A   1      33.665  34.245  30.197  1.00  0.00    -0.269 OA
BRANCH  33  36
ATOM     36  C   UNL A   1      35.917  33.565  30.166  1.00  0.00     0.039 A 
ATOM     37  C   UNL A   1      36.893  34.107  29.326  1.00  0.00     0.014 A 
ATOM     38  C   UNL A   1      36.274  32.789  31.266  1.00  0.00     0.014 A 
ATOM     39  C   UNL A   1      38.198  33.638  29.423  1.00  0.00     0.010 A 
ATOM     40  C   UNL A   1      37.537  32.231  31.284  1.00  0.00     0.010 A 
ATOM     41  C   UNL A   1      38.476  32.604  30.319  1.00  0.00    -0.014 A 
BRANCH  41  42
ATOM     42  C   UNL A   1      39.714  31.837  30.274  1.00  0.00     0.031 A 
ATOM     43  C   UNL A   1      39.689  30.489  29.669  1.00  0.00     0.074 A 
ATOM     44  C   UNL A   1      40.863  32.324  30.798  1.00  0.00     0.049 A 
ATOM     45  N   UNL A   1      40.401  29.493  30.076  1.00  0.00    -0.248 NA
ATOM     46  C   UNL A   1      38.792  30.148  28.570  1.00  0.00     0.031 C 
ATOM     47  C   UNL A   1      42.186  31.704  30.725  1.00  0.00     0.029 A 
ATOM     48  N   UNL A   1      41.042  33.373  31.703  1.00  0.00    -0.354 N 
ATOM     49  C   UNL A   1      40.286  28.499  29.131  1.00  0.00     0.074 A 
ATOM     50  C   UNL A   1      39.203  28.915  28.270  1.00  0.00     0.031 C 
ATOM     51  C   UNL A   1      42.923  32.145  31.759  1.00  0.00     0.029 A 
ATOM     52  C   UNL A   1      42.048  32.957  32.591  1.00  0.00     0.049 A 
ATOM     53  H   UNL A   1      40.558  34.231  31.717  1.00  0.00     0.167 HD
ATOM     54  C   UNL A   1      41.217  27.505  29.073  1.00  0.00     0.031 A 
ATOM     55  C   UNL A   1      41.858  32.789  33.933  1.00  0.00     0.031 A 
ATOM     56  C   UNL A   1      42.216  27.640  30.130  1.00  0.00     0.049 A 
ATOM     57  C   UNL A   1      42.164  31.379  34.406  1.00  0.00     0.074 A 
ATOM     58  C   UNL A   1      43.496  28.167  30.142  1.00  0.00     0.029 A 
ATOM     59  N   UNL A   1      41.836  27.495  31.458  1.00  0.00    -0.354 N 
ATOM     60  N   UNL A   1      42.284  30.356  33.604  1.00  0.00    -0.248 NA
ATOM     61  C   UNL A   1      42.289  30.992  35.812  1.00  0.00     0.031 C 
ATOM     62  C   UNL A   1      43.854  28.417  31.491  1.00  0.00     0.029 A 
ATOM     63  C   UNL A   1      42.805  28.009  32.297  1.00  0.00     0.049 A 
ATOM     64  H   UNL A   1      40.993  27.084  31.758  1.00  0.00     0.167 HD
ATOM     65  C   UNL A   1      42.485  29.215  34.335  1.00  0.00     0.074 A 
ATOM     66  C   UNL A   1      42.492  29.665  35.714  1.00  0.00     0.031 C 
ATOM     67  C   UNL A   1      42.612  27.993  33.739  1.00  0.00     0.031 A 
BRANCH  54  68
ATOM     68  C   UNL A   1      41.394  26.611  27.867  1.00  0.00    -0.014 A 
ATOM     69  C   UNL A   1      41.534  25.223  28.047  1.00  0.00     0.009 A 
ATOM     70  C   UNL A   1      41.489  27.070  26.543  1.00  0.00     0.009 A 
ATOM     71  C   UNL A   1      41.864  24.364  26.988  1.00  0.00     0.001 A 
ATOM     72  C   UNL A   1      41.864  26.226  25.486  1.00  0.00     0.001 A 
ATOM     73  C   UNL A   1      42.065  24.873  25.713  1.00  0.00     0.000 A 
ENDBRANCH  54  68
BRANCH  55  74
ATOM     74  C   UNL A   1      40.797  33.656  34.514  1.00  0.00    -0.014 A 
ATOM     75  C   UNL A   1      39.511  33.107  34.693  1.00  0.00     0.009 A 
ATOM     76  C   UNL A   1      41.129  34.827  35.209  1.00  0.00     0.009 A 
ATOM     77  C   UNL A   1      38.629  33.644  35.635  1.00  0.00     0.001 A 
ATOM     78  C   UNL A   1      40.236  35.368  36.143  1.00  0.00     0.001 A 
ATOM     79  C   UNL A   1      39.007  34.754  36.385  1.00  0.00     0.000 A 
ENDBRANCH  55  74
BRANCH  67  80
ATOM     80  C   UNL A   1      42.630  26.659  34.440  1.00  0.00    -0.014 A 
ATOM     81  C   UNL A   1      41.598  26.185  35.260  1.00  0.00     0.009 A 
ATOM     82  C   UNL A   1      43.676  25.752  34.149  1.00  0.00     0.009 A 
ATOM     83  C   UNL A   1      41.629  24.887  35.792  1.00  0.00     0.001 A 
ATOM     84  C   UNL A   1      43.689  24.445  34.639  1.00  0.00     0.001 A 
ATOM     85  C   UNL A   1      42.667  24.016  35.472  1.00  0.00     0.000 A 
ENDBRANCH  67  80
ENDBRANCH  41  42
ENDBRANCH  33  36
ENDBRANCH  31  32
ENDBRANCH  30  31
ENDBRANCH   1  30
TORSDOF 14
ENDMDL
MODEL 3
REMARK VINA RESULT:     -12.7      3.263      8.743
REMARK SMILES Cc1ccc(CCC(=O)N2CCC3(CC2)[C@H](C(=O)NCCCCNC(=O)c2ccc(-c4c5nc(c(-c6ccccc6)c6ccc([nH]6)c(-c6ccccc6)c6nc(c(-c7ccccc7)c7ccc4[nH]7)C=C6)C=C5)cc2)CC(=O)N3C)cc1
REMARK SMILES IDX 21 1 20 2 19 3 17 4 18 5 16 7 8 8 9 9 10 10 11 11 15 12
REMARK SMILES IDX 12 13 14 14 13 15 78 16 75 17 76 18 79 19 77 20 7 21 6 22
REMARK SMILES IDX 5 23 1 24 2 25 3 26 81 27 4 28 80 29 22 30 23 31 24 32 25 33
REMARK SMILES IDX 26 35 27 36 28 37 74 38 29 39 73 40 30 41 31 42 32 43 67 44
REMARK SMILES IDX 33 45 72 46 66 47 68 48 34 49 71 50 65 51 64 52 35 54 57 55
REMARK SMILES IDX 42 56 56 57 43 58 46 59 55 60 69 61 44 62 45 63 54 65 70 66
REMARK SMILES IDX 47 67 36 68 37 69 41 70 38 71 40 72 39 73 58 74 59 75 63 76
REMARK SMILES IDX 60 77 62 78 61 79 48 80 49 81 53 82 50 83 52 84 51 85
REMARK H PARENT 19 6 24 34 68 53 46 64
REMARK Flexibility Score: inf
ROOT
ATOM      1  C   UNL A   1      35.360  29.271  27.423  1.00  0.00     0.023 C 
ENDROOT
BRANCH   1   2
ATOM      2  C   UNL A   1      34.376  28.696  26.386  1.00  0.00     0.116 C 
BRANCH   2   3
ATOM      3  N   UNL A   1      33.201  29.509  26.083  1.00  0.00    -0.356 N 
ATOM      4  C   UNL A   1      32.169  29.444  25.205  1.00  0.00     0.226 C 
ATOM      5  O   UNL A   1      31.285  30.298  25.355  1.00  0.00    -0.275 OA
ATOM      6  H   UNL A   1      33.143  30.304  26.660  1.00  0.00     0.163 HD
BRANCH   4   7
ATOM      7  C   UNL A   1      32.019  28.444  24.054  1.00  0.00     0.113 C 
ATOM      8  C   UNL A   1      31.744  23.509  26.005  1.00  0.00     0.222 C 
ATOM      9  O   UNL A   1      31.472  23.136  27.151  1.00  0.00    -0.275 OA
ATOM     10  N   UNL A   1      31.019  24.518  25.401  1.00  0.00    -0.343 N 
ATOM     11  C   UNL A   1      30.410  25.562  26.196  1.00  0.00     0.122 C 
ATOM     12  C   UNL A   1      30.838  24.718  23.987  1.00  0.00     0.122 C 
ATOM     13  C   UNL A   1      31.053  26.883  25.790  1.00  0.00     0.051 C 
ATOM     14  C   UNL A   1      31.559  25.979  23.511  1.00  0.00     0.051 C 
ATOM     15  C   UNL A   1      31.063  27.238  24.271  1.00  0.00     0.058 C 
ATOM     16  N   UNL A   1      29.850  27.745  23.595  1.00  0.00    -0.339 N 
ATOM     17  C   UNL A   1      31.584  29.124  22.770  1.00  0.00     0.116 C 
ATOM     18  C   UNL A   1      30.143  28.737  22.649  1.00  0.00     0.223 C 
ATOM     19  C   UNL A   1      28.568  27.073  23.501  1.00  0.00     0.147 C 
ATOM     20  O   UNL A   1      29.370  29.206  21.827  1.00  0.00    -0.275 OA
BRANCH   8  21
ATOM     21  C   UNL A   1      33.045  23.026  25.351  1.00  0.00     0.105 C 
BRANCH  21  22
ATOM     22  C   UNL A   1      33.016  22.237  24.031  1.00  0.00     0.045 C 
BRANCH  22  23
ATOM     23  C   UNL A   1      33.119  20.731  24.205  1.00  0.00    -0.047 A 
ATOM     24  C   UNL A   1      34.066  16.612  23.456  1.00  0.00     0.044 C 
ATOM     25  C   UNL A   1      33.642  17.990  23.872  1.00  0.00    -0.051 A 
ATOM     26  C   UNL A   1      32.430  18.533  23.435  1.00  0.00     0.004 A 
ATOM     27  C   UNL A   1      34.510  18.788  24.626  1.00  0.00     0.004 A 
ATOM     28  C   UNL A   1      32.152  19.888  23.635  1.00  0.00     0.004 A 
ATOM     29  C   UNL A   1      34.248  20.148  24.798  1.00  0.00     0.004 A 
ENDBRANCH  22  23
ENDBRANCH  21  22
ENDBRANCH   8  21
ENDBRANCH   4   7
ENDBRANCH   2   3
ENDBRANCH   1   2
BRANCH   1  30
ATOM     30  C   UNL A   1      34.821  30.354  28.366  1.00  0.00     0.023 C 
BRANCH  30  31
ATOM     31  C   UNL A   1      34.920  31.737  27.769  1.00  0.00     0.116 C 
BRANCH  31  32
ATOM     32  N   UNL A   1      34.024  32.719  28.371  1.00  0.00    -0.352 N 
ATOM     33  C   UNL A   1      34.229  33.494  29.496  1.00  0.00     0.251 C 
ATOM     34  H   UNL A   1      33.162  32.846  27.915  1.00  0.00     0.163 HD
ATOM     35  O   UNL A   1      33.355  34.253  29.907  1.00  0.00    -0.269 OA
BRANCH  33  36
ATOM     36  C   UNL A   1      35.575  33.501  30.111  1.00  0.00     0.039 A 
ATOM     37  C   UNL A   1      36.583  34.199  29.443  1.00  0.00     0.014 A 
ATOM     38  C   UNL A   1      35.886  32.589  31.117  1.00  0.00     0.014 A 
ATOM     39  C   UNL A   1      37.900  33.777  29.584  1.00  0.00     0.010 A 
ATOM     40  C   UNL A   1      37.172  32.088  31.165  1.00  0.00     0.010 A 
ATOM     41  C   UNL A   1      38.162  32.637  30.346  1.00  0.00    -0.014 A 
BRANCH  41  42
ATOM     42  C   UNL A   1      39.440  31.938  30.300  1.00  0.00     0.031 A 
ATOM     43  C   UNL A   1      39.500  30.617  29.642  1.00  0.00     0.074 A 
ATOM     44  C   UNL A   1      40.550  32.463  30.870  1.00  0.00     0.049 A 
ATOM     45  N   UNL A   1      40.255  29.644  30.026  1.00  0.00    -0.248 NA
ATOM     46  C   UNL A   1      38.645  30.275  28.509  1.00  0.00     0.031 C 
ATOM     47  C   UNL A   1      41.905  31.917  30.804  1.00  0.00     0.029 A 
ATOM     48  N   UNL A   1      40.653  33.482  31.820  1.00  0.00    -0.354 N 
ATOM     49  C   UNL A   1      40.213  28.684  29.039  1.00  0.00     0.074 A 
ATOM     50  C   UNL A   1      39.128  29.078  28.171  1.00  0.00     0.031 C 
ATOM     51  C   UNL A   1      42.595  32.353  31.871  1.00  0.00     0.029 A 
ATOM     52  C   UNL A   1      41.661  33.084  32.714  1.00  0.00     0.049 A 
ATOM     53  H   UNL A   1      40.125  34.313  31.857  1.00  0.00     0.167 HD
ATOM     54  C   UNL A   1      41.196  27.743  28.964  1.00  0.00     0.031 A 
ATOM     55  C   UNL A   1      41.451  32.851  34.043  1.00  0.00     0.031 A 
ATOM     56  C   UNL A   1      42.164  27.887  30.049  1.00  0.00     0.049 A 
ATOM     57  C   UNL A   1      41.822  31.440  34.467  1.00  0.00     0.074 A 
ATOM     58  C   UNL A   1      43.414  28.480  30.112  1.00  0.00     0.029 A 
ATOM     59  N   UNL A   1      41.763  27.668  31.360  1.00  0.00    -0.354 N 
ATOM     60  N   UNL A   1      42.012  30.459  33.628  1.00  0.00    -0.248 NA
ATOM     61  C   UNL A   1      41.937  31.004  35.860  1.00  0.00     0.031 C 
ATOM     62  C   UNL A   1      43.728  28.693  31.478  1.00  0.00     0.029 A 
ATOM     63  C   UNL A   1      42.686  28.198  32.242  1.00  0.00     0.049 A 
ATOM     64  H   UNL A   1      40.938  27.202  31.625  1.00  0.00     0.167 HD
ATOM     65  C   UNL A   1      42.259  29.301  34.318  1.00  0.00     0.074 A 
ATOM     66  C   UNL A   1      42.212  29.694  35.714  1.00  0.00     0.031 C 
ATOM     67  C   UNL A   1      42.463  28.113  33.678  1.00  0.00     0.031 A 
BRANCH  54  68
ATOM     68  C   UNL A   1      41.447  26.910  27.728  1.00  0.00    -0.014 A 
ATOM     69  C   UNL A   1      41.230  25.521  27.773  1.00  0.00     0.009 A 
ATOM     70  C   UNL A   1      41.946  27.414  26.515  1.00  0.00     0.009 A 
ATOM     71  C   UNL A   1      41.599  24.675  26.716  1.00  0.00     0.001 A 
ATOM     72  C   UNL A   1      42.359  26.572  25.472  1.00  0.00     0.001 A 
ATOM     73  C   UNL A   1      42.198  25.199  25.579  1.00  0.00     0.000 A 
ENDBRANCH  54  68
BRANCH  55  74
ATOM     74  C   UNL A   1      40.333  33.637  34.633  1.00  0.00    -0.014 A 
ATOM     75  C   UNL A   1      39.085  33.004  34.794  1.00  0.00     0.009 A 
ATOM     76  C   UNL A   1      40.585  34.814  35.351  1.00  0.00     0.009 A 
ATOM     77  C   UNL A   1      38.165  33.465  35.740  1.00  0.00     0.001 A 
ATOM     78  C   UNL A   1      39.655  35.278  36.290  1.00  0.00     0.001 A 
ATOM     79  C   UNL A   1      38.466  34.582  36.512  1.00  0.00     0.000 A 
ENDBRANCH  55  74
BRANCH  67  80
ATOM     80  C   UNL A   1      42.536  26.754  34.326  1.00  0.00    -0.014 A 
ATOM     81  C   UNL A   1      41.527  26.207  35.127  1.00  0.00     0.009 A 
ATOM     82  C   UNL A   1      43.618  25.903  33.998  1.00  0.00     0.009 A 
ATOM     83  C   UNL A   1      41.612  24.892  35.607  1.00  0.00     0.001 A 
ATOM     84  C   UNL A   1      43.685  24.579  34.435  1.00  0.00     0.001 A 
ATOM     85  C   UNL A   1      42.684  24.076  35.252  1.00  0.00     0.000 A 
ENDBRANCH  67  80
ENDBRANCH  41  42
ENDBRANCH  33  36
ENDBRANCH  31  32
ENDBRANCH  30  31
ENDBRANCH   1  30
TORSDOF 14
ENDMDL
