MODEL 1
REMARK VINA RESULT:     -10.9      0.000      0.000
REMARK SMILES CCCc1cc(OCC(=O)NCCCCNC(=O)c2ccc(-c3c4nc(c(-c5ccccc5)c5ccc([nH]5)c(-c5ccccc5)c5nc(c(-c6ccccc6)c6ccc3[nH]6)C=C5)C=C4)cc2)nc(Nc2ccc(C#N)cc2)n1
REMARK SMILES IDX 12 1 11 2 9 3 10 4 8 6 7 7 6 8 4 9 5 10 78 11 68 12 67 13
REMARK SMILES IDX 3 14 2 15 1 16 69 17 70 19 71 20 77 21 72 22 76 23 73 24
REMARK SMILES IDX 74 25 75 26 13 27 14 28 15 29 16 30 17 31 18 33 19 34 20 35
REMARK SMILES IDX 66 36 21 37 65 38 22 39 23 40 24 41 59 42 25 43 64 44 58 45
REMARK SMILES IDX 60 46 26 47 63 48 57 49 56 50 27 52 49 53 34 54 48 55 35 56
REMARK SMILES IDX 38 57 47 58 61 59 36 60 37 61 46 63 62 64 39 65 28 66 29 67
REMARK SMILES IDX 33 68 30 69 32 70 31 71 50 72 51 73 55 74 52 75 54 76 53 77
REMARK SMILES IDX 40 78 41 79 45 80 42 81 44 82 43 83
REMARK H PARENT 11 5 69 18 16 32 60 51 38 62
REMARK Flexibility Score: inf
ROOT
ATOM      1  C   UNL A   1      31.807  27.643  24.574  1.00  0.00     0.116 C 
ENDROOT
BRANCH   1   2
ATOM      2  N   UNL A   1      32.814  27.997  23.594  1.00  0.00    -0.353 N 
ATOM      3  C   UNL A   1      33.171  27.308  22.473  1.00  0.00     0.258 C 
ATOM      4  O   UNL A   1      34.049  27.773  21.744  1.00  0.00    -0.271 OA
ATOM      5  H   UNL A   1      33.299  28.837  23.758  1.00  0.00     0.163 HD
BRANCH   3   6
ATOM      6  C   UNL A   1      32.468  25.986  22.136  1.00  0.00     0.331 C 
BRANCH   6   7
ATOM      7  O   UNL A   1      33.290  24.903  21.731  1.00  0.00    -0.467 OA
BRANCH   7   8
ATOM      8  C   UNL A   1      33.649  23.983  22.677  1.00  0.00     0.218 A 
ATOM      9  C   UNL A   1      34.872  23.134  24.474  1.00  0.00     0.050 A 
ATOM     10  C   UNL A   1      34.737  24.101  23.508  1.00  0.00     0.092 A 
ATOM     11  N   UNL A   1      34.019  22.105  24.570  1.00  0.00    -0.218 NA
ATOM     12  C   UNL A   1      33.021  22.019  23.680  1.00  0.00     0.230 A 
ATOM     13  N   UNL A   1      32.803  22.936  22.729  1.00  0.00    -0.177 NA
BRANCH   9  14
ATOM     14  C   UNL A   1      35.939  23.235  25.529  1.00  0.00     0.056 C 
BRANCH  14  15
ATOM     15  C   UNL A   1      37.067  22.225  25.305  1.00  0.00     0.003 C 
ATOM     16  C   UNL A   1      38.379  22.633  25.963  1.00  0.00     0.004 C 
ENDBRANCH  14  15
ENDBRANCH   9  14
BRANCH  12  17
ATOM     17  N   UNL A   1      32.204  20.889  23.689  1.00  0.00    -0.324 N 
ATOM     18  H   UNL A   1      31.268  21.025  23.416  1.00  0.00     0.170 HD
BRANCH  17  19
ATOM     19  C   UNL A   1      32.562  19.583  24.041  1.00  0.00     0.041 A 
ATOM     20  C   UNL A   1      32.582  19.199  25.386  1.00  0.00     0.027 A 
ATOM     21  C   UNL A   1      32.772  18.598  23.063  1.00  0.00     0.027 A 
ATOM     22  C   UNL A   1      32.787  17.860  25.744  1.00  0.00     0.021 A 
ATOM     23  C   UNL A   1      33.002  17.265  23.414  1.00  0.00     0.021 A 
ATOM     24  C   UNL A   1      32.995  16.890  24.759  1.00  0.00     0.052 A 
BRANCH  24  25
ATOM     25  C   UNL A   1      33.177  15.515  25.118  1.00  0.00     0.099 C 
ATOM     26  N   UNL A   1      33.328  14.399  25.404  1.00  0.00    -0.192 NA
ENDBRANCH  24  25
ENDBRANCH  17  19
ENDBRANCH  12  17
ENDBRANCH   7   8
ENDBRANCH   6   7
ENDBRANCH   3   6
ENDBRANCH   1   2
BRANCH   1  27
ATOM     27  C   UNL A   1      32.424  27.209  25.902  1.00  0.00     0.023 C 
BRANCH  27  28
ATOM     28  C   UNL A   1      32.592  28.332  26.929  1.00  0.00     0.023 C 
BRANCH  28  29
ATOM     29  C   UNL A   1      33.776  29.261  26.690  1.00  0.00     0.116 C 
BRANCH  29  30
ATOM     30  N   UNL A   1      33.723  30.471  27.498  1.00  0.00    -0.352 N 
ATOM     31  C   UNL A   1      34.639  30.943  28.407  1.00  0.00     0.251 C 
ATOM     32  H   UNL A   1      32.921  31.027  27.376  1.00  0.00     0.163 HD
ATOM     33  O   UNL A   1      34.372  31.910  29.113  1.00  0.00    -0.269 OA
BRANCH  31  34
ATOM     34  C   UNL A   1      35.941  30.258  28.554  1.00  0.00     0.039 A 
ATOM     35  C   UNL A   1      36.850  30.294  27.494  1.00  0.00     0.014 A 
ATOM     36  C   UNL A   1      36.275  29.614  29.747  1.00  0.00     0.014 A 
ATOM     37  C   UNL A   1      38.127  29.754  27.662  1.00  0.00     0.010 A 
ATOM     38  C   UNL A   1      37.574  29.155  29.942  1.00  0.00     0.010 A 
ATOM     39  C   UNL A   1      38.516  29.223  28.902  1.00  0.00    -0.014 A 
BRANCH  39  40
ATOM     40  C   UNL A   1      39.901  28.743  29.142  1.00  0.00     0.031 A 
ATOM     41  C   UNL A   1      40.929  29.666  29.735  1.00  0.00     0.074 A 
ATOM     42  C   UNL A   1      40.256  27.500  28.757  1.00  0.00     0.049 A 
ATOM     43  N   UNL A   1      42.206  29.459  29.940  1.00  0.00    -0.248 NA
ATOM     44  C   UNL A   1      40.468  31.008  30.128  1.00  0.00     0.031 C 
ATOM     45  C   UNL A   1      39.363  26.514  28.144  1.00  0.00     0.029 A 
ATOM     46  N   UNL A   1      41.467  26.857  28.816  1.00  0.00    -0.354 N 
ATOM     47  C   UNL A   1      42.700  30.645  30.468  1.00  0.00     0.074 A 
ATOM     48  C   UNL A   1      41.601  31.584  30.501  1.00  0.00     0.031 C 
ATOM     49  C   UNL A   1      40.050  25.384  27.912  1.00  0.00     0.029 A 
ATOM     50  C   UNL A   1      41.441  25.582  28.303  1.00  0.00     0.049 A 
ATOM     51  H   UNL A   1      42.279  27.270  29.190  1.00  0.00     0.167 HD
ATOM     52  C   UNL A   1      43.951  30.922  30.905  1.00  0.00     0.031 A 
ATOM     53  C   UNL A   1      42.429  24.679  28.147  1.00  0.00     0.031 A 
ATOM     54  C   UNL A   1      45.046  29.989  30.866  1.00  0.00     0.049 A 
ATOM     55  C   UNL A   1      43.822  25.031  28.591  1.00  0.00     0.074 A 
ATOM     56  C   UNL A   1      46.340  30.162  31.325  1.00  0.00     0.029 A 
ATOM     57  N   UNL A   1      44.978  28.713  30.328  1.00  0.00    -0.354 N 
ATOM     58  N   UNL A   1      44.259  26.135  29.147  1.00  0.00    -0.248 NA
ATOM     59  C   UNL A   1      44.858  24.007  28.394  1.00  0.00     0.031 C 
ATOM     60  C   UNL A   1      47.075  29.019  30.996  1.00  0.00     0.029 A 
ATOM     61  C   UNL A   1      46.217  28.100  30.414  1.00  0.00     0.049 A 
ATOM     62  H   UNL A   1      44.170  28.303  29.944  1.00  0.00     0.167 HD
ATOM     63  C   UNL A   1      45.609  25.922  29.403  1.00  0.00     0.074 A 
ATOM     64  C   UNL A   1      45.914  24.582  28.952  1.00  0.00     0.031 C 
ATOM     65  C   UNL A   1      46.511  26.761  29.968  1.00  0.00     0.031 A 
BRANCH  52  66
ATOM     66  C   UNL A   1      44.210  32.304  31.444  1.00  0.00    -0.014 A 
ATOM     67  C   UNL A   1      44.588  33.360  30.599  1.00  0.00     0.009 A 
ATOM     68  C   UNL A   1      44.032  32.563  32.812  1.00  0.00     0.009 A 
ATOM     69  C   UNL A   1      44.825  34.635  31.121  1.00  0.00     0.001 A 
ATOM     70  C   UNL A   1      44.234  33.846  33.325  1.00  0.00     0.001 A 
ATOM     71  C   UNL A   1      44.641  34.877  32.481  1.00  0.00     0.000 A 
ENDBRANCH  52  66
BRANCH  53  72
ATOM     72  C   UNL A   1      42.140  23.350  27.542  1.00  0.00    -0.014 A 
ATOM     73  C   UNL A   1      41.611  22.309  28.320  1.00  0.00     0.009 A 
ATOM     74  C   UNL A   1      42.408  23.109  26.186  1.00  0.00     0.009 A 
ATOM     75  C   UNL A   1      41.391  21.047  27.763  1.00  0.00     0.001 A 
ATOM     76  C   UNL A   1      42.151  21.857  25.621  1.00  0.00     0.001 A 
ATOM     77  C   UNL A   1      41.656  20.824  26.413  1.00  0.00     0.000 A 
ENDBRANCH  53  72
BRANCH  65  78
ATOM     78  C   UNL A   1      47.905  26.240  30.190  1.00  0.00    -0.014 A 
ATOM     79  C   UNL A   1      48.880  26.282  29.182  1.00  0.00     0.009 A 
ATOM     80  C   UNL A   1      48.260  25.748  31.457  1.00  0.00     0.009 A 
ATOM     81  C   UNL A   1      50.171  25.810  29.429  1.00  0.00     0.001 A 
ATOM     82  C   UNL A   1      49.561  25.312  31.711  1.00  0.00     0.001 A 
ATOM     83  C   UNL A   1      50.512  25.334  30.695  1.00  0.00     0.000 A 
ENDBRANCH  65  78
ENDBRANCH  39  40
ENDBRANCH  31  34
ENDBRANCH  29  30
ENDBRANCH  28  29
ENDBRANCH  27  28
ENDBRANCH   1  27
TORSDOF 18
ENDMDL
MODEL 2
REMARK VINA RESULT:     -10.7      2.628      8.454
REMARK SMILES CCCc1cc(OCC(=O)NCCCCNC(=O)c2ccc(-c3c4nc(c(-c5ccccc5)c5ccc([nH]5)c(-c5ccccc5)c5nc(c(-c6ccccc6)c6ccc3[nH]6)C=C5)C=C4)cc2)nc(Nc2ccc(C#N)cc2)n1
REMARK SMILES IDX 12 1 11 2 9 3 10 4 8 6 7 7 6 8 4 9 5 10 78 11 68 12 67 13
REMARK SMILES IDX 3 14 2 15 1 16 69 17 70 19 71 20 77 21 72 22 76 23 73 24
REMARK SMILES IDX 74 25 75 26 13 27 14 28 15 29 16 30 17 31 18 33 19 34 20 35
REMARK SMILES IDX 66 36 21 37 65 38 22 39 23 40 24 41 59 42 25 43 64 44 58 45
REMARK SMILES IDX 60 46 26 47 63 48 57 49 56 50 27 52 49 53 34 54 48 55 35 56
REMARK SMILES IDX 38 57 47 58 61 59 36 60 37 61 46 63 62 64 39 65 28 66 29 67
REMARK SMILES IDX 33 68 30 69 32 70 31 71 50 72 51 73 55 74 52 75 54 76 53 77
REMARK SMILES IDX 40 78 41 79 45 80 42 81 44 82 43 83
REMARK H PARENT 11 5 69 18 16 32 60 51 38 62
REMARK Flexibility Score: inf
ROOT
ATOM      1  C   UNL A   1      35.062  20.939  24.952  1.00  0.00     0.116 C 
ENDROOT
BRANCH   1   2
ATOM      2  N   UNL A   1      34.567  21.258  26.276  1.00  0.00    -0.353 N 
ATOM      3  C   UNL A   1      33.514  22.058  26.607  1.00  0.00     0.258 C 
ATOM      4  O   UNL A   1      33.230  22.204  27.798  1.00  0.00    -0.271 OA
ATOM      5  H   UNL A   1      35.051  20.847  27.028  1.00  0.00     0.163 HD
BRANCH   3   6
ATOM      6  C   UNL A   1      32.699  22.741  25.500  1.00  0.00     0.331 C 
BRANCH   6   7
ATOM      7  O   UNL A   1      31.413  23.227  25.852  1.00  0.00    -0.467 OA
BRANCH   7   8
ATOM      8  C   UNL A   1      31.194  24.574  25.772  1.00  0.00     0.218 A 
ATOM      9  C   UNL A   1      31.367  26.808  26.424  1.00  0.00     0.050 A 
ATOM     10  C   UNL A   1      31.567  25.485  26.732  1.00  0.00     0.092 A 
ATOM     11  N   UNL A   1      30.796  27.190  25.273  1.00  0.00    -0.218 NA
ATOM     12  C   UNL A   1      30.395  26.241  24.416  1.00  0.00     0.230 A 
ATOM     13  N   UNL A   1      30.582  24.933  24.628  1.00  0.00    -0.177 NA
BRANCH   9  14
ATOM     14  C   UNL A   1      31.866  27.898  27.332  1.00  0.00     0.056 C 
BRANCH  14  15
ATOM     15  C   UNL A   1      32.639  28.976  26.567  1.00  0.00     0.003 C 
ATOM     16  C   UNL A   1      34.033  28.532  26.145  1.00  0.00     0.004 C 
ENDBRANCH  14  15
ENDBRANCH   9  14
BRANCH  12  17
ATOM     17  N   UNL A   1      29.686  26.619  23.276  1.00  0.00    -0.324 N 
ATOM     18  H   UNL A   1      29.417  25.892  22.669  1.00  0.00     0.170 HD
BRANCH  17  19
ATOM     19  C   UNL A   1      29.312  27.912  22.897  1.00  0.00     0.041 A 
ATOM     20  C   UNL A   1      28.031  28.389  23.196  1.00  0.00     0.027 A 
ATOM     21  C   UNL A   1      30.242  28.804  22.339  1.00  0.00     0.027 A 
ATOM     22  C   UNL A   1      27.694  29.729  22.962  1.00  0.00     0.021 A 
ATOM     23  C   UNL A   1      29.904  30.135  22.080  1.00  0.00     0.021 A 
ATOM     24  C   UNL A   1      28.631  30.605  22.405  1.00  0.00     0.052 A 
BRANCH  24  25
ATOM     25  C   UNL A   1      28.300  31.982  22.190  1.00  0.00     0.099 C 
ATOM     26  N   UNL A   1      28.032  33.098  22.008  1.00  0.00    -0.192 NA
ENDBRANCH  24  25
ENDBRANCH  17  19
ENDBRANCH  12  17
ENDBRANCH   7   8
ENDBRANCH   6   7
ENDBRANCH   3   6
ENDBRANCH   1   2
BRANCH   1  27
ATOM     27  C   UNL A   1      36.312  20.064  25.000  1.00  0.00     0.023 C 
BRANCH  27  28
ATOM     28  C   UNL A   1      37.613  20.783  24.635  1.00  0.00     0.023 C 
BRANCH  28  29
ATOM     29  C   UNL A   1      38.644  20.870  25.754  1.00  0.00     0.116 C 
BRANCH  29  30
ATOM     30  N   UNL A   1      39.601  19.773  25.734  1.00  0.00    -0.352 N 
ATOM     31  C   UNL A   1      40.947  19.795  26.015  1.00  0.00     0.251 C 
ATOM     32  H   UNL A   1      39.234  18.895  25.484  1.00  0.00     0.163 HD
ATOM     33  O   UNL A   1      41.640  18.805  25.808  1.00  0.00    -0.269 OA
BRANCH  31  34
ATOM     34  C   UNL A   1      41.562  21.033  26.539  1.00  0.00     0.039 A 
ATOM     35  C   UNL A   1      41.993  22.010  25.638  1.00  0.00     0.014 A 
ATOM     36  C   UNL A   1      41.677  21.242  27.915  1.00  0.00     0.014 A 
ATOM     37  C   UNL A   1      42.466  23.232  26.121  1.00  0.00     0.010 A 
ATOM     38  C   UNL A   1      42.066  22.490  28.391  1.00  0.00     0.010 A 
ATOM     39  C   UNL A   1      42.462  23.501  27.499  1.00  0.00    -0.014 A 
BRANCH  39  40
ATOM     40  C   UNL A   1      42.855  24.830  28.033  1.00  0.00     0.031 A 
ATOM     41  C   UNL A   1      41.808  25.876  28.304  1.00  0.00     0.074 A 
ATOM     42  C   UNL A   1      44.159  25.125  28.203  1.00  0.00     0.049 A 
ATOM     43  N   UNL A   1      41.962  27.118  28.688  1.00  0.00    -0.248 NA
ATOM     44  C   UNL A   1      40.406  25.481  28.092  1.00  0.00     0.031 C 
ATOM     45  C   UNL A   1      45.277  24.212  27.951  1.00  0.00     0.029 A 
ATOM     46  N   UNL A   1      44.768  26.283  28.619  1.00  0.00    -0.354 N 
ATOM     47  C   UNL A   1      40.681  27.654  28.748  1.00  0.00     0.074 A 
ATOM     48  C   UNL A   1      39.769  26.622  28.308  1.00  0.00     0.031 C 
ATOM     49  C   UNL A   1      46.428  24.834  28.246  1.00  0.00     0.029 A 
ATOM     50  C   UNL A   1      46.140  26.206  28.651  1.00  0.00     0.049 A 
ATOM     51  H   UNL A   1      44.268  27.093  28.873  1.00  0.00     0.167 HD
ATOM     52  C   UNL A   1      40.297  28.888  29.151  1.00  0.00     0.031 A 
ATOM     53  C   UNL A   1      47.064  27.138  28.955  1.00  0.00     0.031 A 
ATOM     54  C   UNL A   1      41.206  29.917  29.582  1.00  0.00     0.049 A 
ATOM     55  C   UNL A   1      46.613  28.518  29.347  1.00  0.00     0.074 A 
ATOM     56  C   UNL A   1      40.910  31.185  30.050  1.00  0.00     0.029 A 
ATOM     57  N   UNL A   1      42.588  29.800  29.588  1.00  0.00    -0.354 N 
ATOM     58  N   UNL A   1      45.396  28.990  29.459  1.00  0.00    -0.248 NA
ATOM     59  C   UNL A   1      47.667  29.493  29.665  1.00  0.00     0.031 C 
ATOM     60  C   UNL A   1      42.114  31.862  30.267  1.00  0.00     0.029 A 
ATOM     61  C   UNL A   1      43.158  30.986  30.019  1.00  0.00     0.049 A 
ATOM     62  H   UNL A   1      43.088  28.994  29.325  1.00  0.00     0.167 HD
ATOM     63  C   UNL A   1      45.536  30.301  29.899  1.00  0.00     0.074 A 
ATOM     64  C   UNL A   1      46.955  30.545  30.043  1.00  0.00     0.031 C 
ATOM     65  C   UNL A   1      44.573  31.218  30.166  1.00  0.00     0.031 A 
BRANCH  52  66
ATOM     66  C   UNL A   1      38.825  29.203  29.122  1.00  0.00    -0.014 A 
ATOM     67  C   UNL A   1      38.018  29.033  30.259  1.00  0.00     0.009 A 
ATOM     68  C   UNL A   1      38.244  29.717  27.953  1.00  0.00     0.009 A 
ATOM     69  C   UNL A   1      36.653  29.329  30.210  1.00  0.00     0.001 A 
ATOM     70  C   UNL A   1      36.888  30.047  27.918  1.00  0.00     0.001 A 
ATOM     71  C   UNL A   1      36.092  29.842  29.042  1.00  0.00     0.000 A 
ENDBRANCH  52  66
BRANCH  53  72
ATOM     72  C   UNL A   1      48.513  26.802  28.899  1.00  0.00    -0.014 A 
ATOM     73  C   UNL A   1      49.259  27.042  27.735  1.00  0.00     0.009 A 
ATOM     74  C   UNL A   1      49.154  26.221  30.004  1.00  0.00     0.009 A 
ATOM     75  C   UNL A   1      50.606  26.675  27.667  1.00  0.00     0.001 A 
ATOM     76  C   UNL A   1      50.511  25.890  29.946  1.00  0.00     0.001 A 
ATOM     77  C   UNL A   1      51.232  26.105  28.774  1.00  0.00     0.000 A 
ENDBRANCH  53  72
BRANCH  65  78
ATOM     78  C   UNL A   1      45.012  32.555  30.701  1.00  0.00    -0.014 A 
ATOM     79  C   UNL A   1      45.153  33.674  29.867  1.00  0.00     0.009 A 
ATOM     80  C   UNL A   1      45.232  32.703  32.080  1.00  0.00     0.009 A 
ATOM     81  C   UNL A   1      45.540  34.906  30.400  1.00  0.00     0.001 A 
ATOM     82  C   UNL A   1      45.581  33.943  32.615  1.00  0.00     0.001 A 
ATOM     83  C   UNL A   1      45.745  35.041  31.774  1.00  0.00     0.000 A 
ENDBRANCH  65  78
ENDBRANCH  39  40
ENDBRANCH  31  34
ENDBRANCH  29  30
ENDBRANCH  28  29
ENDBRANCH  27  28
ENDBRANCH   1  27
TORSDOF 18
ENDMDL
MODEL 3
REMARK VINA RESULT:     -10.6      0.520      5.851
REMARK SMILES CCCc1cc(OCC(=O)NCCCCNC(=O)c2ccc(-c3c4nc(c(-c5ccccc5)c5ccc([nH]5)c(-c5ccccc5)c5nc(c(-c6ccccc6)c6ccc3[nH]6)C=C5)C=C4)cc2)nc(Nc2ccc(C#N)cc2)n1
REMARK SMILES IDX 12 1 11 2 9 3 10 4 8 6 7 7 6 8 4 9 5 10 78 11 68 12 67 13
REMARK SMILES IDX 3 14 2 15 1 16 69 17 70 19 71 20 77 21 72 22 76 23 73 24
REMARK SMILES IDX 74 25 75 26 13 27 14 28 15 29 16 30 17 31 18 33 19 34 20 35
REMARK SMILES IDX 66 36 21 37 65 38 22 39 23 40 24 41 59 42 25 43 64 44 58 45
REMARK SMILES IDX 60 46 26 47 63 48 57 49 56 50 27 52 49 53 34 54 48 55 35 56
REMARK SMILES IDX 38 57 47 58 61 59 36 60 37 61 46 63 62 64 39 65 28 66 29 67
REMARK SMILES IDX 33 68 30 69 32 70 31 71 50 72 51 73 55 74 52 75 54 76 53 77
REMARK SMILES IDX 40 78 41 79 45 80 42 81 44 82 43 83
REMARK H PARENT 11 5 69 18 16 32 60 51 38 62
REMARK Flexibility Score: inf
ROOT
ATOM      1  C   UNL A   1      32.445  27.557  24.802  1.00  0.00     0.116 C 
ENDROOT
BRANCH   1   2
ATOM      2  N   UNL A   1      33.295  27.976  23.706  1.00  0.00    -0.353 N 
ATOM      3  C   UNL A   1      33.510  27.339  22.520  1.00  0.00     0.258 C 
ATOM      4  O   UNL A   1      34.266  27.857  21.695  1.00  0.00    -0.271 OA
ATOM      5  H   UNL A   1      33.777  28.825  23.834  1.00  0.00     0.163 HD
BRANCH   3   6
ATOM      6  C   UNL A   1      32.800  26.010  22.231  1.00  0.00     0.331 C 
BRANCH   6   7
ATOM      7  O   UNL A   1      33.621  24.891  21.934  1.00  0.00    -0.467 OA
BRANCH   7   8
ATOM      8  C   UNL A   1      33.866  23.993  22.937  1.00  0.00     0.218 A 
ATOM      9  C   UNL A   1      34.893  23.175  24.866  1.00  0.00     0.050 A 
ATOM     10  C   UNL A   1      34.873  24.115  23.865  1.00  0.00     0.092 A 
ATOM     11  N   UNL A   1      34.010  22.168  24.910  1.00  0.00    -0.218 NA
ATOM     12  C   UNL A   1      33.100  22.075  23.931  1.00  0.00     0.230 A 
ATOM     13  N   UNL A   1      32.995  22.967  22.938  1.00  0.00    -0.177 NA
BRANCH   9  14
ATOM     14  C   UNL A   1      35.856  23.287  26.015  1.00  0.00     0.056 C 
BRANCH  14  15
ATOM     15  C   UNL A   1      37.314  23.227  25.551  1.00  0.00     0.003 C 
ATOM     16  C   UNL A   1      37.793  21.813  25.249  1.00  0.00     0.004 C 
ENDBRANCH  14  15
ENDBRANCH   9  14
BRANCH  12  17
ATOM     17  N   UNL A   1      32.259  20.963  23.894  1.00  0.00    -0.324 N 
ATOM     18  H   UNL A   1      31.328  21.129  23.624  1.00  0.00     0.170 HD
BRANCH  17  19
ATOM     19  C   UNL A   1      32.588  19.638  24.198  1.00  0.00     0.041 A 
ATOM     20  C   UNL A   1      32.612  19.207  25.529  1.00  0.00     0.027 A 
ATOM     21  C   UNL A   1      32.763  18.681  23.185  1.00  0.00     0.027 A 
ATOM     22  C   UNL A   1      32.787  17.852  25.839  1.00  0.00     0.021 A 
ATOM     23  C   UNL A   1      32.962  17.332  23.488  1.00  0.00     0.021 A 
ATOM     24  C   UNL A   1      32.960  16.912  24.819  1.00  0.00     0.052 A 
BRANCH  24  25
ATOM     25  C   UNL A   1      33.111  15.522  25.131  1.00  0.00     0.099 C 
ATOM     26  N   UNL A   1      33.227  14.394  25.387  1.00  0.00    -0.192 NA
ENDBRANCH  24  25
ENDBRANCH  17  19
ENDBRANCH  12  17
ENDBRANCH   7   8
ENDBRANCH   6   7
ENDBRANCH   3   6
ENDBRANCH   1   2
BRANCH   1  27
ATOM     27  C   UNL A   1      33.238  27.298  26.080  1.00  0.00     0.023 C 
BRANCH  27  28
ATOM     28  C   UNL A   1      33.188  28.431  27.108  1.00  0.00     0.023 C 
BRANCH  28  29
ATOM     29  C   UNL A   1      34.053  29.644  26.782  1.00  0.00     0.116 C 
BRANCH  29  30
ATOM     30  N   UNL A   1      33.934  30.709  27.767  1.00  0.00    -0.352 N 
ATOM     31  C   UNL A   1      34.816  31.073  28.756  1.00  0.00     0.251 C 
ATOM     32  H   UNL A   1      33.107  31.241  27.719  1.00  0.00     0.163 HD
ATOM     33  O   UNL A   1      34.496  31.905  29.599  1.00  0.00    -0.269 OA
BRANCH  31  34
ATOM     34  C   UNL A   1      36.147  30.432  28.818  1.00  0.00     0.039 A 
ATOM     35  C   UNL A   1      37.089  30.728  27.831  1.00  0.00     0.014 A 
ATOM     36  C   UNL A   1      36.473  29.571  29.868  1.00  0.00     0.014 A 
ATOM     37  C   UNL A   1      38.387  30.223  27.943  1.00  0.00     0.010 A 
ATOM     38  C   UNL A   1      37.787  29.141  30.024  1.00  0.00     0.010 A 
ATOM     39  C   UNL A   1      38.759  29.465  29.064  1.00  0.00    -0.014 A 
BRANCH  39  40
ATOM     40  C   UNL A   1      40.159  29.009  29.263  1.00  0.00     0.031 A 
ATOM     41  C   UNL A   1      40.575  27.630  28.829  1.00  0.00     0.074 A 
ATOM     42  C   UNL A   1      41.038  29.806  29.903  1.00  0.00     0.049 A 
ATOM     43  N   UNL A   1      41.724  27.023  28.995  1.00  0.00    -0.248 NA
ATOM     44  C   UNL A   1      39.560  26.818  28.139  1.00  0.00     0.031 C 
ATOM     45  C   UNL A   1      40.757  31.154  30.401  1.00  0.00     0.029 A 
ATOM     46  N   UNL A   1      42.348  29.592  30.255  1.00  0.00    -0.354 N 
ATOM     47  C   UNL A   1      41.562  25.757  28.445  1.00  0.00     0.074 A 
ATOM     48  C   UNL A   1      40.192  25.663  27.993  1.00  0.00     0.031 C 
ATOM     49  C   UNL A   1      41.866  31.656  30.965  1.00  0.00     0.029 A 
ATOM     50  C   UNL A   1      42.920  30.648  30.924  1.00  0.00     0.049 A 
ATOM     51  H   UNL A   1      42.833  28.760  30.047  1.00  0.00     0.167 HD
ATOM     52  C   UNL A   1      42.478  24.768  28.312  1.00  0.00     0.031 A 
ATOM     53  C   UNL A   1      44.149  30.785  31.459  1.00  0.00     0.031 A 
ATOM     54  C   UNL A   1      43.839  24.861  28.769  1.00  0.00     0.049 A 
ATOM     55  C   UNL A   1      45.130  29.651  31.345  1.00  0.00     0.074 A 
ATOM     56  C   UNL A   1      44.854  23.928  28.640  1.00  0.00     0.029 A 
ATOM     57  N   UNL A   1      44.373  25.943  29.450  1.00  0.00    -0.354 N 
ATOM     58  N   UNL A   1      44.982  28.484  30.767  1.00  0.00    -0.248 NA
ATOM     59  C   UNL A   1      46.454  29.857  31.950  1.00  0.00     0.031 C 
ATOM     60  C   UNL A   1      45.980  24.415  29.311  1.00  0.00     0.029 A 
ATOM     61  C   UNL A   1      45.694  25.688  29.779  1.00  0.00     0.049 A 
ATOM     62  H   UNL A   1      43.886  26.771  29.668  1.00  0.00     0.167 HD
ATOM     63  C   UNL A   1      46.203  27.835  30.903  1.00  0.00     0.074 A 
ATOM     64  C   UNL A   1      47.084  28.742  31.608  1.00  0.00     0.031 C 
ATOM     65  C   UNL A   1      46.565  26.600  30.476  1.00  0.00     0.031 A 
BRANCH  52  66
ATOM     66  C   UNL A   1      42.028  23.486  27.663  1.00  0.00    -0.014 A 
ATOM     67  C   UNL A   1      41.348  22.496  28.392  1.00  0.00     0.009 A 
ATOM     68  C   UNL A   1      42.249  23.283  26.292  1.00  0.00     0.009 A 
ATOM     69  C   UNL A   1      40.941  21.312  27.770  1.00  0.00     0.001 A 
ATOM     70  C   UNL A   1      41.809  22.117  25.666  1.00  0.00     0.001 A 
ATOM     71  C   UNL A   1      41.166  21.128  26.407  1.00  0.00     0.000 A 
ENDBRANCH  52  66
BRANCH  53  72
ATOM     72  C   UNL A   1      44.526  32.045  32.155  1.00  0.00    -0.014 A 
ATOM     73  C   UNL A   1      45.122  33.102  31.450  1.00  0.00     0.009 A 
ATOM     74  C   UNL A   1      44.307  32.193  33.534  1.00  0.00     0.009 A 
ATOM     75  C   UNL A   1      45.525  34.263  32.116  1.00  0.00     0.001 A 
ATOM     76  C   UNL A   1      44.675  33.370  34.190  1.00  0.00     0.001 A 
ATOM     77  C   UNL A   1      45.296  34.398  33.484  1.00  0.00     0.000 A 
ENDBRANCH  53  72
BRANCH  65  78
ATOM     78  C   UNL A   1      47.991  26.173  30.701  1.00  0.00    -0.014 A 
ATOM     79  C   UNL A   1      48.411  25.611  31.915  1.00  0.00     0.009 A 
ATOM     80  C   UNL A   1      48.915  26.288  29.649  1.00  0.00     0.009 A 
ATOM     81  C   UNL A   1      49.737  25.205  32.082  1.00  0.00     0.001 A 
ATOM     82  C   UNL A   1      50.229  25.846  29.807  1.00  0.00     0.001 A 
ATOM     83  C   UNL A   1      50.642  25.315  31.026  1.00  0.00     0.000 A 
ENDBRANCH  65  78
ENDBRANCH  39  40
ENDBRANCH  31  34
ENDBRANCH  29  30
ENDBRANCH  28  29
ENDBRANCH  27  28
ENDBRANCH   1  27
TORSDOF 18
ENDMDL
