MODEL 1
REMARK VINA RESULT:     -13.8      0.000      0.000
REMARK SMILES Cc1ccc(-c2cc(C(=O)NCCCCNC(=O)c3ccc(-c4c5nc(c(-c6ccccc6)c6ccc([nH]6)c(-c6ccccc6)c6nc(c(-c7ccccc7)c7ccc4[nH]7)C=C6)C=C5)cc3)c3c(-c4cccc([N+](=O)[O-])c4)[nH]nc3n2)cc1
REMARK SMILES IDX 13 1 12 2 11 3 9 4 10 5 8 7 6 8 7 9 81 10 80 11 67 12 79 13
REMARK SMILES IDX 68 14 78 15 5 17 1 18 2 19 3 20 83 21 4 22 82 23 69 24 70 25
REMARK SMILES IDX 77 26 71 27 73 28 72 29 74 30 75 31 76 32 14 33 15 34 16 35
REMARK SMILES IDX 17 36 18 38 19 39 20 40 66 41 21 42 65 43 22 44 23 45 24 46
REMARK SMILES IDX 59 47 25 48 64 49 58 50 60 51 26 52 63 53 57 54 56 55 27 57
REMARK SMILES IDX 49 58 34 59 48 60 35 61 38 62 47 63 61 64 36 65 37 66 46 68
REMARK SMILES IDX 62 69 39 70 28 71 29 72 33 73 30 74 32 75 31 76 50 77 51 78
REMARK SMILES IDX 55 79 52 80 54 81 53 82 40 83 41 84 45 85 42 86 44 87 43 88
REMARK H PARENT 11 6 78 16 16 37 60 56 38 67
REMARK Flexibility Score: inf
ROOT
ATOM      1  C   UNL A   1      31.772  29.643  25.805  1.00  0.00     0.023 C 
ENDROOT
BRANCH   1   2
ATOM      2  C   UNL A   1      32.651  28.394  25.647  1.00  0.00     0.116 C 
BRANCH   2   3
ATOM      3  N   UNL A   1      32.031  27.189  26.177  1.00  0.00    -0.352 N 
ATOM      4  C   UNL A   1      32.185  25.834  26.011  1.00  0.00     0.252 C 
ATOM      5  O   UNL A   1      31.527  25.166  26.805  1.00  0.00    -0.269 OA
ATOM      6  H   UNL A   1      31.319  27.399  26.822  1.00  0.00     0.163 HD
BRANCH   4   7
ATOM      7  C   UNL A   1      33.079  25.180  25.020  1.00  0.00     0.055 A 
ATOM      8  C   UNL A   1      35.115  23.842  24.484  1.00  0.00     0.074 A 
ATOM      9  C   UNL A   1      34.318  24.625  25.355  1.00  0.00     0.043 A 
ATOM     10  N   UNL A   1      34.850  23.594  23.181  1.00  0.00    -0.226 NA
ATOM     11  C   UNL A   1      33.692  24.169  22.770  1.00  0.00     0.182 A 
ATOM     12  C   UNL A   1      32.832  24.940  23.647  1.00  0.00     0.059 A 
ATOM     13  N   UNL A   1      33.203  24.087  21.534  1.00  0.00    -0.154 NA
ATOM     14  C   UNL A   1      31.798  25.357  22.819  1.00  0.00     0.076 A 
ATOM     15  N   UNL A   1      32.070  24.793  21.595  1.00  0.00    -0.275 N 
ATOM     16  H   UNL A   1      31.473  24.902  20.819  1.00  0.00     0.190 HD
BRANCH   8  17
ATOM     17  C   UNL A   1      36.298  23.193  25.069  1.00  0.00     0.000 A 
ATOM     18  C   UNL A   1      40.141  21.660  26.320  1.00  0.00     0.044 C 
ATOM     19  C   UNL A   1      38.789  22.176  25.928  1.00  0.00    -0.051 A 
ATOM     20  C   UNL A   1      37.960  21.422  25.085  1.00  0.00     0.004 A 
ATOM     21  C   UNL A   1      38.346  23.419  26.383  1.00  0.00     0.004 A 
ATOM     22  C   UNL A   1      36.723  21.923  24.663  1.00  0.00     0.010 A 
ATOM     23  C   UNL A   1      37.113  23.915  25.962  1.00  0.00     0.010 A 
ENDBRANCH   8  17
BRANCH  14  24
ATOM     24  C   UNL A   1      30.641  26.226  22.978  1.00  0.00     0.007 A 
ATOM     25  C   UNL A   1      29.515  25.786  23.688  1.00  0.00     0.011 A 
ATOM     26  C   UNL A   1      30.676  27.533  22.475  1.00  0.00     0.096 A 
ATOM     27  C   UNL A   1      28.452  26.657  23.942  1.00  0.00     0.008 A 
ATOM     28  C   UNL A   1      29.626  28.411  22.768  1.00  0.00     0.270 A 
ATOM     29  C   UNL A   1      28.509  27.978  23.496  1.00  0.00     0.085 A 
BRANCH  28  30
ATOM     30  N   UNL A   1      29.727  29.816  22.359  1.00  0.00     0.062 N 
ATOM     31  O   UNL A   1      29.301  30.678  23.141  1.00  0.00    -0.258 OA
ATOM     32  O   UNL A   1      30.229  30.062  21.252  1.00  0.00    -0.258 OA
ENDBRANCH  28  30
ENDBRANCH  14  24
ENDBRANCH   4   7
ENDBRANCH   2   3
ENDBRANCH   1   2
BRANCH   1  33
ATOM     33  C   UNL A   1      32.367  30.737  26.701  1.00  0.00     0.023 C 
BRANCH  33  34
ATOM     34  C   UNL A   1      33.576  30.291  27.512  1.00  0.00     0.116 C 
BRANCH  34  35
ATOM     35  N   UNL A   1      34.282  31.358  28.207  1.00  0.00    -0.352 N 
ATOM     36  C   UNL A   1      35.540  31.353  28.800  1.00  0.00     0.251 C 
ATOM     37  H   UNL A   1      33.796  32.212  28.268  1.00  0.00     0.163 HD
ATOM     38  O   UNL A   1      35.929  32.321  29.418  1.00  0.00    -0.269 OA
BRANCH  36  39
ATOM     39  C   UNL A   1      36.463  30.214  28.540  1.00  0.00     0.039 A 
ATOM     40  C   UNL A   1      36.634  29.280  29.571  1.00  0.00     0.014 A 
ATOM     41  C   UNL A   1      37.315  30.203  27.441  1.00  0.00     0.014 A 
ATOM     42  C   UNL A   1      37.817  28.551  29.638  1.00  0.00     0.010 A 
ATOM     43  C   UNL A   1      38.535  29.567  27.559  1.00  0.00     0.010 A 
ATOM     44  C   UNL A   1      38.815  28.811  28.701  1.00  0.00    -0.014 A 
BRANCH  44  45
ATOM     45  C   UNL A   1      40.215  28.467  28.917  1.00  0.00     0.031 A 
ATOM     46  C   UNL A   1      40.780  27.234  28.342  1.00  0.00     0.074 A 
ATOM     47  C   UNL A   1      41.007  29.313  29.611  1.00  0.00     0.049 A 
ATOM     48  N   UNL A   1      41.860  26.670  28.766  1.00  0.00    -0.248 NA
ATOM     49  C   UNL A   1      40.108  26.476  27.291  1.00  0.00     0.031 C 
ATOM     50  C   UNL A   1      42.465  29.314  29.693  1.00  0.00     0.029 A 
ATOM     51  N   UNL A   1      40.610  30.223  30.586  1.00  0.00    -0.354 N 
ATOM     52  C   UNL A   1      42.183  25.677  27.873  1.00  0.00     0.074 A 
ATOM     53  C   UNL A   1      41.001  25.511  27.061  1.00  0.00     0.031 C 
ATOM     54  C   UNL A   1      42.839  29.986  30.794  1.00  0.00     0.029 A 
ATOM     55  C   UNL A   1      41.633  30.299  31.542  1.00  0.00     0.049 A 
ATOM     56  H   UNL A   1      39.763  30.724  30.602  1.00  0.00     0.167 HD
ATOM     57  C   UNL A   1      43.465  25.218  27.831  1.00  0.00     0.031 A 
ATOM     58  C   UNL A   1      41.411  29.927  32.837  1.00  0.00     0.031 A 
ATOM     59  C   UNL A   1      44.250  25.711  28.966  1.00  0.00     0.049 A 
ATOM     60  C   UNL A   1      42.260  28.760  33.295  1.00  0.00     0.074 A 
ATOM     61  C   UNL A   1      45.225  26.684  29.100  1.00  0.00     0.029 A 
ATOM     62  N   UNL A   1      43.860  25.364  30.256  1.00  0.00    -0.354 N 
ATOM     63  N   UNL A   1      42.884  27.945  32.488  1.00  0.00    -0.248 NA
ATOM     64  C   UNL A   1      42.444  28.398  34.698  1.00  0.00     0.031 C 
ATOM     65  C   UNL A   1      45.360  26.979  30.485  1.00  0.00     0.029 A 
ATOM     66  C   UNL A   1      44.498  26.157  31.189  1.00  0.00     0.049 A 
ATOM     67  H   UNL A   1      43.217  24.651  30.474  1.00  0.00     0.167 HD
ATOM     68  C   UNL A   1      43.527  26.977  33.215  1.00  0.00     0.074 A 
ATOM     69  C   UNL A   1      43.233  27.314  34.596  1.00  0.00     0.031 C 
ATOM     70  C   UNL A   1      44.233  25.975  32.612  1.00  0.00     0.031 A 
BRANCH  57  71
ATOM     71  C   UNL A   1      44.083  24.533  26.629  1.00  0.00    -0.014 A 
ATOM     72  C   UNL A   1      43.552  23.309  26.180  1.00  0.00     0.009 A 
ATOM     73  C   UNL A   1      45.241  24.967  25.958  1.00  0.00     0.009 A 
ATOM     74  C   UNL A   1      44.168  22.550  25.172  1.00  0.00     0.001 A 
ATOM     75  C   UNL A   1      45.863  24.220  24.950  1.00  0.00     0.001 A 
ATOM     76  C   UNL A   1      45.331  23.002  24.563  1.00  0.00     0.000 A 
ENDBRANCH  57  71
BRANCH  58  77
ATOM     77  C   UNL A   1      40.022  30.197  33.306  1.00  0.00    -0.014 A 
ATOM     78  C   UNL A   1      39.658  31.532  33.580  1.00  0.00     0.009 A 
ATOM     79  C   UNL A   1      39.005  29.249  33.129  1.00  0.00     0.009 A 
ATOM     80  C   UNL A   1      38.318  31.928  33.557  1.00  0.00     0.001 A 
ATOM     81  C   UNL A   1      37.662  29.649  33.119  1.00  0.00     0.001 A 
ATOM     82  C   UNL A   1      37.323  30.990  33.296  1.00  0.00     0.000 A 
ENDBRANCH  58  77
BRANCH  70  83
ATOM     83  C   UNL A   1      44.799  24.742  33.286  1.00  0.00    -0.014 A 
ATOM     84  C   UNL A   1      46.138  24.582  33.666  1.00  0.00     0.009 A 
ATOM     85  C   UNL A   1      43.908  23.718  33.685  1.00  0.00     0.009 A 
ATOM     86  C   UNL A   1      46.570  23.442  34.363  1.00  0.00     0.001 A 
ATOM     87  C   UNL A   1      44.324  22.605  34.420  1.00  0.00     0.001 A 
ATOM     88  C   UNL A   1      45.662  22.460  34.749  1.00  0.00     0.000 A 
ENDBRANCH  70  83
ENDBRANCH  44  45
ENDBRANCH  36  39
ENDBRANCH  34  35
ENDBRANCH  33  34
ENDBRANCH   1  33
TORSDOF 14
ENDMDL
MODEL 2
REMARK VINA RESULT:     -13.7      1.658      2.751
REMARK SMILES Cc1ccc(-c2cc(C(=O)NCCCCNC(=O)c3ccc(-c4c5nc(c(-c6ccccc6)c6ccc([nH]6)c(-c6ccccc6)c6nc(c(-c7ccccc7)c7ccc4[nH]7)C=C6)C=C5)cc3)c3c(-c4cccc([N+](=O)[O-])c4)[nH]nc3n2)cc1
REMARK SMILES IDX 13 1 12 2 11 3 9 4 10 5 8 7 6 8 7 9 81 10 80 11 67 12 79 13
REMARK SMILES IDX 68 14 78 15 5 17 1 18 2 19 3 20 83 21 4 22 82 23 69 24 70 25
REMARK SMILES IDX 77 26 71 27 73 28 72 29 74 30 75 31 76 32 14 33 15 34 16 35
REMARK SMILES IDX 17 36 18 38 19 39 20 40 66 41 21 42 65 43 22 44 23 45 24 46
REMARK SMILES IDX 59 47 25 48 64 49 58 50 60 51 26 52 63 53 57 54 56 55 27 57
REMARK SMILES IDX 49 58 34 59 48 60 35 61 38 62 47 63 61 64 36 65 37 66 46 68
REMARK SMILES IDX 62 69 39 70 28 71 29 72 33 73 30 74 32 75 31 76 50 77 51 78
REMARK SMILES IDX 55 79 52 80 54 81 53 82 40 83 41 84 45 85 42 86 44 87 43 88
REMARK H PARENT 11 6 78 16 16 37 60 56 38 67
REMARK Flexibility Score: inf
ROOT
ATOM      1  C   UNL A   1      33.862  28.703  26.172  1.00  0.00     0.023 C 
ENDROOT
BRANCH   1   2
ATOM      2  C   UNL A   1      32.457  28.355  25.662  1.00  0.00     0.116 C 
BRANCH   2   3
ATOM      3  N   UNL A   1      31.938  27.115  26.218  1.00  0.00    -0.352 N 
ATOM      4  C   UNL A   1      32.200  25.773  26.077  1.00  0.00     0.252 C 
ATOM      5  O   UNL A   1      31.601  25.070  26.887  1.00  0.00    -0.269 OA
ATOM      6  H   UNL A   1      31.212  27.279  26.861  1.00  0.00     0.163 HD
BRANCH   4   7
ATOM      7  C   UNL A   1      33.142  25.174  25.096  1.00  0.00     0.055 A 
ATOM      8  C   UNL A   1      35.235  23.917  24.584  1.00  0.00     0.074 A 
ATOM      9  C   UNL A   1      34.389  24.652  25.452  1.00  0.00     0.043 A 
ATOM     10  N   UNL A   1      35.014  23.694  23.269  1.00  0.00    -0.226 NA
ATOM     11  C   UNL A   1      33.848  24.241  22.839  1.00  0.00     0.182 A 
ATOM     12  C   UNL A   1      32.940  24.960  23.711  1.00  0.00     0.059 A 
ATOM     13  N   UNL A   1      33.396  24.174  21.589  1.00  0.00    -0.154 NA
ATOM     14  C   UNL A   1      31.916  25.365  22.866  1.00  0.00     0.076 A 
ATOM     15  N   UNL A   1      32.239  24.841  21.635  1.00  0.00    -0.275 N 
ATOM     16  H   UNL A   1      31.660  24.950  20.847  1.00  0.00     0.190 HD
BRANCH   8  17
ATOM     17  C   UNL A   1      36.423  23.292  25.186  1.00  0.00     0.000 A 
ATOM     18  C   UNL A   1      40.273  21.783  26.444  1.00  0.00     0.044 C 
ATOM     19  C   UNL A   1      38.919  22.295  26.051  1.00  0.00    -0.051 A 
ATOM     20  C   UNL A   1      38.049  21.491  25.301  1.00  0.00     0.004 A 
ATOM     21  C   UNL A   1      38.516  23.580  26.413  1.00  0.00     0.004 A 
ATOM     22  C   UNL A   1      36.809  21.984  24.875  1.00  0.00     0.010 A 
ATOM     23  C   UNL A   1      37.281  24.068  25.990  1.00  0.00     0.010 A 
ENDBRANCH   8  17
BRANCH  14  24
ATOM     24  C   UNL A   1      30.726  26.191  23.013  1.00  0.00     0.007 A 
ATOM     25  C   UNL A   1      29.600  25.700  23.690  1.00  0.00     0.011 A 
ATOM     26  C   UNL A   1      30.728  27.508  22.534  1.00  0.00     0.096 A 
ATOM     27  C   UNL A   1      28.503  26.531  23.935  1.00  0.00     0.008 A 
ATOM     28  C   UNL A   1      29.643  28.344  22.820  1.00  0.00     0.270 A 
ATOM     29  C   UNL A   1      28.525  27.861  23.514  1.00  0.00     0.085 A 
BRANCH  28  30
ATOM     30  N   UNL A   1      29.704  29.759  22.438  1.00  0.00     0.062 N 
ATOM     31  O   UNL A   1      29.645  30.606  23.342  1.00  0.00    -0.258 OA
ATOM     32  O   UNL A   1      29.809  30.030  21.232  1.00  0.00    -0.258 OA
ENDBRANCH  28  30
ENDBRANCH  14  24
ENDBRANCH   4   7
ENDBRANCH   2   3
ENDBRANCH   1   2
BRANCH   1  33
ATOM     33  C   UNL A   1      33.891  29.449  27.512  1.00  0.00     0.023 C 
BRANCH  33  34
ATOM     34  C   UNL A   1      34.685  30.748  27.489  1.00  0.00     0.116 C 
BRANCH  34  35
ATOM     35  N   UNL A   1      33.895  31.960  27.658  1.00  0.00    -0.352 N 
ATOM     36  C   UNL A   1      34.074  33.020  28.540  1.00  0.00     0.251 C 
ATOM     37  H   UNL A   1      33.118  32.040  27.060  1.00  0.00     0.163 HD
ATOM     38  O   UNL A   1      33.252  33.912  28.598  1.00  0.00    -0.269 OA
BRANCH  36  39
ATOM     39  C   UNL A   1      35.350  33.133  29.297  1.00  0.00     0.039 A 
ATOM     40  C   UNL A   1      36.417  33.781  28.661  1.00  0.00     0.014 A 
ATOM     41  C   UNL A   1      35.569  32.413  30.467  1.00  0.00     0.014 A 
ATOM     42  C   UNL A   1      37.721  33.460  29.026  1.00  0.00     0.010 A 
ATOM     43  C   UNL A   1      36.856  32.007  30.760  1.00  0.00     0.010 A 
ATOM     44  C   UNL A   1      37.921  32.467  29.981  1.00  0.00    -0.014 A 
BRANCH  44  45
ATOM     45  C   UNL A   1      39.178  31.741  30.121  1.00  0.00     0.031 A 
ATOM     46  C   UNL A   1      39.366  30.434  29.467  1.00  0.00     0.074 A 
ATOM     47  C   UNL A   1      40.192  32.300  30.817  1.00  0.00     0.049 A 
ATOM     48  N   UNL A   1      40.261  29.575  29.818  1.00  0.00    -0.248 NA
ATOM     49  C   UNL A   1      38.482  29.948  28.413  1.00  0.00     0.031 C 
ATOM     50  C   UNL A   1      41.597  31.898  30.837  1.00  0.00     0.029 A 
ATOM     51  N   UNL A   1      40.089  33.228  31.849  1.00  0.00    -0.354 N 
ATOM     52  C   UNL A   1      40.273  28.582  28.869  1.00  0.00     0.074 A 
ATOM     53  C   UNL A   1      39.068  28.790  28.102  1.00  0.00     0.031 C 
ATOM     54  C   UNL A   1      42.173  32.380  31.950  1.00  0.00     0.029 A 
ATOM     55  C   UNL A   1      41.121  32.968  32.762  1.00  0.00     0.049 A 
ATOM     56  H   UNL A   1      39.414  33.939  31.924  1.00  0.00     0.167 HD
ATOM     57  C   UNL A   1      41.377  27.794  28.750  1.00  0.00     0.031 A 
ATOM     58  C   UNL A   1      40.843  32.601  34.048  1.00  0.00     0.031 A 
ATOM     59  C   UNL A   1      42.299  27.990  29.872  1.00  0.00     0.049 A 
ATOM     60  C   UNL A   1      41.351  31.223  34.415  1.00  0.00     0.074 A 
ATOM     61  C   UNL A   1      43.509  28.651  30.008  1.00  0.00     0.029 A 
ATOM     62  N   UNL A   1      41.867  27.692  31.161  1.00  0.00    -0.354 N 
ATOM     63  N   UNL A   1      41.703  30.315  33.547  1.00  0.00    -0.248 NA
ATOM     64  C   UNL A   1      41.469  30.748  35.791  1.00  0.00     0.031 C 
ATOM     65  C   UNL A   1      43.760  28.821  31.397  1.00  0.00     0.029 A 
ATOM     66  C   UNL A   1      42.726  28.228  32.100  1.00  0.00     0.049 A 
ATOM     67  H   UNL A   1      41.059  27.171  31.373  1.00  0.00     0.167 HD
ATOM     68  C   UNL A   1      42.076  29.169  34.201  1.00  0.00     0.074 A 
ATOM     69  C   UNL A   1      41.927  29.497  35.607  1.00  0.00     0.031 C 
ATOM     70  C   UNL A   1      42.462  28.046  33.524  1.00  0.00     0.031 A 
BRANCH  57  71
ATOM     71  C   UNL A   1      41.748  27.033  27.493  1.00  0.00    -0.014 A 
ATOM     72  C   UNL A   1      41.618  25.631  27.468  1.00  0.00     0.009 A 
ATOM     73  C   UNL A   1      42.326  27.604  26.345  1.00  0.00     0.009 A 
ATOM     74  C   UNL A   1      42.084  24.855  26.395  1.00  0.00     0.001 A 
ATOM     75  C   UNL A   1      42.793  26.840  25.267  1.00  0.00     0.001 A 
ATOM     76  C   UNL A   1      42.682  25.460  25.297  1.00  0.00     0.000 A 
ENDBRANCH  57  71
BRANCH  58  77
ATOM     77  C   UNL A   1      39.596  33.213  34.588  1.00  0.00    -0.014 A 
ATOM     78  C   UNL A   1      38.361  32.627  34.241  1.00  0.00     0.009 A 
ATOM     79  C   UNL A   1      39.638  34.088  35.683  1.00  0.00     0.009 A 
ATOM     80  C   UNL A   1      37.230  32.816  35.040  1.00  0.00     0.001 A 
ATOM     81  C   UNL A   1      38.498  34.283  36.473  1.00  0.00     0.001 A 
ATOM     82  C   UNL A   1      37.308  33.620  36.173  1.00  0.00     0.000 A 
ENDBRANCH  58  77
BRANCH  70  83
ATOM     83  C   UNL A   1      42.686  26.671  34.116  1.00  0.00    -0.014 A 
ATOM     84  C   UNL A   1      41.803  26.022  34.989  1.00  0.00     0.009 A 
ATOM     85  C   UNL A   1      43.798  25.916  33.675  1.00  0.00     0.009 A 
ATOM     86  C   UNL A   1      42.041  24.711  35.431  1.00  0.00     0.001 A 
ATOM     87  C   UNL A   1      44.014  24.594  34.075  1.00  0.00     0.001 A 
ATOM     88  C   UNL A   1      43.139  23.994  34.966  1.00  0.00     0.000 A 
ENDBRANCH  70  83
ENDBRANCH  44  45
ENDBRANCH  36  39
ENDBRANCH  34  35
ENDBRANCH  33  34
ENDBRANCH   1  33
TORSDOF 14
ENDMDL
MODEL 3
REMARK VINA RESULT:     -13.0      3.312      8.694
REMARK SMILES Cc1ccc(-c2cc(C(=O)NCCCCNC(=O)c3ccc(-c4c5nc(c(-c6ccccc6)c6ccc([nH]6)c(-c6ccccc6)c6nc(c(-c7ccccc7)c7ccc4[nH]7)C=C6)C=C5)cc3)c3c(-c4cccc([N+](=O)[O-])c4)[nH]nc3n2)cc1
REMARK SMILES IDX 13 1 12 2 11 3 9 4 10 5 8 7 6 8 7 9 81 10 80 11 67 12 79 13
REMARK SMILES IDX 68 14 78 15 5 17 1 18 2 19 3 20 83 21 4 22 82 23 69 24 70 25
REMARK SMILES IDX 77 26 71 27 73 28 72 29 74 30 75 31 76 32 14 33 15 34 16 35
REMARK SMILES IDX 17 36 18 38 19 39 20 40 66 41 21 42 65 43 22 44 23 45 24 46
REMARK SMILES IDX 59 47 25 48 64 49 58 50 60 51 26 52 63 53 57 54 56 55 27 57
REMARK SMILES IDX 49 58 34 59 48 60 35 61 38 62 47 63 61 64 36 65 37 66 46 68
REMARK SMILES IDX 62 69 39 70 28 71 29 72 33 73 30 74 32 75 31 76 50 77 51 78
REMARK SMILES IDX 55 79 52 80 54 81 53 82 40 83 41 84 45 85 42 86 44 87 43 88
REMARK H PARENT 11 6 78 16 16 37 60 56 38 67
REMARK Flexibility Score: inf
ROOT
ATOM      1  C   UNL A   1      37.426  22.809  25.249  1.00  0.00     0.023 C 
ENDROOT
BRANCH   1   2
ATOM      2  C   UNL A   1      36.301  23.824  25.498  1.00  0.00     0.116 C 
BRANCH   2   3
ATOM      3  N   UNL A   1      35.486  24.073  24.319  1.00  0.00    -0.352 N 
ATOM      4  C   UNL A   1      34.319  24.743  24.038  1.00  0.00     0.252 C 
ATOM      5  O   UNL A   1      34.078  24.822  22.835  1.00  0.00    -0.269 OA
ATOM      6  H   UNL A   1      35.869  23.654  23.516  1.00  0.00     0.163 HD
BRANCH   4   7
ATOM      7  C   UNL A   1      33.421  25.374  25.040  1.00  0.00     0.055 A 
ATOM      8  C   UNL A   1      32.847  27.276  26.548  1.00  0.00     0.074 A 
ATOM      9  C   UNL A   1      33.742  26.550  25.723  1.00  0.00     0.043 A 
ATOM     10  N   UNL A   1      31.591  26.897  26.874  1.00  0.00    -0.226 NA
ATOM     11  C   UNL A   1      31.240  25.719  26.299  1.00  0.00     0.182 A 
ATOM     12  C   UNL A   1      32.116  24.973  25.416  1.00  0.00     0.059 A 
ATOM     13  N   UNL A   1      30.063  25.118  26.461  1.00  0.00    -0.154 NA
ATOM     14  C   UNL A   1      31.380  23.841  25.093  1.00  0.00     0.076 A 
ATOM     15  N   UNL A   1      30.169  24.008  25.723  1.00  0.00    -0.275 N 
ATOM     16  H   UNL A   1      29.435  23.359  25.637  1.00  0.00     0.190 HD
BRANCH   8  17
ATOM     17  C   UNL A   1      33.307  28.585  27.037  1.00  0.00     0.000 A 
ATOM     18  C   UNL A   1      34.687  32.610  27.798  1.00  0.00     0.044 C 
ATOM     19  C   UNL A   1      34.194  31.211  27.580  1.00  0.00    -0.051 A 
ATOM     20  C   UNL A   1      35.089  30.131  27.614  1.00  0.00     0.004 A 
ATOM     21  C   UNL A   1      32.844  30.966  27.326  1.00  0.00     0.004 A 
ATOM     22  C   UNL A   1      34.649  28.829  27.350  1.00  0.00     0.010 A 
ATOM     23  C   UNL A   1      32.408  29.669  27.064  1.00  0.00     0.010 A 
ENDBRANCH   8  17
BRANCH  14  24
ATOM     24  C   UNL A   1      31.644  22.623  24.339  1.00  0.00     0.007 A 
ATOM     25  C   UNL A   1      31.555  22.622  22.940  1.00  0.00     0.011 A 
ATOM     26  C   UNL A   1      32.053  21.463  25.009  1.00  0.00     0.096 A 
ATOM     27  C   UNL A   1      31.921  21.488  22.208  1.00  0.00     0.008 A 
ATOM     28  C   UNL A   1      32.457  20.347  24.268  1.00  0.00     0.270 A 
ATOM     29  C   UNL A   1      32.388  20.351  22.867  1.00  0.00     0.085 A 
BRANCH  28  30
ATOM     30  N   UNL A   1      33.014  19.183  24.964  1.00  0.00     0.062 N 
ATOM     31  O   UNL A   1      32.256  18.530  25.697  1.00  0.00    -0.258 OA
ATOM     32  O   UNL A   1      34.212  18.919  24.786  1.00  0.00    -0.258 OA
ENDBRANCH  28  30
ENDBRANCH  14  24
ENDBRANCH   4   7
ENDBRANCH   2   3
ENDBRANCH   1   2
BRANCH   1  33
ATOM     33  C   UNL A   1      38.304  22.512  26.472  1.00  0.00     0.023 C 
BRANCH  33  34
ATOM     34  C   UNL A   1      39.796  22.698  26.231  1.00  0.00     0.116 C 
BRANCH  34  35
ATOM     35  N   UNL A   1      40.527  21.480  25.912  1.00  0.00    -0.352 N 
ATOM     36  C   UNL A   1      41.890  21.215  25.992  1.00  0.00     0.251 C 
ATOM     37  H   UNL A   1      39.974  20.731  25.592  1.00  0.00     0.163 HD
ATOM     38  O   UNL A   1      42.332  20.157  25.594  1.00  0.00    -0.269 OA
BRANCH  36  39
ATOM     39  C   UNL A   1      42.778  22.172  26.707  1.00  0.00     0.039 A 
ATOM     40  C   UNL A   1      42.778  22.122  28.107  1.00  0.00     0.014 A 
ATOM     41  C   UNL A   1      43.384  23.235  26.047  1.00  0.00     0.014 A 
ATOM     42  C   UNL A   1      43.112  23.265  28.827  1.00  0.00     0.010 A 
ATOM     43  C   UNL A   1      43.610  24.403  26.749  1.00  0.00     0.010 A 
ATOM     44  C   UNL A   1      43.389  24.436  28.128  1.00  0.00    -0.014 A 
BRANCH  44  45
ATOM     45  C   UNL A   1      43.309  25.760  28.734  1.00  0.00     0.031 A 
ATOM     46  C   UNL A   1      42.053  26.529  28.692  1.00  0.00     0.074 A 
ATOM     47  C   UNL A   1      44.386  26.260  29.379  1.00  0.00     0.049 A 
ATOM     48  N   UNL A   1      41.983  27.806  28.860  1.00  0.00    -0.248 NA
ATOM     49  C   UNL A   1      40.770  25.921  28.356  1.00  0.00     0.031 C 
ATOM     50  C   UNL A   1      44.438  27.404  30.286  1.00  0.00     0.029 A 
ATOM     51  N   UNL A   1      45.722  25.950  29.145  1.00  0.00    -0.354 N 
ATOM     52  C   UNL A   1      40.654  28.136  28.957  1.00  0.00     0.074 A 
ATOM     53  C   UNL A   1      39.947  26.962  28.504  1.00  0.00     0.031 C 
ATOM     54  C   UNL A   1      45.703  27.849  30.355  1.00  0.00     0.029 A 
ATOM     55  C   UNL A   1      46.476  27.111  29.370  1.00  0.00     0.049 A 
ATOM     56  H   UNL A   1      46.075  25.073  28.870  1.00  0.00     0.167 HD
ATOM     57  C   UNL A   1      40.307  29.311  29.552  1.00  0.00     0.031 A 
ATOM     58  C   UNL A   1      47.192  27.689  28.361  1.00  0.00     0.031 A 
ATOM     59  C   UNL A   1      41.475  30.170  29.768  1.00  0.00     0.049 A 
ATOM     60  C   UNL A   1      46.745  29.094  28.020  1.00  0.00     0.074 A 
ATOM     61  C   UNL A   1      42.219  30.503  30.888  1.00  0.00     0.029 A 
ATOM     62  N   UNL A   1      42.204  30.606  28.667  1.00  0.00    -0.354 N 
ATOM     63  N   UNL A   1      45.597  29.605  28.370  1.00  0.00    -0.248 NA
ATOM     64  C   UNL A   1      47.545  30.023  27.225  1.00  0.00     0.031 C 
ATOM     65  C   UNL A   1      43.444  31.071  30.444  1.00  0.00     0.029 A 
ATOM     66  C   UNL A   1      43.424  31.120  29.061  1.00  0.00     0.049 A 
ATOM     67  H   UNL A   1      41.893  30.555  27.734  1.00  0.00     0.167 HD
ATOM     68  C   UNL A   1      45.484  30.877  27.871  1.00  0.00     0.074 A 
ATOM     69  C   UNL A   1      46.738  31.098  27.175  1.00  0.00     0.031 C 
ATOM     70  C   UNL A   1      44.361  31.630  28.066  1.00  0.00     0.031 A 
BRANCH  57  71
ATOM     71  C   UNL A   1      38.951  29.583  30.172  1.00  0.00    -0.014 A 
ATOM     72  C   UNL A   1      38.198  30.690  29.735  1.00  0.00     0.009 A 
ATOM     73  C   UNL A   1      38.398  28.868  31.250  1.00  0.00     0.009 A 
ATOM     74  C   UNL A   1      37.009  31.084  30.370  1.00  0.00     0.001 A 
ATOM     75  C   UNL A   1      37.211  29.251  31.889  1.00  0.00     0.001 A 
ATOM     76  C   UNL A   1      36.521  30.369  31.455  1.00  0.00     0.000 A 
ENDBRANCH  57  71
BRANCH  58  77
ATOM     77  C   UNL A   1      47.730  26.710  27.375  1.00  0.00    -0.014 A 
ATOM     78  C   UNL A   1      47.028  26.526  26.165  1.00  0.00     0.009 A 
ATOM     79  C   UNL A   1      49.057  26.265  27.451  1.00  0.00     0.009 A 
ATOM     80  C   UNL A   1      47.672  26.024  25.031  1.00  0.00     0.001 A 
ATOM     81  C   UNL A   1      49.695  25.750  26.314  1.00  0.00     0.001 A 
ATOM     82  C   UNL A   1      49.015  25.665  25.100  1.00  0.00     0.000 A 
ENDBRANCH  58  77
BRANCH  70  83
ATOM     83  C   UNL A   1      44.034  32.947  27.394  1.00  0.00    -0.014 A 
ATOM     84  C   UNL A   1      44.004  33.153  26.009  1.00  0.00     0.009 A 
ATOM     85  C   UNL A   1      43.602  34.029  28.197  1.00  0.00     0.009 A 
ATOM     86  C   UNL A   1      43.610  34.383  25.459  1.00  0.00     0.001 A 
ATOM     87  C   UNL A   1      43.163  35.239  27.653  1.00  0.00     0.001 A 
ATOM     88  C   UNL A   1      43.179  35.421  26.280  1.00  0.00     0.000 A 
ENDBRANCH  70  83
ENDBRANCH  44  45
ENDBRANCH  36  39
ENDBRANCH  34  35
ENDBRANCH  33  34
ENDBRANCH   1  33
TORSDOF 14
ENDMDL
