MODEL 1
REMARK VINA RESULT:     -12.0      0.000      0.000
REMARK SMILES O=C(NCCCCNC(=O)c1cccc([C@@H]2CCC[N@@H+](Cc3cccc(OCCO)c3)C2)c1)c1ccc(-c2c3nc(c(-c4ccccc4)c4ccc([nH]4)c(-c4ccccc4)c4nc(c(-c5ccccc5)c5ccc2[nH]5)C=C4)C=C3)cc1
REMARK SMILES IDX 8 1 9 2 10 3 7 5 6 6 5 7 4 8 3 9 1 10 2 11 34 13 35 14 81 15
REMARK SMILES IDX 36 16 80 17 37 18 38 19 39 20 74 21 40 22 79 23 73 24 75 25
REMARK SMILES IDX 41 26 78 27 72 28 71 29 42 31 64 32 49 33 63 34 50 35 53 36
REMARK SMILES IDX 62 37 76 38 51 39 52 40 61 42 77 43 54 44 43 45 44 46 48 47
REMARK SMILES IDX 45 48 47 49 46 50 65 51 66 52 70 53 67 54 69 55 68 56 55 57
REMARK SMILES IDX 56 58 60 59 57 60 59 61 58 62 11 63 12 64 33 65 13 66 15 67
REMARK SMILES IDX 14 68 16 69 17 70 32 71 18 72 20 73 19 74 21 76 22 77 23 78
REMARK SMILES IDX 31 79 24 80 26 81 25 82 27 83 28 84 29 85 30 86
REMARK H PARENT 8 4 3 12 75 30 53 41 20 75 30 87
REMARK Flexibility Score: inf
ROOT
ATOM      1  N   UNL A   1      35.529  31.887  28.413  1.00  0.00    -0.352 N 
ATOM      2  C   UNL A   1      35.463  30.713  27.694  1.00  0.00     0.251 C 
ATOM      3  O   UNL A   1      36.493  30.152  27.335  1.00  0.00    -0.269 OA
ATOM      4  H   UNL A   1      36.425  32.285  28.498  1.00  0.00     0.163 HD
ENDROOT
BRANCH   1   5
ATOM      5  C   UNL A   1      34.450  32.620  29.065  1.00  0.00     0.116 C 
BRANCH   5   6
ATOM      6  C   UNL A   1      34.574  34.131  28.904  1.00  0.00     0.023 C 
BRANCH   6   7
ATOM      7  C   UNL A   1      33.263  34.901  29.029  1.00  0.00     0.023 C 
BRANCH   7   8
ATOM      8  C   UNL A   1      33.366  36.232  29.767  1.00  0.00     0.116 C 
BRANCH   8   9
ATOM      9  N   UNL A   1      32.444  36.322  30.890  1.00  0.00    -0.352 N 
ATOM     10  O   UNL A   1      31.556  35.825  32.899  1.00  0.00    -0.269 OA
ATOM     11  C   UNL A   1      32.511  35.752  32.138  1.00  0.00     0.251 C 
ATOM     12  H   UNL A   1      31.649  36.880  30.730  1.00  0.00     0.163 HD
BRANCH  11  13
ATOM     13  C   UNL A   1      33.731  35.024  32.554  1.00  0.00     0.039 A 
ATOM     14  C   UNL A   1      34.982  35.645  32.532  1.00  0.00     0.014 A 
ATOM     15  C   UNL A   1      33.612  33.700  32.985  1.00  0.00     0.014 A 
ATOM     16  C   UNL A   1      36.129  34.902  32.798  1.00  0.00     0.010 A 
ATOM     17  C   UNL A   1      34.757  32.980  33.331  1.00  0.00     0.010 A 
ATOM     18  C   UNL A   1      36.027  33.565  33.207  1.00  0.00    -0.014 A 
BRANCH  18  19
ATOM     19  C   UNL A   1      37.247  32.789  33.541  1.00  0.00     0.031 A 
ATOM     20  C   UNL A   1      37.988  33.035  34.825  1.00  0.00     0.074 A 
ATOM     21  C   UNL A   1      37.705  31.875  32.666  1.00  0.00     0.049 A 
ATOM     22  N   UNL A   1      39.115  32.515  35.242  1.00  0.00    -0.248 NA
ATOM     23  C   UNL A   1      37.390  34.001  35.760  1.00  0.00     0.031 C 
ATOM     24  C   UNL A   1      37.070  31.535  31.390  1.00  0.00     0.029 A 
ATOM     25  N   UNL A   1      38.817  31.072  32.709  1.00  0.00    -0.354 N 
ATOM     26  C   UNL A   1      39.376  33.107  36.470  1.00  0.00     0.074 A 
ATOM     27  C   UNL A   1      38.301  34.044  36.722  1.00  0.00     0.031 C 
ATOM     28  C   UNL A   1      37.794  30.586  30.780  1.00  0.00     0.029 A 
ATOM     29  C   UNL A   1      38.976  30.300  31.586  1.00  0.00     0.049 A 
ATOM     30  H   UNL A   1      39.439  31.053  33.472  1.00  0.00     0.167 HD
ATOM     31  C   UNL A   1      40.416  32.890  37.311  1.00  0.00     0.031 A 
ATOM     32  C   UNL A   1      39.976  29.478  31.222  1.00  0.00     0.031 A 
ATOM     33  C   UNL A   1      41.489  31.966  37.050  1.00  0.00     0.049 A 
ATOM     34  C   UNL A   1      41.148  29.296  32.141  1.00  0.00     0.074 A 
ATOM     35  C   UNL A   1      42.572  31.652  37.852  1.00  0.00     0.029 A 
ATOM     36  N   UNL A   1      41.620  31.215  35.891  1.00  0.00    -0.354 N 
ATOM     37  N   UNL A   1      41.368  29.840  33.313  1.00  0.00    -0.248 NA
ATOM     38  C   UNL A   1      42.207  28.383  31.691  1.00  0.00     0.031 C 
ATOM     39  C   UNL A   1      43.390  30.760  37.153  1.00  0.00     0.029 A 
ATOM     40  C   UNL A   1      42.781  30.461  35.944  1.00  0.00     0.049 A 
ATOM     41  H   UNL A   1      40.982  31.216  35.141  1.00  0.00     0.167 HD
ATOM     42  C   UNL A   1      42.573  29.313  33.756  1.00  0.00     0.074 A 
ATOM     43  C   UNL A   1      43.036  28.404  32.727  1.00  0.00     0.031 C 
ATOM     44  C   UNL A   1      43.231  29.557  34.915  1.00  0.00     0.031 A 
BRANCH  31  45
ATOM     45  C   UNL A   1      40.468  33.709  38.574  1.00  0.00    -0.014 A 
ATOM     46  C   UNL A   1      39.870  33.266  39.765  1.00  0.00     0.009 A 
ATOM     47  C   UNL A   1      41.142  34.941  38.574  1.00  0.00     0.009 A 
ATOM     48  C   UNL A   1      39.903  34.061  40.913  1.00  0.00     0.001 A 
ATOM     49  C   UNL A   1      41.202  35.718  39.733  1.00  0.00     0.001 A 
ATOM     50  C   UNL A   1      40.572  35.284  40.897  1.00  0.00     0.000 A 
ENDBRANCH  31  45
BRANCH  32  51
ATOM     51  C   UNL A   1      39.906  28.785  29.909  1.00  0.00    -0.014 A 
ATOM     52  C   UNL A   1      40.367  29.414  28.745  1.00  0.00     0.009 A 
ATOM     53  C   UNL A   1      39.421  27.470  29.827  1.00  0.00     0.009 A 
ATOM     54  C   UNL A   1      40.335  28.742  27.521  1.00  0.00     0.001 A 
ATOM     55  C   UNL A   1      39.418  26.791  28.608  1.00  0.00     0.001 A 
ATOM     56  C   UNL A   1      39.868  27.429  27.455  1.00  0.00     0.000 A 
ENDBRANCH  32  51
BRANCH  44  57
ATOM     57  C   UNL A   1      44.500  28.792  35.166  1.00  0.00    -0.014 A 
ATOM     58  C   UNL A   1      45.758  29.333  34.860  1.00  0.00     0.009 A 
ATOM     59  C   UNL A   1      44.432  27.532  35.781  1.00  0.00     0.009 A 
ATOM     60  C   UNL A   1      46.921  28.616  35.147  1.00  0.00     0.001 A 
ATOM     61  C   UNL A   1      45.597  26.831  36.093  1.00  0.00     0.001 A 
ATOM     62  C   UNL A   1      46.841  27.370  35.769  1.00  0.00     0.000 A 
ENDBRANCH  44  57
ENDBRANCH  18  19
ENDBRANCH  11  13
ENDBRANCH   8   9
ENDBRANCH   7   8
ENDBRANCH   6   7
ENDBRANCH   5   6
ENDBRANCH   1   5
BRANCH   2  63
ATOM     63  C   UNL A   1      34.146  30.133  27.350  1.00  0.00     0.040 A 
ATOM     64  C   UNL A   1      33.031  30.947  27.177  1.00  0.00     0.014 A 
ATOM     65  C   UNL A   1      34.028  28.752  27.200  1.00  0.00     0.018 A 
ATOM     66  C   UNL A   1      31.820  30.374  26.783  1.00  0.00     0.001 A 
ATOM     67  C   UNL A   1      32.841  28.163  26.766  1.00  0.00    -0.039 A 
ATOM     68  C   UNL A   1      31.732  28.994  26.559  1.00  0.00     0.004 A 
BRANCH  67  69
ATOM     69  C   UNL A   1      32.788  26.680  26.444  1.00  0.00     0.074 C 
ATOM     70  C   UNL A   1      33.952  26.172  25.578  1.00  0.00     0.020 C 
ATOM     71  C   UNL A   1      31.427  26.269  25.834  1.00  0.00     0.270 C 
ATOM     72  C   UNL A   1      33.752  26.384  24.078  1.00  0.00     0.062 C 
ATOM     73  N   UNL A   1      31.262  26.542  24.393  1.00  0.00    -0.331 N 
ATOM     74  C   UNL A   1      32.359  25.966  23.600  1.00  0.00     0.262 C 
ATOM     75  H   UNL A   1      31.310  27.554  24.277  1.00  0.00     0.348 HD
BRANCH  73  76
ATOM     76  C   UNL A   1      29.925  26.131  23.887  1.00  0.00     0.299 C 
BRANCH  76  77
ATOM     77  C   UNL A   1      29.007  27.261  23.450  1.00  0.00     0.010 A 
ATOM     78  C   UNL A   1      27.644  27.245  23.775  1.00  0.00     0.010 A 
ATOM     79  C   UNL A   1      29.538  28.396  22.818  1.00  0.00     0.056 A 
ATOM     80  C   UNL A   1      26.858  28.374  23.545  1.00  0.00     0.004 A 
ATOM     81  C   UNL A   1      28.789  29.561  22.682  1.00  0.00     0.119 A 
ATOM     82  C   UNL A   1      27.438  29.536  23.027  1.00  0.00     0.046 A 
BRANCH  81  83
ATOM     83  O   UNL A   1      29.273  30.782  22.295  1.00  0.00    -0.491 OA
BRANCH  83  84
ATOM     84  C   UNL A   1      28.362  31.882  22.161  1.00  0.00     0.257 C 
BRANCH  84  85
ATOM     85  C   UNL A   1      28.065  32.228  20.697  1.00  0.00     0.197 C 
BRANCH  85  86
ATOM     86  O   UNL A   1      27.442  33.496  20.535  1.00  0.00    -0.393 OA
ATOM     87  H   UNL A   1      26.483  33.400  20.638  1.00  0.00     0.210 HD
ENDBRANCH  85  86
ENDBRANCH  84  85
ENDBRANCH  83  84
ENDBRANCH  81  83
ENDBRANCH  76  77
ENDBRANCH  73  76
ENDBRANCH  67  69
ENDBRANCH   2  63
TORSDOF 18
ENDMDL
MODEL 2
REMARK VINA RESULT:     -11.7      4.179      8.189
REMARK SMILES O=C(NCCCCNC(=O)c1cccc([C@@H]2CCC[N@@H+](Cc3cccc(OCCO)c3)C2)c1)c1ccc(-c2c3nc(c(-c4ccccc4)c4ccc([nH]4)c(-c4ccccc4)c4nc(c(-c5ccccc5)c5ccc2[nH]5)C=C4)C=C3)cc1
REMARK SMILES IDX 8 1 9 2 10 3 7 5 6 6 5 7 4 8 3 9 1 10 2 11 34 13 35 14 81 15
REMARK SMILES IDX 36 16 80 17 37 18 38 19 39 20 74 21 40 22 79 23 73 24 75 25
REMARK SMILES IDX 41 26 78 27 72 28 71 29 42 31 64 32 49 33 63 34 50 35 53 36
REMARK SMILES IDX 62 37 76 38 51 39 52 40 61 42 77 43 54 44 43 45 44 46 48 47
REMARK SMILES IDX 45 48 47 49 46 50 65 51 66 52 70 53 67 54 69 55 68 56 55 57
REMARK SMILES IDX 56 58 60 59 57 60 59 61 58 62 11 63 12 64 33 65 13 66 15 67
REMARK SMILES IDX 14 68 16 69 17 70 32 71 18 72 20 73 19 74 21 76 22 77 23 78
REMARK SMILES IDX 31 79 24 80 26 81 25 82 27 83 28 84 29 85 30 86
REMARK H PARENT 8 4 3 12 75 30 53 41 20 75 30 87
REMARK Flexibility Score: inf
ROOT
ATOM      1  N   UNL A   1      31.344  28.302  27.099  1.00  0.00    -0.352 N 
ATOM      2  C   UNL A   1      31.263  27.032  26.572  1.00  0.00     0.251 C 
ATOM      3  O   UNL A   1      30.327  26.298  26.872  1.00  0.00    -0.269 OA
ATOM      4  H   UNL A   1      30.689  28.514  27.803  1.00  0.00     0.163 HD
ENDROOT
BRANCH   1   5
ATOM      5  C   UNL A   1      32.269  29.377  26.757  1.00  0.00     0.116 C 
BRANCH   5   6
ATOM      6  C   UNL A   1      31.651  30.424  25.838  1.00  0.00     0.023 C 
BRANCH   6   7
ATOM      7  C   UNL A   1      31.405  31.784  26.485  1.00  0.00     0.023 C 
BRANCH   7   8
ATOM      8  C   UNL A   1      32.653  32.478  27.018  1.00  0.00     0.116 C 
BRANCH   8   9
ATOM      9  N   UNL A   1      32.391  33.840  27.460  1.00  0.00    -0.352 N 
ATOM     10  O   UNL A   1      32.528  35.666  28.772  1.00  0.00    -0.269 OA
ATOM     11  C   UNL A   1      32.995  34.583  28.446  1.00  0.00     0.251 C 
ATOM     12  H   UNL A   1      31.667  34.301  26.977  1.00  0.00     0.163 HD
BRANCH  11  13
ATOM     13  C   UNL A   1      34.196  34.060  29.134  1.00  0.00     0.039 A 
ATOM     14  C   UNL A   1      35.479  34.420  28.715  1.00  0.00     0.014 A 
ATOM     15  C   UNL A   1      34.029  33.207  30.228  1.00  0.00     0.014 A 
ATOM     16  C   UNL A   1      36.592  33.813  29.290  1.00  0.00     0.010 A 
ATOM     17  C   UNL A   1      35.150  32.662  30.857  1.00  0.00     0.010 A 
ATOM     18  C   UNL A   1      36.439  32.933  30.371  1.00  0.00    -0.014 A 
BRANCH  18  19
ATOM     19  C   UNL A   1      37.629  32.327  31.018  1.00  0.00     0.031 A 
ATOM     20  C   UNL A   1      38.361  31.187  30.368  1.00  0.00     0.074 A 
ATOM     21  C   UNL A   1      38.034  32.791  32.215  1.00  0.00     0.049 A 
ATOM     22  N   UNL A   1      39.364  30.481  30.826  1.00  0.00    -0.248 NA
ATOM     23  C   UNL A   1      37.900  30.780  29.032  1.00  0.00     0.031 C 
ATOM     24  C   UNL A   1      37.415  33.901  32.943  1.00  0.00     0.029 A 
ATOM     25  N   UNL A   1      39.056  32.383  33.034  1.00  0.00    -0.354 N 
ATOM     26  C   UNL A   1      39.636  29.531  29.851  1.00  0.00     0.074 A 
ATOM     27  C   UNL A   1      38.679  29.736  28.785  1.00  0.00     0.031 C 
ATOM     28  C   UNL A   1      38.075  34.091  34.094  1.00  0.00     0.029 A 
ATOM     29  C   UNL A   1      39.119  33.079  34.214  1.00  0.00     0.049 A 
ATOM     30  H   UNL A   1      39.681  31.660  32.798  1.00  0.00     0.167 HD
ATOM     31  C   UNL A   1      40.597  28.575  29.845  1.00  0.00     0.031 A 
ATOM     32  C   UNL A   1      39.904  32.905  35.293  1.00  0.00     0.031 A 
ATOM     33  C   UNL A   1      41.540  28.368  30.914  1.00  0.00     0.049 A 
ATOM     34  C   UNL A   1      40.922  31.804  35.291  1.00  0.00     0.074 A 
ATOM     35  C   UNL A   1      42.570  27.447  30.989  1.00  0.00     0.029 A 
ATOM     36  N   UNL A   1      41.559  29.087  32.100  1.00  0.00    -0.354 N 
ATOM     37  N   UNL A   1      41.188  30.931  34.350  1.00  0.00    -0.248 NA
ATOM     38  C   UNL A   1      41.751  31.666  36.495  1.00  0.00     0.031 C 
ATOM     39  C   UNL A   1      43.172  27.566  32.246  1.00  0.00     0.029 A 
ATOM     40  C   UNL A   1      42.564  28.609  32.926  1.00  0.00     0.049 A 
ATOM     41  H   UNL A   1      40.950  29.827  32.323  1.00  0.00     0.167 HD
ATOM     42  C   UNL A   1      42.236  30.160  34.834  1.00  0.00     0.074 A 
ATOM     43  C   UNL A   1      42.559  30.671  36.151  1.00  0.00     0.031 C 
ATOM     44  C   UNL A   1      42.877  29.127  34.234  1.00  0.00     0.031 A 
BRANCH  31  45
ATOM     45  C   UNL A   1      40.641  27.645  28.661  1.00  0.00    -0.014 A 
ATOM     46  C   UNL A   1      40.006  26.393  28.683  1.00  0.00     0.009 A 
ATOM     47  C   UNL A   1      41.320  28.039  27.496  1.00  0.00     0.009 A 
ATOM     48  C   UNL A   1      40.092  25.536  27.583  1.00  0.00     0.001 A 
ATOM     49  C   UNL A   1      41.375  27.194  26.386  1.00  0.00     0.001 A 
ATOM     50  C   UNL A   1      40.773  25.938  26.435  1.00  0.00     0.000 A 
ENDBRANCH  31  45
BRANCH  32  51
ATOM     51  C   UNL A   1      39.729  33.796  36.470  1.00  0.00    -0.014 A 
ATOM     52  C   UNL A   1      40.334  35.059  36.505  1.00  0.00     0.009 A 
ATOM     53  C   UNL A   1      38.913  33.401  37.543  1.00  0.00     0.009 A 
ATOM     54  C   UNL A   1      40.133  35.907  37.597  1.00  0.00     0.001 A 
ATOM     55  C   UNL A   1      38.691  34.262  38.618  1.00  0.00     0.001 A 
ATOM     56  C   UNL A   1      39.306  35.511  38.648  1.00  0.00     0.000 A 
ENDBRANCH  32  51
BRANCH  44  57
ATOM     57  C   UNL A   1      44.031  28.507  34.971  1.00  0.00    -0.014 A 
ATOM     58  C   UNL A   1      43.848  27.434  35.856  1.00  0.00     0.009 A 
ATOM     59  C   UNL A   1      45.334  28.968  34.720  1.00  0.00     0.009 A 
ATOM     60  C   UNL A   1      44.946  26.849  36.490  1.00  0.00     0.001 A 
ATOM     61  C   UNL A   1      46.431  28.362  35.333  1.00  0.00     0.001 A 
ATOM     62  C   UNL A   1      46.236  27.308  36.224  1.00  0.00     0.000 A 
ENDBRANCH  44  57
ENDBRANCH  18  19
ENDBRANCH  11  13
ENDBRANCH   8   9
ENDBRANCH   7   8
ENDBRANCH   6   7
ENDBRANCH   5   6
ENDBRANCH   1   5
BRANCH   2  63
ATOM     63  C   UNL A   1      32.312  26.550  25.646  1.00  0.00     0.040 A 
ATOM     64  C   UNL A   1      32.449  27.101  24.376  1.00  0.00     0.014 A 
ATOM     65  C   UNL A   1      33.170  25.532  26.058  1.00  0.00     0.018 A 
ATOM     66  C   UNL A   1      33.495  26.673  23.555  1.00  0.00     0.001 A 
ATOM     67  C   UNL A   1      34.246  25.120  25.273  1.00  0.00    -0.039 A 
ATOM     68  C   UNL A   1      34.399  25.704  24.008  1.00  0.00     0.004 A 
BRANCH  67  69
ATOM     69  C   UNL A   1      35.265  24.134  25.815  1.00  0.00     0.074 C 
ATOM     70  C   UNL A   1      36.423  23.819  24.853  1.00  0.00     0.020 C 
ATOM     71  C   UNL A   1      34.599  22.832  26.320  1.00  0.00     0.270 C 
ATOM     72  C   UNL A   1      36.100  22.737  23.822  1.00  0.00     0.062 C 
ATOM     73  N   UNL A   1      34.259  21.841  25.281  1.00  0.00    -0.331 N 
ATOM     74  C   UNL A   1      35.420  21.514  24.439  1.00  0.00     0.262 C 
ATOM     75  H   UNL A   1      33.565  22.277  24.674  1.00  0.00     0.348 HD
BRANCH  73  76
ATOM     76  C   UNL A   1      33.611  20.626  25.845  1.00  0.00     0.299 C 
BRANCH  76  77
ATOM     77  C   UNL A   1      33.152  19.589  24.834  1.00  0.00     0.010 A 
ATOM     78  C   UNL A   1      32.396  19.962  23.716  1.00  0.00     0.010 A 
ATOM     79  C   UNL A   1      33.586  18.259  24.943  1.00  0.00     0.056 A 
ATOM     80  C   UNL A   1      32.153  19.041  22.697  1.00  0.00     0.004 A 
ATOM     81  C   UNL A   1      33.441  17.365  23.885  1.00  0.00     0.119 A 
ATOM     82  C   UNL A   1      32.700  17.757  22.771  1.00  0.00     0.046 A 
BRANCH  81  83
ATOM     83  O   UNL A   1      34.022  16.129  23.798  1.00  0.00    -0.491 OA
BRANCH  83  84
ATOM     84  C   UNL A   1      34.209  15.361  24.995  1.00  0.00     0.257 C 
BRANCH  84  85
ATOM     85  C   UNL A   1      32.899  14.768  25.527  1.00  0.00     0.197 C 
BRANCH  85  86
ATOM     86  O   UNL A   1      32.966  13.366  25.751  1.00  0.00    -0.393 OA
ATOM     87  H   UNL A   1      33.708  13.169  26.344  1.00  0.00     0.210 HD
ENDBRANCH  85  86
ENDBRANCH  84  85
ENDBRANCH  83  84
ENDBRANCH  81  83
ENDBRANCH  76  77
ENDBRANCH  73  76
ENDBRANCH  67  69
ENDBRANCH   2  63
TORSDOF 18
ENDMDL
MODEL 3
REMARK VINA RESULT:     -11.6      3.539      8.282
REMARK SMILES O=C(NCCCCNC(=O)c1cccc([C@@H]2CCC[N@@H+](Cc3cccc(OCCO)c3)C2)c1)c1ccc(-c2c3nc(c(-c4ccccc4)c4ccc([nH]4)c(-c4ccccc4)c4nc(c(-c5ccccc5)c5ccc2[nH]5)C=C4)C=C3)cc1
REMARK SMILES IDX 8 1 9 2 10 3 7 5 6 6 5 7 4 8 3 9 1 10 2 11 34 13 35 14 81 15
REMARK SMILES IDX 36 16 80 17 37 18 38 19 39 20 74 21 40 22 79 23 73 24 75 25
REMARK SMILES IDX 41 26 78 27 72 28 71 29 42 31 64 32 49 33 63 34 50 35 53 36
REMARK SMILES IDX 62 37 76 38 51 39 52 40 61 42 77 43 54 44 43 45 44 46 48 47
REMARK SMILES IDX 45 48 47 49 46 50 65 51 66 52 70 53 67 54 69 55 68 56 55 57
REMARK SMILES IDX 56 58 60 59 57 60 59 61 58 62 11 63 12 64 33 65 13 66 15 67
REMARK SMILES IDX 14 68 16 69 17 70 32 71 18 72 20 73 19 74 21 76 22 77 23 78
REMARK SMILES IDX 31 79 24 80 26 81 25 82 27 83 28 84 29 85 30 86
REMARK H PARENT 8 4 3 12 75 30 53 41 20 75 30 87
REMARK Flexibility Score: inf
ROOT
ATOM      1  N   UNL A   1      34.264  21.206  26.411  1.00  0.00    -0.352 N 
ATOM      2  C   UNL A   1      33.683  22.217  27.145  1.00  0.00     0.251 C 
ATOM      3  O   UNL A   1      33.755  22.210  28.370  1.00  0.00    -0.269 OA
ATOM      4  H   UNL A   1      34.613  20.447  26.933  1.00  0.00     0.163 HD
ENDROOT
BRANCH   1   5
ATOM      5  C   UNL A   1      34.433  21.106  24.966  1.00  0.00     0.116 C 
BRANCH   5   6
ATOM      6  C   UNL A   1      35.833  21.492  24.502  1.00  0.00     0.023 C 
BRANCH   6   7
ATOM      7  C   UNL A   1      36.042  22.984  24.260  1.00  0.00     0.023 C 
BRANCH   7   8
ATOM      8  C   UNL A   1      37.160  23.620  25.080  1.00  0.00     0.116 C 
BRANCH   8   9
ATOM      9  N   UNL A   1      38.169  22.656  25.492  1.00  0.00    -0.352 N 
ATOM     10  O   UNL A   1      40.129  21.920  26.324  1.00  0.00    -0.269 OA
ATOM     11  C   UNL A   1      39.329  22.839  26.206  1.00  0.00     0.251 C 
ATOM     12  H   UNL A   1      37.993  21.727  25.217  1.00  0.00     0.163 HD
BRANCH  11  13
ATOM     13  C   UNL A   1      39.625  24.156  26.811  1.00  0.00     0.039 A 
ATOM     14  C   UNL A   1      40.350  25.123  26.110  1.00  0.00     0.014 A 
ATOM     15  C   UNL A   1      39.153  24.430  28.097  1.00  0.00     0.014 A 
ATOM     16  C   UNL A   1      40.730  26.301  26.746  1.00  0.00     0.010 A 
ATOM     17  C   UNL A   1      39.468  25.647  28.705  1.00  0.00     0.010 A 
ATOM     18  C   UNL A   1      40.287  26.578  28.047  1.00  0.00    -0.014 A 
BRANCH  18  19
ATOM     19  C   UNL A   1      40.650  27.857  28.706  1.00  0.00     0.031 A 
ATOM     20  C   UNL A   1      42.009  28.050  29.316  1.00  0.00     0.074 A 
ATOM     21  C   UNL A   1      39.734  28.841  28.778  1.00  0.00     0.049 A 
ATOM     22  N   UNL A   1      42.469  29.065  30.005  1.00  0.00    -0.248 NA
ATOM     23  C   UNL A   1      42.976  26.956  29.140  1.00  0.00     0.031 C 
ATOM     24  C   UNL A   1      38.384  28.781  28.214  1.00  0.00     0.029 A 
ATOM     25  N   UNL A   1      39.797  30.080  29.363  1.00  0.00    -0.354 N 
ATOM     26  C   UNL A   1      43.765  28.722  30.366  1.00  0.00     0.074 A 
ATOM     27  C   UNL A   1      44.011  27.396  29.841  1.00  0.00     0.031 C 
ATOM     28  C   UNL A   1      37.751  29.934  28.470  1.00  0.00     0.029 A 
ATOM     29  C   UNL A   1      38.624  30.786  29.271  1.00  0.00     0.049 A 
ATOM     30  H   UNL A   1      40.604  30.428  29.807  1.00  0.00     0.167 HD
ATOM     31  C   UNL A   1      44.667  29.447  31.072  1.00  0.00     0.031 A 
ATOM     32  C   UNL A   1      38.270  31.971  29.800  1.00  0.00     0.031 A 
ATOM     33  C   UNL A   1      44.412  30.761  31.603  1.00  0.00     0.049 A 
ATOM     34  C   UNL A   1      39.263  32.732  30.627  1.00  0.00     0.074 A 
ATOM     35  C   UNL A   1      45.270  31.589  32.305  1.00  0.00     0.029 A 
ATOM     36  N   UNL A   1      43.203  31.433  31.500  1.00  0.00    -0.354 N 
ATOM     37  N   UNL A   1      40.495  32.409  30.937  1.00  0.00    -0.248 NA
ATOM     38  C   UNL A   1      38.821  34.021  31.174  1.00  0.00     0.031 C 
ATOM     39  C   UNL A   1      44.562  32.735  32.680  1.00  0.00     0.029 A 
ATOM     40  C   UNL A   1      43.284  32.653  32.152  1.00  0.00     0.049 A 
ATOM     41  H   UNL A   1      42.405  31.095  31.033  1.00  0.00     0.167 HD
ATOM     42  C   UNL A   1      40.987  33.468  31.687  1.00  0.00     0.074 A 
ATOM     43  C   UNL A   1      39.921  34.444  31.784  1.00  0.00     0.031 C 
ATOM     44  C   UNL A   1      42.216  33.619  32.239  1.00  0.00     0.031 A 
BRANCH  31  45
ATOM     45  C   UNL A   1      46.001  28.807  31.354  1.00  0.00    -0.014 A 
ATOM     46  C   UNL A   1      46.216  28.024  32.500  1.00  0.00     0.009 A 
ATOM     47  C   UNL A   1      47.058  28.979  30.445  1.00  0.00     0.009 A 
ATOM     48  C   UNL A   1      47.473  27.470  32.753  1.00  0.00     0.001 A 
ATOM     49  C   UNL A   1      48.304  28.397  30.685  1.00  0.00     0.001 A 
ATOM     50  C   UNL A   1      48.514  27.654  31.845  1.00  0.00     0.000 A 
ENDBRANCH  31  45
BRANCH  32  51
ATOM     51  C   UNL A   1      36.897  32.490  29.567  1.00  0.00    -0.014 A 
ATOM     52  C   UNL A   1      35.867  32.217  30.478  1.00  0.00     0.009 A 
ATOM     53  C   UNL A   1      36.625  33.302  28.454  1.00  0.00     0.009 A 
ATOM     54  C   UNL A   1      34.589  32.741  30.273  1.00  0.00     0.001 A 
ATOM     55  C   UNL A   1      35.354  33.849  28.269  1.00  0.00     0.001 A 
ATOM     56  C   UNL A   1      34.335  33.562  29.174  1.00  0.00     0.000 A 
ENDBRANCH  32  51
BRANCH  44  57
ATOM     57  C   UNL A   1      42.501  34.909  32.956  1.00  0.00    -0.014 A 
ATOM     58  C   UNL A   1      43.212  35.950  32.340  1.00  0.00     0.009 A 
ATOM     59  C   UNL A   1      41.990  35.103  34.248  1.00  0.00     0.009 A 
ATOM     60  C   UNL A   1      43.420  37.155  33.016  1.00  0.00     0.001 A 
ATOM     61  C   UNL A   1      42.175  36.318  34.910  1.00  0.00     0.001 A 
ATOM     62  C   UNL A   1      42.896  37.341  34.295  1.00  0.00     0.000 A 
ENDBRANCH  44  57
ENDBRANCH  18  19
ENDBRANCH  11  13
ENDBRANCH   8   9
ENDBRANCH   7   8
ENDBRANCH   6   7
ENDBRANCH   5   6
ENDBRANCH   1   5
BRANCH   2  63
ATOM     63  C   UNL A   1      32.966  23.311  26.453  1.00  0.00     0.040 A 
ATOM     64  C   UNL A   1      31.632  23.167  26.083  1.00  0.00     0.014 A 
ATOM     65  C   UNL A   1      33.641  24.497  26.169  1.00  0.00     0.018 A 
ATOM     66  C   UNL A   1      30.966  24.245  25.496  1.00  0.00     0.001 A 
ATOM     67  C   UNL A   1      32.986  25.600  25.624  1.00  0.00    -0.039 A 
ATOM     68  C   UNL A   1      31.632  25.459  25.287  1.00  0.00     0.004 A 
BRANCH  67  69
ATOM     69  C   UNL A   1      33.699  26.932  25.486  1.00  0.00     0.074 C 
ATOM     70  C   UNL A   1      33.574  27.853  26.711  1.00  0.00     0.020 C 
ATOM     71  C   UNL A   1      33.289  27.676  24.193  1.00  0.00     0.270 C 
ATOM     72  C   UNL A   1      32.288  28.679  26.741  1.00  0.00     0.062 C 
ATOM     73  N   UNL A   1      32.014  28.416  24.256  1.00  0.00    -0.331 N 
ATOM     74  C   UNL A   1      31.977  29.343  25.398  1.00  0.00     0.262 C 
ATOM     75  H   UNL A   1      31.280  27.726  24.409  1.00  0.00     0.348 HD
BRANCH  73  76
ATOM     76  C   UNL A   1      31.686  29.091  22.971  1.00  0.00     0.299 C 
BRANCH  76  77
ATOM     77  C   UNL A   1      30.212  29.135  22.603  1.00  0.00     0.010 A 
ATOM     78  C   UNL A   1      29.271  28.384  23.319  1.00  0.00     0.010 A 
ATOM     79  C   UNL A   1      29.758  30.024  21.616  1.00  0.00     0.056 A 
ATOM     80  C   UNL A   1      27.907  28.584  23.104  1.00  0.00     0.004 A 
ATOM     81  C   UNL A   1      28.402  30.306  21.470  1.00  0.00     0.119 A 
ATOM     82  C   UNL A   1      27.478  29.563  22.204  1.00  0.00     0.046 A 
BRANCH  81  83
ATOM     83  O   UNL A   1      27.873  31.312  20.707  1.00  0.00    -0.491 OA
BRANCH  83  84
ATOM     84  C   UNL A   1      28.045  32.671  21.131  1.00  0.00     0.257 C 
BRANCH  84  85
ATOM     85  C   UNL A   1      28.606  32.780  22.554  1.00  0.00     0.197 C 
BRANCH  85  86
ATOM     86  O   UNL A   1      28.505  34.090  23.099  1.00  0.00    -0.393 OA
ATOM     87  H   UNL A   1      27.698  34.156  23.633  1.00  0.00     0.210 HD
ENDBRANCH  85  86
ENDBRANCH  84  85
ENDBRANCH  83  84
ENDBRANCH  81  83
ENDBRANCH  76  77
ENDBRANCH  73  76
ENDBRANCH  67  69
ENDBRANCH   2  63
TORSDOF 18
ENDMDL
