MODEL 1
REMARK VINA RESULT:     -12.4      0.000      0.000
REMARK SMILES NC(=O)c1ccc(NC(=O)Cc2ccccc2C(=O)NCCCCNC(=O)c2ccc(-c3c4nc(c(-c5ccccc5)c5ccc([nH]5)c(-c5ccccc5)c5nc(c(-c6ccccc6)c6ccc3[nH]6)C=C5)C=C4)cc2)cc1
REMARK SMILES IDX 21 1 20 2 18 3 19 4 17 6 12 7 13 8 14 9 16 10 15 11 11 12
REMARK SMILES IDX 9 13 8 14 10 16 7 17 4 18 5 19 77 20 6 21 76 22 2 23 1 24
REMARK SMILES IDX 3 27 22 28 23 29 24 30 25 31 26 32 27 34 28 35 29 36 75 37
REMARK SMILES IDX 30 38 74 39 31 40 32 41 33 42 68 43 34 44 73 45 67 46 69 47
REMARK SMILES IDX 35 48 72 49 66 50 65 51 36 53 58 54 43 55 57 56 44 57 47 58
REMARK SMILES IDX 56 59 70 60 45 61 46 62 55 64 71 65 48 66 37 67 38 68 42 69
REMARK SMILES IDX 39 70 41 71 40 72 59 73 60 74 64 75 61 76 63 77 62 78 49 79
REMARK SMILES IDX 50 80 54 81 51 82 53 83 52 84
REMARK H PARENT 20 5 8 15 1 25 1 26 25 33 69 52 47 63
REMARK Flexibility Score: inf
ROOT
ATOM      1  C   UNL A   1      36.737  23.203  25.650  1.00  0.00     0.116 C 
ENDROOT
BRANCH   1   2
ATOM      2  N   UNL A   1      35.829  22.655  26.640  1.00  0.00    -0.352 N 
ATOM      3  C   UNL A   1      34.601  22.037  26.582  1.00  0.00     0.251 C 
ATOM      4  O   UNL A   1      34.229  21.442  27.597  1.00  0.00    -0.269 OA
ATOM      5  H   UNL A   1      36.167  22.747  27.561  1.00  0.00     0.163 HD
BRANCH   3   6
ATOM      6  C   UNL A   1      33.706  21.991  25.380  1.00  0.00     0.043 A 
ATOM      7  C   UNL A   1      32.962  23.059  24.843  1.00  0.00    -0.026 A 
ATOM      8  C   UNL A   1      32.227  22.862  23.656  1.00  0.00     0.005 A 
ATOM      9  C   UNL A   1      32.037  21.592  23.130  1.00  0.00     0.000 A 
ATOM     10  C   UNL A   1      33.479  20.707  24.846  1.00  0.00     0.014 A 
ATOM     11  C   UNL A   1      32.626  20.505  23.755  1.00  0.00     0.001 A 
BRANCH   7  12
ATOM     12  C   UNL A   1      32.843  24.403  25.495  1.00  0.00     0.136 C 
BRANCH  12  13
ATOM     13  C   UNL A   1      31.614  24.570  26.381  1.00  0.00     0.228 C 
ATOM     14  N   UNL A   1      30.632  25.475  26.137  1.00  0.00    -0.326 N 
ATOM     15  H   UNL A   1      29.870  25.379  26.754  1.00  0.00     0.169 HD
ATOM     16  O   UNL A   1      31.438  23.880  27.392  1.00  0.00    -0.274 OA
BRANCH  14  17
ATOM     17  C   UNL A   1      30.447  26.511  25.218  1.00  0.00     0.041 A 
ATOM     18  C   UNL A   1      29.868  28.508  23.339  1.00  0.00     0.039 A 
ATOM     19  C   UNL A   1      30.931  28.667  24.214  1.00  0.00     0.016 A 
ATOM     20  C   UNL A   1      29.092  27.349  23.378  1.00  0.00     0.016 A 
ATOM     21  C   UNL A   1      31.199  27.679  25.156  1.00  0.00     0.027 A 
ATOM     22  C   UNL A   1      29.390  26.352  24.312  1.00  0.00     0.027 A 
BRANCH  18  23
ATOM     23  C   UNL A   1      29.592  29.617  22.410  1.00  0.00     0.248 C 
ATOM     24  N   UNL A   1      30.660  30.041  21.671  1.00  0.00    -0.366 N 
ATOM     25  H   UNL A   1      30.553  30.778  21.028  1.00  0.00     0.159 HD
ATOM     26  H   UNL A   1      31.538  29.608  21.781  1.00  0.00     0.159 HD
ATOM     27  O   UNL A   1      28.472  30.064  22.261  1.00  0.00    -0.270 OA
ENDBRANCH  18  23
ENDBRANCH  14  17
ENDBRANCH  12  13
ENDBRANCH   7  12
ENDBRANCH   3   6
ENDBRANCH   1   2
BRANCH   1  28
ATOM     28  C   UNL A   1      37.261  22.217  24.593  1.00  0.00     0.023 C 
BRANCH  28  29
ATOM     29  C   UNL A   1      37.755  20.856  25.065  1.00  0.00     0.023 C 
BRANCH  29  30
ATOM     30  C   UNL A   1      39.057  20.986  25.817  1.00  0.00     0.116 C 
BRANCH  30  31
ATOM     31  N   UNL A   1      39.940  19.825  25.674  1.00  0.00    -0.352 N 
ATOM     32  C   UNL A   1      41.252  19.711  26.063  1.00  0.00     0.251 C 
ATOM     33  H   UNL A   1      39.545  19.032  25.246  1.00  0.00     0.163 HD
ATOM     34  O   UNL A   1      41.889  18.681  25.886  1.00  0.00    -0.269 OA
BRANCH  32  35
ATOM     35  C   UNL A   1      41.894  20.917  26.608  1.00  0.00     0.039 A 
ATOM     36  C   UNL A   1      42.332  21.892  25.713  1.00  0.00     0.014 A 
ATOM     37  C   UNL A   1      41.850  21.158  27.981  1.00  0.00     0.014 A 
ATOM     38  C   UNL A   1      42.644  23.157  26.197  1.00  0.00     0.010 A 
ATOM     39  C   UNL A   1      42.018  22.452  28.436  1.00  0.00     0.010 A 
ATOM     40  C   UNL A   1      42.435  23.457  27.552  1.00  0.00    -0.014 A 
BRANCH  40  41
ATOM     41  C   UNL A   1      42.695  24.809  28.089  1.00  0.00     0.031 A 
ATOM     42  C   UNL A   1      44.096  25.170  28.495  1.00  0.00     0.074 A 
ATOM     43  C   UNL A   1      41.674  25.669  28.264  1.00  0.00     0.049 A 
ATOM     44  N   UNL A   1      44.536  26.269  29.046  1.00  0.00    -0.248 NA
ATOM     45  C   UNL A   1      45.135  24.142  28.293  1.00  0.00     0.031 C 
ATOM     46  C   UNL A   1      40.266  25.397  27.962  1.00  0.00     0.029 A 
ATOM     47  N   UNL A   1      41.668  26.954  28.741  1.00  0.00    -0.354 N 
ATOM     48  C   UNL A   1      45.887  26.050  29.280  1.00  0.00     0.074 A 
ATOM     49  C   UNL A   1      46.180  24.694  28.884  1.00  0.00     0.031 C 
ATOM     50  C   UNL A   1      39.541  26.499  28.217  1.00  0.00     0.029 A 
ATOM     51  C   UNL A   1      40.423  27.536  28.737  1.00  0.00     0.049 A 
ATOM     52  H   UNL A   1      42.477  27.415  29.057  1.00  0.00     0.167 HD
ATOM     53  C   UNL A   1      46.813  26.917  29.748  1.00  0.00     0.031 A 
ATOM     54  C   UNL A   1      40.046  28.772  29.111  1.00  0.00     0.031 A 
ATOM     55  C   UNL A   1      46.518  28.275  30.101  1.00  0.00     0.049 A 
ATOM     56  C   UNL A   1      41.097  29.723  29.616  1.00  0.00     0.074 A 
ATOM     57  C   UNL A   1      47.386  29.265  30.522  1.00  0.00     0.029 A 
ATOM     58  N   UNL A   1      45.250  28.835  30.065  1.00  0.00    -0.354 N 
ATOM     59  N   UNL A   1      42.386  29.528  29.759  1.00  0.00    -0.248 NA
ATOM     60  C   UNL A   1      40.643  31.066  30.000  1.00  0.00     0.031 C 
ATOM     61  C   UNL A   1      46.634  30.415  30.783  1.00  0.00     0.029 A 
ATOM     62  C   UNL A   1      45.307  30.153  30.476  1.00  0.00     0.049 A 
ATOM     63  H   UNL A   1      44.431  28.363  29.788  1.00  0.00     0.167 HD
ATOM     64  C   UNL A   1      42.901  30.728  30.228  1.00  0.00     0.074 A 
ATOM     65  C   UNL A   1      41.787  31.651  30.324  1.00  0.00     0.031 C 
ATOM     66  C   UNL A   1      44.178  31.043  30.557  1.00  0.00     0.031 A 
BRANCH  53  67
ATOM     67  C   UNL A   1      48.221  26.413  29.888  1.00  0.00    -0.014 A 
ATOM     68  C   UNL A   1      48.657  25.795  31.072  1.00  0.00     0.009 A 
ATOM     69  C   UNL A   1      49.122  26.553  28.823  1.00  0.00     0.009 A 
ATOM     70  C   UNL A   1      49.978  25.361  31.199  1.00  0.00     0.001 A 
ATOM     71  C   UNL A   1      50.434  26.089  28.942  1.00  0.00     0.001 A 
ATOM     72  C   UNL A   1      50.863  25.505  30.132  1.00  0.00     0.000 A 
ENDBRANCH  53  67
BRANCH  54  73
ATOM     73  C   UNL A   1      38.624  29.192  28.999  1.00  0.00    -0.014 A 
ATOM     74  C   UNL A   1      37.754  29.063  30.094  1.00  0.00     0.009 A 
ATOM     75  C   UNL A   1      38.124  29.716  27.797  1.00  0.00     0.009 A 
ATOM     76  C   UNL A   1      36.409  29.420  29.977  1.00  0.00     0.001 A 
ATOM     77  C   UNL A   1      36.785  30.098  27.691  1.00  0.00     0.001 A 
ATOM     78  C   UNL A   1      35.926  29.940  28.778  1.00  0.00     0.000 A 
ENDBRANCH  54  73
BRANCH  66  79
ATOM     79  C   UNL A   1      44.436  32.446  31.021  1.00  0.00    -0.014 A 
ATOM     80  C   UNL A   1      44.741  33.466  30.108  1.00  0.00     0.009 A 
ATOM     81  C   UNL A   1      44.320  32.758  32.384  1.00  0.00     0.009 A 
ATOM     82  C   UNL A   1      44.955  34.770  30.558  1.00  0.00     0.001 A 
ATOM     83  C   UNL A   1      44.505  34.067  32.826  1.00  0.00     0.001 A 
ATOM     84  C   UNL A   1      44.830  35.069  31.914  1.00  0.00     0.000 A 
ENDBRANCH  66  79
ENDBRANCH  40  41
ENDBRANCH  32  35
ENDBRANCH  30  31
ENDBRANCH  29  30
ENDBRANCH  28  29
ENDBRANCH   1  28
TORSDOF 15
ENDMDL
MODEL 2
REMARK VINA RESULT:     -12.0      3.522      9.134
REMARK SMILES NC(=O)c1ccc(NC(=O)Cc2ccccc2C(=O)NCCCCNC(=O)c2ccc(-c3c4nc(c(-c5ccccc5)c5ccc([nH]5)c(-c5ccccc5)c5nc(c(-c6ccccc6)c6ccc3[nH]6)C=C5)C=C4)cc2)cc1
REMARK SMILES IDX 21 1 20 2 18 3 19 4 17 6 12 7 13 8 14 9 16 10 15 11 11 12
REMARK SMILES IDX 9 13 8 14 10 16 7 17 4 18 5 19 77 20 6 21 76 22 2 23 1 24
REMARK SMILES IDX 3 27 22 28 23 29 24 30 25 31 26 32 27 34 28 35 29 36 75 37
REMARK SMILES IDX 30 38 74 39 31 40 32 41 33 42 68 43 34 44 73 45 67 46 69 47
REMARK SMILES IDX 35 48 72 49 66 50 65 51 36 53 58 54 43 55 57 56 44 57 47 58
REMARK SMILES IDX 56 59 70 60 45 61 46 62 55 64 71 65 48 66 37 67 38 68 42 69
REMARK SMILES IDX 39 70 41 71 40 72 59 73 60 74 64 75 61 76 63 77 62 78 49 79
REMARK SMILES IDX 50 80 54 81 51 82 53 83 52 84
REMARK H PARENT 20 5 8 15 1 25 1 26 25 33 69 52 47 63
REMARK Flexibility Score: inf
ROOT
ATOM      1  C   UNL A   1      33.639  29.119  26.561  1.00  0.00     0.116 C 
ENDROOT
BRANCH   1   2
ATOM      2  N   UNL A   1      33.888  29.207  25.134  1.00  0.00    -0.352 N 
ATOM      3  C   UNL A   1      33.179  28.850  24.010  1.00  0.00     0.251 C 
ATOM      4  O   UNL A   1      33.565  29.322  22.937  1.00  0.00    -0.269 OA
ATOM      5  H   UNL A   1      34.760  29.612  24.923  1.00  0.00     0.163 HD
BRANCH   3   6
ATOM      6  C   UNL A   1      31.960  27.979  23.990  1.00  0.00     0.043 A 
ATOM      7  C   UNL A   1      31.925  26.577  24.119  1.00  0.00    -0.026 A 
ATOM      8  C   UNL A   1      30.680  25.916  24.156  1.00  0.00     0.005 A 
ATOM      9  C   UNL A   1      29.503  26.581  23.843  1.00  0.00     0.000 A 
ATOM     10  C   UNL A   1      30.758  28.630  23.649  1.00  0.00     0.014 A 
ATOM     11  C   UNL A   1      29.549  27.933  23.542  1.00  0.00     0.001 A 
BRANCH   7  12
ATOM     12  C   UNL A   1      33.149  25.712  24.159  1.00  0.00     0.136 C 
BRANCH  12  13
ATOM     13  C   UNL A   1      33.575  25.157  22.804  1.00  0.00     0.228 C 
ATOM     14  N   UNL A   1      33.590  23.833  22.509  1.00  0.00    -0.326 N 
ATOM     15  H   UNL A   1      33.798  23.661  21.561  1.00  0.00     0.169 HD
ATOM     16  O   UNL A   1      33.939  25.895  21.881  1.00  0.00    -0.274 OA
BRANCH  14  17
ATOM     17  C   UNL A   1      33.381  22.655  23.231  1.00  0.00     0.041 A 
ATOM     18  C   UNL A   1      32.829  20.224  24.509  1.00  0.00     0.039 A 
ATOM     19  C   UNL A   1      33.911  20.991  24.915  1.00  0.00     0.016 A 
ATOM     20  C   UNL A   1      32.002  20.664  23.476  1.00  0.00     0.016 A 
ATOM     21  C   UNL A   1      34.188  22.187  24.262  1.00  0.00     0.027 A 
ATOM     22  C   UNL A   1      32.277  21.882  22.846  1.00  0.00     0.027 A 
BRANCH  18  23
ATOM     23  C   UNL A   1      32.626  18.935  25.195  1.00  0.00     0.248 C 
ATOM     24  N   UNL A   1      33.011  18.902  26.505  1.00  0.00    -0.366 N 
ATOM     25  H   UNL A   1      32.905  18.075  27.028  1.00  0.00     0.159 HD
ATOM     26  H   UNL A   1      33.394  19.705  26.926  1.00  0.00     0.159 HD
ATOM     27  O   UNL A   1      32.081  17.998  24.646  1.00  0.00    -0.270 OA
ENDBRANCH  18  23
ENDBRANCH  14  17
ENDBRANCH  12  13
ENDBRANCH   7  12
ENDBRANCH   3   6
ENDBRANCH   1   2
BRANCH   1  28
ATOM     28  C   UNL A   1      32.311  29.716  27.055  1.00  0.00     0.023 C 
BRANCH  28  29
ATOM     29  C   UNL A   1      32.009  31.170  26.715  1.00  0.00     0.023 C 
BRANCH  29  30
ATOM     30  C   UNL A   1      33.017  32.094  27.354  1.00  0.00     0.116 C 
BRANCH  30  31
ATOM     31  N   UNL A   1      32.496  33.435  27.632  1.00  0.00    -0.352 N 
ATOM     32  C   UNL A   1      33.069  34.421  28.397  1.00  0.00     0.251 C 
ATOM     33  H   UNL A   1      31.628  33.655  27.223  1.00  0.00     0.163 HD
ATOM     34  O   UNL A   1      32.530  35.508  28.556  1.00  0.00    -0.269 OA
BRANCH  32  35
ATOM     35  C   UNL A   1      34.313  34.078  29.104  1.00  0.00     0.039 A 
ATOM     36  C   UNL A   1      34.226  33.258  30.228  1.00  0.00     0.014 A 
ATOM     37  C   UNL A   1      35.542  34.387  28.522  1.00  0.00     0.014 A 
ATOM     38  C   UNL A   1      35.385  32.666  30.718  1.00  0.00     0.010 A 
ATOM     39  C   UNL A   1      36.663  33.684  28.921  1.00  0.00     0.010 A 
ATOM     40  C   UNL A   1      36.598  32.834  30.034  1.00  0.00    -0.014 A 
BRANCH  40  41
ATOM     41  C   UNL A   1      37.837  32.169  30.490  1.00  0.00     0.031 A 
ATOM     42  C   UNL A   1      38.626  32.793  31.605  1.00  0.00     0.074 A 
ATOM     43  C   UNL A   1      38.270  31.057  29.865  1.00  0.00     0.049 A 
ATOM     44  N   UNL A   1      39.768  32.419  32.116  1.00  0.00    -0.248 NA
ATOM     45  C   UNL A   1      38.080  34.030  32.196  1.00  0.00     0.031 C 
ATOM     46  C   UNL A   1      37.613  30.403  28.730  1.00  0.00     0.029 A 
ATOM     47  N   UNL A   1      39.374  30.279  30.102  1.00  0.00    -0.354 N 
ATOM     48  C   UNL A   1      40.084  33.384  33.062  1.00  0.00     0.074 A 
ATOM     49  C   UNL A   1      39.060  34.399  33.003  1.00  0.00     0.031 C 
ATOM     50  C   UNL A   1      38.301  29.297  28.401  1.00  0.00     0.029 A 
ATOM     51  C   UNL A   1      39.465  29.188  29.272  1.00  0.00     0.049 A 
ATOM     52  H   UNL A   1      40.036  30.483  30.799  1.00  0.00     0.167 HD
ATOM     53  C   UNL A   1      41.119  33.405  33.931  1.00  0.00     0.031 A 
ATOM     54  C   UNL A   1      40.390  28.211  29.228  1.00  0.00     0.031 A 
ATOM     55  C   UNL A   1      42.109  32.371  34.008  1.00  0.00     0.049 A 
ATOM     56  C   UNL A   1      41.524  28.249  30.216  1.00  0.00     0.074 A 
ATOM     57  C   UNL A   1      43.164  32.250  34.893  1.00  0.00     0.029 A 
ATOM     58  N   UNL A   1      42.158  31.272  33.164  1.00  0.00    -0.354 N 
ATOM     59  N   UNL A   1      41.768  29.128  31.158  1.00  0.00    -0.248 NA
ATOM     60  C   UNL A   1      42.501  27.155  30.141  1.00  0.00     0.031 C 
ATOM     61  C   UNL A   1      43.879  31.097  34.557  1.00  0.00     0.029 A 
ATOM     62  C   UNL A   1      43.239  30.475  33.495  1.00  0.00     0.049 A 
ATOM     63  H   UNL A   1      41.519  31.087  32.438  1.00  0.00     0.167 HD
ATOM     64  C   UNL A   1      42.915  28.683  31.801  1.00  0.00     0.074 A 
ATOM     65  C   UNL A   1      43.302  27.444  31.157  1.00  0.00     0.031 C 
ATOM     66  C   UNL A   1      43.593  29.247  32.832  1.00  0.00     0.031 A 
BRANCH  53  67
ATOM     67  C   UNL A   1      41.211  34.578  34.866  1.00  0.00    -0.014 A 
ATOM     68  C   UNL A   1      40.576  34.560  36.120  1.00  0.00     0.009 A 
ATOM     69  C   UNL A   1      41.944  35.713  34.492  1.00  0.00     0.009 A 
ATOM     70  C   UNL A   1      40.644  35.669  36.964  1.00  0.00     0.001 A 
ATOM     71  C   UNL A   1      42.036  36.810  35.352  1.00  0.00     0.001 A 
ATOM     72  C   UNL A   1      41.377  36.791  36.581  1.00  0.00     0.000 A 
ENDBRANCH  53  67
BRANCH  54  73
ATOM     73  C   UNL A   1      40.271  27.106  28.241  1.00  0.00    -0.014 A 
ATOM     74  C   UNL A   1      39.581  25.927  28.570  1.00  0.00     0.009 A 
ATOM     75  C   UNL A   1      40.853  27.214  26.968  1.00  0.00     0.009 A 
ATOM     76  C   UNL A   1      39.505  24.872  27.657  1.00  0.00     0.001 A 
ATOM     77  C   UNL A   1      40.750  26.170  26.048  1.00  0.00     0.001 A 
ATOM     78  C   UNL A   1      40.085  24.995  26.397  1.00  0.00     0.000 A 
ENDBRANCH  54  73
BRANCH  66  79
ATOM     79  C   UNL A   1      44.801  28.515  33.335  1.00  0.00    -0.014 A 
ATOM     80  C   UNL A   1      46.077  28.779  32.815  1.00  0.00     0.009 A 
ATOM     81  C   UNL A   1      44.665  27.588  34.380  1.00  0.00     0.009 A 
ATOM     82  C   UNL A   1      47.192  28.104  33.313  1.00  0.00     0.001 A 
ATOM     83  C   UNL A   1      45.785  26.938  34.895  1.00  0.00     0.001 A 
ATOM     84  C   UNL A   1      47.045  27.190  34.356  1.00  0.00     0.000 A 
ENDBRANCH  66  79
ENDBRANCH  40  41
ENDBRANCH  32  35
ENDBRANCH  30  31
ENDBRANCH  29  30
ENDBRANCH  28  29
ENDBRANCH   1  28
TORSDOF 15
ENDMDL
MODEL 3
REMARK VINA RESULT:     -12.0      1.222      5.961
REMARK SMILES NC(=O)c1ccc(NC(=O)Cc2ccccc2C(=O)NCCCCNC(=O)c2ccc(-c3c4nc(c(-c5ccccc5)c5ccc([nH]5)c(-c5ccccc5)c5nc(c(-c6ccccc6)c6ccc3[nH]6)C=C5)C=C4)cc2)cc1
REMARK SMILES IDX 21 1 20 2 18 3 19 4 17 6 12 7 13 8 14 9 16 10 15 11 11 12
REMARK SMILES IDX 9 13 8 14 10 16 7 17 4 18 5 19 77 20 6 21 76 22 2 23 1 24
REMARK SMILES IDX 3 27 22 28 23 29 24 30 25 31 26 32 27 34 28 35 29 36 75 37
REMARK SMILES IDX 30 38 74 39 31 40 32 41 33 42 68 43 34 44 73 45 67 46 69 47
REMARK SMILES IDX 35 48 72 49 66 50 65 51 36 53 58 54 43 55 57 56 44 57 47 58
REMARK SMILES IDX 56 59 70 60 45 61 46 62 55 64 71 65 48 66 37 67 38 68 42 69
REMARK SMILES IDX 39 70 41 71 40 72 59 73 60 74 64 75 61 76 63 77 62 78 49 79
REMARK SMILES IDX 50 80 54 81 51 82 53 83 52 84
REMARK H PARENT 20 5 8 15 1 25 1 26 25 33 69 52 47 63
REMARK Flexibility Score: inf
ROOT
ATOM      1  C   UNL A   1      36.807  22.072  25.529  1.00  0.00     0.116 C 
ENDROOT
BRANCH   1   2
ATOM      2  N   UNL A   1      35.742  21.766  26.466  1.00  0.00    -0.352 N 
ATOM      3  C   UNL A   1      34.387  21.558  26.347  1.00  0.00     0.251 C 
ATOM      4  O   UNL A   1      33.817  21.041  27.313  1.00  0.00    -0.269 OA
ATOM      5  H   UNL A   1      36.060  21.690  27.395  1.00  0.00     0.163 HD
BRANCH   3   6
ATOM      6  C   UNL A   1      33.562  21.866  25.134  1.00  0.00     0.043 A 
ATOM      7  C   UNL A   1      32.951  23.096  24.821  1.00  0.00    -0.026 A 
ATOM      8  C   UNL A   1      32.271  23.238  23.595  1.00  0.00     0.005 A 
ATOM      9  C   UNL A   1      31.994  22.139  22.794  1.00  0.00     0.000 A 
ATOM     10  C   UNL A   1      33.248  20.759  24.321  1.00  0.00     0.014 A 
ATOM     11  C   UNL A   1      32.444  20.887  23.183  1.00  0.00     0.001 A 
BRANCH   7  12
ATOM     12  C   UNL A   1      32.921  24.272  25.750  1.00  0.00     0.136 C 
BRANCH  12  13
ATOM     13  C   UNL A   1      31.652  24.382  26.589  1.00  0.00     0.228 C 
ATOM     14  N   UNL A   1      30.646  25.250  26.314  1.00  0.00    -0.326 N 
ATOM     15  H   UNL A   1      29.865  25.117  26.900  1.00  0.00     0.169 HD
ATOM     16  O   UNL A   1      31.465  23.676  27.587  1.00  0.00    -0.274 OA
BRANCH  14  17
ATOM     17  C   UNL A   1      30.455  26.286  25.397  1.00  0.00     0.041 A 
ATOM     18  C   UNL A   1      30.275  28.444  23.619  1.00  0.00     0.039 A 
ATOM     19  C   UNL A   1      29.449  27.341  23.457  1.00  0.00     0.016 A 
ATOM     20  C   UNL A   1      31.186  28.492  24.674  1.00  0.00     0.016 A 
ATOM     21  C   UNL A   1      29.559  26.266  24.333  1.00  0.00     0.027 A 
ATOM     22  C   UNL A   1      31.267  27.416  25.563  1.00  0.00     0.027 A 
BRANCH  18  23
ATOM     23  C   UNL A   1      30.158  29.521  22.620  1.00  0.00     0.248 C 
ATOM     24  N   UNL A   1      31.246  29.689  21.811  1.00  0.00    -0.366 N 
ATOM     25  H   UNL A   1      31.241  30.390  21.120  1.00  0.00     0.159 HD
ATOM     26  H   UNL A   1      32.035  29.111  21.921  1.00  0.00     0.159 HD
ATOM     27  O   UNL A   1      29.131  30.155  22.480  1.00  0.00    -0.270 OA
ENDBRANCH  18  23
ENDBRANCH  14  17
ENDBRANCH  12  13
ENDBRANCH   7  12
ENDBRANCH   3   6
ENDBRANCH   1   2
BRANCH   1  28
ATOM     28  C   UNL A   1      37.058  21.032  24.425  1.00  0.00     0.023 C 
BRANCH  28  29
ATOM     29  C   UNL A   1      37.648  19.687  24.829  1.00  0.00     0.023 C 
BRANCH  29  30
ATOM     30  C   UNL A   1      38.644  19.850  25.951  1.00  0.00     0.116 C 
BRANCH  30  31
ATOM     31  N   UNL A   1      39.880  19.086  25.758  1.00  0.00    -0.352 N 
ATOM     32  C   UNL A   1      41.161  19.458  26.085  1.00  0.00     0.251 C 
ATOM     33  H   UNL A   1      39.780  18.199  25.343  1.00  0.00     0.163 HD
ATOM     34  O   UNL A   1      42.119  18.727  25.871  1.00  0.00    -0.269 OA
BRANCH  32  35
ATOM     35  C   UNL A   1      41.347  20.820  26.609  1.00  0.00     0.039 A 
ATOM     36  C   UNL A   1      41.922  20.966  27.871  1.00  0.00     0.014 A 
ATOM     37  C   UNL A   1      41.160  21.913  25.765  1.00  0.00     0.014 A 
ATOM     38  C   UNL A   1      42.397  22.216  28.251  1.00  0.00     0.010 A 
ATOM     39  C   UNL A   1      41.762  23.115  26.085  1.00  0.00     0.010 A 
ATOM     40  C   UNL A   1      42.368  23.282  27.339  1.00  0.00    -0.014 A 
BRANCH  40  41
ATOM     41  C   UNL A   1      42.922  24.607  27.686  1.00  0.00     0.031 A 
ATOM     42  C   UNL A   1      41.984  25.686  28.147  1.00  0.00     0.074 A 
ATOM     43  C   UNL A   1      44.238  24.847  27.528  1.00  0.00     0.049 A 
ATOM     44  N   UNL A   1      42.242  26.933  28.439  1.00  0.00    -0.248 NA
ATOM     45  C   UNL A   1      40.556  25.328  28.252  1.00  0.00     0.031 C 
ATOM     46  C   UNL A   1      45.228  23.888  27.028  1.00  0.00     0.029 A 
ATOM     47  N   UNL A   1      44.969  25.979  27.775  1.00  0.00    -0.354 N 
ATOM     48  C   UNL A   1      41.012  27.506  28.732  1.00  0.00     0.074 A 
ATOM     49  C   UNL A   1      40.001  26.500  28.510  1.00  0.00     0.031 C 
ATOM     50  C   UNL A   1      46.443  24.459  27.051  1.00  0.00     0.029 A 
ATOM     51  C   UNL A   1      46.313  25.831  27.526  1.00  0.00     0.049 A 
ATOM     52  H   UNL A   1      44.571  26.817  28.101  1.00  0.00     0.167 HD
ATOM     53  C   UNL A   1      40.749  28.752  29.184  1.00  0.00     0.031 A 
ATOM     54  C   UNL A   1      47.321  26.711  27.671  1.00  0.00     0.031 A 
ATOM     55  C   UNL A   1      41.765  29.732  29.438  1.00  0.00     0.049 A 
ATOM     56  C   UNL A   1      47.004  28.087  28.189  1.00  0.00     0.074 A 
ATOM     57  C   UNL A   1      41.626  31.004  29.961  1.00  0.00     0.029 A 
ATOM     58  N   UNL A   1      43.116  29.539  29.192  1.00  0.00    -0.354 N 
ATOM     59  N   UNL A   1      45.845  28.592  28.536  1.00  0.00    -0.248 NA
ATOM     60  C   UNL A   1      48.137  29.010  28.344  1.00  0.00     0.031 C 
ATOM     61  C   UNL A   1      42.891  31.599  29.991  1.00  0.00     0.029 A 
ATOM     62  C   UNL A   1      43.822  30.678  29.534  1.00  0.00     0.049 A 
ATOM     63  H   UNL A   1      43.513  28.715  28.829  1.00  0.00     0.167 HD
ATOM     64  C   UNL A   1      46.110  29.883  28.972  1.00  0.00     0.074 A 
ATOM     65  C   UNL A   1      47.543  30.075  28.866  1.00  0.00     0.031 C 
ATOM     66  C   UNL A   1      45.249  30.832  29.417  1.00  0.00     0.031 A 
BRANCH  53  67
ATOM     67  C   UNL A   1      39.312  29.106  29.436  1.00  0.00    -0.014 A 
ATOM     68  C   UNL A   1      38.718  28.887  30.691  1.00  0.00     0.009 A 
ATOM     69  C   UNL A   1      38.540  29.670  28.410  1.00  0.00     0.009 A 
ATOM     70  C   UNL A   1      37.373  29.191  30.901  1.00  0.00     0.001 A 
ATOM     71  C   UNL A   1      37.202  30.002  28.633  1.00  0.00     0.001 A 
ATOM     72  C   UNL A   1      36.617  29.752  29.873  1.00  0.00     0.000 A 
ENDBRANCH  53  67
BRANCH  54  73
ATOM     73  C   UNL A   1      48.717  26.316  27.351  1.00  0.00    -0.014 A 
ATOM     74  C   UNL A   1      49.228  26.488  26.054  1.00  0.00     0.009 A 
ATOM     75  C   UNL A   1      49.547  25.754  28.334  1.00  0.00     0.009 A 
ATOM     76  C   UNL A   1      50.527  26.079  25.743  1.00  0.00     0.001 A 
ATOM     77  C   UNL A   1      50.855  25.373  28.028  1.00  0.00     0.001 A 
ATOM     78  C   UNL A   1      51.340  25.526  26.730  1.00  0.00     0.000 A 
ENDBRANCH  54  73
BRANCH  66  79
ATOM     79  C   UNL A   1      45.839  32.143  29.843  1.00  0.00    -0.014 A 
ATOM     80  C   UNL A   1      46.284  32.343  31.159  1.00  0.00     0.009 A 
ATOM     81  C   UNL A   1      46.000  33.170  28.902  1.00  0.00     0.009 A 
ATOM     82  C   UNL A   1      46.852  33.561  31.530  1.00  0.00     0.001 A 
ATOM     83  C   UNL A   1      46.596  34.376  29.269  1.00  0.00     0.001 A 
ATOM     84  C   UNL A   1      47.013  34.573  30.584  1.00  0.00     0.000 A 
ENDBRANCH  66  79
ENDBRANCH  40  41
ENDBRANCH  32  35
ENDBRANCH  30  31
ENDBRANCH  29  30
ENDBRANCH  28  29
ENDBRANCH   1  28
TORSDOF 15
ENDMDL
