MODEL 1
REMARK VINA RESULT:     -11.1      0.000      0.000
REMARK SMILES Cc1csc([C@H](C)Nc2cc(C)c(N)c(C(=O)NCCCCNC(=O)c3ccc(-c4c5nc(c(-c6ccccc6)c6ccc([nH]6)c(-c6ccccc6)c6nc(c(-c7ccccc7)c7ccc4[nH]7)C=C6)C=C5)cc3)c2)n1
REMARK SMILES IDX 20 1 19 2 18 3 16 4 17 5 15 7 9 8 10 9 74 10 11 11 12 12
REMARK SMILES IDX 13 13 8 14 6 16 7 17 5 18 1 19 2 20 3 21 75 22 4 23 14 24
REMARK SMILES IDX 21 27 22 28 23 29 24 30 25 32 26 33 27 34 73 35 28 36 72 37
REMARK SMILES IDX 29 38 30 39 31 40 66 41 32 42 71 43 65 44 67 45 33 46 70 47
REMARK SMILES IDX 64 48 63 49 34 51 56 52 41 53 55 54 42 55 45 56 54 57 68 58
REMARK SMILES IDX 43 59 44 60 53 62 69 63 46 64 35 65 36 66 40 67 37 68 39 69
REMARK SMILES IDX 38 70 57 71 58 72 62 73 59 74 61 75 60 76 47 77 48 78 52 79
REMARK SMILES IDX 49 80 51 81 50 82
REMARK H PARENT 18 6 8 15 14 25 14 26 23 31 67 50 45 61
REMARK Flexibility Score: inf
ROOT
ATOM      1  C   UNL A   1      31.769  29.748  26.681  1.00  0.00     0.023 C 
ENDROOT
BRANCH   1   2
ATOM      2  C   UNL A   1      33.109  29.097  26.319  1.00  0.00     0.116 C 
BRANCH   2   3
ATOM      3  N   UNL A   1      33.394  29.275  24.909  1.00  0.00    -0.352 N 
ATOM      4  C   UNL A   1      32.770  28.854  23.758  1.00  0.00     0.253 C 
ATOM      5  O   UNL A   1      33.335  29.169  22.706  1.00  0.00    -0.269 OA
ATOM      6  H   UNL A   1      34.203  29.809  24.740  1.00  0.00     0.163 HD
BRANCH   4   7
ATOM      7  C   UNL A   1      31.476  28.083  23.711  1.00  0.00     0.065 A 
ATOM      8  C   UNL A   1      30.217  25.994  23.993  1.00  0.00     0.036 A 
ATOM      9  C   UNL A   1      29.040  26.669  23.698  1.00  0.00     0.031 A 
ATOM     10  C   UNL A   1      31.414  26.711  23.976  1.00  0.00     0.041 A 
ATOM     11  C   UNL A   1      29.055  28.034  23.354  1.00  0.00    -0.025 A 
ATOM     12  C   UNL A   1      27.751  28.706  23.021  1.00  0.00     0.046 C 
ATOM     13  C   UNL A   1      30.276  28.751  23.347  1.00  0.00     0.047 A 
BRANCH   8  14
ATOM     14  N   UNL A   1      30.250  24.705  24.507  1.00  0.00    -0.376 N 
ATOM     15  H   UNL A   1      29.598  24.046  24.176  1.00  0.00     0.161 HD
BRANCH  14  16
ATOM     16  C   UNL A   1      31.224  24.290  25.527  1.00  0.00     0.135 C 
ATOM     17  C   UNL A   1      30.391  23.647  26.647  1.00  0.00     0.039 C 
BRANCH  16  18
ATOM     18  C   UNL A   1      32.300  23.347  24.987  1.00  0.00     0.115 A 
ATOM     19  C   UNL A   1      35.563  22.951  23.499  1.00  0.00     0.067 C 
ATOM     20  C   UNL A   1      34.221  22.684  24.077  1.00  0.00     0.049 A 
ATOM     21  C   UNL A   1      33.654  21.448  24.312  1.00  0.00     0.090 A 
ATOM     22  N   UNL A   1      33.430  23.761  24.441  1.00  0.00    -0.244 NA
ATOM     23  S   UNL A   1      32.138  21.633  25.082  1.00  0.00    -0.125 S 
ENDBRANCH  16  18
ENDBRANCH  14  16
ENDBRANCH   8  14
BRANCH  13  24
ATOM     24  N   UNL A   1      30.249  30.136  23.143  1.00  0.00    -0.398 N 
ATOM     25  H   UNL A   1      29.516  30.676  23.519  1.00  0.00     0.156 HD
ATOM     26  H   UNL A   1      30.964  30.572  22.625  1.00  0.00     0.156 HD
ENDBRANCH  13  24
ENDBRANCH   4   7
ENDBRANCH   2   3
ENDBRANCH   1   2
BRANCH   1  27
ATOM     27  C   UNL A   1      31.735  31.267  26.491  1.00  0.00     0.023 C 
BRANCH  27  28
ATOM     28  C   UNL A   1      32.866  32.024  27.176  1.00  0.00     0.116 C 
BRANCH  28  29
ATOM     29  N   UNL A   1      32.506  33.379  27.561  1.00  0.00    -0.352 N 
ATOM     30  C   UNL A   1      33.179  34.236  28.397  1.00  0.00     0.251 C 
ATOM     31  H   UNL A   1      31.671  33.727  27.172  1.00  0.00     0.163 HD
ATOM     32  O   UNL A   1      32.696  35.318  28.703  1.00  0.00    -0.269 OA
BRANCH  30  33
ATOM     33  C   UNL A   1      34.477  33.816  28.963  1.00  0.00     0.039 A 
ATOM     34  C   UNL A   1      34.479  33.012  30.106  1.00  0.00     0.014 A 
ATOM     35  C   UNL A   1      35.678  34.183  28.353  1.00  0.00     0.014 A 
ATOM     36  C   UNL A   1      35.688  32.521  30.599  1.00  0.00     0.010 A 
ATOM     37  C   UNL A   1      36.875  33.639  28.806  1.00  0.00     0.010 A 
ATOM     38  C   UNL A   1      36.891  32.802  29.932  1.00  0.00    -0.014 A 
BRANCH  38  39
ATOM     39  C   UNL A   1      38.176  32.225  30.395  1.00  0.00     0.031 A 
ATOM     40  C   UNL A   1      38.671  30.928  29.821  1.00  0.00     0.074 A 
ATOM     41  C   UNL A   1      38.861  32.836  31.380  1.00  0.00     0.049 A 
ATOM     42  N   UNL A   1      39.743  30.245  30.133  1.00  0.00    -0.248 NA
ATOM     43  C   UNL A   1      37.842  30.304  28.778  1.00  0.00     0.031 C 
ATOM     44  C   UNL A   1      38.460  34.073  32.052  1.00  0.00     0.029 A 
ATOM     45  N   UNL A   1      40.040  32.493  31.991  1.00  0.00    -0.354 N 
ATOM     46  C   UNL A   1      39.706  29.105  29.342  1.00  0.00     0.074 A 
ATOM     47  C   UNL A   1      38.485  29.164  28.569  1.00  0.00     0.031 C 
ATOM     48  C   UNL A   1      39.391  34.399  32.964  1.00  0.00     0.029 A 
ATOM     49  C   UNL A   1      40.432  33.378  32.966  1.00  0.00     0.049 A 
ATOM     50  H   UNL A   1      40.555  31.688  31.755  1.00  0.00     0.167 HD
ATOM     51  C   UNL A   1      40.616  28.106  29.252  1.00  0.00     0.031 A 
ATOM     52  C   UNL A   1      41.511  33.368  33.770  1.00  0.00     0.031 A 
ATOM     53  C   UNL A   1      41.838  28.053  30.008  1.00  0.00     0.049 A 
ATOM     54  C   UNL A   1      42.510  32.251  33.645  1.00  0.00     0.074 A 
ATOM     55  C   UNL A   1      42.853  27.115  29.942  1.00  0.00     0.029 A 
ATOM     56  N   UNL A   1      42.209  28.979  30.970  1.00  0.00    -0.354 N 
ATOM     57  N   UNL A   1      42.497  31.218  32.839  1.00  0.00    -0.248 NA
ATOM     58  C   UNL A   1      43.680  32.310  34.533  1.00  0.00     0.031 C 
ATOM     59  C   UNL A   1      43.820  27.451  30.896  1.00  0.00     0.029 A 
ATOM     60  C   UNL A   1      43.429  28.625  31.520  1.00  0.00     0.049 A 
ATOM     61  H   UNL A   1      41.682  29.771  31.224  1.00  0.00     0.167 HD
ATOM     62  C   UNL A   1      43.666  30.517  33.104  1.00  0.00     0.074 A 
ATOM     63  C   UNL A   1      44.372  31.252  34.133  1.00  0.00     0.031 C 
ATOM     64  C   UNL A   1      44.116  29.367  32.543  1.00  0.00     0.031 A 
BRANCH  51  65
ATOM     65  C   UNL A   1      40.315  26.983  28.298  1.00  0.00    -0.014 A 
ATOM     66  C   UNL A   1      40.871  26.957  27.009  1.00  0.00     0.009 A 
ATOM     67  C   UNL A   1      39.486  25.926  28.702  1.00  0.00     0.009 A 
ATOM     68  C   UNL A   1      40.572  25.913  26.131  1.00  0.00     0.001 A 
ATOM     69  C   UNL A   1      39.211  24.869  27.833  1.00  0.00     0.001 A 
ATOM     70  C   UNL A   1      39.746  24.868  26.545  1.00  0.00     0.000 A 
ENDBRANCH  51  65
BRANCH  52  71
ATOM     71  C   UNL A   1      41.718  34.464  34.751  1.00  0.00    -0.014 A 
ATOM     72  C   UNL A   1      41.266  34.329  36.072  1.00  0.00     0.009 A 
ATOM     73  C   UNL A   1      42.365  35.649  34.372  1.00  0.00     0.009 A 
ATOM     74  C   UNL A   1      41.433  35.370  36.988  1.00  0.00     0.001 A 
ATOM     75  C   UNL A   1      42.555  36.678  35.296  1.00  0.00     0.001 A 
ATOM     76  C   UNL A   1      42.081  36.541  36.601  1.00  0.00     0.000 A 
ENDBRANCH  52  71
BRANCH  64  77
ATOM     77  C   UNL A   1      45.448  28.855  33.010  1.00  0.00    -0.014 A 
ATOM     78  C   UNL A   1      45.547  27.947  34.075  1.00  0.00     0.009 A 
ATOM     79  C   UNL A   1      46.618  29.259  32.347  1.00  0.00     0.009 A 
ATOM     80  C   UNL A   1      46.796  27.478  34.488  1.00  0.00     0.001 A 
ATOM     81  C   UNL A   1      47.862  28.768  32.744  1.00  0.00     0.001 A 
ATOM     82  C   UNL A   1      47.951  27.886  33.819  1.00  0.00     0.000 A 
ENDBRANCH  64  77
ENDBRANCH  38  39
ENDBRANCH  30  33
ENDBRANCH  28  29
ENDBRANCH  27  28
ENDBRANCH   1  27
TORSDOF 15
ENDMDL
MODEL 2
REMARK VINA RESULT:     -11.1      1.191      5.993
REMARK SMILES Cc1csc([C@H](C)Nc2cc(C)c(N)c(C(=O)NCCCCNC(=O)c3ccc(-c4c5nc(c(-c6ccccc6)c6ccc([nH]6)c(-c6ccccc6)c6nc(c(-c7ccccc7)c7ccc4[nH]7)C=C6)C=C5)cc3)c2)n1
REMARK SMILES IDX 20 1 19 2 18 3 16 4 17 5 15 7 9 8 10 9 74 10 11 11 12 12
REMARK SMILES IDX 13 13 8 14 6 16 7 17 5 18 1 19 2 20 3 21 75 22 4 23 14 24
REMARK SMILES IDX 21 27 22 28 23 29 24 30 25 32 26 33 27 34 73 35 28 36 72 37
REMARK SMILES IDX 29 38 30 39 31 40 66 41 32 42 71 43 65 44 67 45 33 46 70 47
REMARK SMILES IDX 64 48 63 49 34 51 56 52 41 53 55 54 42 55 45 56 54 57 68 58
REMARK SMILES IDX 43 59 44 60 53 62 69 63 46 64 35 65 36 66 40 67 37 68 39 69
REMARK SMILES IDX 38 70 57 71 58 72 62 73 59 74 61 75 60 76 47 77 48 78 52 79
REMARK SMILES IDX 49 80 51 81 50 82
REMARK H PARENT 18 6 8 15 14 25 14 26 23 31 67 50 45 61
REMARK Flexibility Score: inf
ROOT
ATOM      1  C   UNL A   1      31.674  30.763  26.066  1.00  0.00     0.023 C 
ENDROOT
BRANCH   1   2
ATOM      2  C   UNL A   1      33.051  30.152  26.346  1.00  0.00     0.116 C 
BRANCH   2   3
ATOM      3  N   UNL A   1      33.611  29.584  25.136  1.00  0.00    -0.352 N 
ATOM      4  C   UNL A   1      33.316  28.464  24.393  1.00  0.00     0.253 C 
ATOM      5  O   UNL A   1      34.049  28.270  23.418  1.00  0.00    -0.269 OA
ATOM      6  H   UNL A   1      34.357  30.110  24.767  1.00  0.00     0.163 HD
BRANCH   4   7
ATOM      7  C   UNL A   1      32.181  27.514  24.678  1.00  0.00     0.065 A 
ATOM      8  C   UNL A   1      31.250  25.595  25.893  1.00  0.00     0.036 A 
ATOM      9  C   UNL A   1      30.030  25.794  25.261  1.00  0.00     0.031 A 
ATOM     10  C   UNL A   1      32.307  26.449  25.576  1.00  0.00     0.041 A 
ATOM     11  C   UNL A   1      29.871  26.806  24.296  1.00  0.00    -0.025 A 
ATOM     12  C   UNL A   1      28.531  26.957  23.627  1.00  0.00     0.046 C 
ATOM     13  C   UNL A   1      30.949  27.668  23.987  1.00  0.00     0.047 A 
BRANCH   8  14
ATOM     14  N   UNL A   1      31.421  24.738  26.972  1.00  0.00    -0.376 N 
ATOM     15  H   UNL A   1      31.204  25.065  27.875  1.00  0.00     0.161 HD
BRANCH  14  16
ATOM     16  C   UNL A   1      31.913  23.363  26.814  1.00  0.00     0.135 C 
ATOM     17  C   UNL A   1      30.748  22.583  26.185  1.00  0.00     0.039 C 
BRANCH  16  18
ATOM     18  C   UNL A   1      33.192  23.270  25.981  1.00  0.00     0.115 A 
ATOM     19  C   UNL A   1      36.767  23.720  25.793  1.00  0.00     0.067 C 
ATOM     20  C   UNL A   1      35.352  23.415  25.460  1.00  0.00     0.049 A 
ATOM     21  C   UNL A   1      34.876  22.899  24.271  1.00  0.00     0.090 A 
ATOM     22  N   UNL A   1      34.380  23.647  26.419  1.00  0.00    -0.244 NA
ATOM     23  S   UNL A   1      33.192  22.619  24.385  1.00  0.00    -0.125 S 
ENDBRANCH  16  18
ENDBRANCH  14  16
ENDBRANCH   8  14
BRANCH  13  24
ATOM     24  N   UNL A   1      30.727  28.756  23.133  1.00  0.00    -0.398 N 
ATOM     25  H   UNL A   1      29.842  28.886  22.721  1.00  0.00     0.156 HD
ATOM     26  H   UNL A   1      31.455  29.391  22.944  1.00  0.00     0.156 HD
ENDBRANCH  13  24
ENDBRANCH   4   7
ENDBRANCH   2   3
ENDBRANCH   1   2
BRANCH   1  27
ATOM     27  C   UNL A   1      31.393  32.061  26.828  1.00  0.00     0.023 C 
BRANCH  27  28
ATOM     28  C   UNL A   1      32.635  32.845  27.234  1.00  0.00     0.116 C 
BRANCH  28  29
ATOM     29  N   UNL A   1      32.347  34.206  27.658  1.00  0.00    -0.352 N 
ATOM     30  C   UNL A   1      33.014  34.971  28.583  1.00  0.00     0.251 C 
ATOM     31  H   UNL A   1      31.571  34.633  27.227  1.00  0.00     0.163 HD
ATOM     32  O   UNL A   1      32.589  36.072  28.907  1.00  0.00    -0.269 OA
BRANCH  30  33
ATOM     33  C   UNL A   1      34.231  34.428  29.221  1.00  0.00     0.039 A 
ATOM     34  C   UNL A   1      34.098  33.713  30.414  1.00  0.00     0.014 A 
ATOM     35  C   UNL A   1      35.485  34.593  28.630  1.00  0.00     0.014 A 
ATOM     36  C   UNL A   1      35.219  33.106  30.980  1.00  0.00     0.010 A 
ATOM     37  C   UNL A   1      36.588  33.933  29.159  1.00  0.00     0.010 A 
ATOM     38  C   UNL A   1      36.465  33.182  30.338  1.00  0.00    -0.014 A 
BRANCH  38  39
ATOM     39  C   UNL A   1      37.651  32.479  30.883  1.00  0.00     0.031 A 
ATOM     40  C   UNL A   1      38.338  32.999  32.114  1.00  0.00     0.074 A 
ATOM     41  C   UNL A   1      38.148  31.411  30.231  1.00  0.00     0.049 A 
ATOM     42  N   UNL A   1      39.413  32.550  32.711  1.00  0.00    -0.248 NA
ATOM     43  C   UNL A   1      37.756  34.195  32.744  1.00  0.00     0.031 C 
ATOM     44  C   UNL A   1      37.600  30.838  28.999  1.00  0.00     0.029 A 
ATOM     45  N   UNL A   1      39.231  30.619  30.512  1.00  0.00    -0.354 N 
ATOM     46  C   UNL A   1      39.646  33.417  33.769  1.00  0.00     0.074 A 
ATOM     47  C   UNL A   1      38.630  34.444  33.708  1.00  0.00     0.031 C 
ATOM     48  C   UNL A   1      38.336  29.772  28.645  1.00  0.00     0.029 A 
ATOM     49  C   UNL A   1      39.424  29.607  29.603  1.00  0.00     0.049 A 
ATOM     50  H   UNL A   1      39.816  30.763  31.290  1.00  0.00     0.167 HD
ATOM     51  C   UNL A   1      40.609  33.354  34.719  1.00  0.00     0.031 A 
ATOM     52  C   UNL A   1      40.372  28.653  29.547  1.00  0.00     0.031 A 
ATOM     53  C   UNL A   1      41.611  32.325  34.790  1.00  0.00     0.049 A 
ATOM     54  C   UNL A   1      41.425  28.601  30.618  1.00  0.00     0.074 A 
ATOM     55  C   UNL A   1      42.590  32.140  35.750  1.00  0.00     0.029 A 
ATOM     56  N   UNL A   1      41.760  31.306  33.863  1.00  0.00    -0.354 N 
ATOM     57  N   UNL A   1      41.588  29.386  31.655  1.00  0.00    -0.248 NA
ATOM     58  C   UNL A   1      42.416  27.520  30.517  1.00  0.00     0.031 C 
ATOM     59  C   UNL A   1      43.360  31.032  35.379  1.00  0.00     0.029 A 
ATOM     60  C   UNL A   1      42.828  30.499  34.216  1.00  0.00     0.049 A 
ATOM     61  H   UNL A   1      41.190  31.176  33.070  1.00  0.00     0.167 HD
ATOM     62  C   UNL A   1      42.683  28.881  32.344  1.00  0.00     0.074 A 
ATOM     63  C   UNL A   1      43.134  27.713  31.615  1.00  0.00     0.031 C 
ATOM     64  C   UNL A   1      43.263  29.342  33.479  1.00  0.00     0.031 A 
BRANCH  51  65
ATOM     65  C   UNL A   1      40.622  34.440  35.759  1.00  0.00    -0.014 A 
ATOM     66  C   UNL A   1      41.388  35.604  35.585  1.00  0.00     0.009 A 
ATOM     67  C   UNL A   1      39.839  34.309  36.916  1.00  0.00     0.009 A 
ATOM     68  C   UNL A   1      41.399  36.597  36.566  1.00  0.00     0.001 A 
ATOM     69  C   UNL A   1      39.830  35.316  37.882  1.00  0.00     0.001 A 
ATOM     70  C   UNL A   1      40.617  36.455  37.711  1.00  0.00     0.000 A 
ENDBRANCH  51  65
BRANCH  52  71
ATOM     71  C   UNL A   1      40.356  27.651  28.451  1.00  0.00    -0.014 A 
ATOM     72  C   UNL A   1      39.664  26.440  28.607  1.00  0.00     0.009 A 
ATOM     73  C   UNL A   1      41.031  27.898  27.247  1.00  0.00     0.009 A 
ATOM     74  C   UNL A   1      39.672  25.484  27.588  1.00  0.00     0.001 A 
ATOM     75  C   UNL A   1      41.016  26.952  26.220  1.00  0.00     0.001 A 
ATOM     76  C   UNL A   1      40.344  25.743  26.395  1.00  0.00     0.000 A 
ENDBRANCH  52  71
BRANCH  64  77
ATOM     77  C   UNL A   1      44.427  28.562  34.018  1.00  0.00    -0.014 A 
ATOM     78  C   UNL A   1      44.237  27.480  34.891  1.00  0.00     0.009 A 
ATOM     79  C   UNL A   1      45.731  28.894  33.617  1.00  0.00     0.009 A 
ATOM     80  C   UNL A   1      45.334  26.765  35.376  1.00  0.00     0.001 A 
ATOM     81  C   UNL A   1      46.823  28.160  34.082  1.00  0.00     0.001 A 
ATOM     82  C   UNL A   1      46.624  27.103  34.967  1.00  0.00     0.000 A 
ENDBRANCH  64  77
ENDBRANCH  38  39
ENDBRANCH  30  33
ENDBRANCH  28  29
ENDBRANCH  27  28
ENDBRANCH   1  27
TORSDOF 15
ENDMDL
MODEL 3
REMARK VINA RESULT:     -10.9      3.688      8.922
REMARK SMILES Cc1csc([C@H](C)Nc2cc(C)c(N)c(C(=O)NCCCCNC(=O)c3ccc(-c4c5nc(c(-c6ccccc6)c6ccc([nH]6)c(-c6ccccc6)c6nc(c(-c7ccccc7)c7ccc4[nH]7)C=C6)C=C5)cc3)c2)n1
REMARK SMILES IDX 20 1 19 2 18 3 16 4 17 5 15 7 9 8 10 9 74 10 11 11 12 12
REMARK SMILES IDX 13 13 8 14 6 16 7 17 5 18 1 19 2 20 3 21 75 22 4 23 14 24
REMARK SMILES IDX 21 27 22 28 23 29 24 30 25 32 26 33 27 34 73 35 28 36 72 37
REMARK SMILES IDX 29 38 30 39 31 40 66 41 32 42 71 43 65 44 67 45 33 46 70 47
REMARK SMILES IDX 64 48 63 49 34 51 56 52 41 53 55 54 42 55 45 56 54 57 68 58
REMARK SMILES IDX 43 59 44 60 53 62 69 63 46 64 35 65 36 66 40 67 37 68 39 69
REMARK SMILES IDX 38 70 57 71 58 72 62 73 59 74 61 75 60 76 47 77 48 78 52 79
REMARK SMILES IDX 49 80 51 81 50 82
REMARK H PARENT 18 6 8 15 14 25 14 26 23 31 67 50 45 61
REMARK Flexibility Score: inf
ROOT
ATOM      1  C   UNL A   1      38.121  22.415  25.608  1.00  0.00     0.023 C 
ENDROOT
BRANCH   1   2
ATOM      2  C   UNL A   1      36.652  22.767  25.346  1.00  0.00     0.116 C 
BRANCH   2   3
ATOM      3  N   UNL A   1      35.811  22.256  26.410  1.00  0.00    -0.352 N 
ATOM      4  C   UNL A   1      34.532  21.750  26.443  1.00  0.00     0.253 C 
ATOM      5  O   UNL A   1      34.117  21.440  27.564  1.00  0.00    -0.269 OA
ATOM      6  H   UNL A   1      36.245  22.273  27.293  1.00  0.00     0.163 HD
BRANCH   4   7
ATOM      7  C   UNL A   1      33.657  21.538  25.235  1.00  0.00     0.065 A 
ATOM      8  C   UNL A   1      32.245  22.426  23.433  1.00  0.00     0.036 A 
ATOM      9  C   UNL A   1      32.086  21.140  22.932  1.00  0.00     0.031 A 
ATOM     10  C   UNL A   1      33.012  22.597  24.585  1.00  0.00     0.041 A 
ATOM     11  C   UNL A   1      32.653  20.032  23.588  1.00  0.00    -0.025 A 
ATOM     12  C   UNL A   1      32.427  18.661  23.011  1.00  0.00     0.046 C 
ATOM     13  C   UNL A   1      33.434  20.220  24.753  1.00  0.00     0.047 A 
BRANCH   8  14
ATOM     14  N   UNL A   1      31.865  23.568  22.741  1.00  0.00    -0.376 N 
ATOM     15  H   UNL A   1      31.034  23.548  22.215  1.00  0.00     0.161 HD
BRANCH  14  16
ATOM     16  C   UNL A   1      32.659  24.804  22.768  1.00  0.00     0.135 C 
ATOM     17  C   UNL A   1      32.898  25.167  21.294  1.00  0.00     0.039 C 
BRANCH  16  18
ATOM     18  C   UNL A   1      31.988  25.937  23.545  1.00  0.00     0.115 A 
ATOM     19  C   UNL A   1      31.454  27.588  26.708  1.00  0.00     0.067 C 
ATOM     20  C   UNL A   1      31.405  27.218  25.271  1.00  0.00     0.049 A 
ATOM     21  C   UNL A   1      30.745  27.895  24.265  1.00  0.00     0.090 A 
ATOM     22  N   UNL A   1      32.089  26.088  24.854  1.00  0.00    -0.244 NA
ATOM     23  S   UNL A   1      31.055  27.154  22.756  1.00  0.00    -0.125 S 
ENDBRANCH  16  18
ENDBRANCH  14  16
ENDBRANCH   8  14
BRANCH  13  24
ATOM     24  N   UNL A   1      34.106  19.123  25.306  1.00  0.00    -0.398 N 
ATOM     25  H   UNL A   1      34.826  18.680  24.801  1.00  0.00     0.156 HD
ATOM     26  H   UNL A   1      33.859  18.793  26.200  1.00  0.00     0.156 HD
ENDBRANCH  13  24
ENDBRANCH   4   7
ENDBRANCH   2   3
ENDBRANCH   1   2
BRANCH   1  27
ATOM     27  C   UNL A   1      38.494  20.971  25.263  1.00  0.00     0.023 C 
BRANCH  27  28
ATOM     28  C   UNL A   1      39.234  20.221  26.364  1.00  0.00     0.116 C 
BRANCH  28  29
ATOM     29  N   UNL A   1      40.355  19.434  25.875  1.00  0.00    -0.352 N 
ATOM     30  C   UNL A   1      41.685  19.775  25.835  1.00  0.00     0.251 C 
ATOM     31  H   UNL A   1      40.131  18.540  25.527  1.00  0.00     0.163 HD
ATOM     32  O   UNL A   1      42.502  19.039  25.301  1.00  0.00    -0.269 OA
BRANCH  30  33
ATOM     33  C   UNL A   1      42.111  21.070  26.406  1.00  0.00     0.039 A 
ATOM     34  C   UNL A   1      42.419  22.115  25.533  1.00  0.00     0.014 A 
ATOM     35  C   UNL A   1      42.174  21.257  27.788  1.00  0.00     0.014 A 
ATOM     36  C   UNL A   1      42.727  23.374  26.050  1.00  0.00     0.010 A 
ATOM     37  C   UNL A   1      42.416  22.528  28.300  1.00  0.00     0.010 A 
ATOM     38  C   UNL A   1      42.693  23.598  27.436  1.00  0.00    -0.014 A 
BRANCH  38  39
ATOM     39  C   UNL A   1      42.940  24.946  27.999  1.00  0.00     0.031 A 
ATOM     40  C   UNL A   1      44.321  25.339  28.440  1.00  0.00     0.074 A 
ATOM     41  C   UNL A   1      41.907  25.792  28.176  1.00  0.00     0.049 A 
ATOM     42  N   UNL A   1      44.724  26.452  28.999  1.00  0.00    -0.248 NA
ATOM     43  C   UNL A   1      45.387  24.342  28.251  1.00  0.00     0.031 C 
ATOM     44  C   UNL A   1      40.512  25.511  27.833  1.00  0.00     0.029 A 
ATOM     45  N   UNL A   1      41.873  27.062  28.693  1.00  0.00    -0.354 N 
ATOM     46  C   UNL A   1      46.079  26.281  29.246  1.00  0.00     0.074 A 
ATOM     47  C   UNL A   1      46.422  24.942  28.819  1.00  0.00     0.031 C 
ATOM     48  C   UNL A   1      39.762  26.586  28.126  1.00  0.00     0.029 A 
ATOM     49  C   UNL A   1      40.616  27.616  28.707  1.00  0.00     0.049 A 
ATOM     50  H   UNL A   1      42.672  27.531  29.024  1.00  0.00     0.167 HD
ATOM     51  C   UNL A   1      46.964  27.165  29.765  1.00  0.00     0.031 A 
ATOM     52  C   UNL A   1      40.198  28.820  29.141  1.00  0.00     0.031 A 
ATOM     53  C   UNL A   1      46.627  28.501  30.176  1.00  0.00     0.049 A 
ATOM     54  C   UNL A   1      41.201  29.785  29.706  1.00  0.00     0.074 A 
ATOM     55  C   UNL A   1      47.465  29.493  30.655  1.00  0.00     0.029 A 
ATOM     56  N   UNL A   1      45.347  29.032  30.155  1.00  0.00    -0.354 N 
ATOM     57  N   UNL A   1      42.494  29.635  29.864  1.00  0.00    -0.248 NA
ATOM     58  C   UNL A   1      40.688  31.094  30.137  1.00  0.00     0.031 C 
ATOM     59  C   UNL A   1      46.683  30.611  30.965  1.00  0.00     0.029 A 
ATOM     60  C   UNL A   1      45.368  30.332  30.632  1.00  0.00     0.049 A 
ATOM     61  H   UNL A   1      44.542  28.555  29.847  1.00  0.00     0.167 HD
ATOM     62  C   UNL A   1      42.953  30.836  30.390  1.00  0.00     0.074 A 
ATOM     63  C   UNL A   1      41.803  31.709  30.508  1.00  0.00     0.031 C 
ATOM     64  C   UNL A   1      44.214  31.185  30.743  1.00  0.00     0.031 A 
BRANCH  51  65
ATOM     65  C   UNL A   1      48.387  26.705  29.919  1.00  0.00    -0.014 A 
ATOM     66  C   UNL A   1      49.339  26.940  28.914  1.00  0.00     0.009 A 
ATOM     67  C   UNL A   1      48.787  26.053  31.095  1.00  0.00     0.009 A 
ATOM     68  C   UNL A   1      50.654  26.496  29.069  1.00  0.00     0.001 A 
ATOM     69  C   UNL A   1      50.109  25.635  31.258  1.00  0.00     0.001 A 
ATOM     70  C   UNL A   1      51.039  25.849  30.242  1.00  0.00     0.000 A 
ENDBRANCH  51  65
BRANCH  52  71
ATOM     71  C   UNL A   1      38.764  29.192  29.036  1.00  0.00    -0.014 A 
ATOM     72  C   UNL A   1      37.911  29.050  30.141  1.00  0.00     0.009 A 
ATOM     73  C   UNL A   1      38.240  29.687  27.833  1.00  0.00     0.009 A 
ATOM     74  C   UNL A   1      36.556  29.371  30.036  1.00  0.00     0.001 A 
ATOM     75  C   UNL A   1      36.891  30.032  27.737  1.00  0.00     0.001 A 
ATOM     76  C   UNL A   1      36.048  29.866  28.836  1.00  0.00     0.000 A 
ENDBRANCH  52  71
BRANCH  64  77
ATOM     77  C   UNL A   1      44.419  32.581  31.258  1.00  0.00    -0.014 A 
ATOM     78  C   UNL A   1      44.323  32.873  32.626  1.00  0.00     0.009 A 
ATOM     79  C   UNL A   1      44.750  33.609  30.361  1.00  0.00     0.009 A 
ATOM     80  C   UNL A   1      44.524  34.178  33.084  1.00  0.00     0.001 A 
ATOM     81  C   UNL A   1      44.976  34.906  30.824  1.00  0.00     0.001 A 
ATOM     82  C   UNL A   1      44.854  35.190  32.183  1.00  0.00     0.000 A 
ENDBRANCH  64  77
ENDBRANCH  38  39
ENDBRANCH  30  33
ENDBRANCH  28  29
ENDBRANCH  27  28
ENDBRANCH   1  27
TORSDOF 15
ENDMDL
