MODEL 1
REMARK VINA RESULT:     -13.1      0.000      0.000
REMARK SMILES O=C(NCCCCNC(=O)c1nnn(-c2cccc(Br)c2)c1[C@@H]1COc2ccccc2O1)c1ccc(-c2c3nc(c(-c4ccccc4)c4ccc([nH]4)c(-c4ccccc4)c4nc(c(-c5ccccc5)c5ccc2[nH]5)C=C4)C=C3)cc1
REMARK SMILES IDX 5 1 4 2 3 3 1 4 2 5 33 7 34 8 80 9 35 10 79 11 36 12 37 13
REMARK SMILES IDX 38 14 73 15 39 16 78 17 72 18 74 19 40 20 77 21 71 22 70 23
REMARK SMILES IDX 41 25 63 26 48 27 62 28 49 29 52 30 61 31 75 32 50 33 51 34
REMARK SMILES IDX 60 36 76 37 53 38 42 39 43 40 47 41 44 42 46 43 45 44 64 45
REMARK SMILES IDX 65 46 69 47 66 48 68 49 67 50 54 51 55 52 59 53 56 54 58 55
REMARK SMILES IDX 57 56 6 57 7 58 8 59 9 60 10 62 11 63 12 64 22 65 13 66
REMARK SMILES IDX 14 67 23 68 24 69 32 70 25 71 31 72 26 73 30 74 27 75 29 76
REMARK SMILES IDX 28 77 15 78 16 79 21 80 17 81 19 82 18 83 20 84
REMARK H PARENT 3 6 74 24 52 35 8 61
REMARK Flexibility Score: inf
ROOT
ATOM      1  C   UNL A   1      33.236  29.923  27.092  1.00  0.00     0.023 C 
ENDROOT
BRANCH   1   2
ATOM      2  C   UNL A   1      34.655  30.389  27.393  1.00  0.00     0.116 C 
BRANCH   2   3
ATOM      3  N   UNL A   1      34.781  31.251  28.552  1.00  0.00    -0.352 N 
ATOM      4  O   UNL A   1      35.793  32.815  29.781  1.00  0.00    -0.269 OA
ATOM      5  C   UNL A   1      35.869  31.711  29.241  1.00  0.00     0.251 C 
ATOM      6  H   UNL A   1      33.920  31.565  28.911  1.00  0.00     0.163 HD
BRANCH   5   7
ATOM      7  C   UNL A   1      37.038  30.850  29.515  1.00  0.00     0.039 A 
ATOM      8  C   UNL A   1      38.329  31.109  29.061  1.00  0.00     0.014 A 
ATOM      9  C   UNL A   1      36.765  29.646  30.187  1.00  0.00     0.014 A 
ATOM     10  C   UNL A   1      39.296  30.125  29.146  1.00  0.00     0.010 A 
ATOM     11  C   UNL A   1      37.739  28.666  30.299  1.00  0.00     0.010 A 
ATOM     12  C   UNL A   1      38.988  28.896  29.729  1.00  0.00    -0.014 A 
BRANCH  12  13
ATOM     13  C   UNL A   1      40.074  27.934  29.825  1.00  0.00     0.031 A 
ATOM     14  C   UNL A   1      40.839  27.992  31.096  1.00  0.00     0.074 A 
ATOM     15  C   UNL A   1      40.330  27.003  28.890  1.00  0.00     0.049 A 
ATOM     16  N   UNL A   1      42.094  28.254  31.263  1.00  0.00    -0.248 NA
ATOM     17  C   UNL A   1      40.079  27.841  32.347  1.00  0.00     0.031 C 
ATOM     18  C   UNL A   1      39.505  26.639  27.738  1.00  0.00     0.029 A 
ATOM     19  N   UNL A   1      41.346  26.095  28.852  1.00  0.00    -0.354 N 
ATOM     20  C   UNL A   1      42.327  28.125  32.629  1.00  0.00     0.074 A 
ATOM     21  C   UNL A   1      41.035  28.013  33.257  1.00  0.00     0.031 C 
ATOM     22  C   UNL A   1      39.922  25.445  27.262  1.00  0.00     0.029 A 
ATOM     23  C   UNL A   1      41.108  25.032  27.994  1.00  0.00     0.049 A 
ATOM     24  H   UNL A   1      42.169  26.184  29.383  1.00  0.00     0.167 HD
ATOM     25  C   UNL A   1      43.568  27.862  33.121  1.00  0.00     0.031 A 
ATOM     26  C   UNL A   1      41.784  23.860  27.954  1.00  0.00     0.031 A 
ATOM     27  C   UNL A   1      44.610  28.203  32.186  1.00  0.00     0.049 A 
ATOM     28  C   UNL A   1      43.086  24.049  28.632  1.00  0.00     0.074 A 
ATOM     29  C   UNL A   1      45.006  29.351  31.530  1.00  0.00     0.029 A 
ATOM     30  N   UNL A   1      45.248  27.169  31.546  1.00  0.00    -0.354 N 
ATOM     31  N   UNL A   1      44.063  24.755  28.144  1.00  0.00    -0.248 NA
ATOM     32  C   UNL A   1      43.178  23.759  30.055  1.00  0.00     0.031 C 
ATOM     33  C   UNL A   1      45.482  28.909  30.259  1.00  0.00     0.029 A 
ATOM     34  C   UNL A   1      45.376  27.517  30.231  1.00  0.00     0.049 A 
ATOM     35  H   UNL A   1      45.557  26.331  31.959  1.00  0.00     0.167 HD
ATOM     36  C   UNL A   1      44.649  25.358  29.246  1.00  0.00     0.074 A 
ATOM     37  C   UNL A   1      44.149  24.611  30.396  1.00  0.00     0.031 C 
ATOM     38  C   UNL A   1      45.255  26.579  29.140  1.00  0.00     0.031 A 
BRANCH  25  39
ATOM     39  C   UNL A   1      43.797  26.865  34.239  1.00  0.00    -0.014 A 
ATOM     40  C   UNL A   1      43.595  25.498  33.969  1.00  0.00     0.009 A 
ATOM     41  C   UNL A   1      43.876  27.232  35.597  1.00  0.00     0.009 A 
ATOM     42  C   UNL A   1      43.354  24.581  34.999  1.00  0.00     0.001 A 
ATOM     43  C   UNL A   1      43.686  26.311  36.628  1.00  0.00     0.001 A 
ATOM     44  C   UNL A   1      43.382  24.991  36.328  1.00  0.00     0.000 A 
ENDBRANCH  25  39
BRANCH  26  45
ATOM     45  C   UNL A   1      41.269  22.523  27.596  1.00  0.00    -0.014 A 
ATOM     46  C   UNL A   1      40.087  22.383  26.854  1.00  0.00     0.009 A 
ATOM     47  C   UNL A   1      42.074  21.381  27.768  1.00  0.00     0.009 A 
ATOM     48  C   UNL A   1      39.741  21.153  26.279  1.00  0.00     0.001 A 
ATOM     49  C   UNL A   1      41.724  20.151  27.204  1.00  0.00     0.001 A 
ATOM     50  C   UNL A   1      40.565  20.042  26.446  1.00  0.00     0.000 A 
ENDBRANCH  26  45
BRANCH  38  51
ATOM     51  C   UNL A   1      45.544  27.108  27.760  1.00  0.00    -0.014 A 
ATOM     52  C   UNL A   1      46.824  27.069  27.181  1.00  0.00     0.009 A 
ATOM     53  C   UNL A   1      44.467  27.535  26.970  1.00  0.00     0.009 A 
ATOM     54  C   UNL A   1      47.025  27.484  25.862  1.00  0.00     0.001 A 
ATOM     55  C   UNL A   1      44.664  27.927  25.644  1.00  0.00     0.001 A 
ATOM     56  C   UNL A   1      45.944  27.909  25.094  1.00  0.00     0.000 A 
ENDBRANCH  38  51
ENDBRANCH  12  13
ENDBRANCH   5   7
ENDBRANCH   2   3
ENDBRANCH   1   2
BRANCH   1  57
ATOM     57  C   UNL A   1      32.890  29.798  25.603  1.00  0.00     0.023 C 
BRANCH  57  58
ATOM     58  C   UNL A   1      31.408  29.712  25.256  1.00  0.00     0.116 C 
BRANCH  58  59
ATOM     59  N   UNL A   1      31.138  29.591  23.836  1.00  0.00    -0.351 N 
ATOM     60  C   UNL A   1      30.764  28.443  23.162  1.00  0.00     0.273 C 
ATOM     61  H   UNL A   1      31.229  30.411  23.298  1.00  0.00     0.163 HD
ATOM     62  O   UNL A   1      30.506  28.482  21.975  1.00  0.00    -0.267 OA
BRANCH  60  63
ATOM     63  C   UNL A   1      30.759  27.209  23.933  1.00  0.00     0.178 A 
ATOM     64  N   UNL A   1      29.570  26.643  24.299  1.00  0.00    -0.124 NA
ATOM     65  C   UNL A   1      31.815  26.389  24.319  1.00  0.00     0.122 A 
ATOM     66  N   UNL A   1      29.827  25.475  24.853  1.00  0.00    -0.061 NA
ATOM     67  N   UNL A   1      31.169  25.315  24.931  1.00  0.00    -0.213 N 
BRANCH  65  68
ATOM     68  C   UNL A   1      33.295  26.486  24.090  1.00  0.00     0.262 C 
ATOM     69  C   UNL A   1      33.735  26.117  22.672  1.00  0.00     0.281 C 
ATOM     70  O   UNL A   1      33.987  25.785  25.135  1.00  0.00    -0.477 OA
ATOM     71  O   UNL A   1      33.810  24.704  22.483  1.00  0.00    -0.485 OA
ATOM     72  C   UNL A   1      34.775  24.755  24.697  1.00  0.00     0.162 A 
ATOM     73  C   UNL A   1      34.622  24.166  23.443  1.00  0.00     0.161 A 
ATOM     74  C   UNL A   1      35.708  24.240  25.591  1.00  0.00     0.050 A 
ATOM     75  C   UNL A   1      35.292  22.987  23.129  1.00  0.00     0.050 A 
ATOM     76  C   UNL A   1      36.425  23.087  25.261  1.00  0.00     0.004 A 
ATOM     77  C   UNL A   1      36.192  22.441  24.045  1.00  0.00     0.004 A 
ENDBRANCH  65  68
BRANCH  67  78
ATOM     78  C   UNL A   1      31.683  24.116  25.489  1.00  0.00     0.068 A 
ATOM     79  C   UNL A   1      32.142  24.048  26.808  1.00  0.00     0.028 A 
ATOM     80  C   UNL A   1      31.752  22.979  24.669  1.00  0.00     0.044 A 
ATOM     81  C   UNL A   1      32.777  22.892  27.267  1.00  0.00     0.003 A 
ATOM     82  C   UNL A   1      32.389  21.832  25.137  1.00  0.00     0.020 A 
ATOM     83  C   UNL A   1      32.922  21.791  26.424  1.00  0.00     0.016 A 
ATOM     84  Br  UNL A   1      32.570  20.332  24.000  1.00  0.00    -0.051 Br
ENDBRANCH  67  78
ENDBRANCH  60  63
ENDBRANCH  58  59
ENDBRANCH  57  58
ENDBRANCH   1  57
TORSDOF 13
ENDMDL
MODEL 2
REMARK VINA RESULT:     -12.7      3.453      8.300
REMARK SMILES O=C(NCCCCNC(=O)c1nnn(-c2cccc(Br)c2)c1[C@@H]1COc2ccccc2O1)c1ccc(-c2c3nc(c(-c4ccccc4)c4ccc([nH]4)c(-c4ccccc4)c4nc(c(-c5ccccc5)c5ccc2[nH]5)C=C4)C=C3)cc1
REMARK SMILES IDX 5 1 4 2 3 3 1 4 2 5 33 7 34 8 80 9 35 10 79 11 36 12 37 13
REMARK SMILES IDX 38 14 73 15 39 16 78 17 72 18 74 19 40 20 77 21 71 22 70 23
REMARK SMILES IDX 41 25 63 26 48 27 62 28 49 29 52 30 61 31 75 32 50 33 51 34
REMARK SMILES IDX 60 36 76 37 53 38 42 39 43 40 47 41 44 42 46 43 45 44 64 45
REMARK SMILES IDX 65 46 69 47 66 48 68 49 67 50 54 51 55 52 59 53 56 54 58 55
REMARK SMILES IDX 57 56 6 57 7 58 8 59 9 60 10 62 11 63 12 64 22 65 13 66
REMARK SMILES IDX 14 67 23 68 24 69 32 70 25 71 31 72 26 73 30 74 27 75 29 76
REMARK SMILES IDX 28 77 15 78 16 79 21 80 17 81 19 82 18 83 20 84
REMARK H PARENT 3 6 74 24 52 35 8 61
REMARK Flexibility Score: inf
ROOT
ATOM      1  C   UNL A   1      37.716  22.361  25.259  1.00  0.00     0.023 C 
ENDROOT
BRANCH   1   2
ATOM      2  C   UNL A   1      38.554  23.056  26.325  1.00  0.00     0.116 C 
BRANCH   2   3
ATOM      3  N   UNL A   1      39.984  22.846  26.211  1.00  0.00    -0.352 N 
ATOM      4  O   UNL A   1      42.052  22.676  27.031  1.00  0.00    -0.269 OA
ATOM      5  C   UNL A   1      41.047  23.373  26.891  1.00  0.00     0.251 C 
ATOM      6  H   UNL A   1      40.238  22.202  25.512  1.00  0.00     0.163 HD
BRANCH   5   7
ATOM      7  C   UNL A   1      41.093  24.797  27.281  1.00  0.00     0.039 A 
ATOM      8  C   UNL A   1      41.452  25.254  28.547  1.00  0.00     0.014 A 
ATOM      9  C   UNL A   1      40.632  25.709  26.316  1.00  0.00     0.014 A 
ATOM     10  C   UNL A   1      41.219  26.572  28.891  1.00  0.00     0.010 A 
ATOM     11  C   UNL A   1      40.422  27.038  26.648  1.00  0.00     0.010 A 
ATOM     12  C   UNL A   1      40.670  27.449  27.955  1.00  0.00    -0.014 A 
BRANCH  12  13
ATOM     13  C   UNL A   1      40.503  28.829  28.379  1.00  0.00     0.031 A 
ATOM     14  C   UNL A   1      41.723  29.666  28.251  1.00  0.00     0.074 A 
ATOM     15  C   UNL A   1      39.330  29.350  28.780  1.00  0.00     0.049 A 
ATOM     16  N   UNL A   1      42.377  30.274  29.185  1.00  0.00    -0.248 NA
ATOM     17  C   UNL A   1      42.346  29.746  26.921  1.00  0.00     0.031 C 
ATOM     18  C   UNL A   1      38.003  28.740  28.691  1.00  0.00     0.029 A 
ATOM     19  N   UNL A   1      39.072  30.603  29.247  1.00  0.00    -0.354 N 
ATOM     20  C   UNL A   1      43.399  30.965  28.540  1.00  0.00     0.074 A 
ATOM     21  C   UNL A   1      43.419  30.492  27.179  1.00  0.00     0.031 C 
ATOM     22  C   UNL A   1      37.068  29.702  28.860  1.00  0.00     0.029 A 
ATOM     23  C   UNL A   1      37.732  30.953  29.189  1.00  0.00     0.049 A 
ATOM     24  H   UNL A   1      39.771  31.204  29.592  1.00  0.00     0.167 HD
ATOM     25  C   UNL A   1      43.987  32.059  29.098  1.00  0.00     0.031 A 
ATOM     26  C   UNL A   1      37.216  32.198  29.312  1.00  0.00     0.031 A 
ATOM     27  C   UNL A   1      43.795  32.113  30.524  1.00  0.00     0.049 A 
ATOM     28  C   UNL A   1      38.227  33.059  29.966  1.00  0.00     0.074 A 
ATOM     29  C   UNL A   1      44.094  31.288  31.590  1.00  0.00     0.029 A 
ATOM     30  N   UNL A   1      42.898  33.034  31.007  1.00  0.00    -0.354 N 
ATOM     31  N   UNL A   1      38.567  32.958  31.217  1.00  0.00    -0.248 NA
ATOM     32  C   UNL A   1      39.155  33.804  29.128  1.00  0.00     0.031 C 
ATOM     33  C   UNL A   1      43.021  31.466  32.513  1.00  0.00     0.029 A 
ATOM     34  C   UNL A   1      42.151  32.413  31.969  1.00  0.00     0.049 A 
ATOM     35  H   UNL A   1      42.809  33.969  30.714  1.00  0.00     0.167 HD
ATOM     36  C   UNL A   1      39.925  33.233  31.239  1.00  0.00     0.074 A 
ATOM     37  C   UNL A   1      40.201  33.869  29.954  1.00  0.00     0.031 C 
ATOM     38  C   UNL A   1      40.744  32.663  32.173  1.00  0.00     0.031 A 
BRANCH  25  39
ATOM     39  C   UNL A   1      44.310  33.299  28.290  1.00  0.00    -0.014 A 
ATOM     40  C   UNL A   1      45.593  33.866  28.417  1.00  0.00     0.009 A 
ATOM     41  C   UNL A   1      43.325  34.103  27.683  1.00  0.00     0.009 A 
ATOM     42  C   UNL A   1      45.835  35.203  28.077  1.00  0.00     0.001 A 
ATOM     43  C   UNL A   1      43.577  35.421  27.297  1.00  0.00     0.001 A 
ATOM     44  C   UNL A   1      44.821  35.985  27.533  1.00  0.00     0.000 A 
ENDBRANCH  25  39
BRANCH  26  45
ATOM     45  C   UNL A   1      36.008  32.752  28.668  1.00  0.00    -0.014 A 
ATOM     46  C   UNL A   1      35.067  31.908  28.060  1.00  0.00     0.009 A 
ATOM     47  C   UNL A   1      35.648  34.098  28.869  1.00  0.00     0.009 A 
ATOM     48  C   UNL A   1      33.802  32.388  27.696  1.00  0.00     0.001 A 
ATOM     49  C   UNL A   1      34.390  34.579  28.496  1.00  0.00     0.001 A 
ATOM     50  C   UNL A   1      33.461  33.719  27.923  1.00  0.00     0.000 A 
ENDBRANCH  26  45
BRANCH  38  51
ATOM     51  C   UNL A   1      40.103  31.984  33.355  1.00  0.00    -0.014 A 
ATOM     52  C   UNL A   1      39.914  32.624  34.592  1.00  0.00     0.009 A 
ATOM     53  C   UNL A   1      39.552  30.708  33.173  1.00  0.00     0.009 A 
ATOM     54  C   UNL A   1      39.228  31.986  35.629  1.00  0.00     0.001 A 
ATOM     55  C   UNL A   1      38.847  30.079  34.202  1.00  0.00     0.001 A 
ATOM     56  C   UNL A   1      38.692  30.716  35.432  1.00  0.00     0.000 A 
ENDBRANCH  38  51
ENDBRANCH  12  13
ENDBRANCH   5   7
ENDBRANCH   2   3
ENDBRANCH   1   2
BRANCH   1  57
ATOM     57  C   UNL A   1      36.375  21.798  25.744  1.00  0.00     0.023 C 
BRANCH  57  58
ATOM     58  C   UNL A   1      35.578  20.978  24.734  1.00  0.00     0.116 C 
BRANCH  58  59
ATOM     59  N   UNL A   1      34.344  20.428  25.260  1.00  0.00    -0.351 N 
ATOM     60  C   UNL A   1      33.062  20.859  24.975  1.00  0.00     0.273 C 
ATOM     61  H   UNL A   1      34.429  19.670  25.882  1.00  0.00     0.163 HD
ATOM     62  O   UNL A   1      32.099  20.274  25.433  1.00  0.00    -0.267 OA
BRANCH  60  63
ATOM     63  C   UNL A   1      32.945  22.060  24.162  1.00  0.00     0.178 A 
ATOM     64  N   UNL A   1      32.578  21.957  22.850  1.00  0.00    -0.124 NA
ATOM     65  C   UNL A   1      33.059  23.400  24.521  1.00  0.00     0.122 A 
ATOM     66  N   UNL A   1      32.403  23.176  22.378  1.00  0.00    -0.061 NA
ATOM     67  N   UNL A   1      32.737  24.068  23.340  1.00  0.00    -0.213 N 
BRANCH  65  68
ATOM     68  C   UNL A   1      33.343  24.064  25.836  1.00  0.00     0.262 C 
ATOM     69  C   UNL A   1      32.154  24.078  26.800  1.00  0.00     0.281 C 
ATOM     70  O   UNL A   1      33.941  25.349  25.604  1.00  0.00    -0.477 OA
ATOM     71  O   UNL A   1      31.222  25.114  26.489  1.00  0.00    -0.485 OA
ATOM     72  C   UNL A   1      33.231  26.403  26.111  1.00  0.00     0.162 A 
ATOM     73  C   UNL A   1      31.881  26.312  26.449  1.00  0.00     0.161 A 
ATOM     74  C   UNL A   1      33.885  27.626  26.207  1.00  0.00     0.050 A 
ATOM     75  C   UNL A   1      31.150  27.458  26.750  1.00  0.00     0.050 A 
ATOM     76  C   UNL A   1      33.167  28.772  26.561  1.00  0.00     0.004 A 
ATOM     77  C   UNL A   1      31.794  28.693  26.799  1.00  0.00     0.004 A 
ENDBRANCH  65  68
BRANCH  67  78
ATOM     78  C   UNL A   1      32.618  25.453  23.058  1.00  0.00     0.068 A 
ATOM     79  C   UNL A   1      33.724  26.240  22.722  1.00  0.00     0.028 A 
ATOM     80  C   UNL A   1      31.347  26.042  23.152  1.00  0.00     0.044 A 
ATOM     81  C   UNL A   1      33.584  27.625  22.601  1.00  0.00     0.003 A 
ATOM     82  C   UNL A   1      31.220  27.425  23.031  1.00  0.00     0.020 A 
ATOM     83  C   UNL A   1      32.336  28.220  22.779  1.00  0.00     0.016 A 
ATOM     84  Br  UNL A   1      29.525  28.231  23.255  1.00  0.00    -0.051 Br
ENDBRANCH  67  78
ENDBRANCH  60  63
ENDBRANCH  58  59
ENDBRANCH  57  58
ENDBRANCH   1  57
TORSDOF 13
ENDMDL
MODEL 3
REMARK VINA RESULT:     -12.6      2.699      7.399
REMARK SMILES O=C(NCCCCNC(=O)c1nnn(-c2cccc(Br)c2)c1[C@@H]1COc2ccccc2O1)c1ccc(-c2c3nc(c(-c4ccccc4)c4ccc([nH]4)c(-c4ccccc4)c4nc(c(-c5ccccc5)c5ccc2[nH]5)C=C4)C=C3)cc1
REMARK SMILES IDX 5 1 4 2 3 3 1 4 2 5 33 7 34 8 80 9 35 10 79 11 36 12 37 13
REMARK SMILES IDX 38 14 73 15 39 16 78 17 72 18 74 19 40 20 77 21 71 22 70 23
REMARK SMILES IDX 41 25 63 26 48 27 62 28 49 29 52 30 61 31 75 32 50 33 51 34
REMARK SMILES IDX 60 36 76 37 53 38 42 39 43 40 47 41 44 42 46 43 45 44 64 45
REMARK SMILES IDX 65 46 69 47 66 48 68 49 67 50 54 51 55 52 59 53 56 54 58 55
REMARK SMILES IDX 57 56 6 57 7 58 8 59 9 60 10 62 11 63 12 64 22 65 13 66
REMARK SMILES IDX 14 67 23 68 24 69 32 70 25 71 31 72 26 73 30 74 27 75 29 76
REMARK SMILES IDX 28 77 15 78 16 79 21 80 17 81 19 82 18 83 20 84
REMARK H PARENT 3 6 74 24 52 35 8 61
REMARK Flexibility Score: inf
ROOT
ATOM      1  C   UNL A   1      38.012  20.063  24.880  1.00  0.00     0.023 C 
ENDROOT
BRANCH   1   2
ATOM      2  C   UNL A   1      38.912  19.308  25.850  1.00  0.00     0.116 C 
BRANCH   2   3
ATOM      3  N   UNL A   1      40.251  19.044  25.361  1.00  0.00    -0.352 N 
ATOM      4  O   UNL A   1      42.392  18.466  25.607  1.00  0.00    -0.269 OA
ATOM      5  C   UNL A   1      41.486  19.242  25.913  1.00  0.00     0.251 C 
ATOM      6  H   UNL A   1      40.275  18.646  24.461  1.00  0.00     0.163 HD
BRANCH   5   7
ATOM      7  C   UNL A   1      41.804  20.453  26.696  1.00  0.00     0.039 A 
ATOM      8  C   UNL A   1      41.328  20.709  27.979  1.00  0.00     0.014 A 
ATOM      9  C   UNL A   1      42.550  21.436  26.022  1.00  0.00     0.014 A 
ATOM     10  C   UNL A   1      41.466  21.971  28.524  1.00  0.00     0.010 A 
ATOM     11  C   UNL A   1      42.715  22.697  26.575  1.00  0.00     0.010 A 
ATOM     12  C   UNL A   1      42.125  22.970  27.806  1.00  0.00    -0.014 A 
BRANCH  12  13
ATOM     13  C   UNL A   1      42.272  24.255  28.469  1.00  0.00     0.031 A 
ATOM     14  C   UNL A   1      41.225  25.250  28.125  1.00  0.00     0.074 A 
ATOM     15  C   UNL A   1      43.220  24.518  29.385  1.00  0.00     0.049 A 
ATOM     16  N   UNL A   1      41.371  26.402  27.557  1.00  0.00    -0.248 NA
ATOM     17  C   UNL A   1      39.825  24.858  28.351  1.00  0.00     0.031 C 
ATOM     18  C   UNL A   1      44.131  23.571  30.029  1.00  0.00     0.029 A 
ATOM     19  N   UNL A   1      43.481  25.693  30.023  1.00  0.00    -0.354 N 
ATOM     20  C   UNL A   1      40.099  26.965  27.514  1.00  0.00     0.074 A 
ATOM     21  C   UNL A   1      39.176  25.921  27.880  1.00  0.00     0.031 C 
ATOM     22  C   UNL A   1      44.666  24.155  31.123  1.00  0.00     0.029 A 
ATOM     23  C   UNL A   1      44.232  25.542  31.179  1.00  0.00     0.049 A 
ATOM     24  H   UNL A   1      43.167  26.566  29.696  1.00  0.00     0.167 HD
ATOM     25  C   UNL A   1      39.915  28.311  27.431  1.00  0.00     0.031 A 
ATOM     26  C   UNL A   1      44.408  26.464  32.154  1.00  0.00     0.031 A 
ATOM     27  C   UNL A   1      41.081  28.992  26.929  1.00  0.00     0.049 A 
ATOM     28  C   UNL A   1      44.068  27.795  31.604  1.00  0.00     0.074 A 
ATOM     29  C   UNL A   1      41.839  28.926  25.777  1.00  0.00     0.029 A 
ATOM     30  N   UNL A   1      41.833  29.706  27.829  1.00  0.00    -0.354 N 
ATOM     31  N   UNL A   1      44.794  28.425  30.727  1.00  0.00    -0.248 NA
ATOM     32  C   UNL A   1      42.703  28.280  31.746  1.00  0.00     0.031 C 
ATOM     33  C   UNL A   1      43.177  29.194  26.195  1.00  0.00     0.029 A 
ATOM     34  C   UNL A   1      43.148  29.439  27.569  1.00  0.00     0.049 A 
ATOM     35  H   UNL A   1      41.488  30.302  28.532  1.00  0.00     0.167 HD
ATOM     36  C   UNL A   1      43.879  29.075  29.913  1.00  0.00     0.074 A 
ATOM     37  C   UNL A   1      42.626  29.055  30.662  1.00  0.00     0.031 C 
ATOM     38  C   UNL A   1      44.156  29.313  28.595  1.00  0.00     0.031 A 
BRANCH  25  39
ATOM     39  C   UNL A   1      38.864  29.032  28.250  1.00  0.00    -0.014 A 
ATOM     40  C   UNL A   1      38.881  28.879  29.649  1.00  0.00     0.009 A 
ATOM     41  C   UNL A   1      37.687  29.571  27.692  1.00  0.00     0.009 A 
ATOM     42  C   UNL A   1      37.741  29.126  30.423  1.00  0.00     0.001 A 
ATOM     43  C   UNL A   1      36.565  29.866  28.468  1.00  0.00     0.001 A 
ATOM     44  C   UNL A   1      36.578  29.603  29.829  1.00  0.00     0.000 A 
ENDBRANCH  25  39
BRANCH  26  45
ATOM     45  C   UNL A   1      44.601  26.235  33.601  1.00  0.00    -0.014 A 
ATOM     46  C   UNL A   1      43.785  25.334  34.301  1.00  0.00     0.009 A 
ATOM     47  C   UNL A   1      45.754  26.715  34.249  1.00  0.00     0.009 A 
ATOM     48  C   UNL A   1      44.129  24.906  35.590  1.00  0.00     0.001 A 
ATOM     49  C   UNL A   1      46.091  26.298  35.539  1.00  0.00     0.001 A 
ATOM     50  C   UNL A   1      45.286  25.381  36.204  1.00  0.00     0.000 A 
ENDBRANCH  26  45
BRANCH  38  51
ATOM     51  C   UNL A   1      45.576  29.138  28.127  1.00  0.00    -0.014 A 
ATOM     52  C   UNL A   1      46.507  30.190  28.105  1.00  0.00     0.009 A 
ATOM     53  C   UNL A   1      46.025  27.843  27.830  1.00  0.00     0.009 A 
ATOM     54  C   UNL A   1      47.840  29.957  27.753  1.00  0.00     0.001 A 
ATOM     55  C   UNL A   1      47.362  27.607  27.501  1.00  0.00     0.001 A 
ATOM     56  C   UNL A   1      48.266  28.665  27.455  1.00  0.00     0.000 A 
ENDBRANCH  38  51
ENDBRANCH  12  13
ENDBRANCH   5   7
ENDBRANCH   2   3
ENDBRANCH   1   2
BRANCH   1  57
ATOM     57  C   UNL A   1      36.580  19.528  24.764  1.00  0.00     0.023 C 
BRANCH  57  58
ATOM     58  C   UNL A   1      35.459  20.551  24.918  1.00  0.00     0.116 C 
BRANCH  58  59
ATOM     59  N   UNL A   1      34.211  19.995  25.404  1.00  0.00    -0.351 N 
ATOM     60  C   UNL A   1      32.936  20.401  25.057  1.00  0.00     0.273 C 
ATOM     61  H   UNL A   1      34.280  19.252  26.047  1.00  0.00     0.163 HD
ATOM     62  O   UNL A   1      31.964  19.812  25.488  1.00  0.00    -0.267 OA
BRANCH  60  63
ATOM     63  C   UNL A   1      32.837  21.581  24.212  1.00  0.00     0.178 A 
ATOM     64  N   UNL A   1      32.464  21.450  22.904  1.00  0.00    -0.124 NA
ATOM     65  C   UNL A   1      32.975  22.928  24.535  1.00  0.00     0.122 A 
ATOM     66  N   UNL A   1      32.308  22.659  22.400  1.00  0.00    -0.061 NA
ATOM     67  N   UNL A   1      32.661  23.570  23.337  1.00  0.00    -0.213 N 
BRANCH  65  68
ATOM     68  C   UNL A   1      33.275  23.622  25.831  1.00  0.00     0.262 C 
ATOM     69  C   UNL A   1      32.094  23.670  26.803  1.00  0.00     0.281 C 
ATOM     70  O   UNL A   1      33.882  24.896  25.563  1.00  0.00    -0.477 OA
ATOM     71  O   UNL A   1      31.168  24.706  26.475  1.00  0.00    -0.485 OA
ATOM     72  C   UNL A   1      33.184  25.968  26.049  1.00  0.00     0.162 A 
ATOM     73  C   UNL A   1      31.837  25.897  26.400  1.00  0.00     0.161 A 
ATOM     74  C   UNL A   1      33.849  27.188  26.110  1.00  0.00     0.050 A 
ATOM     75  C   UNL A   1      31.117  27.056  26.677  1.00  0.00     0.050 A 
ATOM     76  C   UNL A   1      33.143  28.348  26.441  1.00  0.00     0.004 A 
ATOM     77  C   UNL A   1      31.771  28.287  26.691  1.00  0.00     0.004 A 
ENDBRANCH  65  68
BRANCH  67  78
ATOM     78  C   UNL A   1      32.565  24.949  23.019  1.00  0.00     0.068 A 
ATOM     79  C   UNL A   1      33.677  25.701  22.629  1.00  0.00     0.028 A 
ATOM     80  C   UNL A   1      31.310  25.570  23.132  1.00  0.00     0.044 A 
ATOM     81  C   UNL A   1      33.564  27.084  22.472  1.00  0.00     0.003 A 
ATOM     82  C   UNL A   1      31.210  26.951  22.975  1.00  0.00     0.020 A 
ATOM     83  C   UNL A   1      32.336  27.713  22.668  1.00  0.00     0.016 A 
ATOM     84  Br  UNL A   1      29.541  27.802  23.223  1.00  0.00    -0.051 Br
ENDBRANCH  67  78
ENDBRANCH  60  63
ENDBRANCH  58  59
ENDBRANCH  57  58
ENDBRANCH   1  57
TORSDOF 13
ENDMDL
