MODEL 1
REMARK VINA RESULT:     -11.3      0.000      0.000
REMARK SMILES CCc1cccc(-c2ccc([C@@H](C)C(=O)NCCCCNC(=O)c3ccc(-c4c5nc(c(-c6ccccc6)c6ccc([nH]6)c(-c6ccccc6)c6nc(c(-c7ccccc7)c7ccc4[nH]7)C=C6)C=C5)cc3)cc2)c1
REMARK SMILES IDX 18 1 17 2 16 3 14 4 15 5 12 7 13 8 11 9 8 10 9 11 73 12
REMARK SMILES IDX 10 13 72 14 7 15 3 16 4 17 74 18 5 19 6 20 2 21 1 22 19 23
REMARK SMILES IDX 20 24 21 25 22 26 23 28 24 29 25 30 71 31 26 32 70 33 27 34
REMARK SMILES IDX 28 35 29 36 64 37 30 38 69 39 63 40 65 41 31 42 68 43 62 44
REMARK SMILES IDX 61 45 32 47 54 48 39 49 53 50 40 51 43 52 52 53 66 54 41 55
REMARK SMILES IDX 42 56 51 58 67 59 44 60 33 61 34 62 38 63 35 64 37 65 36 66
REMARK SMILES IDX 55 67 56 68 60 69 57 70 59 71 58 72 45 73 46 74 50 75 47 76
REMARK SMILES IDX 49 77 48 78
REMARK H PARENT 16 6 21 27 65 46 43 57
REMARK Flexibility Score: inf
ROOT
ATOM      1  C   UNL A   1      32.336  29.352  25.134  1.00  0.00     0.023 C 
ENDROOT
BRANCH   1   2
ATOM      2  C   UNL A   1      30.903  29.768  24.798  1.00  0.00     0.116 C 
BRANCH   2   3
ATOM      3  N   UNL A   1      30.718  29.998  23.381  1.00  0.00    -0.356 N 
ATOM      4  C   UNL A   1      30.037  29.287  22.439  1.00  0.00     0.227 C 
ATOM      5  O   UNL A   1      30.119  29.700  21.275  1.00  0.00    -0.274 OA
ATOM      6  H   UNL A   1      31.160  30.808  23.039  1.00  0.00     0.163 HD
BRANCH   4   7
ATOM      7  C   UNL A   1      29.190  28.044  22.755  1.00  0.00     0.105 C 
ATOM      8  C   UNL A   1      27.779  28.364  23.250  1.00  0.00     0.023 C 
BRANCH   7   9
ATOM      9  C   UNL A   1      29.953  26.979  23.525  1.00  0.00    -0.036 A 
ATOM     10  C   UNL A   1      31.581  25.142  25.009  1.00  0.00    -0.018 A 
ATOM     11  C   UNL A   1      30.316  25.552  25.466  1.00  0.00     0.009 A 
ATOM     12  C   UNL A   1      31.980  25.638  23.758  1.00  0.00     0.009 A 
ATOM     13  C   UNL A   1      29.505  26.424  24.725  1.00  0.00     0.005 A 
ATOM     14  C   UNL A   1      31.198  26.554  23.042  1.00  0.00     0.005 A 
BRANCH  10  15
ATOM     15  C   UNL A   1      32.454  24.248  25.816  1.00  0.00    -0.018 A 
ATOM     16  C   UNL A   1      34.690  23.325  26.326  1.00  0.00    -0.048 A 
ATOM     17  C   UNL A   1      34.134  22.564  27.359  1.00  0.00     0.004 A 
ATOM     18  C   UNL A   1      33.842  24.156  25.573  1.00  0.00     0.012 A 
ATOM     19  C   UNL A   1      32.771  22.636  27.630  1.00  0.00     0.001 A 
ATOM     20  C   UNL A   1      31.943  23.461  26.863  1.00  0.00     0.009 A 
BRANCH  16  21
ATOM     21  C   UNL A   1      36.157  23.176  25.994  1.00  0.00     0.032 C 
ATOM     22  C   UNL A   1      36.558  23.692  24.618  1.00  0.00     0.009 C 
ENDBRANCH  16  21
ENDBRANCH  10  15
ENDBRANCH   7   9
ENDBRANCH   4   7
ENDBRANCH   2   3
ENDBRANCH   1   2
BRANCH   1  23
ATOM     23  C   UNL A   1      32.471  28.403  26.322  1.00  0.00     0.023 C 
BRANCH  23  24
ATOM     24  C   UNL A   1      33.614  28.718  27.279  1.00  0.00     0.116 C 
BRANCH  24  25
ATOM     25  N   UNL A   1      33.635  30.094  27.753  1.00  0.00    -0.352 N 
ATOM     26  C   UNL A   1      34.693  30.778  28.312  1.00  0.00     0.251 C 
ATOM     27  H   UNL A   1      32.794  30.597  27.663  1.00  0.00     0.163 HD
ATOM     28  O   UNL A   1      34.557  31.920  28.731  1.00  0.00    -0.269 OA
BRANCH  26  29
ATOM     29  C   UNL A   1      35.989  30.083  28.446  1.00  0.00     0.039 A 
ATOM     30  C   UNL A   1      36.882  30.105  27.373  1.00  0.00     0.014 A 
ATOM     31  C   UNL A   1      36.348  29.493  29.660  1.00  0.00     0.014 A 
ATOM     32  C   UNL A   1      38.176  29.609  27.546  1.00  0.00     0.010 A 
ATOM     33  C   UNL A   1      37.655  29.067  29.852  1.00  0.00     0.010 A 
ATOM     34  C   UNL A   1      38.584  29.129  28.800  1.00  0.00    -0.014 A 
BRANCH  34  35
ATOM     35  C   UNL A   1      39.976  28.686  29.052  1.00  0.00     0.031 A 
ATOM     36  C   UNL A   1      40.983  29.664  29.585  1.00  0.00     0.074 A 
ATOM     37  C   UNL A   1      40.360  27.445  28.698  1.00  0.00     0.049 A 
ATOM     38  N   UNL A   1      42.275  29.521  29.733  1.00  0.00    -0.248 NA
ATOM     39  C   UNL A   1      40.473  30.991  29.962  1.00  0.00     0.031 C 
ATOM     40  C   UNL A   1      39.491  26.417  28.122  1.00  0.00     0.029 A 
ATOM     41  N   UNL A   1      41.594  26.847  28.750  1.00  0.00    -0.354 N 
ATOM     42  C   UNL A   1      42.736  30.750  30.187  1.00  0.00     0.074 A 
ATOM     43  C   UNL A   1      41.594  31.636  30.249  1.00  0.00     0.031 C 
ATOM     44  C   UNL A   1      40.217  25.312  27.883  1.00  0.00     0.029 A 
ATOM     45  C   UNL A   1      41.605  25.566  28.254  1.00  0.00     0.049 A 
ATOM     46  H   UNL A   1      42.395  27.293  29.108  1.00  0.00     0.167 HD
ATOM     47  C   UNL A   1      43.994  31.107  30.535  1.00  0.00     0.031 A 
ATOM     48  C   UNL A   1      42.623  24.698  28.101  1.00  0.00     0.031 A 
ATOM     49  C   UNL A   1      45.125  30.220  30.498  1.00  0.00     0.049 A 
ATOM     50  C   UNL A   1      44.006  25.102  28.521  1.00  0.00     0.074 A 
ATOM     51  C   UNL A   1      46.428  30.465  30.893  1.00  0.00     0.029 A 
ATOM     52  N   UNL A   1      45.082  28.912  30.041  1.00  0.00    -0.354 N 
ATOM     53  N   UNL A   1      44.417  26.249  29.007  1.00  0.00    -0.248 NA
ATOM     54  C   UNL A   1      45.063  24.090  28.386  1.00  0.00     0.031 C 
ATOM     55  C   UNL A   1      47.182  29.313  30.645  1.00  0.00     0.029 A 
ATOM     56  C   UNL A   1      46.339  28.340  30.132  1.00  0.00     0.049 A 
ATOM     57  H   UNL A   1      44.278  28.459  29.700  1.00  0.00     0.167 HD
ATOM     58  C   UNL A   1      45.774  26.091  29.254  1.00  0.00     0.074 A 
ATOM     59  C   UNL A   1      46.115  24.734  28.874  1.00  0.00     0.031 C 
ATOM     60  C   UNL A   1      46.657  26.989  29.753  1.00  0.00     0.031 A 
BRANCH  47  61
ATOM     61  C   UNL A   1      44.202  32.527  30.978  1.00  0.00    -0.014 A 
ATOM     62  C   UNL A   1      44.483  33.544  30.051  1.00  0.00     0.009 A 
ATOM     63  C   UNL A   1      44.125  32.852  32.341  1.00  0.00     0.009 A 
ATOM     64  C   UNL A   1      44.731  34.847  30.485  1.00  0.00     0.001 A 
ATOM     65  C   UNL A   1      44.345  34.162  32.769  1.00  0.00     0.001 A 
ATOM     66  C   UNL A   1      44.661  35.155  31.843  1.00  0.00     0.000 A 
ENDBRANCH  47  61
BRANCH  48  67
ATOM     67  C   UNL A   1      42.359  23.351  27.535  1.00  0.00    -0.014 A 
ATOM     68  C   UNL A   1      41.860  22.325  28.352  1.00  0.00     0.009 A 
ATOM     69  C   UNL A   1      42.580  23.092  26.174  1.00  0.00     0.009 A 
ATOM     70  C   UNL A   1      41.601  21.060  27.820  1.00  0.00     0.001 A 
ATOM     71  C   UNL A   1      42.299  21.831  25.640  1.00  0.00     0.001 A 
ATOM     72  C   UNL A   1      41.816  20.816  26.463  1.00  0.00     0.000 A 
ENDBRANCH  48  67
BRANCH  60  73
ATOM     73  C   UNL A   1      48.072  26.526  29.949  1.00  0.00    -0.014 A 
ATOM     74  C   UNL A   1      48.486  25.953  31.160  1.00  0.00     0.009 A 
ATOM     75  C   UNL A   1      48.982  26.610  28.885  1.00  0.00     0.009 A 
ATOM     76  C   UNL A   1      49.794  25.489  31.308  1.00  0.00     0.001 A 
ATOM     77  C   UNL A   1      50.282  26.126  29.028  1.00  0.00     0.001 A 
ATOM     78  C   UNL A   1      50.689  25.571  30.241  1.00  0.00     0.000 A 
ENDBRANCH  60  73
ENDBRANCH  34  35
ENDBRANCH  26  29
ENDBRANCH  24  25
ENDBRANCH  23  24
ENDBRANCH   1  23
TORSDOF 14
ENDMDL
MODEL 2
REMARK VINA RESULT:     -10.9      3.542      7.367
REMARK SMILES CCc1cccc(-c2ccc([C@@H](C)C(=O)NCCCCNC(=O)c3ccc(-c4c5nc(c(-c6ccccc6)c6ccc([nH]6)c(-c6ccccc6)c6nc(c(-c7ccccc7)c7ccc4[nH]7)C=C6)C=C5)cc3)cc2)c1
REMARK SMILES IDX 18 1 17 2 16 3 14 4 15 5 12 7 13 8 11 9 8 10 9 11 73 12
REMARK SMILES IDX 10 13 72 14 7 15 3 16 4 17 74 18 5 19 6 20 2 21 1 22 19 23
REMARK SMILES IDX 20 24 21 25 22 26 23 28 24 29 25 30 71 31 26 32 70 33 27 34
REMARK SMILES IDX 28 35 29 36 64 37 30 38 69 39 63 40 65 41 31 42 68 43 62 44
REMARK SMILES IDX 61 45 32 47 54 48 39 49 53 50 40 51 43 52 52 53 66 54 41 55
REMARK SMILES IDX 42 56 51 58 67 59 44 60 33 61 34 62 38 63 35 64 37 65 36 66
REMARK SMILES IDX 55 67 56 68 60 69 57 70 59 71 58 72 45 73 46 74 50 75 47 76
REMARK SMILES IDX 49 77 48 78
REMARK H PARENT 16 6 21 27 65 46 43 57
REMARK Flexibility Score: inf
ROOT
ATOM      1  C   UNL A   1      35.929  33.569  30.471  1.00  0.00     0.023 C 
ENDROOT
BRANCH   1   2
ATOM      2  C   UNL A   1      37.062  32.787  31.137  1.00  0.00     0.116 C 
BRANCH   2   3
ATOM      3  N   UNL A   1      37.851  33.615  32.025  1.00  0.00    -0.356 N 
ATOM      4  C   UNL A   1      38.382  33.359  33.253  1.00  0.00     0.227 C 
ATOM      5  O   UNL A   1      38.957  34.303  33.809  1.00  0.00    -0.274 OA
ATOM      6  H   UNL A   1      38.035  34.519  31.682  1.00  0.00     0.163 HD
BRANCH   4   7
ATOM      7  C   UNL A   1      38.308  31.989  33.946  1.00  0.00     0.105 C 
ATOM      8  C   UNL A   1      37.756  32.043  35.371  1.00  0.00     0.023 C 
BRANCH   7   9
ATOM      9  C   UNL A   1      39.552  31.142  33.732  1.00  0.00    -0.036 A 
ATOM     10  C   UNL A   1      41.939  29.560  33.580  1.00  0.00    -0.018 A 
ATOM     11  C   UNL A   1      40.682  29.045  33.221  1.00  0.00     0.009 A 
ATOM     12  C   UNL A   1      41.971  30.910  33.965  1.00  0.00     0.009 A 
ATOM     13  C   UNL A   1      39.518  29.827  33.262  1.00  0.00     0.005 A 
ATOM     14  C   UNL A   1      40.803  31.678  34.063  1.00  0.00     0.005 A 
BRANCH  10  15
ATOM     15  C   UNL A   1      43.164  28.715  33.572  1.00  0.00    -0.018 A 
ATOM     16  C   UNL A   1      44.293  26.579  33.051  1.00  0.00    -0.048 A 
ATOM     17  C   UNL A   1      45.496  27.103  33.534  1.00  0.00     0.004 A 
ATOM     18  C   UNL A   1      43.147  27.394  33.077  1.00  0.00     0.012 A 
ATOM     19  C   UNL A   1      45.549  28.405  34.024  1.00  0.00     0.001 A 
ATOM     20  C   UNL A   1      44.397  29.195  34.050  1.00  0.00     0.009 A 
BRANCH  16  21
ATOM     21  C   UNL A   1      44.234  25.139  32.596  1.00  0.00     0.032 C 
ATOM     22  C   UNL A   1      45.461  24.306  32.944  1.00  0.00     0.009 C 
ENDBRANCH  16  21
ENDBRANCH  10  15
ENDBRANCH   7   9
ENDBRANCH   4   7
ENDBRANCH   2   3
ENDBRANCH   1   2
BRANCH   1  23
ATOM     23  C   UNL A   1      34.766  32.719  29.967  1.00  0.00     0.023 C 
BRANCH  23  24
ATOM     24  C   UNL A   1      34.653  32.601  28.452  1.00  0.00     0.116 C 
BRANCH  24  25
ATOM     25  N   UNL A   1      33.991  31.388  27.994  1.00  0.00    -0.352 N 
ATOM     26  C   UNL A   1      34.536  30.129  27.862  1.00  0.00     0.251 C 
ATOM     27  H   UNL A   1      33.042  31.477  27.751  1.00  0.00     0.163 HD
ATOM     28  O   UNL A   1      33.881  29.203  27.400  1.00  0.00    -0.269 OA
BRANCH  26  29
ATOM     29  C   UNL A   1      35.949  29.929  28.239  1.00  0.00     0.039 A 
ATOM     30  C   UNL A   1      36.248  29.484  29.529  1.00  0.00     0.014 A 
ATOM     31  C   UNL A   1      36.960  30.097  27.291  1.00  0.00     0.014 A 
ATOM     32  C   UNL A   1      37.559  29.121  29.843  1.00  0.00     0.010 A 
ATOM     33  C   UNL A   1      38.248  29.668  27.583  1.00  0.00     0.010 A 
ATOM     34  C   UNL A   1      38.557  29.168  28.858  1.00  0.00    -0.014 A 
BRANCH  34  35
ATOM     35  C   UNL A   1      39.939  28.699  29.122  1.00  0.00     0.031 A 
ATOM     36  C   UNL A   1      40.960  29.658  29.663  1.00  0.00     0.074 A 
ATOM     37  C   UNL A   1      40.303  27.450  28.772  1.00  0.00     0.049 A 
ATOM     38  N   UNL A   1      42.247  29.492  29.823  1.00  0.00    -0.248 NA
ATOM     39  C   UNL A   1      40.472  30.996  30.034  1.00  0.00     0.031 C 
ATOM     40  C   UNL A   1      39.420  26.439  28.190  1.00  0.00     0.029 A 
ATOM     41  N   UNL A   1      41.525  26.830  28.836  1.00  0.00    -0.354 N 
ATOM     42  C   UNL A   1      42.727  30.713  30.279  1.00  0.00     0.074 A 
ATOM     43  C   UNL A   1      41.601  31.620  30.331  1.00  0.00     0.031 C 
ATOM     44  C   UNL A   1      40.127  25.320  27.957  1.00  0.00     0.029 A 
ATOM     45  C   UNL A   1      41.517  25.549  28.340  1.00  0.00     0.049 A 
ATOM     46  H   UNL A   1      42.331  27.261  29.200  1.00  0.00     0.167 HD
ATOM     47  C   UNL A   1      43.989  31.046  30.638  1.00  0.00     0.031 A 
ATOM     48  C   UNL A   1      42.519  24.662  28.197  1.00  0.00     0.031 A 
ATOM     49  C   UNL A   1      45.103  30.138  30.611  1.00  0.00     0.049 A 
ATOM     50  C   UNL A   1      43.906  25.040  28.629  1.00  0.00     0.074 A 
ATOM     51  C   UNL A   1      46.407  30.360  31.018  1.00  0.00     0.029 A 
ATOM     52  N   UNL A   1      45.040  28.831  30.155  1.00  0.00    -0.354 N 
ATOM     53  N   UNL A   1      44.334  26.180  29.117  1.00  0.00    -0.248 NA
ATOM     54  C   UNL A   1      44.945  24.009  28.504  1.00  0.00     0.031 C 
ATOM     55  C   UNL A   1      47.141  29.193  30.777  1.00  0.00     0.029 A 
ATOM     56  C   UNL A   1      46.285  28.236  30.258  1.00  0.00     0.049 A 
ATOM     57  H   UNL A   1      44.230  28.392  29.807  1.00  0.00     0.167 HD
ATOM     58  C   UNL A   1      45.686  25.996  29.376  1.00  0.00     0.074 A 
ATOM     59  C   UNL A   1      46.005  24.633  29.001  1.00  0.00     0.031 C 
ATOM     60  C   UNL A   1      46.581  26.878  29.882  1.00  0.00     0.031 A 
BRANCH  47  61
ATOM     61  C   UNL A   1      44.219  32.463  31.081  1.00  0.00    -0.014 A 
ATOM     62  C   UNL A   1      44.095  32.831  32.431  1.00  0.00     0.009 A 
ATOM     63  C   UNL A   1      44.555  33.444  30.136  1.00  0.00     0.009 A 
ATOM     64  C   UNL A   1      44.255  34.162  32.817  1.00  0.00     0.001 A 
ATOM     65  C   UNL A   1      44.742  34.770  30.531  1.00  0.00     0.001 A 
ATOM     66  C   UNL A   1      44.580  35.131  31.867  1.00  0.00     0.000 A 
ENDBRANCH  47  61
BRANCH  48  67
ATOM     67  C   UNL A   1      42.236  23.319  27.630  1.00  0.00    -0.014 A 
ATOM     68  C   UNL A   1      41.694  22.309  28.439  1.00  0.00     0.009 A 
ATOM     69  C   UNL A   1      42.481  23.049  26.276  1.00  0.00     0.009 A 
ATOM     70  C   UNL A   1      41.416  21.049  27.905  1.00  0.00     0.001 A 
ATOM     71  C   UNL A   1      42.181  21.794  25.739  1.00  0.00     0.001 A 
ATOM     72  C   UNL A   1      41.655  20.794  26.555  1.00  0.00     0.000 A 
ENDBRANCH  48  67
BRANCH  60  73
ATOM     73  C   UNL A   1      47.986  26.390  30.091  1.00  0.00    -0.014 A 
ATOM     74  C   UNL A   1      48.407  25.906  31.338  1.00  0.00     0.009 A 
ATOM     75  C   UNL A   1      48.876  26.357  29.007  1.00  0.00     0.009 A 
ATOM     76  C   UNL A   1      49.704  25.415  31.500  1.00  0.00     0.001 A 
ATOM     77  C   UNL A   1      50.164  25.847  29.167  1.00  0.00     0.001 A 
ATOM     78  C   UNL A   1      50.578  25.381  30.415  1.00  0.00     0.000 A 
ENDBRANCH  60  73
ENDBRANCH  34  35
ENDBRANCH  26  29
ENDBRANCH  24  25
ENDBRANCH  23  24
ENDBRANCH   1  23
TORSDOF 14
ENDMDL
MODEL 3
REMARK VINA RESULT:     -10.8      3.200      7.882
REMARK SMILES CCc1cccc(-c2ccc([C@@H](C)C(=O)NCCCCNC(=O)c3ccc(-c4c5nc(c(-c6ccccc6)c6ccc([nH]6)c(-c6ccccc6)c6nc(c(-c7ccccc7)c7ccc4[nH]7)C=C6)C=C5)cc3)cc2)c1
REMARK SMILES IDX 18 1 17 2 16 3 14 4 15 5 12 7 13 8 11 9 8 10 9 11 73 12
REMARK SMILES IDX 10 13 72 14 7 15 3 16 4 17 74 18 5 19 6 20 2 21 1 22 19 23
REMARK SMILES IDX 20 24 21 25 22 26 23 28 24 29 25 30 71 31 26 32 70 33 27 34
REMARK SMILES IDX 28 35 29 36 64 37 30 38 69 39 63 40 65 41 31 42 68 43 62 44
REMARK SMILES IDX 61 45 32 47 54 48 39 49 53 50 40 51 43 52 52 53 66 54 41 55
REMARK SMILES IDX 42 56 51 58 67 59 44 60 33 61 34 62 38 63 35 64 37 65 36 66
REMARK SMILES IDX 55 67 56 68 60 69 57 70 59 71 58 72 45 73 46 74 50 75 47 76
REMARK SMILES IDX 49 77 48 78
REMARK H PARENT 16 6 21 27 65 46 43 57
REMARK Flexibility Score: inf
ROOT
ATOM      1  C   UNL A   1      36.545  20.906  25.458  1.00  0.00     0.023 C 
ENDROOT
BRANCH   1   2
ATOM      2  C   UNL A   1      35.325  20.531  24.616  1.00  0.00     0.116 C 
BRANCH   2   3
ATOM      3  N   UNL A   1      34.424  19.645  25.322  1.00  0.00    -0.356 N 
ATOM      4  C   UNL A   1      33.103  19.372  25.131  1.00  0.00     0.227 C 
ATOM      5  O   UNL A   1      32.576  18.612  25.953  1.00  0.00    -0.274 OA
ATOM      6  H   UNL A   1      34.837  19.155  26.069  1.00  0.00     0.163 HD
BRANCH   4   7
ATOM      7  C   UNL A   1      32.273  19.941  23.969  1.00  0.00     0.105 C 
ATOM      8  C   UNL A   1      32.349  19.111  22.687  1.00  0.00     0.023 C 
BRANCH   7   9
ATOM      9  C   UNL A   1      32.416  21.446  23.812  1.00  0.00    -0.036 A 
ATOM     10  C   UNL A   1      32.897  24.270  23.660  1.00  0.00    -0.018 A 
ATOM     11  C   UNL A   1      32.908  23.451  22.517  1.00  0.00     0.009 A 
ATOM     12  C   UNL A   1      32.582  23.638  24.874  1.00  0.00     0.009 A 
ATOM     13  C   UNL A   1      32.640  22.076  22.586  1.00  0.00     0.005 A 
ATOM     14  C   UNL A   1      32.371  22.255  24.954  1.00  0.00     0.005 A 
BRANCH  10  15
ATOM     15  C   UNL A   1      33.220  25.720  23.589  1.00  0.00    -0.018 A 
ATOM     16  C   UNL A   1      33.762  27.854  24.713  1.00  0.00    -0.048 A 
ATOM     17  C   UNL A   1      33.856  28.480  23.467  1.00  0.00     0.004 A 
ATOM     18  C   UNL A   1      33.447  26.484  24.754  1.00  0.00     0.012 A 
ATOM     19  C   UNL A   1      33.645  27.755  22.298  1.00  0.00     0.001 A 
ATOM     20  C   UNL A   1      33.323  26.397  22.360  1.00  0.00     0.009 A 
BRANCH  16  21
ATOM     21  C   UNL A   1      33.917  28.672  25.974  1.00  0.00     0.032 C 
ATOM     22  C   UNL A   1      32.888  28.378  27.059  1.00  0.00     0.009 C 
ENDBRANCH  16  21
ENDBRANCH  10  15
ENDBRANCH   7   9
ENDBRANCH   4   7
ENDBRANCH   2   3
ENDBRANCH   1   2
BRANCH   1  23
ATOM     23  C   UNL A   1      37.884  20.420  24.909  1.00  0.00     0.023 C 
BRANCH  23  24
ATOM     24  C   UNL A   1      39.082  20.638  25.825  1.00  0.00     0.116 C 
BRANCH  24  25
ATOM     25  N   UNL A   1      40.061  19.561  25.795  1.00  0.00    -0.352 N 
ATOM     26  C   UNL A   1      41.394  19.624  26.139  1.00  0.00     0.251 C 
ATOM     27  H   UNL A   1      39.732  18.684  25.494  1.00  0.00     0.163 HD
ATOM     28  O   UNL A   1      42.128  18.653  26.004  1.00  0.00    -0.269 OA
BRANCH  26  29
ATOM     29  C   UNL A   1      41.937  20.908  26.626  1.00  0.00     0.039 A 
ATOM     30  C   UNL A   1      42.443  21.823  25.701  1.00  0.00     0.014 A 
ATOM     31  C   UNL A   1      41.860  21.233  27.983  1.00  0.00     0.014 A 
ATOM     32  C   UNL A   1      42.793  23.106  26.126  1.00  0.00     0.010 A 
ATOM     33  C   UNL A   1      42.141  22.530  28.390  1.00  0.00     0.010 A 
ATOM     34  C   UNL A   1      42.601  23.481  27.465  1.00  0.00    -0.014 A 
BRANCH  34  35
ATOM     35  C   UNL A   1      42.867  24.862  27.935  1.00  0.00     0.031 A 
ATOM     36  C   UNL A   1      44.253  25.246  28.368  1.00  0.00     0.074 A 
ATOM     37  C   UNL A   1      41.848  25.730  28.081  1.00  0.00     0.049 A 
ATOM     38  N   UNL A   1      44.663  26.345  28.946  1.00  0.00    -0.248 NA
ATOM     39  C   UNL A   1      45.308  24.243  28.157  1.00  0.00     0.031 C 
ATOM     40  C   UNL A   1      40.448  25.462  27.747  1.00  0.00     0.029 A 
ATOM     41  N   UNL A   1      41.834  27.010  28.574  1.00  0.00    -0.354 N 
ATOM     42  C   UNL A   1      46.015  26.151  29.199  1.00  0.00     0.074 A 
ATOM     43  C   UNL A   1      46.344  24.816  28.750  1.00  0.00     0.031 C 
ATOM     44  C   UNL A   1      39.713  26.549  28.036  1.00  0.00     0.029 A 
ATOM     45  C   UNL A   1      40.582  27.573  28.607  1.00  0.00     0.049 A 
ATOM     46  H   UNL A   1      42.644  27.481  28.876  1.00  0.00     0.167 HD
ATOM     47  C   UNL A   1      46.907  27.012  29.743  1.00  0.00     0.031 A 
ATOM     48  C   UNL A   1      40.175  28.773  29.061  1.00  0.00     0.031 A 
ATOM     49  C   UNL A   1      46.586  28.348  30.166  1.00  0.00     0.049 A 
ATOM     50  C   UNL A   1      41.185  29.726  29.632  1.00  0.00     0.074 A 
ATOM     51  C   UNL A   1      47.432  29.321  30.667  1.00  0.00     0.029 A 
ATOM     52  N   UNL A   1      45.314  28.899  30.130  1.00  0.00    -0.354 N 
ATOM     53  N   UNL A   1      42.473  29.552  29.810  1.00  0.00    -0.248 NA
ATOM     54  C   UNL A   1      40.690  31.043  30.054  1.00  0.00     0.031 C 
ATOM     55  C   UNL A   1      46.664  30.452  30.965  1.00  0.00     0.029 A 
ATOM     56  C   UNL A   1      45.349  30.195  30.613  1.00  0.00     0.049 A 
ATOM     57  H   UNL A   1      44.507  28.435  29.811  1.00  0.00     0.167 HD
ATOM     58  C   UNL A   1      42.945  30.743  30.344  1.00  0.00     0.074 A 
ATOM     59  C   UNL A   1      41.808  31.635  30.453  1.00  0.00     0.031 C 
ATOM     60  C   UNL A   1      44.209  31.068  30.709  1.00  0.00     0.031 A 
BRANCH  47  61
ATOM     61  C   UNL A   1      48.314  26.516  29.915  1.00  0.00    -0.014 A 
ATOM     62  C   UNL A   1      48.713  25.853  31.086  1.00  0.00     0.009 A 
ATOM     63  C   UNL A   1      49.256  26.723  28.895  1.00  0.00     0.009 A 
ATOM     64  C   UNL A   1      50.039  25.451  31.253  1.00  0.00     0.001 A 
ATOM     65  C   UNL A   1      50.575  26.294  29.054  1.00  0.00     0.001 A 
ATOM     66  C   UNL A   1      50.969  25.670  30.237  1.00  0.00     0.000 A 
ENDBRANCH  47  61
BRANCH  48  67
ATOM     67  C   UNL A   1      38.740  29.144  28.972  1.00  0.00    -0.014 A 
ATOM     68  C   UNL A   1      37.902  29.004  30.088  1.00  0.00     0.009 A 
ATOM     69  C   UNL A   1      38.209  29.663  27.782  1.00  0.00     0.009 A 
ATOM     70  C   UNL A   1      36.555  29.363  30.010  1.00  0.00     0.001 A 
ATOM     71  C   UNL A   1      36.865  30.042  27.714  1.00  0.00     0.001 A 
ATOM     72  C   UNL A   1      36.039  29.886  28.825  1.00  0.00     0.000 A 
ENDBRANCH  48  67
BRANCH  60  73
ATOM     73  C   UNL A   1      44.438  32.457  31.231  1.00  0.00    -0.014 A 
ATOM     74  C   UNL A   1      44.726  33.519  30.362  1.00  0.00     0.009 A 
ATOM     75  C   UNL A   1      44.302  32.713  32.604  1.00  0.00     0.009 A 
ATOM     76  C   UNL A   1      44.893  34.812  30.862  1.00  0.00     0.001 A 
ATOM     77  C   UNL A   1      44.449  34.008  33.099  1.00  0.00     0.001 A 
ATOM     78  C   UNL A   1      44.749  35.056  32.228  1.00  0.00     0.000 A 
ENDBRANCH  60  73
ENDBRANCH  34  35
ENDBRANCH  26  29
ENDBRANCH  24  25
ENDBRANCH  23  24
ENDBRANCH   1  23
TORSDOF 14
ENDMDL
