MODEL 1
REMARK VINA RESULT:     -10.7      0.000      0.000
REMARK SMILES CC(C)CCNC(=O)[C@@H](C)Oc1ccc(N)cc1C(=O)NCCCCNC(=O)c1ccc(-c2c3nc(c(-c4ccccc4)c4ccc([nH]4)c(-c4ccccc4)c4nc(c(-c5ccccc5)c5ccc2[nH]5)C=C4)C=C3)cc1
REMARK SMILES IDX 19 1 20 2 21 3 18 5 12 6 13 7 14 8 17 9 15 10 11 11 9 12
REMARK SMILES IDX 10 13 7 14 6 15 8 17 5 18 4 19 2 20 1 21 3 22 16 23 22 26
REMARK SMILES IDX 23 27 24 28 25 29 26 30 27 31 28 33 29 34 30 35 76 36 31 37
REMARK SMILES IDX 75 38 32 39 33 40 34 41 69 42 35 43 74 44 68 45 70 46 36 47
REMARK SMILES IDX 73 48 67 49 66 50 37 52 59 53 44 54 58 55 45 56 48 57 57 58
REMARK SMILES IDX 71 59 46 60 47 61 56 63 72 64 49 65 38 66 39 67 43 68 40 69
REMARK SMILES IDX 42 70 41 71 60 72 61 73 65 74 62 75 64 76 63 77 50 78 51 79
REMARK SMILES IDX 55 80 52 81 54 82 53 83
REMARK H PARENT 21 4 6 16 16 24 16 25 26 32 70 51 48 62
REMARK Flexibility Score: inf
ROOT
ATOM      1  C   UNL A   1      34.643  23.540  26.340  1.00  0.00     0.255 C 
ATOM      2  O   UNL A   1      33.850  23.231  27.236  1.00  0.00    -0.269 OA
ATOM      3  N   UNL A   1      35.880  22.961  26.429  1.00  0.00    -0.352 N 
ATOM      4  H   UNL A   1      35.911  22.185  27.033  1.00  0.00     0.163 HD
ENDROOT
BRANCH   1   5
ATOM      5  C   UNL A   1      34.147  24.395  25.216  1.00  0.00     0.083 A 
ATOM      6  C   UNL A   1      33.740  24.031  23.927  1.00  0.00     0.133 A 
ATOM      7  C   UNL A   1      33.048  24.960  23.141  1.00  0.00     0.049 A 
ATOM      8  C   UNL A   1      32.988  26.307  23.512  1.00  0.00     0.029 A 
ATOM      9  C   UNL A   1      34.110  25.771  25.544  1.00  0.00     0.043 A 
ATOM     10  C   UNL A   1      33.620  26.739  24.670  1.00  0.00     0.032 A 
BRANCH   6  11
ATOM     11  O   UNL A   1      33.924  22.788  23.408  1.00  0.00    -0.480 OA
BRANCH  11  12
ATOM     12  C   UNL A   1      32.869  21.828  23.554  1.00  0.00     0.258 C 
ATOM     13  C   UNL A   1      32.000  21.678  22.298  1.00  0.00     0.064 C 
BRANCH  12  14
ATOM     14  C   UNL A   1      32.086  21.633  24.883  1.00  0.00     0.260 C 
ATOM     15  N   UNL A   1      32.418  20.677  25.796  1.00  0.00    -0.353 N 
ATOM     16  H   UNL A   1      32.038  20.796  26.695  1.00  0.00     0.163 HD
ATOM     17  O   UNL A   1      31.137  22.373  25.163  1.00  0.00    -0.271 OA
BRANCH  15  18
ATOM     18  C   UNL A   1      33.255  19.510  25.620  1.00  0.00     0.116 C 
BRANCH  18  19
ATOM     19  C   UNL A   1      32.572  18.371  24.882  1.00  0.00     0.024 C 
BRANCH  19  20
ATOM     20  C   UNL A   1      33.331  17.857  23.645  1.00  0.00    -0.016 C 
ATOM     21  C   UNL A   1      33.737  16.384  23.763  1.00  0.00     0.007 C 
ATOM     22  C   UNL A   1      32.446  18.044  22.410  1.00  0.00     0.007 C 
ENDBRANCH  19  20
ENDBRANCH  18  19
ENDBRANCH  15  18
ENDBRANCH  12  14
ENDBRANCH  11  12
ENDBRANCH   6  11
BRANCH  10  23
ATOM     23  N   UNL A   1      33.636  28.078  25.019  1.00  0.00    -0.399 N 
ATOM     24  H   UNL A   1      34.459  28.485  25.374  1.00  0.00     0.156 HD
ATOM     25  H   UNL A   1      32.824  28.625  24.913  1.00  0.00     0.156 HD
ENDBRANCH  10  23
ENDBRANCH   1   5
BRANCH   3  26
ATOM     26  C   UNL A   1      37.152  23.264  25.810  1.00  0.00     0.116 C 
BRANCH  26  27
ATOM     27  C   UNL A   1      37.338  22.341  24.602  1.00  0.00     0.023 C 
BRANCH  27  28
ATOM     28  C   UNL A   1      37.823  20.939  24.937  1.00  0.00     0.023 C 
BRANCH  28  29
ATOM     29  C   UNL A   1      38.995  20.928  25.902  1.00  0.00     0.116 C 
BRANCH  29  30
ATOM     30  N   UNL A   1      39.881  19.778  25.749  1.00  0.00    -0.352 N 
ATOM     31  C   UNL A   1      41.225  19.718  26.039  1.00  0.00     0.251 C 
ATOM     32  H   UNL A   1      39.471  18.953  25.401  1.00  0.00     0.163 HD
ATOM     33  O   UNL A   1      41.888  18.712  25.819  1.00  0.00    -0.269 OA
BRANCH  31  34
ATOM     34  C   UNL A   1      41.859  20.939  26.568  1.00  0.00     0.039 A 
ATOM     35  C   UNL A   1      42.283  21.919  25.670  1.00  0.00     0.014 A 
ATOM     36  C   UNL A   1      41.862  21.170  27.944  1.00  0.00     0.014 A 
ATOM     37  C   UNL A   1      42.625  23.179  26.156  1.00  0.00     0.010 A 
ATOM     38  C   UNL A   1      42.099  22.453  28.412  1.00  0.00     0.010 A 
ATOM     39  C   UNL A   1      42.484  23.469  27.523  1.00  0.00    -0.014 A 
BRANCH  39  40
ATOM     40  C   UNL A   1      42.739  24.829  28.057  1.00  0.00     0.031 A 
ATOM     41  C   UNL A   1      44.133  25.219  28.454  1.00  0.00     0.074 A 
ATOM     42  C   UNL A   1      41.711  25.674  28.262  1.00  0.00     0.049 A 
ATOM     43  N   UNL A   1      44.555  26.327  29.006  1.00  0.00    -0.248 NA
ATOM     44  C   UNL A   1      45.189  24.214  28.241  1.00  0.00     0.031 C 
ATOM     45  C   UNL A   1      40.302  25.394  27.974  1.00  0.00     0.029 A 
ATOM     46  N   UNL A   1      41.698  26.951  28.765  1.00  0.00    -0.354 N 
ATOM     47  C   UNL A   1      45.910  26.135  29.241  1.00  0.00     0.074 A 
ATOM     48  C   UNL A   1      46.228  24.787  28.825  1.00  0.00     0.031 C 
ATOM     49  C   UNL A   1      39.570  26.484  28.257  1.00  0.00     0.029 A 
ATOM     50  C   UNL A   1      40.448  27.523  28.782  1.00  0.00     0.049 A 
ATOM     51  H   UNL A   1      42.506  27.413  29.084  1.00  0.00     0.167 HD
ATOM     52  C   UNL A   1      46.817  27.009  29.736  1.00  0.00     0.031 A 
ATOM     53  C   UNL A   1      40.060  28.752  29.170  1.00  0.00     0.031 A 
ATOM     54  C   UNL A   1      46.510  28.362  30.105  1.00  0.00     0.049 A 
ATOM     55  C   UNL A   1      41.090  29.716  29.688  1.00  0.00     0.074 A 
ATOM     56  C   UNL A   1      47.371  29.358  30.526  1.00  0.00     0.029 A 
ATOM     57  N   UNL A   1      45.236  28.908  30.091  1.00  0.00    -0.354 N 
ATOM     58  N   UNL A   1      42.381  29.548  29.829  1.00  0.00    -0.248 NA
ATOM     59  C   UNL A   1      40.604  31.043  30.092  1.00  0.00     0.031 C 
ATOM     60  C   UNL A   1      46.611  30.500  30.804  1.00  0.00     0.029 A 
ATOM     61  C   UNL A   1      45.284  30.224  30.516  1.00  0.00     0.049 A 
ATOM     62  H   UNL A   1      44.419  28.431  29.820  1.00  0.00     0.167 HD
ATOM     63  C   UNL A   1      42.869  30.755  30.310  1.00  0.00     0.074 A 
ATOM     64  C   UNL A   1      41.735  31.649  30.430  1.00  0.00     0.031 C 
ATOM     65  C   UNL A   1      44.143  31.095  30.624  1.00  0.00     0.031 A 
BRANCH  52  66
ATOM     66  C   UNL A   1      48.225  26.510  29.902  1.00  0.00    -0.014 A 
ATOM     67  C   UNL A   1      49.171  26.641  28.872  1.00  0.00     0.009 A 
ATOM     68  C   UNL A   1      48.606  25.890  31.101  1.00  0.00     0.009 A 
ATOM     69  C   UNL A   1      50.455  26.114  29.021  1.00  0.00     0.001 A 
ATOM     70  C   UNL A   1      49.900  25.392  31.258  1.00  0.00     0.001 A 
ATOM     71  C   UNL A   1      50.819  25.492  30.215  1.00  0.00     0.000 A 
ENDBRANCH  52  66
BRANCH  53  72
ATOM     72  C   UNL A   1      38.640  29.164  29.030  1.00  0.00    -0.014 A 
ATOM     73  C   UNL A   1      37.772  29.073  30.130  1.00  0.00     0.009 A 
ATOM     74  C   UNL A   1      38.144  29.647  27.810  1.00  0.00     0.009 A 
ATOM     75  C   UNL A   1      36.430  29.438  30.006  1.00  0.00     0.001 A 
ATOM     76  C   UNL A   1      36.805  30.033  27.695  1.00  0.00     0.001 A 
ATOM     77  C   UNL A   1      35.949  29.921  28.790  1.00  0.00     0.000 A 
ENDBRANCH  53  72
BRANCH  65  78
ATOM     78  C   UNL A   1      44.381  32.500  31.092  1.00  0.00    -0.014 A 
ATOM     79  C   UNL A   1      44.385  32.821  32.458  1.00  0.00     0.009 A 
ATOM     80  C   UNL A   1      44.649  33.508  30.152  1.00  0.00     0.009 A 
ATOM     81  C   UNL A   1      44.627  34.132  32.872  1.00  0.00     0.001 A 
ATOM     82  C   UNL A   1      44.916  34.812  30.570  1.00  0.00     0.001 A 
ATOM     83  C   UNL A   1      44.897  35.124  31.929  1.00  0.00     0.000 A 
ENDBRANCH  65  78
ENDBRANCH  39  40
ENDBRANCH  31  34
ENDBRANCH  29  30
ENDBRANCH  28  29
ENDBRANCH  27  28
ENDBRANCH  26  27
ENDBRANCH   3  26
TORSDOF 18
ENDMDL
MODEL 2
REMARK VINA RESULT:     -10.6      1.228      3.565
REMARK SMILES CC(C)CCNC(=O)[C@@H](C)Oc1ccc(N)cc1C(=O)NCCCCNC(=O)c1ccc(-c2c3nc(c(-c4ccccc4)c4ccc([nH]4)c(-c4ccccc4)c4nc(c(-c5ccccc5)c5ccc2[nH]5)C=C4)C=C3)cc1
REMARK SMILES IDX 19 1 20 2 21 3 18 5 12 6 13 7 14 8 17 9 15 10 11 11 9 12
REMARK SMILES IDX 10 13 7 14 6 15 8 17 5 18 4 19 2 20 1 21 3 22 16 23 22 26
REMARK SMILES IDX 23 27 24 28 25 29 26 30 27 31 28 33 29 34 30 35 76 36 31 37
REMARK SMILES IDX 75 38 32 39 33 40 34 41 69 42 35 43 74 44 68 45 70 46 36 47
REMARK SMILES IDX 73 48 67 49 66 50 37 52 59 53 44 54 58 55 45 56 48 57 57 58
REMARK SMILES IDX 71 59 46 60 47 61 56 63 72 64 49 65 38 66 39 67 43 68 40 69
REMARK SMILES IDX 42 70 41 71 60 72 61 73 65 74 62 75 64 76 63 77 50 78 51 79
REMARK SMILES IDX 55 80 52 81 54 82 53 83
REMARK H PARENT 21 4 6 16 16 24 16 25 26 32 70 51 48 62
REMARK Flexibility Score: inf
ROOT
ATOM      1  C   UNL A   1      34.391  21.686  26.496  1.00  0.00     0.255 C 
ATOM      2  O   UNL A   1      34.037  21.395  27.644  1.00  0.00    -0.269 OA
ATOM      3  N   UNL A   1      35.599  22.322  26.401  1.00  0.00    -0.352 N 
ATOM      4  H   UNL A   1      36.151  22.246  27.211  1.00  0.00     0.163 HD
ENDROOT
BRANCH   1   5
ATOM      5  C   UNL A   1      33.547  21.219  25.352  1.00  0.00     0.083 A 
ATOM      6  C   UNL A   1      32.850  21.962  24.392  1.00  0.00     0.133 A 
ATOM      7  C   UNL A   1      32.362  21.316  23.250  1.00  0.00     0.049 A 
ATOM      8  C   UNL A   1      32.327  19.920  23.177  1.00  0.00     0.029 A 
ATOM      9  C   UNL A   1      33.458  19.808  25.271  1.00  0.00     0.043 A 
ATOM     10  C   UNL A   1      32.778  19.156  24.244  1.00  0.00     0.032 A 
BRANCH   6  11
ATOM     11  O   UNL A   1      32.671  23.307  24.473  1.00  0.00    -0.480 OA
BRANCH  11  12
ATOM     12  C   UNL A   1      31.412  23.798  24.951  1.00  0.00     0.258 C 
ATOM     13  C   UNL A   1      30.577  24.499  23.869  1.00  0.00     0.064 C 
BRANCH  12  14
ATOM     14  C   UNL A   1      31.228  24.403  26.371  1.00  0.00     0.260 C 
ATOM     15  N   UNL A   1      31.438  25.724  26.637  1.00  0.00    -0.353 N 
ATOM     16  H   UNL A   1      31.057  26.054  27.483  1.00  0.00     0.163 HD
ATOM     17  O   UNL A   1      30.854  23.693  27.310  1.00  0.00    -0.271 OA
BRANCH  15  18
ATOM     18  C   UNL A   1      32.145  26.706  25.845  1.00  0.00     0.116 C 
BRANCH  18  19
ATOM     19  C   UNL A   1      31.574  28.109  25.954  1.00  0.00     0.024 C 
BRANCH  19  20
ATOM     20  C   UNL A   1      32.623  29.237  25.923  1.00  0.00    -0.016 C 
ATOM     21  C   UNL A   1      32.488  30.209  27.101  1.00  0.00     0.007 C 
ATOM     22  C   UNL A   1      34.019  28.611  25.935  1.00  0.00     0.007 C 
ENDBRANCH  19  20
ENDBRANCH  18  19
ENDBRANCH  15  18
ENDBRANCH  12  14
ENDBRANCH  11  12
ENDBRANCH   6  11
BRANCH  10  23
ATOM     23  N   UNL A   1      32.687  17.775  24.225  1.00  0.00    -0.399 N 
ATOM     24  H   UNL A   1      33.114  17.243  24.935  1.00  0.00     0.156 HD
ATOM     25  H   UNL A   1      32.195  17.324  23.502  1.00  0.00     0.156 HD
ENDBRANCH  10  23
ENDBRANCH   1   5
BRANCH   3  26
ATOM     26  C   UNL A   1      36.224  23.087  25.344  1.00  0.00     0.116 C 
BRANCH  26  27
ATOM     27  C   UNL A   1      36.977  22.121  24.425  1.00  0.00     0.023 C 
BRANCH  27  28
ATOM     28  C   UNL A   1      37.503  20.866  25.106  1.00  0.00     0.023 C 
BRANCH  28  29
ATOM     29  C   UNL A   1      38.884  21.050  25.709  1.00  0.00     0.116 C 
BRANCH  29  30
ATOM     30  N   UNL A   1      39.730  19.864  25.631  1.00  0.00    -0.352 N 
ATOM     31  C   UNL A   1      41.049  19.755  26.009  1.00  0.00     0.251 C 
ATOM     32  H   UNL A   1      39.311  19.050  25.269  1.00  0.00     0.163 HD
ATOM     33  O   UNL A   1      41.683  18.720  25.847  1.00  0.00    -0.269 OA
BRANCH  31  34
ATOM     34  C   UNL A   1      41.697  20.958  26.561  1.00  0.00     0.039 A 
ATOM     35  C   UNL A   1      42.186  21.922  25.679  1.00  0.00     0.014 A 
ATOM     36  C   UNL A   1      41.650  21.194  27.936  1.00  0.00     0.014 A 
ATOM     37  C   UNL A   1      42.545  23.174  26.177  1.00  0.00     0.010 A 
ATOM     38  C   UNL A   1      41.906  22.470  28.410  1.00  0.00     0.010 A 
ATOM     39  C   UNL A   1      42.357  23.472  27.536  1.00  0.00    -0.014 A 
BRANCH  39  40
ATOM     40  C   UNL A   1      42.629  24.825  28.077  1.00  0.00     0.031 A 
ATOM     41  C   UNL A   1      44.027  25.191  28.487  1.00  0.00     0.074 A 
ATOM     42  C   UNL A   1      41.614  25.687  28.276  1.00  0.00     0.049 A 
ATOM     43  N   UNL A   1      44.462  26.290  29.047  1.00  0.00    -0.248 NA
ATOM     44  C   UNL A   1      45.068  24.169  28.280  1.00  0.00     0.031 C 
ATOM     45  C   UNL A   1      40.203  25.431  27.975  1.00  0.00     0.029 A 
ATOM     46  N   UNL A   1      41.618  26.962  28.784  1.00  0.00    -0.354 N 
ATOM     47  C   UNL A   1      45.811  26.074  29.293  1.00  0.00     0.074 A 
ATOM     48  C   UNL A   1      46.110  24.723  28.875  1.00  0.00     0.031 C 
ATOM     49  C   UNL A   1      39.487  26.532  28.256  1.00  0.00     0.029 A 
ATOM     50  C   UNL A   1      40.377  27.554  28.793  1.00  0.00     0.049 A 
ATOM     51  H   UNL A   1      42.431  27.410  29.112  1.00  0.00     0.167 HD
ATOM     52  C   UNL A   1      46.729  26.931  29.799  1.00  0.00     0.031 A 
ATOM     53  C   UNL A   1      40.007  28.789  29.181  1.00  0.00     0.031 A 
ATOM     54  C   UNL A   1      46.441  28.287  30.171  1.00  0.00     0.049 A 
ATOM     55  C   UNL A   1      41.048  29.733  29.712  1.00  0.00     0.074 A 
ATOM     56  C   UNL A   1      47.315  29.268  30.603  1.00  0.00     0.029 A 
ATOM     57  N   UNL A   1      45.177  28.855  30.148  1.00  0.00    -0.354 N 
ATOM     58  N   UNL A   1      42.336  29.544  29.864  1.00  0.00    -0.248 NA
ATOM     59  C   UNL A   1      40.581  31.067  30.118  1.00  0.00     0.031 C 
ATOM     60  C   UNL A   1      46.572  30.421  30.879  1.00  0.00     0.029 A 
ATOM     61  C   UNL A   1      45.243  30.169  30.578  1.00  0.00     0.049 A 
ATOM     62  H   UNL A   1      44.354  28.393  29.868  1.00  0.00     0.167 HD
ATOM     63  C   UNL A   1      42.839  30.741  30.354  1.00  0.00     0.074 A 
ATOM     64  C   UNL A   1      41.719  31.653  30.467  1.00  0.00     0.031 C 
ATOM     65  C   UNL A   1      44.116  31.058  30.680  1.00  0.00     0.031 A 
BRANCH  52  66
ATOM     66  C   UNL A   1      48.127  26.408  29.976  1.00  0.00    -0.014 A 
ATOM     67  C   UNL A   1      49.072  26.489  28.939  1.00  0.00     0.009 A 
ATOM     68  C   UNL A   1      48.499  25.816  31.191  1.00  0.00     0.009 A 
ATOM     69  C   UNL A   1      50.345  25.940  29.100  1.00  0.00     0.001 A 
ATOM     70  C   UNL A   1      49.784  25.296  31.359  1.00  0.00     0.001 A 
ATOM     71  C   UNL A   1      50.701  25.346  30.310  1.00  0.00     0.000 A 
ENDBRANCH  52  66
BRANCH  53  72
ATOM     72  C   UNL A   1      38.595  29.224  29.031  1.00  0.00    -0.014 A 
ATOM     73  C   UNL A   1      37.715  29.140  30.122  1.00  0.00     0.009 A 
ATOM     74  C   UNL A   1      38.119  29.726  27.810  1.00  0.00     0.009 A 
ATOM     75  C   UNL A   1      36.381  29.528  29.988  1.00  0.00     0.001 A 
ATOM     76  C   UNL A   1      36.788  30.134  27.685  1.00  0.00     0.001 A 
ATOM     77  C   UNL A   1      35.919  30.027  28.771  1.00  0.00     0.000 A 
ENDBRANCH  53  72
BRANCH  65  78
ATOM     78  C   UNL A   1      44.373  32.457  31.155  1.00  0.00    -0.014 A 
ATOM     79  C   UNL A   1      44.344  32.779  32.520  1.00  0.00     0.009 A 
ATOM     80  C   UNL A   1      44.693  33.458  30.224  1.00  0.00     0.009 A 
ATOM     81  C   UNL A   1      44.605  34.084  32.942  1.00  0.00     0.001 A 
ATOM     82  C   UNL A   1      44.978  34.755  30.650  1.00  0.00     0.001 A 
ATOM     83  C   UNL A   1      44.926  35.068  32.008  1.00  0.00     0.000 A 
ENDBRANCH  65  78
ENDBRANCH  39  40
ENDBRANCH  31  34
ENDBRANCH  29  30
ENDBRANCH  28  29
ENDBRANCH  27  28
ENDBRANCH  26  27
ENDBRANCH   3  26
TORSDOF 18
ENDMDL
MODEL 3
REMARK VINA RESULT:     -10.5      1.552      3.578
REMARK SMILES CC(C)CCNC(=O)[C@@H](C)Oc1ccc(N)cc1C(=O)NCCCCNC(=O)c1ccc(-c2c3nc(c(-c4ccccc4)c4ccc([nH]4)c(-c4ccccc4)c4nc(c(-c5ccccc5)c5ccc2[nH]5)C=C4)C=C3)cc1
REMARK SMILES IDX 19 1 20 2 21 3 18 5 12 6 13 7 14 8 17 9 15 10 11 11 9 12
REMARK SMILES IDX 10 13 7 14 6 15 8 17 5 18 4 19 2 20 1 21 3 22 16 23 22 26
REMARK SMILES IDX 23 27 24 28 25 29 26 30 27 31 28 33 29 34 30 35 76 36 31 37
REMARK SMILES IDX 75 38 32 39 33 40 34 41 69 42 35 43 74 44 68 45 70 46 36 47
REMARK SMILES IDX 73 48 67 49 66 50 37 52 59 53 44 54 58 55 45 56 48 57 57 58
REMARK SMILES IDX 71 59 46 60 47 61 56 63 72 64 49 65 38 66 39 67 43 68 40 69
REMARK SMILES IDX 42 70 41 71 60 72 61 73 65 74 62 75 64 76 63 77 50 78 51 79
REMARK SMILES IDX 55 80 52 81 54 82 53 83
REMARK H PARENT 21 4 6 16 16 24 16 25 26 32 70 51 48 62
REMARK Flexibility Score: inf
ROOT
ATOM      1  C   UNL A   1      34.413  22.987  26.164  1.00  0.00     0.255 C 
ATOM      2  O   UNL A   1      33.608  22.640  27.035  1.00  0.00    -0.269 OA
ATOM      3  N   UNL A   1      35.725  22.699  26.432  1.00  0.00    -0.352 N 
ATOM      4  H   UNL A   1      35.845  22.035  27.149  1.00  0.00     0.163 HD
ENDROOT
BRANCH   1   5
ATOM      5  C   UNL A   1      33.879  23.560  24.889  1.00  0.00     0.083 A 
ATOM      6  C   UNL A   1      33.881  24.883  24.432  1.00  0.00     0.133 A 
ATOM      7  C   UNL A   1      33.583  25.142  23.089  1.00  0.00     0.049 A 
ATOM      8  C   UNL A   1      33.035  24.148  22.273  1.00  0.00     0.029 A 
ATOM      9  C   UNL A   1      33.282  22.585  24.054  1.00  0.00     0.043 A 
ATOM     10  C   UNL A   1      32.778  22.886  22.790  1.00  0.00     0.032 A 
BRANCH   6  11
ATOM     11  O   UNL A   1      34.223  25.943  25.212  1.00  0.00    -0.480 OA
BRANCH  11  12
ATOM     12  C   UNL A   1      33.189  26.850  25.617  1.00  0.00     0.258 C 
ATOM     13  C   UNL A   1      33.689  27.981  26.526  1.00  0.00     0.064 C 
BRANCH  12  14
ATOM     14  C   UNL A   1      31.740  26.386  25.937  1.00  0.00     0.260 C 
ATOM     15  N   UNL A   1      30.665  26.778  25.195  1.00  0.00    -0.353 N 
ATOM     16  H   UNL A   1      29.848  26.243  25.313  1.00  0.00     0.163 HD
ATOM     17  O   UNL A   1      31.523  25.614  26.876  1.00  0.00    -0.271 OA
BRANCH  15  18
ATOM     18  C   UNL A   1      30.564  27.875  24.257  1.00  0.00     0.116 C 
BRANCH  18  19
ATOM     19  C   UNL A   1      29.519  27.662  23.175  1.00  0.00     0.024 C 
BRANCH  19  20
ATOM     20  C   UNL A   1      28.776  28.937  22.736  1.00  0.00    -0.016 C 
ATOM     21  C   UNL A   1      27.280  28.901  23.071  1.00  0.00     0.007 C 
ATOM     22  C   UNL A   1      29.422  30.144  23.419  1.00  0.00     0.007 C 
ENDBRANCH  19  20
ENDBRANCH  18  19
ENDBRANCH  15  18
ENDBRANCH  12  14
ENDBRANCH  11  12
ENDBRANCH   6  11
BRANCH  10  23
ATOM     23  N   UNL A   1      32.170  21.908  22.023  1.00  0.00    -0.399 N 
ATOM     24  H   UNL A   1      31.188  21.856  21.978  1.00  0.00     0.156 HD
ATOM     25  H   UNL A   1      32.720  21.263  21.520  1.00  0.00     0.156 HD
ENDBRANCH  10  23
ENDBRANCH   1   5
BRANCH   3  26
ATOM     26  C   UNL A   1      36.969  23.178  25.872  1.00  0.00     0.116 C 
BRANCH  26  27
ATOM     27  C   UNL A   1      37.315  22.320  24.652  1.00  0.00     0.023 C 
BRANCH  27  28
ATOM     28  C   UNL A   1      37.832  20.926  24.975  1.00  0.00     0.023 C 
BRANCH  28  29
ATOM     29  C   UNL A   1      39.026  20.935  25.911  1.00  0.00     0.116 C 
BRANCH  29  30
ATOM     30  N   UNL A   1      39.912  19.785  25.757  1.00  0.00    -0.352 N 
ATOM     31  C   UNL A   1      41.256  19.725  26.048  1.00  0.00     0.251 C 
ATOM     32  H   UNL A   1      39.502  18.961  25.409  1.00  0.00     0.163 HD
ATOM     33  O   UNL A   1      41.919  18.718  25.826  1.00  0.00    -0.269 OA
BRANCH  31  34
ATOM     34  C   UNL A   1      41.890  20.944  26.577  1.00  0.00     0.039 A 
ATOM     35  C   UNL A   1      42.313  21.926  25.681  1.00  0.00     0.014 A 
ATOM     36  C   UNL A   1      41.894  21.173  27.954  1.00  0.00     0.014 A 
ATOM     37  C   UNL A   1      42.656  23.186  26.168  1.00  0.00     0.010 A 
ATOM     38  C   UNL A   1      42.132  22.455  28.423  1.00  0.00     0.010 A 
ATOM     39  C   UNL A   1      42.516  23.474  27.536  1.00  0.00    -0.014 A 
BRANCH  39  40
ATOM     40  C   UNL A   1      42.771  24.832  28.071  1.00  0.00     0.031 A 
ATOM     41  C   UNL A   1      44.166  25.222  28.468  1.00  0.00     0.074 A 
ATOM     42  C   UNL A   1      41.743  25.677  28.279  1.00  0.00     0.049 A 
ATOM     43  N   UNL A   1      44.588  26.329  29.022  1.00  0.00    -0.248 NA
ATOM     44  C   UNL A   1      45.222  24.217  28.253  1.00  0.00     0.031 C 
ATOM     45  C   UNL A   1      40.334  25.397  27.992  1.00  0.00     0.029 A 
ATOM     46  N   UNL A   1      41.730  26.953  28.784  1.00  0.00    -0.354 N 
ATOM     47  C   UNL A   1      45.943  26.136  29.255  1.00  0.00     0.074 A 
ATOM     48  C   UNL A   1      46.261  24.790  28.837  1.00  0.00     0.031 C 
ATOM     49  C   UNL A   1      39.602  26.487  28.277  1.00  0.00     0.029 A 
ATOM     50  C   UNL A   1      40.480  27.525  28.803  1.00  0.00     0.049 A 
ATOM     51  H   UNL A   1      42.539  27.415  29.103  1.00  0.00     0.167 HD
ATOM     52  C   UNL A   1      46.851  27.010  29.751  1.00  0.00     0.031 A 
ATOM     53  C   UNL A   1      40.093  28.754  29.192  1.00  0.00     0.031 A 
ATOM     54  C   UNL A   1      46.544  28.362  30.122  1.00  0.00     0.049 A 
ATOM     55  C   UNL A   1      41.123  29.717  29.712  1.00  0.00     0.074 A 
ATOM     56  C   UNL A   1      47.405  29.358  30.544  1.00  0.00     0.029 A 
ATOM     57  N   UNL A   1      45.270  28.908  30.110  1.00  0.00    -0.354 N 
ATOM     58  N   UNL A   1      42.415  29.549  29.851  1.00  0.00    -0.248 NA
ATOM     59  C   UNL A   1      40.638  31.043  30.118  1.00  0.00     0.031 C 
ATOM     60  C   UNL A   1      46.645  30.499  30.825  1.00  0.00     0.029 A 
ATOM     61  C   UNL A   1      45.318  30.224  30.537  1.00  0.00     0.049 A 
ATOM     62  H   UNL A   1      44.452  28.432  29.839  1.00  0.00     0.167 HD
ATOM     63  C   UNL A   1      42.903  30.755  30.334  1.00  0.00     0.074 A 
ATOM     64  C   UNL A   1      41.769  31.649  30.456  1.00  0.00     0.031 C 
ATOM     65  C   UNL A   1      44.177  31.094  30.647  1.00  0.00     0.031 A 
BRANCH  52  66
ATOM     66  C   UNL A   1      48.258  26.511  29.915  1.00  0.00    -0.014 A 
ATOM     67  C   UNL A   1      48.672  25.869  31.095  1.00  0.00     0.009 A 
ATOM     68  C   UNL A   1      49.188  26.698  28.882  1.00  0.00     0.009 A 
ATOM     69  C   UNL A   1      50.000  25.471  31.255  1.00  0.00     0.001 A 
ATOM     70  C   UNL A   1      50.508  26.270  29.033  1.00  0.00     0.001 A 
ATOM     71  C   UNL A   1      50.917  25.670  30.223  1.00  0.00     0.000 A 
ENDBRANCH  52  66
BRANCH  53  72
ATOM     72  C   UNL A   1      38.673  29.165  29.055  1.00  0.00    -0.014 A 
ATOM     73  C   UNL A   1      37.804  29.065  30.153  1.00  0.00     0.009 A 
ATOM     74  C   UNL A   1      38.178  29.659  27.838  1.00  0.00     0.009 A 
ATOM     75  C   UNL A   1      36.462  29.430  30.030  1.00  0.00     0.001 A 
ATOM     76  C   UNL A   1      36.839  30.044  27.725  1.00  0.00     0.001 A 
ATOM     77  C   UNL A   1      35.981  29.922  28.818  1.00  0.00     0.000 A 
ENDBRANCH  53  72
BRANCH  65  78
ATOM     78  C   UNL A   1      44.415  32.499  31.117  1.00  0.00    -0.014 A 
ATOM     79  C   UNL A   1      44.391  32.823  32.482  1.00  0.00     0.009 A 
ATOM     80  C   UNL A   1      44.712  33.503  30.182  1.00  0.00     0.009 A 
ATOM     81  C   UNL A   1      44.634  34.133  32.898  1.00  0.00     0.001 A 
ATOM     82  C   UNL A   1      44.979  34.805  30.602  1.00  0.00     0.001 A 
ATOM     83  C   UNL A   1      44.932  35.120  31.960  1.00  0.00     0.000 A 
ENDBRANCH  65  78
ENDBRANCH  39  40
ENDBRANCH  31  34
ENDBRANCH  29  30
ENDBRANCH  28  29
ENDBRANCH  27  28
ENDBRANCH  26  27
ENDBRANCH   3  26
TORSDOF 18
ENDMDL
