MODEL 1
REMARK VINA RESULT:     -11.3      0.000      0.000
REMARK SMILES C[N@H+]1Cc2ccccc2C[C@@H]1C(=O)NCCC(=O)NCC(=O)NCCCCNC(=O)c1ccc(-c2c3nc(c(-c4ccccc4)c4ccc([nH]4)c(-c4ccccc4)c4nc(c(-c5ccccc5)c5ccc2[nH]5)C=C4)C=C3)cc1
REMARK SMILES IDX 24 1 23 2 21 3 22 4 20 6 19 7 17 8 18 9 16 11 15 12 14 13
REMARK SMILES IDX 12 14 13 15 11 17 1 18 2 19 3 20 4 22 10 23 5 24 9 25 6 26
REMARK SMILES IDX 8 27 7 28 25 29 26 30 27 31 28 32 29 33 30 35 31 36 32 37
REMARK SMILES IDX 78 38 33 39 77 40 34 41 35 42 36 43 71 44 37 45 76 46 70 47
REMARK SMILES IDX 72 48 38 49 75 50 69 51 68 52 39 54 61 55 46 56 60 57 47 58
REMARK SMILES IDX 50 59 59 60 73 61 48 62 49 63 58 65 74 66 51 67 40 68 41 69
REMARK SMILES IDX 45 70 42 71 44 72 43 73 62 74 63 75 67 76 64 77 66 78 65 79
REMARK SMILES IDX 52 80 53 81 57 82 54 83 56 84 55 85
REMARK H PARENT 23 5 19 10 14 16 2 21 28 34 72 53 50 64
REMARK Flexibility Score: inf
ROOT
ATOM      1  C   UNL A   1      31.372  29.280  24.350  1.00  0.00     0.116 C 
ENDROOT
BRANCH   1   2
ATOM      2  N   UNL A   1      32.559  29.281  23.515  1.00  0.00    -0.355 N 
ATOM      3  C   UNL A   1      33.539  28.362  23.283  1.00  0.00     0.239 C 
ATOM      4  O   UNL A   1      34.404  28.685  22.461  1.00  0.00    -0.273 OA
ATOM      5  H   UNL A   1      32.683  30.118  23.012  1.00  0.00     0.163 HD
BRANCH   3   6
ATOM      6  C   UNL A   1      33.521  26.926  23.844  1.00  0.00     0.216 C 
BRANCH   6   7
ATOM      7  N   UNL A   1      33.734  25.837  22.909  1.00  0.00    -0.347 N 
ATOM      8  C   UNL A   1      32.837  25.019  22.294  1.00  0.00     0.222 C 
ATOM      9  O   UNL A   1      33.271  24.075  21.633  1.00  0.00    -0.275 OA
ATOM     10  H   UNL A   1      34.676  25.663  22.683  1.00  0.00     0.164 HD
BRANCH   8  11
ATOM     11  C   UNL A   1      31.348  25.222  22.467  1.00  0.00     0.121 C 
BRANCH  11  12
ATOM     12  C   UNL A   1      30.732  24.220  23.446  1.00  0.00     0.126 C 
BRANCH  12  13
ATOM     13  N   UNL A   1      31.263  24.354  24.798  1.00  0.00    -0.350 N 
ATOM     14  C   UNL A   1      31.811  23.354  25.547  1.00  0.00     0.278 C 
ATOM     15  O   UNL A   1      31.191  23.033  26.568  1.00  0.00    -0.268 OA
ATOM     16  H   UNL A   1      31.223  25.249  25.208  1.00  0.00     0.163 HD
BRANCH  14  17
ATOM     17  C   UNL A   1      33.227  22.799  25.261  1.00  0.00     0.278 C 
ATOM     18  C   UNL A   1      32.177  20.567  24.990  1.00  0.00     0.333 C 
ATOM     19  N   UNL A   1      33.308  21.326  25.537  1.00  0.00    -0.323 N 
ATOM     20  C   UNL A   1      34.555  20.799  24.938  1.00  0.00     0.299 C 
ATOM     21  H   UNL A   1      33.288  21.213  26.550  1.00  0.00     0.348 HD
ATOM     22  C   UNL A   1      35.796  21.585  25.302  1.00  0.00     0.010 A 
ATOM     23  C   UNL A   1      34.343  23.498  26.049  1.00  0.00     0.111 C 
ATOM     24  C   UNL A   1      37.064  21.037  25.064  1.00  0.00     0.010 A 
ATOM     25  C   UNL A   1      35.699  22.888  25.810  1.00  0.00    -0.033 A 
ATOM     26  C   UNL A   1      38.217  21.762  25.366  1.00  0.00     0.001 A 
ATOM     27  C   UNL A   1      36.859  23.602  26.135  1.00  0.00     0.004 A 
ATOM     28  C   UNL A   1      38.114  23.040  25.909  1.00  0.00     0.000 A 
ENDBRANCH  14  17
ENDBRANCH  12  13
ENDBRANCH  11  12
ENDBRANCH   8  11
ENDBRANCH   6   7
ENDBRANCH   3   6
ENDBRANCH   1   2
BRANCH   1  29
ATOM     29  C   UNL A   1      31.590  29.957  25.695  1.00  0.00     0.023 C 
BRANCH  29  30
ATOM     30  C   UNL A   1      32.071  29.020  26.800  1.00  0.00     0.023 C 
BRANCH  30  31
ATOM     31  C   UNL A   1      33.486  29.279  27.311  1.00  0.00     0.116 C 
BRANCH  31  32
ATOM     32  N   UNL A   1      33.672  30.611  27.876  1.00  0.00    -0.352 N 
ATOM     33  C   UNL A   1      34.787  31.138  28.487  1.00  0.00     0.251 C 
ATOM     34  H   UNL A   1      32.896  31.213  27.811  1.00  0.00     0.163 HD
ATOM     35  O   UNL A   1      34.762  32.256  28.990  1.00  0.00    -0.269 OA
BRANCH  33  36
ATOM     36  C   UNL A   1      36.007  30.312  28.571  1.00  0.00     0.039 A 
ATOM     37  C   UNL A   1      36.880  30.282  27.481  1.00  0.00     0.014 A 
ATOM     38  C   UNL A   1      36.329  29.661  29.763  1.00  0.00     0.014 A 
ATOM     39  C   UNL A   1      38.133  29.684  27.624  1.00  0.00     0.010 A 
ATOM     40  C   UNL A   1      37.605  29.135  29.926  1.00  0.00     0.010 A 
ATOM     41  C   UNL A   1      38.525  29.159  28.865  1.00  0.00    -0.014 A 
BRANCH  41  42
ATOM     42  C   UNL A   1      39.901  28.656  29.101  1.00  0.00     0.031 A 
ATOM     43  C   UNL A   1      40.950  29.574  29.658  1.00  0.00     0.074 A 
ATOM     44  C   UNL A   1      40.234  27.408  28.715  1.00  0.00     0.049 A 
ATOM     45  N   UNL A   1      42.234  29.368  29.807  1.00  0.00    -0.248 NA
ATOM     46  C   UNL A   1      40.500  30.912  30.071  1.00  0.00     0.031 C 
ATOM     47  C   UNL A   1      39.321  26.425  28.127  1.00  0.00     0.029 A 
ATOM     48  N   UNL A   1      41.443  26.759  28.749  1.00  0.00    -0.354 N 
ATOM     49  C   UNL A   1      42.750  30.561  30.293  1.00  0.00     0.074 A 
ATOM     50  C   UNL A   1      41.648  31.495  30.381  1.00  0.00     0.031 C 
ATOM     51  C   UNL A   1      39.996  25.290  27.883  1.00  0.00     0.029 A 
ATOM     52  C   UNL A   1      41.394  25.480  28.253  1.00  0.00     0.049 A 
ATOM     53  H   UNL A   1      42.266  27.172  29.094  1.00  0.00     0.167 HD
ATOM     54  C   UNL A   1      44.024  30.851  30.649  1.00  0.00     0.031 A 
ATOM     55  C   UNL A   1      42.368  24.562  28.105  1.00  0.00     0.031 A 
ATOM     56  C   UNL A   1      45.116  29.919  30.587  1.00  0.00     0.049 A 
ATOM     57  C   UNL A   1      43.774  24.906  28.505  1.00  0.00     0.074 A 
ATOM     58  C   UNL A   1      46.428  30.098  30.988  1.00  0.00     0.029 A 
ATOM     59  N   UNL A   1      45.021  28.628  30.091  1.00  0.00    -0.354 N 
ATOM     60  N   UNL A   1      44.238  26.023  29.010  1.00  0.00    -0.248 NA
ATOM     61  C   UNL A   1      44.789  23.860  28.317  1.00  0.00     0.031 C 
ATOM     62  C   UNL A   1      47.137  28.925  30.702  1.00  0.00     0.029 A 
ATOM     63  C   UNL A   1      46.255  28.004  30.159  1.00  0.00     0.049 A 
ATOM     64  H   UNL A   1      44.199  28.216  29.741  1.00  0.00     0.167 HD
ATOM     65  C   UNL A   1      45.593  25.806  29.225  1.00  0.00     0.074 A 
ATOM     66  C   UNL A   1      45.873  24.449  28.801  1.00  0.00     0.031 C 
ATOM     67  C   UNL A   1      46.519  26.654  29.733  1.00  0.00     0.031 A 
BRANCH  54  68
ATOM     68  C   UNL A   1      44.295  32.251  31.123  1.00  0.00    -0.014 A 
ATOM     69  C   UNL A   1      44.828  33.220  30.258  1.00  0.00     0.009 A 
ATOM     70  C   UNL A   1      44.020  32.601  32.453  1.00  0.00     0.009 A 
ATOM     71  C   UNL A   1      45.128  34.500  30.731  1.00  0.00     0.001 A 
ATOM     72  C   UNL A   1      44.294  33.890  32.915  1.00  0.00     0.001 A 
ATOM     73  C   UNL A   1      44.859  34.834  32.057  1.00  0.00     0.000 A 
ENDBRANCH  54  68
BRANCH  55  74
ATOM     74  C   UNL A   1      42.040  23.214  27.578  1.00  0.00    -0.014 A 
ATOM     75  C   UNL A   1      41.466  22.252  28.423  1.00  0.00     0.009 A 
ATOM     76  C   UNL A   1      42.283  22.885  26.236  1.00  0.00     0.009 A 
ATOM     77  C   UNL A   1      41.156  20.980  27.938  1.00  0.00     0.001 A 
ATOM     78  C   UNL A   1      41.951  21.619  25.749  1.00  0.00     0.001 A 
ATOM     79  C   UNL A   1      41.393  20.666  26.600  1.00  0.00     0.000 A 
ENDBRANCH  55  74
BRANCH  67  80
ATOM     80  C   UNL A   1      47.915  26.128  29.893  1.00  0.00    -0.014 A 
ATOM     81  C   UNL A   1      48.780  26.016  28.793  1.00  0.00     0.009 A 
ATOM     82  C   UNL A   1      48.382  25.776  31.168  1.00  0.00     0.009 A 
ATOM     83  C   UNL A   1      50.080  25.537  28.967  1.00  0.00     0.001 A 
ATOM     84  C   UNL A   1      49.688  25.319  31.342  1.00  0.00     0.001 A 
ATOM     85  C   UNL A   1      50.534  25.193  30.240  1.00  0.00     0.000 A 
ENDBRANCH  67  80
ENDBRANCH  41  42
ENDBRANCH  33  36
ENDBRANCH  31  32
ENDBRANCH  30  31
ENDBRANCH  29  30
ENDBRANCH   1  29
TORSDOF 16
ENDMDL
MODEL 2
REMARK VINA RESULT:     -11.1      2.568      8.274
REMARK SMILES C[N@H+]1Cc2ccccc2C[C@@H]1C(=O)NCCC(=O)NCC(=O)NCCCCNC(=O)c1ccc(-c2c3nc(c(-c4ccccc4)c4ccc([nH]4)c(-c4ccccc4)c4nc(c(-c5ccccc5)c5ccc2[nH]5)C=C4)C=C3)cc1
REMARK SMILES IDX 24 1 23 2 21 3 22 4 20 6 19 7 17 8 18 9 16 11 15 12 14 13
REMARK SMILES IDX 12 14 13 15 11 17 1 18 2 19 3 20 4 22 10 23 5 24 9 25 6 26
REMARK SMILES IDX 8 27 7 28 25 29 26 30 27 31 28 32 29 33 30 35 31 36 32 37
REMARK SMILES IDX 78 38 33 39 77 40 34 41 35 42 36 43 71 44 37 45 76 46 70 47
REMARK SMILES IDX 72 48 38 49 75 50 69 51 68 52 39 54 61 55 46 56 60 57 47 58
REMARK SMILES IDX 50 59 59 60 73 61 48 62 49 63 58 65 74 66 51 67 40 68 41 69
REMARK SMILES IDX 45 70 42 71 44 72 43 73 62 74 63 75 67 76 64 77 66 78 65 79
REMARK SMILES IDX 52 80 53 81 57 82 54 83 56 84 55 85
REMARK H PARENT 23 5 19 10 14 16 2 21 28 34 72 53 50 64
REMARK Flexibility Score: inf
ROOT
ATOM      1  C   UNL A   1      35.340  21.258  25.224  1.00  0.00     0.116 C 
ENDROOT
BRANCH   1   2
ATOM      2  N   UNL A   1      35.216  19.822  25.058  1.00  0.00    -0.355 N 
ATOM      3  C   UNL A   1      34.208  19.015  24.619  1.00  0.00     0.239 C 
ATOM      4  O   UNL A   1      34.462  17.807  24.567  1.00  0.00    -0.273 OA
ATOM      5  H   UNL A   1      36.028  19.327  25.313  1.00  0.00     0.163 HD
BRANCH   3   6
ATOM      6  C   UNL A   1      32.878  19.539  24.040  1.00  0.00     0.216 C 
BRANCH   6   7
ATOM      7  N   UNL A   1      32.146  20.518  24.821  1.00  0.00    -0.347 N 
ATOM      8  C   UNL A   1      31.807  21.803  24.525  1.00  0.00     0.222 C 
ATOM      9  O   UNL A   1      31.288  22.484  25.410  1.00  0.00    -0.275 OA
ATOM     10  H   UNL A   1      31.846  20.204  25.705  1.00  0.00     0.164 HD
BRANCH   8  11
ATOM     11  C   UNL A   1      32.115  22.399  23.169  1.00  0.00     0.121 C 
BRANCH  11  12
ATOM     12  C   UNL A   1      31.875  23.910  23.129  1.00  0.00     0.126 C 
BRANCH  12  13
ATOM     13  N   UNL A   1      33.116  24.677  23.084  1.00  0.00    -0.350 N 
ATOM     14  C   UNL A   1      33.225  26.011  22.819  1.00  0.00     0.278 C 
ATOM     15  O   UNL A   1      33.812  26.314  21.774  1.00  0.00    -0.268 OA
ATOM     16  H   UNL A   1      33.951  24.185  23.261  1.00  0.00     0.163 HD
BRANCH  14  17
ATOM     17  C   UNL A   1      32.833  27.086  23.861  1.00  0.00     0.278 C 
ATOM     18  C   UNL A   1      30.946  27.686  22.367  1.00  0.00     0.333 C 
ATOM     19  N   UNL A   1      32.015  28.181  23.242  1.00  0.00    -0.323 N 
ATOM     20  C   UNL A   1      31.399  28.983  24.323  1.00  0.00     0.299 C 
ATOM     21  H   UNL A   1      32.648  28.733  22.664  1.00  0.00     0.348 HD
ATOM     22  C   UNL A   1      32.373  29.439  25.386  1.00  0.00     0.010 A 
ATOM     23  C   UNL A   1      34.030  27.727  24.578  1.00  0.00     0.111 C 
ATOM     24  C   UNL A   1      32.000  30.443  26.291  1.00  0.00     0.010 A 
ATOM     25  C   UNL A   1      33.624  28.822  25.528  1.00  0.00    -0.033 A 
ATOM     26  C   UNL A   1      32.876  30.852  27.296  1.00  0.00     0.001 A 
ATOM     27  C   UNL A   1      34.511  29.255  26.523  1.00  0.00     0.004 A 
ATOM     28  C   UNL A   1      34.134  30.264  27.407  1.00  0.00     0.000 A 
ENDBRANCH  14  17
ENDBRANCH  12  13
ENDBRANCH  11  12
ENDBRANCH   8  11
ENDBRANCH   6   7
ENDBRANCH   3   6
ENDBRANCH   1   2
BRANCH   1  29
ATOM     29  C   UNL A   1      35.669  21.982  23.927  1.00  0.00     0.023 C 
BRANCH  29  30
ATOM     30  C   UNL A   1      36.823  22.975  24.035  1.00  0.00     0.023 C 
BRANCH  30  31
ATOM     31  C   UNL A   1      37.413  23.148  25.432  1.00  0.00     0.116 C 
BRANCH  31  32
ATOM     32  N   UNL A   1      38.700  22.487  25.613  1.00  0.00    -0.352 N 
ATOM     33  C   UNL A   1      39.840  22.973  26.211  1.00  0.00     0.251 C 
ATOM     34  H   UNL A   1      38.761  21.570  25.259  1.00  0.00     0.163 HD
ATOM     35  O   UNL A   1      40.880  22.322  26.211  1.00  0.00    -0.269 OA
BRANCH  33  36
ATOM     36  C   UNL A   1      39.806  24.319  26.812  1.00  0.00     0.039 A 
ATOM     37  C   UNL A   1      39.231  24.482  28.074  1.00  0.00     0.014 A 
ATOM     38  C   UNL A   1      40.438  25.388  26.171  1.00  0.00     0.014 A 
ATOM     39  C   UNL A   1      39.384  25.698  28.744  1.00  0.00     0.010 A 
ATOM     40  C   UNL A   1      40.653  26.569  26.871  1.00  0.00     0.010 A 
ATOM     41  C   UNL A   1      40.145  26.728  28.171  1.00  0.00    -0.014 A 
BRANCH  41  42
ATOM     42  C   UNL A   1      40.459  27.973  28.914  1.00  0.00     0.031 A 
ATOM     43  C   UNL A   1      41.755  28.093  29.662  1.00  0.00     0.074 A 
ATOM     44  C   UNL A   1      39.536  28.950  29.004  1.00  0.00     0.049 A 
ATOM     45  N   UNL A   1      42.154  29.036  30.478  1.00  0.00    -0.248 NA
ATOM     46  C   UNL A   1      42.715  26.990  29.495  1.00  0.00     0.031 C 
ATOM     47  C   UNL A   1      38.223  28.946  28.356  1.00  0.00     0.029 A 
ATOM     48  N   UNL A   1      39.561  30.137  29.694  1.00  0.00    -0.354 N 
ATOM     49  C   UNL A   1      43.392  28.621  30.951  1.00  0.00     0.074 A 
ATOM     50  C   UNL A   1      43.661  27.328  30.358  1.00  0.00     0.031 C 
ATOM     51  C   UNL A   1      37.581  30.087  28.656  1.00  0.00     0.029 A 
ATOM     52  C   UNL A   1      38.416  30.880  29.551  1.00  0.00     0.049 A 
ATOM     53  H   UNL A   1      40.328  30.426  30.240  1.00  0.00     0.167 HD
ATOM     54  C   UNL A   1      44.237  29.264  31.791  1.00  0.00     0.031 A 
ATOM     55  C   UNL A   1      38.071  32.066  30.088  1.00  0.00     0.031 A 
ATOM     56  C   UNL A   1      43.984  30.559  32.362  1.00  0.00     0.049 A 
ATOM     57  C   UNL A   1      39.023  32.761  31.018  1.00  0.00     0.074 A 
ATOM     58  C   UNL A   1      44.808  31.321  33.170  1.00  0.00     0.029 A 
ATOM     59  N   UNL A   1      42.817  31.284  32.181  1.00  0.00    -0.354 N 
ATOM     60  N   UNL A   1      40.212  32.380  31.418  1.00  0.00    -0.248 NA
ATOM     61  C   UNL A   1      38.586  34.051  31.569  1.00  0.00     0.031 C 
ATOM     62  C   UNL A   1      44.124  32.494  33.509  1.00  0.00     0.029 A 
ATOM     63  C   UNL A   1      42.891  32.478  32.877  1.00  0.00     0.049 A 
ATOM     64  H   UNL A   1      42.049  30.993  31.639  1.00  0.00     0.167 HD
ATOM     65  C   UNL A   1      40.676  33.393  32.245  1.00  0.00     0.074 A 
ATOM     66  C   UNL A   1      39.643  34.409  32.285  1.00  0.00     0.031 C 
ATOM     67  C   UNL A   1      41.854  33.478  32.908  1.00  0.00     0.031 A 
BRANCH  54  68
ATOM     68  C   UNL A   1      45.510  28.551  32.151  1.00  0.00    -0.014 A 
ATOM     69  C   UNL A   1      45.578  27.704  33.268  1.00  0.00     0.009 A 
ATOM     70  C   UNL A   1      46.657  28.737  31.366  1.00  0.00     0.009 A 
ATOM     71  C   UNL A   1      46.784  27.095  33.621  1.00  0.00     0.001 A 
ATOM     72  C   UNL A   1      47.855  28.105  31.705  1.00  0.00     0.001 A 
ATOM     73  C   UNL A   1      47.920  27.295  32.838  1.00  0.00     0.000 A 
ENDBRANCH  54  68
BRANCH  55  74
ATOM     74  C   UNL A   1      36.772  32.689  29.732  1.00  0.00    -0.014 A 
ATOM     75  C   UNL A   1      36.665  33.475  28.575  1.00  0.00     0.009 A 
ATOM     76  C   UNL A   1      35.635  32.494  30.531  1.00  0.00     0.009 A 
ATOM     77  C   UNL A   1      35.448  34.067  28.232  1.00  0.00     0.001 A 
ATOM     78  C   UNL A   1      34.415  33.070  30.174  1.00  0.00     0.001 A 
ATOM     79  C   UNL A   1      34.322  33.860  29.028  1.00  0.00     0.000 A 
ENDBRANCH  55  74
BRANCH  67  80
ATOM     80  C   UNL A   1      42.105  34.725  33.703  1.00  0.00    -0.014 A 
ATOM     81  C   UNL A   1      42.709  35.849  33.119  1.00  0.00     0.009 A 
ATOM     82  C   UNL A   1      41.695  34.788  35.043  1.00  0.00     0.009 A 
ATOM     83  C   UNL A   1      42.920  37.005  33.874  1.00  0.00     0.001 A 
ATOM     84  C   UNL A   1      41.887  35.952  35.788  1.00  0.00     0.001 A 
ATOM     85  C   UNL A   1      42.506  37.057  35.205  1.00  0.00     0.000 A 
ENDBRANCH  67  80
ENDBRANCH  41  42
ENDBRANCH  33  36
ENDBRANCH  31  32
ENDBRANCH  30  31
ENDBRANCH  29  30
ENDBRANCH   1  29
TORSDOF 16
ENDMDL
MODEL 3
REMARK VINA RESULT:     -10.8      1.929      8.182
REMARK SMILES C[N@H+]1Cc2ccccc2C[C@@H]1C(=O)NCCC(=O)NCC(=O)NCCCCNC(=O)c1ccc(-c2c3nc(c(-c4ccccc4)c4ccc([nH]4)c(-c4ccccc4)c4nc(c(-c5ccccc5)c5ccc2[nH]5)C=C4)C=C3)cc1
REMARK SMILES IDX 24 1 23 2 21 3 22 4 20 6 19 7 17 8 18 9 16 11 15 12 14 13
REMARK SMILES IDX 12 14 13 15 11 17 1 18 2 19 3 20 4 22 10 23 5 24 9 25 6 26
REMARK SMILES IDX 8 27 7 28 25 29 26 30 27 31 28 32 29 33 30 35 31 36 32 37
REMARK SMILES IDX 78 38 33 39 77 40 34 41 35 42 36 43 71 44 37 45 76 46 70 47
REMARK SMILES IDX 72 48 38 49 75 50 69 51 68 52 39 54 61 55 46 56 60 57 47 58
REMARK SMILES IDX 50 59 59 60 73 61 48 62 49 63 58 65 74 66 51 67 40 68 41 69
REMARK SMILES IDX 45 70 42 71 44 72 43 73 62 74 63 75 67 76 64 77 66 78 65 79
REMARK SMILES IDX 52 80 53 81 57 82 54 83 56 84 55 85
REMARK H PARENT 23 5 19 10 14 16 2 21 28 34 72 53 50 64
REMARK Flexibility Score: inf
ROOT
ATOM      1  C   UNL A   1      35.313  21.478  26.082  1.00  0.00     0.116 C 
ENDROOT
BRANCH   1   2
ATOM      2  N   UNL A   1      34.459  20.345  25.776  1.00  0.00    -0.355 N 
ATOM      3  C   UNL A   1      33.161  20.234  25.374  1.00  0.00     0.239 C 
ATOM      4  O   UNL A   1      32.753  19.087  25.161  1.00  0.00    -0.273 OA
ATOM      5  H   UNL A   1      34.910  19.476  25.879  1.00  0.00     0.163 HD
BRANCH   3   6
ATOM      6  C   UNL A   1      32.267  21.439  25.015  1.00  0.00     0.216 C 
BRANCH   6   7
ATOM      7  N   UNL A   1      31.263  21.842  25.982  1.00  0.00    -0.347 N 
ATOM      8  C   UNL A   1      31.135  23.000  26.685  1.00  0.00     0.222 C 
ATOM      9  O   UNL A   1      30.261  23.059  27.551  1.00  0.00    -0.275 OA
ATOM     10  H   UNL A   1      30.564  21.171  26.157  1.00  0.00     0.164 HD
BRANCH   8  11
ATOM     11  C   UNL A   1      32.077  24.161  26.456  1.00  0.00     0.121 C 
BRANCH  11  12
ATOM     12  C   UNL A   1      31.623  25.062  25.306  1.00  0.00     0.126 C 
BRANCH  12  13
ATOM     13  N   UNL A   1      32.681  25.949  24.833  1.00  0.00    -0.350 N 
ATOM     14  C   UNL A   1      32.632  26.729  23.715  1.00  0.00     0.278 C 
ATOM     15  O   UNL A   1      33.425  26.439  22.811  1.00  0.00    -0.268 OA
ATOM     16  H   UNL A   1      33.505  25.988  25.371  1.00  0.00     0.163 HD
BRANCH  14  17
ATOM     17  C   UNL A   1      31.793  28.028  23.659  1.00  0.00     0.278 C 
ATOM     18  C   UNL A   1      33.085  28.814  25.627  1.00  0.00     0.333 C 
ATOM     19  N   UNL A   1      31.767  28.724  24.989  1.00  0.00    -0.323 N 
ATOM     20  C   UNL A   1      31.248  30.097  24.796  1.00  0.00     0.299 C 
ATOM     21  H   UNL A   1      31.170  28.169  25.601  1.00  0.00     0.348 HD
ATOM     22  C   UNL A   1      29.954  30.165  24.015  1.00  0.00     0.010 A 
ATOM     23  C   UNL A   1      30.345  27.818  23.198  1.00  0.00     0.111 C 
ATOM     24  C   UNL A   1      29.199  31.346  24.017  1.00  0.00     0.010 A 
ATOM     25  C   UNL A   1      29.532  29.085  23.227  1.00  0.00    -0.033 A 
ATOM     26  C   UNL A   1      28.019  31.434  23.277  1.00  0.00     0.001 A 
ATOM     27  C   UNL A   1      28.333  29.169  22.506  1.00  0.00     0.004 A 
ATOM     28  C   UNL A   1      27.583  30.343  22.529  1.00  0.00     0.000 A 
ENDBRANCH  14  17
ENDBRANCH  12  13
ENDBRANCH  11  12
ENDBRANCH   8  11
ENDBRANCH   6   7
ENDBRANCH   3   6
ENDBRANCH   1   2
BRANCH   1  29
ATOM     29  C   UNL A   1      36.276  21.820  24.954  1.00  0.00     0.023 C 
BRANCH  29  30
ATOM     30  C   UNL A   1      37.389  20.797  24.745  1.00  0.00     0.023 C 
BRANCH  30  31
ATOM     31  C   UNL A   1      38.609  20.960  25.648  1.00  0.00     0.116 C 
BRANCH  31  32
ATOM     32  N   UNL A   1      39.500  19.806  25.645  1.00  0.00    -0.352 N 
ATOM     33  C   UNL A   1      40.820  19.738  26.029  1.00  0.00     0.251 C 
ATOM     34  H   UNL A   1      39.104  18.963  25.326  1.00  0.00     0.163 HD
ATOM     35  O   UNL A   1      41.466  18.704  25.888  1.00  0.00    -0.269 OA
BRANCH  33  36
ATOM     36  C   UNL A   1      41.465  20.949  26.570  1.00  0.00     0.039 A 
ATOM     37  C   UNL A   1      42.095  21.831  25.689  1.00  0.00     0.014 A 
ATOM     38  C   UNL A   1      41.350  21.256  27.928  1.00  0.00     0.014 A 
ATOM     39  C   UNL A   1      42.518  23.077  26.154  1.00  0.00     0.010 A 
ATOM     40  C   UNL A   1      41.702  22.525  28.370  1.00  0.00     0.010 A 
ATOM     41  C   UNL A   1      42.271  23.454  27.483  1.00  0.00    -0.014 A 
BRANCH  41  42
ATOM     42  C   UNL A   1      42.564  24.824  27.974  1.00  0.00     0.031 A 
ATOM     43  C   UNL A   1      43.955  25.184  28.407  1.00  0.00     0.074 A 
ATOM     44  C   UNL A   1      41.560  25.708  28.130  1.00  0.00     0.049 A 
ATOM     45  N   UNL A   1      44.383  26.275  28.990  1.00  0.00    -0.248 NA
ATOM     46  C   UNL A   1      44.996  24.168  28.185  1.00  0.00     0.031 C 
ATOM     47  C   UNL A   1      40.156  25.475  27.782  1.00  0.00     0.029 A 
ATOM     48  N   UNL A   1      41.568  26.983  28.638  1.00  0.00    -0.354 N 
ATOM     49  C   UNL A   1      45.732  26.062  29.238  1.00  0.00     0.074 A 
ATOM     50  C   UNL A   1      46.042  24.725  28.776  1.00  0.00     0.031 C 
ATOM     51  C   UNL A   1      39.445  26.581  28.061  1.00  0.00     0.029 A 
ATOM     52  C   UNL A   1      40.331  27.580  28.647  1.00  0.00     0.049 A 
ATOM     53  H   UNL A   1      42.383  27.427  28.966  1.00  0.00     0.167 HD
ATOM     54  C   UNL A   1      46.637  26.905  29.789  1.00  0.00     0.031 A 
ATOM     55  C   UNL A   1      39.950  28.795  29.085  1.00  0.00     0.031 A 
ATOM     56  C   UNL A   1      46.338  28.242  30.226  1.00  0.00     0.049 A 
ATOM     57  C   UNL A   1      40.970  29.714  29.693  1.00  0.00     0.074 A 
ATOM     58  C   UNL A   1      47.200  29.196  30.735  1.00  0.00     0.029 A 
ATOM     59  N   UNL A   1      45.075  28.812  30.205  1.00  0.00    -0.354 N 
ATOM     60  N   UNL A   1      42.253  29.517  29.878  1.00  0.00    -0.248 NA
ATOM     61  C   UNL A   1      40.488  31.025  30.151  1.00  0.00     0.031 C 
ATOM     62  C   UNL A   1      46.451  30.335  31.055  1.00  0.00     0.029 A 
ATOM     63  C   UNL A   1      45.131  30.101  30.708  1.00  0.00     0.049 A 
ATOM     64  H   UNL A   1      44.259  28.367  29.881  1.00  0.00     0.167 HD
ATOM     65  C   UNL A   1      42.737  30.687  30.448  1.00  0.00     0.074 A 
ATOM     66  C   UNL A   1      41.610  31.590  30.574  1.00  0.00     0.031 C 
ATOM     67  C   UNL A   1      44.001  30.987  30.828  1.00  0.00     0.031 A 
BRANCH  54  68
ATOM     68  C   UNL A   1      48.035  26.385  29.960  1.00  0.00    -0.014 A 
ATOM     69  C   UNL A   1      48.438  25.758  31.150  1.00  0.00     0.009 A 
ATOM     70  C   UNL A   1      48.964  26.531  28.919  1.00  0.00     0.009 A 
ATOM     71  C   UNL A   1      49.758  25.332  31.313  1.00  0.00     0.001 A 
ATOM     72  C   UNL A   1      50.276  26.078  29.074  1.00  0.00     0.001 A 
ATOM     73  C   UNL A   1      50.674  25.491  30.274  1.00  0.00     0.000 A 
ENDBRANCH  54  68
BRANCH  55  74
ATOM     74  C   UNL A   1      38.538  29.225  28.935  1.00  0.00    -0.014 A 
ATOM     75  C   UNL A   1      37.656  29.127  30.021  1.00  0.00     0.009 A 
ATOM     76  C   UNL A   1      38.068  29.745  27.719  1.00  0.00     0.009 A 
ATOM     77  C   UNL A   1      36.324  29.527  29.889  1.00  0.00     0.001 A 
ATOM     78  C   UNL A   1      36.741  30.164  27.597  1.00  0.00     0.001 A 
ATOM     79  C   UNL A   1      35.869  30.050  28.679  1.00  0.00     0.000 A 
ENDBRANCH  55  74
BRANCH  67  80
ATOM     80  C   UNL A   1      44.242  32.360  31.382  1.00  0.00    -0.014 A 
ATOM     81  C   UNL A   1      44.548  33.440  30.539  1.00  0.00     0.009 A 
ATOM     82  C   UNL A   1      44.123  32.583  32.761  1.00  0.00     0.009 A 
ATOM     83  C   UNL A   1      44.754  34.714  31.075  1.00  0.00     0.001 A 
ATOM     84  C   UNL A   1      44.307  33.860  33.291  1.00  0.00     0.001 A 
ATOM     85  C   UNL A   1      44.629  34.923  32.448  1.00  0.00     0.000 A 
ENDBRANCH  67  80
ENDBRANCH  41  42
ENDBRANCH  33  36
ENDBRANCH  31  32
ENDBRANCH  30  31
ENDBRANCH  29  30
ENDBRANCH   1  29
TORSDOF 16
ENDMDL
