MODEL 1
REMARK VINA RESULT:     -11.2      0.000      0.000
REMARK SMILES C[C@H]1CC[C@@H]([C@@H](Cc2ccccc2)C(=O)NCCCCNC(=O)c2ccc(-c3c4nc(c(-c5ccccc5)c5ccc([nH]5)c(-c5ccccc5)c5nc(c(-c6ccccc6)c6ccc3[nH]6)C=C5)C=C4)cc2)C[C@@H]1C
REMARK SMILES IDX 18 1 17 2 16 3 14 4 15 5 6 7 5 8 1 9 2 10 3 11 73 12 4 13
REMARK SMILES IDX 72 14 74 15 7 16 8 17 9 18 13 19 10 20 12 21 11 22 19 23
REMARK SMILES IDX 20 24 21 25 22 26 23 28 24 29 25 30 71 31 26 32 70 33 27 34
REMARK SMILES IDX 28 35 29 36 64 37 30 38 69 39 63 40 65 41 31 42 68 43 62 44
REMARK SMILES IDX 61 45 32 47 54 48 39 49 53 50 40 51 43 52 52 53 66 54 41 55
REMARK SMILES IDX 42 56 51 58 67 59 44 60 33 61 34 62 38 63 35 64 37 65 36 66
REMARK SMILES IDX 55 67 56 68 60 69 57 70 59 71 58 72 45 73 46 74 50 75 47 76
REMARK SMILES IDX 49 77 48 78
REMARK H PARENT 16 6 21 27 65 46 43 57
REMARK Flexibility Score: inf
ROOT
ATOM      1  C   UNL A   1      32.609  28.270  25.107  1.00  0.00     0.023 C 
ENDROOT
BRANCH   1   2
ATOM      2  C   UNL A   1      33.615  27.169  24.787  1.00  0.00     0.116 C 
BRANCH   2   3
ATOM      3  N   UNL A   1      33.678  26.814  23.389  1.00  0.00    -0.356 N 
ATOM      4  C   UNL A   1      33.674  25.599  22.782  1.00  0.00     0.223 C 
ATOM      5  O   UNL A   1      33.657  25.617  21.544  1.00  0.00    -0.275 OA
ATOM      6  H   UNL A   1      33.733  27.581  22.774  1.00  0.00     0.163 HD
BRANCH   4   7
ATOM      7  C   UNL A   1      33.679  24.247  23.514  1.00  0.00     0.086 C 
BRANCH   7   8
ATOM      8  C   UNL A   1      32.340  23.500  23.861  1.00  0.00     0.002 C 
ATOM      9  C   UNL A   1      33.438  22.246  27.901  1.00  0.00     0.008 C 
ATOM     10  C   UNL A   1      32.556  22.299  26.646  1.00  0.00    -0.011 C 
ATOM     11  C   UNL A   1      32.135  23.748  26.401  1.00  0.00     0.004 C 
ATOM     12  C   UNL A   1      33.266  21.659  25.427  1.00  0.00    -0.011 C 
ATOM     13  C   UNL A   1      31.483  23.960  25.042  1.00  0.00     0.005 C 
ATOM     14  C   UNL A   1      32.569  21.984  24.090  1.00  0.00     0.008 C 
ATOM     15  C   UNL A   1      33.347  20.136  25.604  1.00  0.00     0.008 C 
ENDBRANCH   7   8
BRANCH   7  16
ATOM     16  C   UNL A   1      34.875  23.327  23.119  1.00  0.00     0.049 C 
BRANCH  16  17
ATOM     17  C   UNL A   1      36.007  23.119  24.093  1.00  0.00    -0.047 A 
ATOM     18  C   UNL A   1      36.838  21.991  23.977  1.00  0.00     0.004 A 
ATOM     19  C   UNL A   1      36.237  24.015  25.146  1.00  0.00     0.004 A 
ATOM     20  C   UNL A   1      37.827  21.732  24.928  1.00  0.00     0.000 A 
ATOM     21  C   UNL A   1      37.221  23.749  26.102  1.00  0.00     0.000 A 
ATOM     22  C   UNL A   1      38.005  22.601  26.002  1.00  0.00     0.000 A 
ENDBRANCH  16  17
ENDBRANCH   7  16
ENDBRANCH   4   7
ENDBRANCH   2   3
ENDBRANCH   1   2
BRANCH   1  23
ATOM     23  C   UNL A   1      33.187  29.514  25.756  1.00  0.00     0.023 C 
BRANCH  23  24
ATOM     24  C   UNL A   1      33.447  29.396  27.247  1.00  0.00     0.116 C 
BRANCH  24  25
ATOM     25  N   UNL A   1      33.580  30.672  27.941  1.00  0.00    -0.352 N 
ATOM     26  C   UNL A   1      34.682  31.170  28.607  1.00  0.00     0.251 C 
ATOM     27  H   UNL A   1      32.783  31.250  27.936  1.00  0.00     0.163 HD
ATOM     28  O   UNL A   1      34.654  32.239  29.183  1.00  0.00    -0.269 OA
BRANCH  26  29
ATOM     29  C   UNL A   1      35.894  30.325  28.635  1.00  0.00     0.039 A 
ATOM     30  C   UNL A   1      36.742  30.326  27.528  1.00  0.00     0.014 A 
ATOM     31  C   UNL A   1      36.255  29.685  29.822  1.00  0.00     0.014 A 
ATOM     32  C   UNL A   1      38.013  29.764  27.648  1.00  0.00     0.010 A 
ATOM     33  C   UNL A   1      37.554  29.222  29.968  1.00  0.00     0.010 A 
ATOM     34  C   UNL A   1      38.448  29.263  28.885  1.00  0.00    -0.014 A 
BRANCH  34  35
ATOM     35  C   UNL A   1      39.834  28.775  29.083  1.00  0.00     0.031 A 
ATOM     36  C   UNL A   1      40.874  29.706  29.642  1.00  0.00     0.074 A 
ATOM     37  C   UNL A   1      40.181  27.538  28.672  1.00  0.00     0.049 A 
ATOM     38  N   UNL A   1      42.159  29.513  29.792  1.00  0.00    -0.248 NA
ATOM     39  C   UNL A   1      40.415  31.046  30.044  1.00  0.00     0.031 C 
ATOM     40  C   UNL A   1      39.284  26.560  28.050  1.00  0.00     0.029 A 
ATOM     41  N   UNL A   1      41.393  26.895  28.709  1.00  0.00    -0.354 N 
ATOM     42  C   UNL A   1      42.662  30.717  30.267  1.00  0.00     0.074 A 
ATOM     43  C   UNL A   1      41.558  31.648  30.332  1.00  0.00     0.031 C 
ATOM     44  C   UNL A   1      39.968  25.434  27.795  1.00  0.00     0.029 A 
ATOM     45  C   UNL A   1      41.357  25.619  28.202  1.00  0.00     0.049 A 
ATOM     46  H   UNL A   1      42.212  27.310  29.065  1.00  0.00     0.167 HD
ATOM     47  C   UNL A   1      43.928  31.018  30.641  1.00  0.00     0.031 A 
ATOM     48  C   UNL A   1      42.334  24.701  28.081  1.00  0.00     0.031 A 
ATOM     49  C   UNL A   1      45.015  30.081  30.623  1.00  0.00     0.049 A 
ATOM     50  C   UNL A   1      43.720  25.039  28.554  1.00  0.00     0.074 A 
ATOM     51  C   UNL A   1      46.316  30.262  31.058  1.00  0.00     0.029 A 
ATOM     52  N   UNL A   1      44.924  28.780  30.155  1.00  0.00    -0.354 N 
ATOM     53  N   UNL A   1      44.165  26.160  29.070  1.00  0.00    -0.248 NA
ATOM     54  C   UNL A   1      44.736  23.983  28.440  1.00  0.00     0.031 C 
ATOM     55  C   UNL A   1      47.020  29.075  30.827  1.00  0.00     0.029 A 
ATOM     56  C   UNL A   1      46.146  28.147  30.283  1.00  0.00     0.049 A 
ATOM     57  H   UNL A   1      44.109  28.367  29.786  1.00  0.00     0.167 HD
ATOM     58  C   UNL A   1      45.502  25.934  29.367  1.00  0.00     0.074 A 
ATOM     59  C   UNL A   1      45.793  24.568  28.985  1.00  0.00     0.031 C 
ATOM     60  C   UNL A   1      46.410  26.784  29.907  1.00  0.00     0.031 A 
BRANCH  47  61
ATOM     61  C   UNL A   1      44.190  32.419  31.108  1.00  0.00    -0.014 A 
ATOM     62  C   UNL A   1      44.580  33.424  30.207  1.00  0.00     0.009 A 
ATOM     63  C   UNL A   1      44.036  32.744  32.465  1.00  0.00     0.009 A 
ATOM     64  C   UNL A   1      44.850  34.715  30.662  1.00  0.00     0.001 A 
ATOM     65  C   UNL A   1      44.279  34.044  32.911  1.00  0.00     0.001 A 
ATOM     66  C   UNL A   1      44.696  35.025  32.012  1.00  0.00     0.000 A 
ENDBRANCH  47  61
BRANCH  48  67
ATOM     67  C   UNL A   1      42.036  23.359  27.520  1.00  0.00    -0.014 A 
ATOM     68  C   UNL A   1      41.431  22.377  28.320  1.00  0.00     0.009 A 
ATOM     69  C   UNL A   1      42.360  23.047  26.191  1.00  0.00     0.009 A 
ATOM     70  C   UNL A   1      41.184  21.100  27.808  1.00  0.00     0.001 A 
ATOM     71  C   UNL A   1      42.089  21.778  25.676  1.00  0.00     0.001 A 
ATOM     72  C   UNL A   1      41.509  20.803  26.486  1.00  0.00     0.000 A 
ENDBRANCH  48  67
BRANCH  60  73
ATOM     73  C   UNL A   1      47.789  26.248  30.153  1.00  0.00    -0.014 A 
ATOM     74  C   UNL A   1      48.172  25.788  31.422  1.00  0.00     0.009 A 
ATOM     75  C   UNL A   1      48.696  26.153  29.087  1.00  0.00     0.009 A 
ATOM     76  C   UNL A   1      49.451  25.266  31.623  1.00  0.00     0.001 A 
ATOM     77  C   UNL A   1      49.966  25.610  29.286  1.00  0.00     0.001 A 
ATOM     78  C   UNL A   1      50.344  25.174  30.555  1.00  0.00     0.000 A 
ENDBRANCH  60  73
ENDBRANCH  34  35
ENDBRANCH  26  29
ENDBRANCH  24  25
ENDBRANCH  23  24
ENDBRANCH   1  23
TORSDOF 14
ENDMDL
MODEL 2
REMARK VINA RESULT:     -11.1      2.631      7.965
REMARK SMILES C[C@H]1CC[C@@H]([C@@H](Cc2ccccc2)C(=O)NCCCCNC(=O)c2ccc(-c3c4nc(c(-c5ccccc5)c5ccc([nH]5)c(-c5ccccc5)c5nc(c(-c6ccccc6)c6ccc3[nH]6)C=C5)C=C4)cc2)C[C@@H]1C
REMARK SMILES IDX 18 1 17 2 16 3 14 4 15 5 6 7 5 8 1 9 2 10 3 11 73 12 4 13
REMARK SMILES IDX 72 14 74 15 7 16 8 17 9 18 13 19 10 20 12 21 11 22 19 23
REMARK SMILES IDX 20 24 21 25 22 26 23 28 24 29 25 30 71 31 26 32 70 33 27 34
REMARK SMILES IDX 28 35 29 36 64 37 30 38 69 39 63 40 65 41 31 42 68 43 62 44
REMARK SMILES IDX 61 45 32 47 54 48 39 49 53 50 40 51 43 52 52 53 66 54 41 55
REMARK SMILES IDX 42 56 51 58 67 59 44 60 33 61 34 62 38 63 35 64 37 65 36 66
REMARK SMILES IDX 55 67 56 68 60 69 57 70 59 71 58 72 45 73 46 74 50 75 47 76
REMARK SMILES IDX 49 77 48 78
REMARK H PARENT 16 6 21 27 65 46 43 57
REMARK Flexibility Score: inf
ROOT
ATOM      1  C   UNL A   1      34.862  23.560  25.770  1.00  0.00     0.023 C 
ENDROOT
BRANCH   1   2
ATOM      2  C   UNL A   1      33.553  22.954  25.273  1.00  0.00     0.116 C 
BRANCH   2   3
ATOM      3  N   UNL A   1      32.458  23.064  26.208  1.00  0.00    -0.356 N 
ATOM      4  C   UNL A   1      31.538  24.048  26.383  1.00  0.00     0.223 C 
ATOM      5  O   UNL A   1      30.660  23.819  27.225  1.00  0.00    -0.275 OA
ATOM      6  H   UNL A   1      32.363  22.299  26.820  1.00  0.00     0.163 HD
BRANCH   4   7
ATOM      7  C   UNL A   1      31.515  25.381  25.619  1.00  0.00     0.086 C 
BRANCH   7   8
ATOM      8  C   UNL A   1      31.040  25.457  24.121  1.00  0.00     0.002 C 
ATOM      9  C   UNL A   1      33.382  28.964  22.975  1.00  0.00     0.008 C 
ATOM     10  C   UNL A   1      32.337  27.857  22.779  1.00  0.00    -0.011 C 
ATOM     11  C   UNL A   1      33.030  26.500  22.894  1.00  0.00     0.004 C 
ATOM     12  C   UNL A   1      31.151  28.018  23.762  1.00  0.00    -0.011 C 
ATOM     13  C   UNL A   1      32.053  25.335  22.982  1.00  0.00     0.005 C 
ATOM     14  C   UNL A   1      30.257  26.764  23.832  1.00  0.00     0.008 C 
ATOM     15  C   UNL A   1      30.299  29.232  23.366  1.00  0.00     0.008 C 
ENDBRANCH   7   8
BRANCH   7  16
ATOM     16  C   UNL A   1      31.129  26.605  26.505  1.00  0.00     0.049 C 
BRANCH  16  17
ATOM     17  C   UNL A   1      32.136  27.704  26.737  1.00  0.00    -0.047 A 
ATOM     18  C   UNL A   1      31.706  28.976  27.152  1.00  0.00     0.004 A 
ATOM     19  C   UNL A   1      33.504  27.497  26.515  1.00  0.00     0.004 A 
ATOM     20  C   UNL A   1      32.613  30.031  27.275  1.00  0.00     0.000 A 
ATOM     21  C   UNL A   1      34.409  28.556  26.628  1.00  0.00     0.000 A 
ATOM     22  C   UNL A   1      33.962  29.825  26.994  1.00  0.00     0.000 A 
ENDBRANCH  16  17
ENDBRANCH   7  16
ENDBRANCH   4   7
ENDBRANCH   2   3
ENDBRANCH   1   2
BRANCH   1  23
ATOM     23  C   UNL A   1      36.053  22.620  25.782  1.00  0.00     0.023 C 
BRANCH  23  24
ATOM     24  C   UNL A   1      37.328  23.195  25.193  1.00  0.00     0.116 C 
BRANCH  24  25
ATOM     25  N   UNL A   1      38.539  22.456  25.531  1.00  0.00    -0.352 N 
ATOM     26  C   UNL A   1      39.616  22.880  26.283  1.00  0.00     0.251 C 
ATOM     27  H   UNL A   1      38.597  21.539  25.176  1.00  0.00     0.163 HD
ATOM     28  O   UNL A   1      40.589  22.177  26.462  1.00  0.00    -0.269 OA
BRANCH  26  29
ATOM     29  C   UNL A   1      39.561  24.253  26.827  1.00  0.00     0.039 A 
ATOM     30  C   UNL A   1      39.014  24.455  28.094  1.00  0.00     0.014 A 
ATOM     31  C   UNL A   1      40.209  25.286  26.147  1.00  0.00     0.014 A 
ATOM     32  C   UNL A   1      39.209  25.681  28.729  1.00  0.00     0.010 A 
ATOM     33  C   UNL A   1      40.489  26.464  26.822  1.00  0.00     0.010 A 
ATOM     34  C   UNL A   1      39.998  26.671  28.122  1.00  0.00    -0.014 A 
BRANCH  34  35
ATOM     35  C   UNL A   1      40.332  27.936  28.820  1.00  0.00     0.031 A 
ATOM     36  C   UNL A   1      41.660  28.070  29.514  1.00  0.00     0.074 A 
ATOM     37  C   UNL A   1      39.414  28.919  28.915  1.00  0.00     0.049 A 
ATOM     38  N   UNL A   1      42.103  29.043  30.267  1.00  0.00    -0.248 NA
ATOM     39  C   UNL A   1      42.595  26.941  29.378  1.00  0.00     0.031 C 
ATOM     40  C   UNL A   1      38.064  28.886  28.347  1.00  0.00     0.029 A 
ATOM     41  N   UNL A   1      39.479  30.139  29.540  1.00  0.00    -0.354 N 
ATOM     42  C   UNL A   1      43.345  28.624  30.723  1.00  0.00     0.074 A 
ATOM     43  C   UNL A   1      43.565  27.293  30.206  1.00  0.00     0.031 C 
ATOM     44  C   UNL A   1      37.443  30.045  28.620  1.00  0.00     0.029 A 
ATOM     45  C   UNL A   1      38.333  30.887  29.411  1.00  0.00     0.049 A 
ATOM     46  H   UNL A   1      40.272  30.450  30.034  1.00  0.00     0.167 HD
ATOM     47  C   UNL A   1      44.239  29.298  31.485  1.00  0.00     0.031 A 
ATOM     48  C   UNL A   1      38.037  32.114  29.877  1.00  0.00     0.031 A 
ATOM     49  C   UNL A   1      44.043  30.638  31.958  1.00  0.00     0.049 A 
ATOM     50  C   UNL A   1      39.066  32.864  30.675  1.00  0.00     0.074 A 
ATOM     51  C   UNL A   1      44.920  31.438  32.668  1.00  0.00     0.029 A 
ATOM     52  N   UNL A   1      42.891  31.381  31.758  1.00  0.00    -0.354 N 
ATOM     53  N   UNL A   1      40.268  32.483  31.037  1.00  0.00    -0.248 NA
ATOM     54  C   UNL A   1      38.704  34.218  31.119  1.00  0.00     0.031 C 
ATOM     55  C   UNL A   1      44.287  32.659  32.921  1.00  0.00     0.029 A 
ATOM     56  C   UNL A   1      43.030  32.630  32.337  1.00  0.00     0.049 A 
ATOM     57  H   UNL A   1      42.092  31.068  31.275  1.00  0.00     0.167 HD
ATOM     58  C   UNL A   1      40.814  33.558  31.724  1.00  0.00     0.074 A 
ATOM     59  C   UNL A   1      39.818  34.610  31.720  1.00  0.00     0.031 C 
ATOM     60  C   UNL A   1      42.032  33.665  32.310  1.00  0.00     0.031 A 
BRANCH  47  61
ATOM     61  C   UNL A   1      45.511  28.585  31.840  1.00  0.00    -0.014 A 
ATOM     62  C   UNL A   1      45.609  27.813  33.009  1.00  0.00     0.009 A 
ATOM     63  C   UNL A   1      46.624  28.677  30.990  1.00  0.00     0.009 A 
ATOM     64  C   UNL A   1      46.808  27.182  33.341  1.00  0.00     0.001 A 
ATOM     65  C   UNL A   1      47.814  28.021  31.311  1.00  0.00     0.001 A 
ATOM     66  C   UNL A   1      47.908  27.282  32.491  1.00  0.00     0.000 A 
ENDBRANCH  47  61
BRANCH  48  67
ATOM     67  C   UNL A   1      36.720  32.732  29.575  1.00  0.00    -0.014 A 
ATOM     68  C   UNL A   1      35.699  32.728  30.538  1.00  0.00     0.009 A 
ATOM     69  C   UNL A   1      36.473  33.320  28.325  1.00  0.00     0.009 A 
ATOM     70  C   UNL A   1      34.447  33.274  30.244  1.00  0.00     0.001 A 
ATOM     71  C   UNL A   1      35.227  33.887  28.044  1.00  0.00     0.001 A 
ATOM     72  C   UNL A   1      34.213  33.856  29.000  1.00  0.00     0.000 A 
ENDBRANCH  48  67
BRANCH  60  73
ATOM     73  C   UNL A   1      42.369  34.975  32.957  1.00  0.00    -0.014 A 
ATOM     74  C   UNL A   1      41.937  35.272  34.258  1.00  0.00     0.009 A 
ATOM     75  C   UNL A   1      43.174  35.899  32.274  1.00  0.00     0.009 A 
ATOM     76  C   UNL A   1      42.286  36.486  34.853  1.00  0.00     0.001 A 
ATOM     77  C   UNL A   1      43.539  37.101  32.880  1.00  0.00     0.001 A 
ATOM     78  C   UNL A   1      43.089  37.396  34.166  1.00  0.00     0.000 A 
ENDBRANCH  60  73
ENDBRANCH  34  35
ENDBRANCH  26  29
ENDBRANCH  24  25
ENDBRANCH  23  24
ENDBRANCH   1  23
TORSDOF 14
ENDMDL
MODEL 3
REMARK VINA RESULT:     -11.0      2.625      7.787
REMARK SMILES C[C@H]1CC[C@@H]([C@@H](Cc2ccccc2)C(=O)NCCCCNC(=O)c2ccc(-c3c4nc(c(-c5ccccc5)c5ccc([nH]5)c(-c5ccccc5)c5nc(c(-c6ccccc6)c6ccc3[nH]6)C=C5)C=C4)cc2)C[C@@H]1C
REMARK SMILES IDX 18 1 17 2 16 3 14 4 15 5 6 7 5 8 1 9 2 10 3 11 73 12 4 13
REMARK SMILES IDX 72 14 74 15 7 16 8 17 9 18 13 19 10 20 12 21 11 22 19 23
REMARK SMILES IDX 20 24 21 25 22 26 23 28 24 29 25 30 71 31 26 32 70 33 27 34
REMARK SMILES IDX 28 35 29 36 64 37 30 38 69 39 63 40 65 41 31 42 68 43 62 44
REMARK SMILES IDX 61 45 32 47 54 48 39 49 53 50 40 51 43 52 52 53 66 54 41 55
REMARK SMILES IDX 42 56 51 58 67 59 44 60 33 61 34 62 38 63 35 64 37 65 36 66
REMARK SMILES IDX 55 67 56 68 60 69 57 70 59 71 58 72 45 73 46 74 50 75 47 76
REMARK SMILES IDX 49 77 48 78
REMARK H PARENT 16 6 21 27 65 46 43 57
REMARK Flexibility Score: inf
ROOT
ATOM      1  C   UNL A   1      34.982  22.436  26.150  1.00  0.00     0.023 C 
ENDROOT
BRANCH   1   2
ATOM      2  C   UNL A   1      34.132  23.702  26.124  1.00  0.00     0.116 C 
BRANCH   2   3
ATOM      3  N   UNL A   1      32.832  23.553  26.736  1.00  0.00    -0.356 N 
ATOM      4  C   UNL A   1      31.703  24.298  26.609  1.00  0.00     0.223 C 
ATOM      5  O   UNL A   1      30.707  23.869  27.207  1.00  0.00    -0.275 OA
ATOM      6  H   UNL A   1      32.751  22.784  27.344  1.00  0.00     0.163 HD
BRANCH   4   7
ATOM      7  C   UNL A   1      31.587  25.594  25.791  1.00  0.00     0.086 C 
BRANCH   7   8
ATOM      8  C   UNL A   1      30.998  25.590  24.333  1.00  0.00     0.002 C 
ATOM      9  C   UNL A   1      33.348  28.930  22.778  1.00  0.00     0.008 C 
ATOM     10  C   UNL A   1      32.257  27.851  22.737  1.00  0.00    -0.011 C 
ATOM     11  C   UNL A   1      32.916  26.480  22.889  1.00  0.00     0.004 C 
ATOM     12  C   UNL A   1      31.158  28.117  23.795  1.00  0.00    -0.011 C 
ATOM     13  C   UNL A   1      31.914  25.359  23.130  1.00  0.00     0.005 C 
ATOM     14  C   UNL A   1      30.234  26.902  24.017  1.00  0.00     0.008 C 
ATOM     15  C   UNL A   1      30.314  29.332  23.385  1.00  0.00     0.008 C 
ENDBRANCH   7   8
BRANCH   7  16
ATOM     16  C   UNL A   1      31.237  26.848  26.650  1.00  0.00     0.049 C 
BRANCH  16  17
ATOM     17  C   UNL A   1      32.266  27.935  26.834  1.00  0.00    -0.047 A 
ATOM     18  C   UNL A   1      31.866  29.223  27.231  1.00  0.00     0.004 A 
ATOM     19  C   UNL A   1      33.625  27.702  26.583  1.00  0.00     0.004 A 
ATOM     20  C   UNL A   1      32.793  30.265  27.309  1.00  0.00     0.000 A 
ATOM     21  C   UNL A   1      34.549  28.749  26.653  1.00  0.00     0.000 A 
ATOM     22  C   UNL A   1      34.131  30.033  27.001  1.00  0.00     0.000 A 
ENDBRANCH  16  17
ENDBRANCH   7  16
ENDBRANCH   4   7
ENDBRANCH   2   3
ENDBRANCH   1   2
BRANCH   1  23
ATOM     23  C   UNL A   1      36.049  22.345  25.076  1.00  0.00     0.023 C 
BRANCH  23  24
ATOM     24  C   UNL A   1      37.270  23.217  25.310  1.00  0.00     0.116 C 
BRANCH  24  25
ATOM     25  N   UNL A   1      38.516  22.480  25.488  1.00  0.00    -0.352 N 
ATOM     26  C   UNL A   1      39.664  22.889  26.136  1.00  0.00     0.251 C 
ATOM     27  H   UNL A   1      38.542  21.577  25.095  1.00  0.00     0.163 HD
ATOM     28  O   UNL A   1      40.657  22.191  26.182  1.00  0.00    -0.269 OA
BRANCH  26  29
ATOM     29  C   UNL A   1      39.658  24.240  26.734  1.00  0.00     0.039 A 
ATOM     30  C   UNL A   1      39.160  24.403  28.026  1.00  0.00     0.014 A 
ATOM     31  C   UNL A   1      40.304  25.285  26.071  1.00  0.00     0.014 A 
ATOM     32  C   UNL A   1      39.404  25.599  28.701  1.00  0.00     0.010 A 
ATOM     33  C   UNL A   1      40.633  26.430  26.781  1.00  0.00     0.010 A 
ATOM     34  C   UNL A   1      40.193  26.596  28.105  1.00  0.00    -0.014 A 
BRANCH  34  35
ATOM     35  C   UNL A   1      40.579  27.825  28.839  1.00  0.00     0.031 A 
ATOM     36  C   UNL A   1      39.578  28.936  29.000  1.00  0.00     0.074 A 
ATOM     37  C   UNL A   1      41.845  27.985  29.271  1.00  0.00     0.049 A 
ATOM     38  N   UNL A   1      39.744  30.129  29.510  1.00  0.00    -0.248 NA
ATOM     39  C   UNL A   1      38.223  28.687  28.479  1.00  0.00     0.031 C 
ATOM     40  C   UNL A   1      42.931  27.012  29.116  1.00  0.00     0.029 A 
ATOM     41  N   UNL A   1      42.437  29.038  29.923  1.00  0.00    -0.354 N 
ATOM     42  C   UNL A   1      38.531  30.781  29.333  1.00  0.00     0.074 A 
ATOM     43  C   UNL A   1      37.655  29.873  28.627  1.00  0.00     0.031 C 
ATOM     44  C   UNL A   1      44.044  27.501  29.687  1.00  0.00     0.029 A 
ATOM     45  C   UNL A   1      43.763  28.831  30.216  1.00  0.00     0.049 A 
ATOM     46  H   UNL A   1      41.956  29.863  30.159  1.00  0.00     0.167 HD
ATOM     47  C   UNL A   1      38.166  32.017  29.746  1.00  0.00     0.031 A 
ATOM     48  C   UNL A   1      44.652  29.624  30.843  1.00  0.00     0.031 A 
ATOM     49  C   UNL A   1      39.018  32.900  30.490  1.00  0.00     0.049 A 
ATOM     50  C   UNL A   1      44.208  30.972  31.340  1.00  0.00     0.074 A 
ATOM     51  C   UNL A   1      38.718  34.140  31.024  1.00  0.00     0.029 A 
ATOM     52  N   UNL A   1      40.338  32.630  30.815  1.00  0.00    -0.354 N 
ATOM     53  N   UNL A   1      43.034  31.546  31.230  1.00  0.00    -0.248 NA
ATOM     54  C   UNL A   1      45.208  31.776  32.058  1.00  0.00     0.031 C 
ATOM     55  C   UNL A   1      39.867  34.633  31.652  1.00  0.00     0.029 A 
ATOM     56  C   UNL A   1      40.870  33.682  31.538  1.00  0.00     0.049 A 
ATOM     57  H   UNL A   1      40.825  31.810  30.569  1.00  0.00     0.167 HD
ATOM     58  C   UNL A   1      43.146  32.763  31.888  1.00  0.00     0.074 A 
ATOM     59  C   UNL A   1      44.497  32.840  32.403  1.00  0.00     0.031 C 
ATOM     60  C   UNL A   1      42.213  33.732  32.050  1.00  0.00     0.031 A 
BRANCH  47  61
ATOM     61  C   UNL A   1      36.779  32.473  29.401  1.00  0.00    -0.014 A 
ATOM     62  C   UNL A   1      36.510  33.130  28.189  1.00  0.00     0.009 A 
ATOM     63  C   UNL A   1      35.723  32.234  30.294  1.00  0.00     0.009 A 
ATOM     64  C   UNL A   1      35.221  33.575  27.897  1.00  0.00     0.001 A 
ATOM     65  C   UNL A   1      34.428  32.656  29.985  1.00  0.00     0.001 A 
ATOM     66  C   UNL A   1      34.180  33.334  28.793  1.00  0.00     0.000 A 
ENDBRANCH  47  61
BRANCH  48  67
ATOM     67  C   UNL A   1      46.043  29.157  31.071  1.00  0.00    -0.014 A 
ATOM     68  C   UNL A   1      46.370  28.457  32.243  1.00  0.00     0.009 A 
ATOM     69  C   UNL A   1      47.051  29.415  30.130  1.00  0.00     0.009 A 
ATOM     70  C   UNL A   1      47.685  28.049  32.480  1.00  0.00     0.001 A 
ATOM     71  C   UNL A   1      48.360  28.985  30.360  1.00  0.00     0.001 A 
ATOM     72  C   UNL A   1      48.678  28.310  31.537  1.00  0.00     0.000 A 
ENDBRANCH  48  67
BRANCH  60  73
ATOM     73  C   UNL A   1      42.609  34.939  32.848  1.00  0.00    -0.014 A 
ATOM     74  C   UNL A   1      43.268  36.021  32.245  1.00  0.00     0.009 A 
ATOM     75  C   UNL A   1      42.270  35.013  34.207  1.00  0.00     0.009 A 
ATOM     76  C   UNL A   1      43.603  37.147  33.000  1.00  0.00     0.001 A 
ATOM     77  C   UNL A   1      42.586  36.150  34.953  1.00  0.00     0.001 A 
ATOM     78  C   UNL A   1      43.258  37.212  34.350  1.00  0.00     0.000 A 
ENDBRANCH  60  73
ENDBRANCH  34  35
ENDBRANCH  26  29
ENDBRANCH  24  25
ENDBRANCH  23  24
ENDBRANCH   1  23
TORSDOF 14
ENDMDL
