MODEL 1
REMARK VINA RESULT:     -11.1      0.000      0.000
REMARK SMILES O=C(NCCCCNC(=O)c1ccc(N2CC3(CC3)C2)cc1)c1ccc(-c2c3nc(c(-c4ccccc4)c4ccc([nH]4)c(-c4ccccc4)c4nc(c(-c5ccccc5)c5ccc2[nH]5)C=C4)C=C3)cc1
REMARK SMILES IDX 5 1 4 2 3 3 1 4 2 5 23 7 24 8 70 9 25 10 69 11 26 12 27 13
REMARK SMILES IDX 28 14 63 15 29 16 68 17 62 18 64 19 30 20 67 21 61 22 60 23
REMARK SMILES IDX 31 25 53 26 38 27 52 28 39 29 42 30 51 31 65 32 40 33 41 34
REMARK SMILES IDX 50 36 66 37 43 38 32 39 33 40 37 41 34 42 36 43 35 44 54 45
REMARK SMILES IDX 55 46 59 47 56 48 58 49 57 50 44 51 45 52 49 53 46 54 48 55
REMARK SMILES IDX 47 56 6 57 7 58 8 59 9 60 10 62 11 63 12 64 22 65 13 66
REMARK SMILES IDX 21 67 14 68 15 69 16 70 20 71 17 72 18 73 19 74
REMARK H PARENT 3 6 64 24 42 35 8 61
REMARK Flexibility Score: inf
ROOT
ATOM      1  C   UNL A   1      33.672  28.425  25.703  1.00  0.00     0.023 C 
ENDROOT
BRANCH   1   2
ATOM      2  C   UNL A   1      33.756  28.604  27.213  1.00  0.00     0.116 C 
BRANCH   2   3
ATOM      3  N   UNL A   1      33.645  29.996  27.623  1.00  0.00    -0.352 N 
ATOM      4  O   UNL A   1      34.254  31.897  28.677  1.00  0.00    -0.269 OA
ATOM      5  C   UNL A   1      34.567  30.780  28.272  1.00  0.00     0.251 C 
ATOM      6  H   UNL A   1      32.792  30.435  27.405  1.00  0.00     0.163 HD
BRANCH   5   7
ATOM      7  C   UNL A   1      35.937  30.270  28.497  1.00  0.00     0.039 A 
ATOM      8  C   UNL A   1      36.895  30.343  27.484  1.00  0.00     0.014 A 
ATOM      9  C   UNL A   1      36.270  29.732  29.743  1.00  0.00     0.014 A 
ATOM     10  C   UNL A   1      38.146  29.768  27.673  1.00  0.00     0.010 A 
ATOM     11  C   UNL A   1      37.557  29.231  29.962  1.00  0.00     0.010 A 
ATOM     12  C   UNL A   1      38.501  29.235  28.924  1.00  0.00    -0.014 A 
BRANCH  12  13
ATOM     13  C   UNL A   1      39.904  28.813  29.154  1.00  0.00     0.031 A 
ATOM     14  C   UNL A   1      40.914  29.732  29.780  1.00  0.00     0.074 A 
ATOM     15  C   UNL A   1      40.257  27.566  28.784  1.00  0.00     0.049 A 
ATOM     16  N   UNL A   1      42.174  29.501  30.046  1.00  0.00    -0.248 NA
ATOM     17  C   UNL A   1      40.458  31.080  30.154  1.00  0.00     0.031 C 
ATOM     18  C   UNL A   1      39.362  26.590  28.151  1.00  0.00     0.029 A 
ATOM     19  N   UNL A   1      41.448  26.897  28.893  1.00  0.00    -0.354 N 
ATOM     20  C   UNL A   1      42.670  30.675  30.599  1.00  0.00     0.074 A 
ATOM     21  C   UNL A   1      41.577  31.625  30.619  1.00  0.00     0.031 C 
ATOM     22  C   UNL A   1      40.024  25.441  27.963  1.00  0.00     0.029 A 
ATOM     23  C   UNL A   1      41.405  25.618  28.395  1.00  0.00     0.049 A 
ATOM     24  H   UNL A   1      42.255  27.295  29.291  1.00  0.00     0.167 HD
ATOM     25  C   UNL A   1      43.923  30.933  31.045  1.00  0.00     0.031 A 
ATOM     26  C   UNL A   1      42.375  24.695  28.266  1.00  0.00     0.031 A 
ATOM     27  C   UNL A   1      45.004  29.979  31.025  1.00  0.00     0.049 A 
ATOM     28  C   UNL A   1      43.760  25.031  28.732  1.00  0.00     0.074 A 
ATOM     29  C   UNL A   1      46.292  30.130  31.512  1.00  0.00     0.029 A 
ATOM     30  N   UNL A   1      44.930  28.708  30.481  1.00  0.00    -0.354 N 
ATOM     31  N   UNL A   1      44.192  26.122  29.315  1.00  0.00    -0.248 NA
ATOM     32  C   UNL A   1      44.793  24.008  28.518  1.00  0.00     0.031 C 
ATOM     33  C   UNL A   1      47.015  28.974  31.202  1.00  0.00     0.029 A 
ATOM     34  C   UNL A   1      46.161  28.081  30.577  1.00  0.00     0.049 A 
ATOM     35  H   UNL A   1      44.122  28.309  30.083  1.00  0.00     0.167 HD
ATOM     36  C   UNL A   1      45.544  25.915  29.544  1.00  0.00     0.074 A 
ATOM     37  C   UNL A   1      45.852  24.581  29.070  1.00  0.00     0.031 C 
ATOM     38  C   UNL A   1      46.453  26.758  30.091  1.00  0.00     0.031 A 
BRANCH  25  39
ATOM     39  C   UNL A   1      44.223  32.307  31.573  1.00  0.00    -0.014 A 
ATOM     40  C   UNL A   1      44.685  33.330  30.731  1.00  0.00     0.009 A 
ATOM     41  C   UNL A   1      43.935  32.610  32.914  1.00  0.00     0.009 A 
ATOM     42  C   UNL A   1      44.864  34.625  31.225  1.00  0.00     0.001 A 
ATOM     43  C   UNL A   1      44.093  33.909  33.400  1.00  0.00     0.001 A 
ATOM     44  C   UNL A   1      44.560  34.915  32.555  1.00  0.00     0.000 A 
ENDBRANCH  25  39
BRANCH  26  45
ATOM     45  C   UNL A   1      42.081  23.390  27.619  1.00  0.00    -0.014 A 
ATOM     46  C   UNL A   1      41.494  22.343  28.345  1.00  0.00     0.009 A 
ATOM     47  C   UNL A   1      42.408  23.181  26.269  1.00  0.00     0.009 A 
ATOM     48  C   UNL A   1      41.272  21.103  27.740  1.00  0.00     0.001 A 
ATOM     49  C   UNL A   1      42.151  21.954  25.658  1.00  0.00     0.001 A 
ATOM     50  C   UNL A   1      41.596  20.912  26.396  1.00  0.00     0.000 A 
ENDBRANCH  26  45
BRANCH  38  51
ATOM     51  C   UNL A   1      47.861  26.252  30.210  1.00  0.00    -0.014 A 
ATOM     52  C   UNL A   1      48.343  25.729  31.419  1.00  0.00     0.009 A 
ATOM     53  C   UNL A   1      48.709  26.279  29.092  1.00  0.00     0.009 A 
ATOM     54  C   UNL A   1      49.658  25.274  31.517  1.00  0.00     0.001 A 
ATOM     55  C   UNL A   1      50.014  25.794  29.184  1.00  0.00     0.001 A 
ATOM     56  C   UNL A   1      50.490  25.302  30.399  1.00  0.00     0.000 A 
ENDBRANCH  38  51
ENDBRANCH  12  13
ENDBRANCH   5   7
ENDBRANCH   2   3
ENDBRANCH   1   2
BRANCH   1  57
ATOM     57  C   UNL A   1      32.933  29.536  24.958  1.00  0.00     0.023 C 
BRANCH  57  58
ATOM     58  C   UNL A   1      31.412  29.515  25.098  1.00  0.00     0.116 C 
BRANCH  58  59
ATOM     59  N   UNL A   1      30.742  29.748  23.830  1.00  0.00    -0.352 N 
ATOM     60  C   UNL A   1      30.476  28.867  22.813  1.00  0.00     0.251 C 
ATOM     61  H   UNL A   1      30.436  30.671  23.679  1.00  0.00     0.163 HD
ATOM     62  O   UNL A   1      30.070  29.281  21.732  1.00  0.00    -0.269 OA
BRANCH  60  63
ATOM     63  C   UNL A   1      30.681  27.420  23.015  1.00  0.00     0.039 A 
ATOM     64  C   UNL A   1      31.746  26.791  22.370  1.00  0.00     0.016 A 
ATOM     65  C   UNL A   1      29.794  26.675  23.796  1.00  0.00     0.016 A 
ATOM     66  C   UNL A   1      31.956  25.422  22.558  1.00  0.00     0.027 A 
ATOM     67  C   UNL A   1      30.001  25.305  23.963  1.00  0.00     0.027 A 
ATOM     68  C   UNL A   1      31.086  24.663  23.355  1.00  0.00     0.037 A 
BRANCH  68  69
ATOM     69  N   UNL A   1      31.322  23.288  23.517  1.00  0.00    -0.370 N 
ATOM     70  C   UNL A   1      32.241  22.504  22.741  1.00  0.00     0.125 C 
ATOM     71  C   UNL A   1      31.527  22.522  24.709  1.00  0.00     0.125 C 
ATOM     72  C   UNL A   1      32.591  21.805  23.990  1.00  0.00     0.005 C 
ATOM     73  C   UNL A   1      33.968  21.538  24.519  1.00  0.00     0.011 C 
ATOM     74  C   UNL A   1      33.049  20.397  24.166  1.00  0.00     0.011 C 
ENDBRANCH  68  69
ENDBRANCH  60  63
ENDBRANCH  58  59
ENDBRANCH  57  58
ENDBRANCH   1  57
TORSDOF 12
ENDMDL
MODEL 2
REMARK VINA RESULT:     -11.0      2.678      7.752
REMARK SMILES O=C(NCCCCNC(=O)c1ccc(N2CC3(CC3)C2)cc1)c1ccc(-c2c3nc(c(-c4ccccc4)c4ccc([nH]4)c(-c4ccccc4)c4nc(c(-c5ccccc5)c5ccc2[nH]5)C=C4)C=C3)cc1
REMARK SMILES IDX 5 1 4 2 3 3 1 4 2 5 23 7 24 8 70 9 25 10 69 11 26 12 27 13
REMARK SMILES IDX 28 14 63 15 29 16 68 17 62 18 64 19 30 20 67 21 61 22 60 23
REMARK SMILES IDX 31 25 53 26 38 27 52 28 39 29 42 30 51 31 65 32 40 33 41 34
REMARK SMILES IDX 50 36 66 37 43 38 32 39 33 40 37 41 34 42 36 43 35 44 54 45
REMARK SMILES IDX 55 46 59 47 56 48 58 49 57 50 44 51 45 52 49 53 46 54 48 55
REMARK SMILES IDX 47 56 6 57 7 58 8 59 9 60 10 62 11 63 12 64 22 65 13 66
REMARK SMILES IDX 21 67 14 68 15 69 16 70 20 71 17 72 18 73 19 74
REMARK H PARENT 3 6 64 24 42 35 8 61
REMARK Flexibility Score: inf
ROOT
ATOM      1  C   UNL A   1      37.349  20.061  24.839  1.00  0.00     0.023 C 
ENDROOT
BRANCH   1   2
ATOM      2  C   UNL A   1      38.569  20.575  25.590  1.00  0.00     0.116 C 
BRANCH   2   3
ATOM      3  N   UNL A   1      39.639  19.592  25.668  1.00  0.00    -0.352 N 
ATOM      4  O   UNL A   1      41.758  18.854  25.917  1.00  0.00    -0.269 OA
ATOM      5  C   UNL A   1      40.946  19.767  26.050  1.00  0.00     0.251 C 
ATOM      6  H   UNL A   1      39.390  18.674  25.413  1.00  0.00     0.163 HD
BRANCH   5   7
ATOM      7  C   UNL A   1      41.381  21.065  26.608  1.00  0.00     0.039 A 
ATOM      8  C   UNL A   1      41.879  22.065  25.769  1.00  0.00     0.014 A 
ATOM      9  C   UNL A   1      41.270  21.291  27.983  1.00  0.00     0.014 A 
ATOM     10  C   UNL A   1      42.380  23.240  26.316  1.00  0.00     0.010 A 
ATOM     11  C   UNL A   1      41.695  22.509  28.523  1.00  0.00     0.010 A 
ATOM     12  C   UNL A   1      42.263  23.488  27.694  1.00  0.00    -0.014 A 
BRANCH  12  13
ATOM     13  C   UNL A   1      42.621  24.830  28.216  1.00  0.00     0.031 A 
ATOM     14  C   UNL A   1      44.028  25.174  28.614  1.00  0.00     0.074 A 
ATOM     15  C   UNL A   1      41.639  25.747  28.325  1.00  0.00     0.049 A 
ATOM     16  N   UNL A   1      44.490  26.306  29.083  1.00  0.00    -0.248 NA
ATOM     17  C   UNL A   1      45.046  24.122  28.473  1.00  0.00     0.031 C 
ATOM     18  C   UNL A   1      40.231  25.519  27.982  1.00  0.00     0.029 A 
ATOM     19  N   UNL A   1      41.669  27.053  28.738  1.00  0.00    -0.354 N 
ATOM     20  C   UNL A   1      45.845  26.099  29.312  1.00  0.00     0.074 A 
ATOM     21  C   UNL A   1      46.130  24.728  28.943  1.00  0.00     0.031 C 
ATOM     22  C   UNL A   1      39.543  26.653  28.164  1.00  0.00     0.029 A 
ATOM     23  C   UNL A   1      40.441  27.667  28.702  1.00  0.00     0.049 A 
ATOM     24  H   UNL A   1      42.492  27.507  29.033  1.00  0.00     0.167 HD
ATOM     25  C   UNL A   1      46.761  26.975  29.789  1.00  0.00     0.031 A 
ATOM     26  C   UNL A   1      40.066  28.899  29.089  1.00  0.00     0.031 A 
ATOM     27  C   UNL A   1      46.470  28.340  30.149  1.00  0.00     0.049 A 
ATOM     28  C   UNL A   1      41.100  29.827  29.651  1.00  0.00     0.074 A 
ATOM     29  C   UNL A   1      47.346  29.321  30.583  1.00  0.00     0.029 A 
ATOM     30  N   UNL A   1      45.208  28.912  30.131  1.00  0.00    -0.354 N 
ATOM     31  N   UNL A   1      42.389  29.636  29.795  1.00  0.00    -0.248 NA
ATOM     32  C   UNL A   1      40.627  31.141  30.109  1.00  0.00     0.031 C 
ATOM     33  C   UNL A   1      46.605  30.465  30.891  1.00  0.00     0.029 A 
ATOM     34  C   UNL A   1      45.276  30.217  30.591  1.00  0.00     0.049 A 
ATOM     35  H   UNL A   1      44.385  28.458  29.836  1.00  0.00     0.167 HD
ATOM     36  C   UNL A   1      42.881  30.807  30.352  1.00  0.00     0.074 A 
ATOM     37  C   UNL A   1      41.760  31.714  30.487  1.00  0.00     0.031 C 
ATOM     38  C   UNL A   1      44.149  31.102  30.728  1.00  0.00     0.031 A 
BRANCH  25  39
ATOM     39  C   UNL A   1      48.173  26.495  29.982  1.00  0.00    -0.014 A 
ATOM     40  C   UNL A   1      48.575  25.863  31.168  1.00  0.00     0.009 A 
ATOM     41  C   UNL A   1      49.084  26.583  28.918  1.00  0.00     0.009 A 
ATOM     42  C   UNL A   1      49.865  25.340  31.287  1.00  0.00     0.001 A 
ATOM     43  C   UNL A   1      50.365  26.039  29.030  1.00  0.00     0.001 A 
ATOM     44  C   UNL A   1      50.755  25.419  30.216  1.00  0.00     0.000 A 
ENDBRANCH  25  39
BRANCH  26  45
ATOM     45  C   UNL A   1      38.638  29.304  29.009  1.00  0.00    -0.014 A 
ATOM     46  C   UNL A   1      37.799  29.206  30.128  1.00  0.00     0.009 A 
ATOM     47  C   UNL A   1      38.104  29.774  27.798  1.00  0.00     0.009 A 
ATOM     48  C   UNL A   1      36.446  29.540  30.026  1.00  0.00     0.001 A 
ATOM     49  C   UNL A   1      36.761  30.141  27.709  1.00  0.00     0.001 A 
ATOM     50  C   UNL A   1      35.930  30.011  28.818  1.00  0.00     0.000 A 
ENDBRANCH  26  45
BRANCH  38  51
ATOM     51  C   UNL A   1      44.383  32.465  31.312  1.00  0.00    -0.014 A 
ATOM     52  C   UNL A   1      44.685  33.562  30.490  1.00  0.00     0.009 A 
ATOM     53  C   UNL A   1      44.279  32.659  32.698  1.00  0.00     0.009 A 
ATOM     54  C   UNL A   1      44.912  34.821  31.048  1.00  0.00     0.001 A 
ATOM     55  C   UNL A   1      44.476  33.925  33.250  1.00  0.00     0.001 A 
ATOM     56  C   UNL A   1      44.802  35.002  32.426  1.00  0.00     0.000 A 
ENDBRANCH  38  51
ENDBRANCH  12  13
ENDBRANCH   5   7
ENDBRANCH   2   3
ENDBRANCH   1   2
BRANCH   1  57
ATOM     57  C   UNL A   1      36.219  21.075  24.664  1.00  0.00     0.023 C 
BRANCH  57  58
ATOM     58  C   UNL A   1      35.122  21.018  25.726  1.00  0.00     0.116 C 
BRANCH  58  59
ATOM     59  N   UNL A   1      34.191  19.926  25.493  1.00  0.00    -0.352 N 
ATOM     60  C   UNL A   1      32.871  19.974  25.125  1.00  0.00     0.251 C 
ATOM     61  H   UNL A   1      34.561  19.023  25.619  1.00  0.00     0.163 HD
ATOM     62  O   UNL A   1      32.186  18.957  25.158  1.00  0.00    -0.269 OA
BRANCH  60  63
ATOM     63  C   UNL A   1      32.270  21.250  24.690  1.00  0.00     0.039 A 
ATOM     64  C   UNL A   1      32.477  21.684  23.381  1.00  0.00     0.016 A 
ATOM     65  C   UNL A   1      31.548  22.041  25.587  1.00  0.00     0.016 A 
ATOM     66  C   UNL A   1      31.908  22.887  22.954  1.00  0.00     0.027 A 
ATOM     67  C   UNL A   1      30.998  23.249  25.157  1.00  0.00     0.027 A 
ATOM     68  C   UNL A   1      31.162  23.683  23.836  1.00  0.00     0.037 A 
BRANCH  68  69
ATOM     69  N   UNL A   1      30.609  24.890  23.376  1.00  0.00    -0.370 N 
ATOM     70  C   UNL A   1      29.684  25.713  24.104  1.00  0.00     0.125 C 
ATOM     71  C   UNL A   1      31.234  26.001  22.726  1.00  0.00     0.125 C 
ATOM     72  C   UNL A   1      30.415  26.879  23.576  1.00  0.00     0.005 C 
ATOM     73  C   UNL A   1      30.924  28.053  24.355  1.00  0.00     0.011 C 
ATOM     74  C   UNL A   1      29.890  28.242  23.275  1.00  0.00     0.011 C 
ENDBRANCH  68  69
ENDBRANCH  60  63
ENDBRANCH  58  59
ENDBRANCH  57  58
ENDBRANCH   1  57
TORSDOF 12
ENDMDL
MODEL 3
REMARK VINA RESULT:     -11.0      2.793      7.635
REMARK SMILES O=C(NCCCCNC(=O)c1ccc(N2CC3(CC3)C2)cc1)c1ccc(-c2c3nc(c(-c4ccccc4)c4ccc([nH]4)c(-c4ccccc4)c4nc(c(-c5ccccc5)c5ccc2[nH]5)C=C4)C=C3)cc1
REMARK SMILES IDX 5 1 4 2 3 3 1 4 2 5 23 7 24 8 70 9 25 10 69 11 26 12 27 13
REMARK SMILES IDX 28 14 63 15 29 16 68 17 62 18 64 19 30 20 67 21 61 22 60 23
REMARK SMILES IDX 31 25 53 26 38 27 52 28 39 29 42 30 51 31 65 32 40 33 41 34
REMARK SMILES IDX 50 36 66 37 43 38 32 39 33 40 37 41 34 42 36 43 35 44 54 45
REMARK SMILES IDX 55 46 59 47 56 48 58 49 57 50 44 51 45 52 49 53 46 54 48 55
REMARK SMILES IDX 47 56 6 57 7 58 8 59 9 60 10 62 11 63 12 64 22 65 13 66
REMARK SMILES IDX 21 67 14 68 15 69 16 70 20 71 17 72 18 73 19 74
REMARK H PARENT 3 6 64 24 42 35 8 61
REMARK Flexibility Score: inf
ROOT
ATOM      1  C   UNL A   1      37.408  19.871  24.993  1.00  0.00     0.023 C 
ENDROOT
BRANCH   1   2
ATOM      2  C   UNL A   1      38.645  20.398  25.707  1.00  0.00     0.116 C 
BRANCH   2   3
ATOM      3  N   UNL A   1      39.725  19.424  25.758  1.00  0.00    -0.352 N 
ATOM      4  O   UNL A   1      41.859  18.707  25.919  1.00  0.00    -0.269 OA
ATOM      5  C   UNL A   1      41.048  19.618  26.069  1.00  0.00     0.251 C 
ATOM      6  H   UNL A   1      39.471  18.498  25.540  1.00  0.00     0.163 HD
BRANCH   5   7
ATOM      7  C   UNL A   1      41.500  20.934  26.569  1.00  0.00     0.039 A 
ATOM      8  C   UNL A   1      41.995  21.895  25.685  1.00  0.00     0.014 A 
ATOM      9  C   UNL A   1      41.409  21.215  27.935  1.00  0.00     0.014 A 
ATOM     10  C   UNL A   1      42.512  23.087  26.179  1.00  0.00     0.010 A 
ATOM     11  C   UNL A   1      41.850  22.449  28.421  1.00  0.00     0.010 A 
ATOM     12  C   UNL A   1      42.415  23.390  27.547  1.00  0.00    -0.014 A 
BRANCH  12  13
ATOM     13  C   UNL A   1      42.790  24.748  28.011  1.00  0.00     0.031 A 
ATOM     14  C   UNL A   1      41.759  25.811  28.263  1.00  0.00     0.074 A 
ATOM     15  C   UNL A   1      44.099  25.009  28.207  1.00  0.00     0.049 A 
ATOM     16  N   UNL A   1      41.938  27.041  28.673  1.00  0.00    -0.248 NA
ATOM     17  C   UNL A   1      40.352  25.456  28.023  1.00  0.00     0.031 C 
ATOM     18  C   UNL A   1      45.191  24.056  27.980  1.00  0.00     0.029 A 
ATOM     19  N   UNL A   1      44.734  26.138  28.651  1.00  0.00    -0.354 N 
ATOM     20  C   UNL A   1      40.673  27.615  28.723  1.00  0.00     0.074 A 
ATOM     21  C   UNL A   1      39.734  26.602  28.288  1.00  0.00     0.031 C 
ATOM     22  C   UNL A   1      46.353  24.628  28.320  1.00  0.00     0.029 A 
ATOM     23  C   UNL A   1      46.100  26.006  28.720  1.00  0.00     0.049 A 
ATOM     24  H   UNL A   1      44.259  26.964  28.896  1.00  0.00     0.167 HD
ATOM     25  C   UNL A   1      40.333  28.872  29.096  1.00  0.00     0.031 A 
ATOM     26  C   UNL A   1      47.052  26.901  29.038  1.00  0.00     0.031 A 
ATOM     27  C   UNL A   1      41.275  29.872  29.532  1.00  0.00     0.049 A 
ATOM     28  C   UNL A   1      46.640  28.295  29.405  1.00  0.00     0.074 A 
ATOM     29  C   UNL A   1      41.016  31.154  29.988  1.00  0.00     0.029 A 
ATOM     30  N   UNL A   1      42.650  29.711  29.554  1.00  0.00    -0.354 N 
ATOM     31  N   UNL A   1      45.435  28.799  29.512  1.00  0.00    -0.248 NA
ATOM     32  C   UNL A   1      47.722  29.248  29.689  1.00  0.00     0.031 C 
ATOM     33  C   UNL A   1      42.239  31.790  30.223  1.00  0.00     0.029 A 
ATOM     34  C   UNL A   1      43.257  30.885  29.971  1.00  0.00     0.049 A 
ATOM     35  H   UNL A   1      43.127  28.884  29.309  1.00  0.00     0.167 HD
ATOM     36  C   UNL A   1      45.612  30.122  29.885  1.00  0.00     0.074 A 
ATOM     37  C   UNL A   1      47.039  30.335  30.019  1.00  0.00     0.031 C 
ATOM     38  C   UNL A   1      44.677  31.081  30.088  1.00  0.00     0.031 A 
BRANCH  25  39
ATOM     39  C   UNL A   1      38.885  29.267  29.029  1.00  0.00    -0.014 A 
ATOM     40  C   UNL A   1      38.304  29.722  27.836  1.00  0.00     0.009 A 
ATOM     41  C   UNL A   1      38.065  29.078  30.153  1.00  0.00     0.009 A 
ATOM     42  C   UNL A   1      36.935  29.992  27.774  1.00  0.00     0.001 A 
ATOM     43  C   UNL A   1      36.693  29.326  30.084  1.00  0.00     0.001 A 
ATOM     44  C   UNL A   1      36.129  29.785  28.894  1.00  0.00     0.000 A 
ENDBRANCH  25  39
BRANCH  26  45
ATOM     45  C   UNL A   1      48.487  26.521  28.969  1.00  0.00    -0.014 A 
ATOM     46  C   UNL A   1      49.150  26.006  30.091  1.00  0.00     0.009 A 
ATOM     47  C   UNL A   1      49.205  26.692  27.774  1.00  0.00     0.009 A 
ATOM     48  C   UNL A   1      50.512  25.703  30.028  1.00  0.00     0.001 A 
ATOM     49  C   UNL A   1      50.557  26.352  27.703  1.00  0.00     0.001 A 
ATOM     50  C   UNL A   1      51.213  25.871  28.833  1.00  0.00     0.000 A 
ENDBRANCH  26  45
BRANCH  38  51
ATOM     51  C   UNL A   1      45.175  32.441  30.486  1.00  0.00    -0.014 A 
ATOM     52  C   UNL A   1      45.379  32.771  31.835  1.00  0.00     0.009 A 
ATOM     53  C   UNL A   1      45.465  33.394  29.498  1.00  0.00     0.009 A 
ATOM     54  C   UNL A   1      45.831  34.042  32.189  1.00  0.00     0.001 A 
ATOM     55  C   UNL A   1      45.947  34.655  29.854  1.00  0.00     0.001 A 
ATOM     56  C   UNL A   1      46.119  34.981  31.199  1.00  0.00     0.000 A 
ENDBRANCH  38  51
ENDBRANCH  12  13
ENDBRANCH   5   7
ENDBRANCH   2   3
ENDBRANCH   1   2
BRANCH   1  57
ATOM     57  C   UNL A   1      36.350  20.923  24.665  1.00  0.00     0.023 C 
BRANCH  57  58
ATOM     58  C   UNL A   1      35.192  21.015  25.659  1.00  0.00     0.116 C 
BRANCH  58  59
ATOM     59  N   UNL A   1      34.237  19.933  25.489  1.00  0.00    -0.352 N 
ATOM     60  C   UNL A   1      32.914  19.991  25.132  1.00  0.00     0.251 C 
ATOM     61  H   UNL A   1      34.590  19.029  25.655  1.00  0.00     0.163 HD
ATOM     62  O   UNL A   1      32.210  18.990  25.222  1.00  0.00    -0.269 OA
BRANCH  60  63
ATOM     63  C   UNL A   1      32.334  21.256  24.642  1.00  0.00     0.039 A 
ATOM     64  C   UNL A   1      31.592  22.044  25.521  1.00  0.00     0.016 A 
ATOM     65  C   UNL A   1      32.477  21.636  23.305  1.00  0.00     0.016 A 
ATOM     66  C   UNL A   1      31.042  23.248  25.072  1.00  0.00     0.027 A 
ATOM     67  C   UNL A   1      31.909  22.832  22.862  1.00  0.00     0.027 A 
ATOM     68  C   UNL A   1      31.194  23.656  23.738  1.00  0.00     0.037 A 
BRANCH  68  69
ATOM     69  N   UNL A   1      30.622  24.868  23.318  1.00  0.00    -0.370 N 
ATOM     70  C   UNL A   1      29.691  25.657  24.075  1.00  0.00     0.125 C 
ATOM     71  C   UNL A   1      31.229  26.007  22.699  1.00  0.00     0.125 C 
ATOM     72  C   UNL A   1      30.403  26.848  23.579  1.00  0.00     0.005 C 
ATOM     73  C   UNL A   1      30.900  28.005  24.391  1.00  0.00     0.011 C 
ATOM     74  C   UNL A   1      29.858  28.212  23.322  1.00  0.00     0.011 C 
ENDBRANCH  68  69
ENDBRANCH  60  63
ENDBRANCH  58  59
ENDBRANCH  57  58
ENDBRANCH   1  57
TORSDOF 12
ENDMDL
