MODEL 1
REMARK VINA RESULT:     -12.5      0.000      0.000
REMARK SMILES O=C(NCCCCNC(=O)c1ccc(-c2c3nc(c(-c4ccccc4)c4ccc([nH]4)c(-c4ccccc4)c4nc(c(-c5ccccc5)c5ccc2[nH]5)C=C4)C=C3)cc1)C1=Cc2cc(C(F)(F)F)ccc2O[C@@H]1C(F)(F)F
REMARK SMILES IDX 6 1 5 2 4 3 3 4 1 5 2 6 59 8 60 9 72 10 61 11 71 12 62 13
REMARK SMILES IDX 70 14 63 15 69 16 68 17 73 18 74 19 75 20 76 21 64 22 65 23
REMARK SMILES IDX 66 24 67 25 7 26 8 27 9 28 10 30 11 31 12 32 58 33 13 34
REMARK SMILES IDX 57 35 14 36 15 37 16 38 51 39 17 40 56 41 50 42 52 43 18 44
REMARK SMILES IDX 55 45 49 46 48 47 19 49 41 50 26 51 40 52 27 53 30 54 39 55
REMARK SMILES IDX 53 56 28 57 29 58 38 60 54 61 31 62 20 63 21 64 25 65 22 66
REMARK SMILES IDX 24 67 23 68 42 69 43 70 47 71 44 72 46 73 45 74 32 75 33 76
REMARK SMILES IDX 37 77 34 78 36 79 35 80
REMARK H PARENT 3 7 8 29 52 48 30 59
REMARK Flexibility Score: inf
ROOT
ATOM      1  C   UNL A   1      33.497  28.577  27.307  1.00  0.00     0.023 C 
ENDROOT
BRANCH   1   2
ATOM      2  C   UNL A   1      31.982  28.423  27.307  1.00  0.00     0.023 C 
BRANCH   2   3
ATOM      3  C   UNL A   1      31.394  27.465  26.281  1.00  0.00     0.116 C 
BRANCH   3   4
ATOM      4  N   UNL A   1      30.947  26.183  26.792  1.00  0.00    -0.352 N 
ATOM      5  O   UNL A   1      31.035  23.980  27.216  1.00  0.00    -0.270 OA
ATOM      6  C   UNL A   1      31.462  24.934  26.566  1.00  0.00     0.251 C 
ATOM      7  H   UNL A   1      30.162  26.216  27.386  1.00  0.00     0.163 HD
BRANCH   6   8
ATOM      8  C   UNL A   1      32.586  24.692  25.615  1.00  0.00     0.067 C 
ATOM      9  C   UNL A   1      33.433  23.656  25.755  1.00  0.00     0.025 C 
ATOM     10  C   UNL A   1      32.330  25.243  24.228  1.00  0.00     0.314 C 
ATOM     11  C   UNL A   1      33.182  22.627  24.713  1.00  0.00     0.018 A 
ATOM     12  O   UNL A   1      31.948  24.189  23.298  1.00  0.00    -0.475 OA
ATOM     13  C   UNL A   1      33.510  21.298  25.007  1.00  0.00     0.025 A 
ATOM     14  C   UNL A   1      32.384  22.924  23.599  1.00  0.00     0.128 A 
ATOM     15  C   UNL A   1      32.953  20.251  24.257  1.00  0.00     0.056 A 
ATOM     16  C   UNL A   1      31.891  21.891  22.805  1.00  0.00     0.048 A 
ATOM     17  C   UNL A   1      32.152  20.561  23.147  1.00  0.00     0.017 A 
BRANCH  10  18
ATOM     18  C   UNL A   1      33.521  26.051  23.687  1.00  0.00     0.429 C 
ATOM     19  F   UNL A   1      34.184  25.365  22.725  1.00  0.00    -0.167 F 
ATOM     20  F   UNL A   1      33.123  27.221  23.134  1.00  0.00    -0.167 F 
ATOM     21  F   UNL A   1      34.420  26.355  24.654  1.00  0.00    -0.167 F 
ENDBRANCH  10  18
BRANCH  15  22
ATOM     22  C   UNL A   1      33.163  18.823  24.706  1.00  0.00     0.416 C 
ATOM     23  F   UNL A   1      32.900  18.647  26.026  1.00  0.00    -0.166 F 
ATOM     24  F   UNL A   1      32.341  17.962  24.039  1.00  0.00    -0.166 F 
ATOM     25  F   UNL A   1      34.426  18.370  24.499  1.00  0.00    -0.166 F 
ENDBRANCH  15  22
ENDBRANCH   6   8
ENDBRANCH   3   4
ENDBRANCH   2   3
ENDBRANCH   1   2
BRANCH   1  26
ATOM     26  C   UNL A   1      34.049  29.982  27.062  1.00  0.00     0.116 C 
BRANCH  26  27
ATOM     27  N   UNL A   1      34.188  30.807  28.254  1.00  0.00    -0.352 N 
ATOM     28  C   UNL A   1      35.246  30.932  29.129  1.00  0.00     0.251 C 
ATOM     29  H   UNL A   1      33.403  31.361  28.470  1.00  0.00     0.163 HD
ATOM     30  O   UNL A   1      35.161  31.689  30.088  1.00  0.00    -0.269 OA
BRANCH  28  31
ATOM     31  C   UNL A   1      36.466  30.111  28.951  1.00  0.00     0.039 A 
ATOM     32  C   UNL A   1      37.117  30.143  27.714  1.00  0.00     0.014 A 
ATOM     33  C   UNL A   1      36.998  29.357  29.998  1.00  0.00     0.014 A 
ATOM     34  C   UNL A   1      38.358  29.518  27.567  1.00  0.00     0.010 A 
ATOM     35  C   UNL A   1      38.273  28.808  29.879  1.00  0.00     0.010 A 
ATOM     36  C   UNL A   1      38.975  28.900  28.668  1.00  0.00    -0.014 A 
BRANCH  36  37
ATOM     37  C   UNL A   1      40.374  28.408  28.573  1.00  0.00     0.031 A 
ATOM     38  C   UNL A   1      40.672  26.983  28.202  1.00  0.00     0.074 A 
ATOM     39  C   UNL A   1      41.387  29.245  28.880  1.00  0.00     0.049 A 
ATOM     40  N   UNL A   1      41.835  26.404  28.029  1.00  0.00    -0.248 NA
ATOM     41  C   UNL A   1      39.522  26.085  28.029  1.00  0.00     0.031 C 
ATOM     42  C   UNL A   1      41.236  30.631  29.330  1.00  0.00     0.029 A 
ATOM     43  N   UNL A   1      42.746  29.054  28.851  1.00  0.00    -0.354 N 
ATOM     44  C   UNL A   1      41.555  25.074  27.745  1.00  0.00     0.074 A 
ATOM     45  C   UNL A   1      40.118  24.920  27.817  1.00  0.00     0.031 C 
ATOM     46  C   UNL A   1      42.452  31.182  29.479  1.00  0.00     0.029 A 
ATOM     47  C   UNL A   1      43.466  30.182  29.163  1.00  0.00     0.049 A 
ATOM     48  H   UNL A   1      43.165  28.192  28.628  1.00  0.00     0.167 HD
ATOM     49  C   UNL A   1      42.412  24.073  27.430  1.00  0.00     0.031 A 
ATOM     50  C   UNL A   1      44.795  30.397  29.173  1.00  0.00     0.031 A 
ATOM     51  C   UNL A   1      43.841  24.224  27.342  1.00  0.00     0.049 A 
ATOM     52  C   UNL A   1      45.723  29.282  28.786  1.00  0.00     0.074 A 
ATOM     53  C   UNL A   1      44.786  23.290  26.954  1.00  0.00     0.029 A 
ATOM     54  N   UNL A   1      44.530  25.385  27.654  1.00  0.00    -0.354 N 
ATOM     55  N   UNL A   1      45.436  28.057  28.420  1.00  0.00    -0.248 NA
ATOM     56  C   UNL A   1      47.160  29.590  28.796  1.00  0.00     0.031 C 
ATOM     57  C   UNL A   1      46.052  23.875  27.073  1.00  0.00     0.029 A 
ATOM     58  C   UNL A   1      45.891  25.187  27.488  1.00  0.00     0.049 A 
ATOM     59  H   UNL A   1      44.114  26.228  27.949  1.00  0.00     0.167 HD
ATOM     60  C   UNL A   1      46.653  27.455  28.129  1.00  0.00     0.074 A 
ATOM     61  C   UNL A   1      47.678  28.456  28.346  1.00  0.00     0.031 C 
ATOM     62  C   UNL A   1      46.899  26.188  27.718  1.00  0.00     0.031 A 
BRANCH  49  63
ATOM     63  C   UNL A   1      41.816  22.720  27.159  1.00  0.00    -0.014 A 
ATOM     64  C   UNL A   1      40.889  22.527  26.122  1.00  0.00     0.009 A 
ATOM     65  C   UNL A   1      42.197  21.619  27.942  1.00  0.00     0.009 A 
ATOM     66  C   UNL A   1      40.321  21.270  25.904  1.00  0.00     0.001 A 
ATOM     67  C   UNL A   1      41.649  20.356  27.703  1.00  0.00     0.001 A 
ATOM     68  C   UNL A   1      40.704  20.186  26.693  1.00  0.00     0.000 A 
ENDBRANCH  49  63
BRANCH  50  69
ATOM     69  C   UNL A   1      45.329  31.744  29.499  1.00  0.00    -0.014 A 
ATOM     70  C   UNL A   1      45.499  32.699  28.484  1.00  0.00     0.009 A 
ATOM     71  C   UNL A   1      45.672  32.083  30.816  1.00  0.00     0.009 A 
ATOM     72  C   UNL A   1      46.026  33.957  28.777  1.00  0.00     0.001 A 
ATOM     73  C   UNL A   1      46.177  33.353  31.109  1.00  0.00     0.001 A 
ATOM     74  C   UNL A   1      46.361  34.285  30.089  1.00  0.00     0.000 A 
ENDBRANCH  50  69
BRANCH  62  75
ATOM     75  C   UNL A   1      48.333  25.828  27.451  1.00  0.00    -0.014 A 
ATOM     76  C   UNL A   1      49.144  25.274  28.455  1.00  0.00     0.009 A 
ATOM     77  C   UNL A   1      48.878  26.040  26.176  1.00  0.00     0.009 A 
ATOM     78  C   UNL A   1      50.485  24.981  28.198  1.00  0.00     0.001 A 
ATOM     79  C   UNL A   1      50.211  25.720  25.913  1.00  0.00     0.001 A 
ATOM     80  C   UNL A   1      51.015  25.203  26.927  1.00  0.00     0.000 A 
ENDBRANCH  62  75
ENDBRANCH  36  37
ENDBRANCH  28  31
ENDBRANCH  26  27
ENDBRANCH   1  26
TORSDOF 13
ENDMDL
MODEL 2
REMARK VINA RESULT:     -12.4      3.975      7.094
REMARK SMILES O=C(NCCCCNC(=O)c1ccc(-c2c3nc(c(-c4ccccc4)c4ccc([nH]4)c(-c4ccccc4)c4nc(c(-c5ccccc5)c5ccc2[nH]5)C=C4)C=C3)cc1)C1=Cc2cc(C(F)(F)F)ccc2O[C@@H]1C(F)(F)F
REMARK SMILES IDX 6 1 5 2 4 3 3 4 1 5 2 6 59 8 60 9 72 10 61 11 71 12 62 13
REMARK SMILES IDX 70 14 63 15 69 16 68 17 73 18 74 19 75 20 76 21 64 22 65 23
REMARK SMILES IDX 66 24 67 25 7 26 8 27 9 28 10 30 11 31 12 32 58 33 13 34
REMARK SMILES IDX 57 35 14 36 15 37 16 38 51 39 17 40 56 41 50 42 52 43 18 44
REMARK SMILES IDX 55 45 49 46 48 47 19 49 41 50 26 51 40 52 27 53 30 54 39 55
REMARK SMILES IDX 53 56 28 57 29 58 38 60 54 61 31 62 20 63 21 64 25 65 22 66
REMARK SMILES IDX 24 67 23 68 42 69 43 70 47 71 44 72 46 73 45 74 32 75 33 76
REMARK SMILES IDX 37 77 34 78 36 79 35 80
REMARK H PARENT 3 7 8 29 52 48 30 59
REMARK Flexibility Score: inf
ROOT
ATOM      1  C   UNL A   1      31.683  28.491  26.429  1.00  0.00     0.023 C 
ENDROOT
BRANCH   1   2
ATOM      2  C   UNL A   1      32.216  27.066  26.499  1.00  0.00     0.023 C 
BRANCH   2   3
ATOM      3  C   UNL A   1      31.229  25.953  26.177  1.00  0.00     0.116 C 
BRANCH   3   4
ATOM      4  N   UNL A   1      31.454  24.690  26.855  1.00  0.00    -0.352 N 
ATOM      5  O   UNL A   1      32.454  22.729  27.299  1.00  0.00    -0.270 OA
ATOM      6  C   UNL A   1      32.287  23.658  26.510  1.00  0.00     0.251 C 
ATOM      7  H   UNL A   1      30.932  24.554  27.680  1.00  0.00     0.163 HD
BRANCH   6   8
ATOM      8  C   UNL A   1      33.073  23.655  25.241  1.00  0.00     0.067 C 
ATOM      9  C   UNL A   1      34.188  24.391  25.087  1.00  0.00     0.025 C 
ATOM     10  C   UNL A   1      32.928  22.373  24.448  1.00  0.00     0.314 C 
ATOM     11  C   UNL A   1      35.394  23.522  25.081  1.00  0.00     0.018 A 
ATOM     12  O   UNL A   1      34.090  21.511  24.610  1.00  0.00    -0.475 OA
ATOM     13  C   UNL A   1      36.607  24.077  25.507  1.00  0.00     0.025 A 
ATOM     14  C   UNL A   1      35.269  22.134  24.936  1.00  0.00     0.128 A 
ATOM     15  C   UNL A   1      37.666  23.243  25.896  1.00  0.00     0.056 A 
ATOM     16  C   UNL A   1      36.344  21.305  25.248  1.00  0.00     0.048 A 
ATOM     17  C   UNL A   1      37.527  21.854  25.751  1.00  0.00     0.017 A 
BRANCH  10  18
ATOM     18  C   UNL A   1      32.637  22.632  22.961  1.00  0.00     0.429 C 
ATOM     19  F   UNL A   1      31.721  23.619  22.803  1.00  0.00    -0.167 F 
ATOM     20  F   UNL A   1      33.749  23.016  22.291  1.00  0.00    -0.167 F 
ATOM     21  F   UNL A   1      32.153  21.534  22.331  1.00  0.00    -0.167 F 
ENDBRANCH  10  18
BRANCH  15  22
ATOM     22  C   UNL A   1      38.895  23.852  26.533  1.00  0.00     0.416 C 
ATOM     23  F   UNL A   1      39.885  22.944  26.729  1.00  0.00    -0.166 F 
ATOM     24  F   UNL A   1      39.431  24.833  25.752  1.00  0.00    -0.166 F 
ATOM     25  F   UNL A   1      38.652  24.426  27.739  1.00  0.00    -0.166 F 
ENDBRANCH  15  22
ENDBRANCH   6   8
ENDBRANCH   3   4
ENDBRANCH   2   3
ENDBRANCH   1   2
BRANCH   1  26
ATOM     26  C   UNL A   1      32.649  29.565  25.927  1.00  0.00     0.116 C 
BRANCH  26  27
ATOM     27  N   UNL A   1      32.444  30.891  26.493  1.00  0.00    -0.352 N 
ATOM     28  C   UNL A   1      33.287  31.670  27.257  1.00  0.00     0.251 C 
ATOM     29  H   UNL A   1      31.567  31.294  26.300  1.00  0.00     0.163 HD
ATOM     30  O   UNL A   1      32.918  32.773  27.643  1.00  0.00    -0.269 OA
BRANCH  28  31
ATOM     31  C   UNL A   1      34.614  31.157  27.667  1.00  0.00     0.039 A 
ATOM     32  C   UNL A   1      35.644  32.075  27.892  1.00  0.00     0.014 A 
ATOM     33  C   UNL A   1      34.837  29.795  27.879  1.00  0.00     0.014 A 
ATOM     34  C   UNL A   1      36.852  31.640  28.442  1.00  0.00     0.010 A 
ATOM     35  C   UNL A   1      36.007  29.374  28.507  1.00  0.00     0.010 A 
ATOM     36  C   UNL A   1      37.019  30.296  28.813  1.00  0.00    -0.014 A 
BRANCH  36  37
ATOM     37  C   UNL A   1      38.220  29.864  29.576  1.00  0.00     0.031 A 
ATOM     38  C   UNL A   1      38.406  30.254  31.015  1.00  0.00     0.074 A 
ATOM     39  C   UNL A   1      39.180  29.157  28.945  1.00  0.00     0.049 A 
ATOM     40  N   UNL A   1      39.371  29.925  31.839  1.00  0.00    -0.248 NA
ATOM     41  C   UNL A   1      37.399  31.152  31.599  1.00  0.00     0.031 C 
ATOM     42  C   UNL A   1      39.162  28.777  27.530  1.00  0.00     0.029 A 
ATOM     43  N   UNL A   1      40.354  28.624  29.416  1.00  0.00    -0.354 N 
ATOM     44  C   UNL A   1      39.093  30.586  33.028  1.00  0.00     0.074 A 
ATOM     45  C   UNL A   1      37.901  31.375  32.804  1.00  0.00     0.031 C 
ATOM     46  C   UNL A   1      40.242  28.024  27.263  1.00  0.00     0.029 A 
ATOM     47  C   UNL A   1      41.041  27.893  28.476  1.00  0.00     0.049 A 
ATOM     48  H   UNL A   1      40.674  28.753  30.338  1.00  0.00     0.167 HD
ATOM     49  C   UNL A   1      39.757  30.528  34.208  1.00  0.00     0.031 A 
ATOM     50  C   UNL A   1      42.176  27.178  28.583  1.00  0.00     0.031 A 
ATOM     51  C   UNL A   1      40.935  29.734  34.439  1.00  0.00     0.049 A 
ATOM     52  C   UNL A   1      42.874  27.099  29.911  1.00  0.00     0.074 A 
ATOM     53  C   UNL A   1      41.633  29.547  35.620  1.00  0.00     0.029 A 
ATOM     54  N   UNL A   1      41.592  28.998  33.466  1.00  0.00    -0.354 N 
ATOM     55  N   UNL A   1      42.541  27.649  31.053  1.00  0.00    -0.248 NA
ATOM     56  C   UNL A   1      44.095  26.283  29.964  1.00  0.00     0.031 C 
ATOM     57  C   UNL A   1      42.738  28.732  35.350  1.00  0.00     0.029 A 
ATOM     58  C   UNL A   1      42.700  28.373  34.013  1.00  0.00     0.049 A 
ATOM     59  H   UNL A   1      41.312  28.929  32.524  1.00  0.00     0.167 HD
ATOM     60  C   UNL A   1      43.496  27.224  31.967  1.00  0.00     0.074 A 
ATOM     61  C   UNL A   1      44.409  26.358  31.249  1.00  0.00     0.031 C 
ATOM     62  C   UNL A   1      43.606  27.523  33.285  1.00  0.00     0.031 A 
BRANCH  49  63
ATOM     63  C   UNL A   1      39.216  31.355  35.340  1.00  0.00    -0.014 A 
ATOM     64  C   UNL A   1      38.290  30.824  36.253  1.00  0.00     0.009 A 
ATOM     65  C   UNL A   1      39.648  32.680  35.506  1.00  0.00     0.009 A 
ATOM     66  C   UNL A   1      37.774  31.615  37.281  1.00  0.00     0.001 A 
ATOM     67  C   UNL A   1      39.152  33.461  36.553  1.00  0.00     0.001 A 
ATOM     68  C   UNL A   1      38.208  32.932  37.431  1.00  0.00     0.000 A 
ENDBRANCH  49  63
BRANCH  50  69
ATOM     69  C   UNL A   1      42.691  26.420  27.414  1.00  0.00    -0.014 A 
ATOM     70  C   UNL A   1      42.345  25.071  27.241  1.00  0.00     0.009 A 
ATOM     71  C   UNL A   1      43.529  27.034  26.471  1.00  0.00     0.009 A 
ATOM     72  C   UNL A   1      42.847  24.344  26.161  1.00  0.00     0.001 A 
ATOM     73  C   UNL A   1      44.010  26.309  25.377  1.00  0.00     0.001 A 
ATOM     74  C   UNL A   1      43.676  24.965  25.228  1.00  0.00     0.000 A 
ENDBRANCH  50  69
BRANCH  62  75
ATOM     75  C   UNL A   1      44.740  26.883  34.033  1.00  0.00    -0.014 A 
ATOM     76  C   UNL A   1      45.986  27.518  34.149  1.00  0.00     0.009 A 
ATOM     77  C   UNL A   1      44.555  25.629  34.636  1.00  0.00     0.009 A 
ATOM     78  C   UNL A   1      47.039  26.890  34.818  1.00  0.00     0.001 A 
ATOM     79  C   UNL A   1      45.601  25.015  35.328  1.00  0.00     0.001 A 
ATOM     80  C   UNL A   1      46.844  25.641  35.407  1.00  0.00     0.000 A 
ENDBRANCH  62  75
ENDBRANCH  36  37
ENDBRANCH  28  31
ENDBRANCH  26  27
ENDBRANCH   1  26
TORSDOF 13
ENDMDL
MODEL 3
REMARK VINA RESULT:     -12.4      3.224      7.253
REMARK SMILES O=C(NCCCCNC(=O)c1ccc(-c2c3nc(c(-c4ccccc4)c4ccc([nH]4)c(-c4ccccc4)c4nc(c(-c5ccccc5)c5ccc2[nH]5)C=C4)C=C3)cc1)C1=Cc2cc(C(F)(F)F)ccc2O[C@@H]1C(F)(F)F
REMARK SMILES IDX 6 1 5 2 4 3 3 4 1 5 2 6 59 8 60 9 72 10 61 11 71 12 62 13
REMARK SMILES IDX 70 14 63 15 69 16 68 17 73 18 74 19 75 20 76 21 64 22 65 23
REMARK SMILES IDX 66 24 67 25 7 26 8 27 9 28 10 30 11 31 12 32 58 33 13 34
REMARK SMILES IDX 57 35 14 36 15 37 16 38 51 39 17 40 56 41 50 42 52 43 18 44
REMARK SMILES IDX 55 45 49 46 48 47 19 49 41 50 26 51 40 52 27 53 30 54 39 55
REMARK SMILES IDX 53 56 28 57 29 58 38 60 54 61 31 62 20 63 21 64 25 65 22 66
REMARK SMILES IDX 24 67 23 68 42 69 43 70 47 71 44 72 46 73 45 74 32 75 33 76
REMARK SMILES IDX 37 77 34 78 36 79 35 80
REMARK H PARENT 3 7 8 29 52 48 30 59
REMARK Flexibility Score: inf
ROOT
ATOM      1  C   UNL A   1      31.734  30.669  26.606  1.00  0.00     0.023 C 
ENDROOT
BRANCH   1   2
ATOM      2  C   UNL A   1      32.153  29.294  26.103  1.00  0.00     0.023 C 
BRANCH   2   3
ATOM      3  C   UNL A   1      32.481  28.251  27.162  1.00  0.00     0.116 C 
BRANCH   3   4
ATOM      4  N   UNL A   1      31.623  27.080  27.187  1.00  0.00    -0.352 N 
ATOM      5  O   UNL A   1      30.977  24.979  26.732  1.00  0.00    -0.270 OA
ATOM      6  C   UNL A   1      31.714  25.925  26.457  1.00  0.00     0.251 C 
ATOM      7  H   UNL A   1      30.868  27.124  27.818  1.00  0.00     0.163 HD
BRANCH   6   8
ATOM      8  C   UNL A   1      32.736  25.733  25.386  1.00  0.00     0.067 C 
ATOM      9  C   UNL A   1      33.702  24.801  25.476  1.00  0.00     0.025 C 
ATOM     10  C   UNL A   1      32.258  26.158  24.015  1.00  0.00     0.314 C 
ATOM     11  C   UNL A   1      33.442  23.682  24.533  1.00  0.00     0.018 A 
ATOM     12  O   UNL A   1      31.885  25.010  23.200  1.00  0.00    -0.475 OA
ATOM     13  C   UNL A   1      33.946  22.416  24.857  1.00  0.00     0.025 A 
ATOM     14  C   UNL A   1      32.489  23.819  23.514  1.00  0.00     0.128 A 
ATOM     15  C   UNL A   1      33.420  21.270  24.242  1.00  0.00     0.056 A 
ATOM     16  C   UNL A   1      32.020  22.690  22.847  1.00  0.00     0.048 A 
ATOM     17  C   UNL A   1      32.463  21.419  23.227  1.00  0.00     0.017 A 
BRANCH  10  18
ATOM     18  C   UNL A   1      33.280  27.044  23.284  1.00  0.00     0.429 C 
ATOM     19  F   UNL A   1      32.670  28.065  22.634  1.00  0.00    -0.167 F 
ATOM     20  F   UNL A   1      34.168  27.598  24.142  1.00  0.00    -0.167 F 
ATOM     21  F   UNL A   1      33.995  26.355  22.362  1.00  0.00    -0.167 F 
ENDBRANCH  10  18
BRANCH  15  22
ATOM     22  C   UNL A   1      33.837  19.904  24.740  1.00  0.00     0.416 C 
ATOM     23  F   UNL A   1      33.350  19.628  25.977  1.00  0.00    -0.166 F 
ATOM     24  F   UNL A   1      33.380  18.912  23.924  1.00  0.00    -0.166 F 
ATOM     25  F   UNL A   1      35.183  19.740  24.811  1.00  0.00    -0.166 F 
ENDBRANCH  15  22
ENDBRANCH   6   8
ENDBRANCH   3   4
ENDBRANCH   2   3
ENDBRANCH   1   2
BRANCH   1  26
ATOM     26  C   UNL A   1      32.845  31.582  27.125  1.00  0.00     0.116 C 
BRANCH  26  27
ATOM     27  N   UNL A   1      32.412  32.914  27.525  1.00  0.00    -0.352 N 
ATOM     28  C   UNL A   1      33.073  33.881  28.252  1.00  0.00     0.251 C 
ATOM     29  H   UNL A   1      31.506  33.162  27.231  1.00  0.00     0.163 HD
ATOM     30  O   UNL A   1      32.524  34.951  28.488  1.00  0.00    -0.269 OA
BRANCH  28  31
ATOM     31  C   UNL A   1      34.422  33.613  28.801  1.00  0.00     0.039 A 
ATOM     32  C   UNL A   1      34.523  32.932  30.018  1.00  0.00     0.014 A 
ATOM     33  C   UNL A   1      35.578  33.979  28.110  1.00  0.00     0.014 A 
ATOM     34  C   UNL A   1      35.775  32.514  30.476  1.00  0.00     0.010 A 
ATOM     35  C   UNL A   1      36.815  33.488  28.521  1.00  0.00     0.010 A 
ATOM     36  C   UNL A   1      36.924  32.733  29.698  1.00  0.00    -0.014 A 
BRANCH  36  37
ATOM     37  C   UNL A   1      38.225  32.123  30.080  1.00  0.00     0.031 A 
ATOM     38  C   UNL A   1      39.151  32.809  31.044  1.00  0.00     0.074 A 
ATOM     39  C   UNL A   1      38.598  30.960  29.507  1.00  0.00     0.049 A 
ATOM     40  N   UNL A   1      40.300  32.393  31.519  1.00  0.00    -0.248 NA
ATOM     41  C   UNL A   1      38.754  34.144  31.514  1.00  0.00     0.031 C 
ATOM     42  C   UNL A   1      37.829  30.226  28.497  1.00  0.00     0.029 A 
ATOM     43  N   UNL A   1      39.715  30.186  29.697  1.00  0.00    -0.354 N 
ATOM     44  C   UNL A   1      40.766  33.421  32.328  1.00  0.00     0.074 A 
ATOM     45  C   UNL A   1      39.805  34.498  32.240  1.00  0.00     0.031 C 
ATOM     46  C   UNL A   1      38.469  29.083  28.202  1.00  0.00     0.029 A 
ATOM     47  C   UNL A   1      39.703  29.016  28.977  1.00  0.00     0.049 A 
ATOM     48  H   UNL A   1      40.454  30.444  30.294  1.00  0.00     0.167 HD
ATOM     49  C   UNL A   1      41.884  33.459  33.093  1.00  0.00     0.031 A 
ATOM     50  C   UNL A   1      40.575  27.991  28.957  1.00  0.00     0.031 A 
ATOM     51  C   UNL A   1      42.836  32.385  33.194  1.00  0.00     0.049 A 
ATOM     52  C   UNL A   1      41.788  28.041  29.841  1.00  0.00     0.074 A 
ATOM     53  C   UNL A   1      43.958  32.297  34.002  1.00  0.00     0.029 A 
ATOM     54  N   UNL A   1      42.781  31.212  32.458  1.00  0.00    -0.354 N 
ATOM     55  N   UNL A   1      42.163  28.977  30.678  1.00  0.00    -0.248 NA
ATOM     56  C   UNL A   1      42.689  26.880  29.788  1.00  0.00     0.031 C 
ATOM     57  C   UNL A   1      44.604  31.088  33.722  1.00  0.00     0.029 A 
ATOM     58  C   UNL A   1      43.860  30.403  32.776  1.00  0.00     0.049 A 
ATOM     59  H   UNL A   1      42.079  30.986  31.806  1.00  0.00     0.167 HD
ATOM     60  C   UNL A   1      43.327  28.507  31.272  1.00  0.00     0.074 A 
ATOM     61  C   UNL A   1      43.585  27.197  30.711  1.00  0.00     0.031 C 
ATOM     62  C   UNL A   1      44.110  29.107  32.202  1.00  0.00     0.031 A 
BRANCH  49  63
ATOM     63  C   UNL A   1      42.133  34.715  33.880  1.00  0.00    -0.014 A 
ATOM     64  C   UNL A   1      42.837  35.796  33.323  1.00  0.00     0.009 A 
ATOM     65  C   UNL A   1      41.647  34.826  35.192  1.00  0.00     0.009 A 
ATOM     66  C   UNL A   1      43.087  36.943  34.078  1.00  0.00     0.001 A 
ATOM     67  C   UNL A   1      41.874  35.987  35.935  1.00  0.00     0.001 A 
ATOM     68  C   UNL A   1      42.603  37.038  35.382  1.00  0.00     0.000 A 
ENDBRANCH  49  63
BRANCH  50  69
ATOM     69  C   UNL A   1      40.302  26.797  28.119  1.00  0.00    -0.014 A 
ATOM     70  C   UNL A   1      40.811  26.721  26.813  1.00  0.00     0.009 A 
ATOM     71  C   UNL A   1      39.534  25.731  28.612  1.00  0.00     0.009 A 
ATOM     72  C   UNL A   1      40.536  25.615  26.008  1.00  0.00     0.001 A 
ATOM     73  C   UNL A   1      39.282  24.614  27.811  1.00  0.00     0.001 A 
ATOM     74  C   UNL A   1      39.775  24.560  26.509  1.00  0.00     0.000 A 
ENDBRANCH  50  69
BRANCH  62  75
ATOM     75  C   UNL A   1      45.304  28.332  32.684  1.00  0.00    -0.014 A 
ATOM     76  C   UNL A   1      46.555  28.459  32.059  1.00  0.00     0.009 A 
ATOM     77  C   UNL A   1      45.176  27.470  33.783  1.00  0.00     0.009 A 
ATOM     78  C   UNL A   1      47.643  27.703  32.499  1.00  0.00     0.001 A 
ATOM     79  C   UNL A   1      46.272  26.735  34.238  1.00  0.00     0.001 A 
ATOM     80  C   UNL A   1      47.500  26.844  33.589  1.00  0.00     0.000 A 
ENDBRANCH  62  75
ENDBRANCH  36  37
ENDBRANCH  28  31
ENDBRANCH  26  27
ENDBRANCH   1  26
TORSDOF 13
ENDMDL
