MODEL 1
REMARK VINA RESULT:     -12.2      0.000      0.000
REMARK SMILES Cc1ccc(NC(=O)N2CCCC[C@@H]2C(=O)NCCCCNC(=O)c2ccc(-c3c4nc(c(-c5ccccc5)c5ccc([nH]5)c(-c5ccccc5)c5nc(c(-c6ccccc6)c6ccc3[nH]6)C=C5)C=C4)cc2)cc1
REMARK SMILES IDX 19 1 18 2 17 3 15 4 16 5 14 7 9 8 10 9 11 10 13 11 12 12
REMARK SMILES IDX 7 13 6 14 8 16 5 17 1 18 2 19 3 20 74 21 4 22 73 23 20 24
REMARK SMILES IDX 21 25 22 26 23 27 24 29 25 30 26 31 72 32 27 33 71 34 28 35
REMARK SMILES IDX 29 36 30 37 65 38 31 39 70 40 64 41 66 42 32 43 69 44 63 45
REMARK SMILES IDX 62 46 33 48 55 49 40 50 54 51 41 52 44 53 53 54 67 55 42 56
REMARK SMILES IDX 43 57 52 59 68 60 45 61 34 62 35 63 39 64 36 65 38 66 37 67
REMARK SMILES IDX 56 68 57 69 61 70 58 71 60 72 59 73 46 74 47 75 51 76 48 77
REMARK SMILES IDX 50 78 49 79
REMARK H PARENT 17 6 6 15 22 28 66 47 44 58
REMARK Flexibility Score: inf
ROOT
ATOM      1  C   UNL A   1      31.989  29.289  27.103  1.00  0.00     0.023 C 
ENDROOT
BRANCH   1   2
ATOM      2  C   UNL A   1      31.663  28.774  25.687  1.00  0.00     0.116 C 
BRANCH   2   3
ATOM      3  N   UNL A   1      32.729  29.068  24.745  1.00  0.00    -0.354 N 
ATOM      4  C   UNL A   1      33.699  28.273  24.211  1.00  0.00     0.242 C 
ATOM      5  O   UNL A   1      34.658  28.859  23.694  1.00  0.00    -0.273 OA
ATOM      6  H   UNL A   1      32.754  30.004  24.439  1.00  0.00     0.163 HD
BRANCH   4   7
ATOM      7  C   UNL A   1      33.703  26.731  24.361  1.00  0.00     0.176 C 
ATOM      8  N   UNL A   1      32.769  26.029  23.441  1.00  0.00    -0.313 N 
ATOM      9  C   UNL A   1      32.299  24.694  23.804  1.00  0.00     0.122 C 
ATOM     10  C   UNL A   1      32.010  24.502  25.281  1.00  0.00     0.022 C 
ATOM     11  C   UNL A   1      33.467  26.415  25.850  1.00  0.00     0.035 C 
ATOM     12  C   UNL A   1      33.201  24.944  26.113  1.00  0.00     0.004 C 
BRANCH   8  13
ATOM     13  C   UNL A   1      32.593  26.351  22.106  1.00  0.00     0.322 C 
ATOM     14  N   UNL A   1      31.406  26.841  21.661  1.00  0.00    -0.308 N 
ATOM     15  H   UNL A   1      31.114  26.487  20.789  1.00  0.00     0.171 HD
ATOM     16  O   UNL A   1      33.474  26.115  21.276  1.00  0.00    -0.248 OA
BRANCH  14  17
ATOM     17  C   UNL A   1      30.525  27.771  22.240  1.00  0.00     0.042 A 
ATOM     18  C   UNL A   1      27.611  30.694  23.454  1.00  0.00     0.044 C 
ATOM     19  C   UNL A   1      28.688  29.698  23.139  1.00  0.00    -0.051 A 
ATOM     20  C   UNL A   1      28.525  28.352  23.479  1.00  0.00     0.005 A 
ATOM     21  C   UNL A   1      29.824  30.082  22.418  1.00  0.00     0.005 A 
ATOM     22  C   UNL A   1      29.454  27.400  23.056  1.00  0.00     0.026 A 
ATOM     23  C   UNL A   1      30.748  29.126  21.989  1.00  0.00     0.026 A 
ENDBRANCH  14  17
ENDBRANCH   8  13
ENDBRANCH   4   7
ENDBRANCH   2   3
ENDBRANCH   1   2
BRANCH   1  24
ATOM     24  C   UNL A   1      32.562  30.708  27.179  1.00  0.00     0.023 C 
BRANCH  24  25
ATOM     25  C   UNL A   1      34.066  30.753  27.396  1.00  0.00     0.116 C 
BRANCH  25  26
ATOM     26  N   UNL A   1      34.477  31.491  28.581  1.00  0.00    -0.352 N 
ATOM     27  C   UNL A   1      35.531  31.243  29.445  1.00  0.00     0.251 C 
ATOM     28  H   UNL A   1      33.928  32.278  28.800  1.00  0.00     0.163 HD
ATOM     29  O   UNL A   1      35.706  31.950  30.423  1.00  0.00    -0.269 OA
BRANCH  27  30
ATOM     30  C   UNL A   1      36.518  30.188  29.100  1.00  0.00     0.039 A 
ATOM     31  C   UNL A   1      36.863  29.269  30.096  1.00  0.00     0.014 A 
ATOM     32  C   UNL A   1      37.230  30.222  27.903  1.00  0.00     0.014 A 
ATOM     33  C   UNL A   1      38.060  28.566  29.990  1.00  0.00     0.010 A 
ATOM     34  C   UNL A   1      38.460  29.592  27.834  1.00  0.00     0.010 A 
ATOM     35  C   UNL A   1      38.907  28.819  28.909  1.00  0.00    -0.014 A 
BRANCH  35  36
ATOM     36  C   UNL A   1      40.316  28.441  28.917  1.00  0.00     0.031 A 
ATOM     37  C   UNL A   1      40.774  27.160  28.352  1.00  0.00     0.074 A 
ATOM     38  C   UNL A   1      41.236  29.253  29.485  1.00  0.00     0.049 A 
ATOM     39  N   UNL A   1      41.755  26.477  28.845  1.00  0.00    -0.248 NA
ATOM     40  C   UNL A   1      40.145  26.532  27.196  1.00  0.00     0.031 C 
ATOM     41  C   UNL A   1      42.689  29.113  29.439  1.00  0.00     0.029 A 
ATOM     42  N   UNL A   1      41.011  30.251  30.433  1.00  0.00    -0.354 N 
ATOM     43  C   UNL A   1      42.065  25.502  27.932  1.00  0.00     0.074 A 
ATOM     44  C   UNL A   1      40.987  25.518  26.967  1.00  0.00     0.031 C 
ATOM     45  C   UNL A   1      43.217  29.771  30.484  1.00  0.00     0.029 A 
ATOM     46  C   UNL A   1      42.118  30.253  31.302  1.00  0.00     0.049 A 
ATOM     47  H   UNL A   1      40.225  30.842  30.486  1.00  0.00     0.167 HD
ATOM     48  C   UNL A   1      43.267  24.867  27.981  1.00  0.00     0.031 A 
ATOM     49  C   UNL A   1      41.966  30.032  32.639  1.00  0.00     0.031 A 
ATOM     50  C   UNL A   1      44.136  25.348  29.050  1.00  0.00     0.049 A 
ATOM     51  C   UNL A   1      42.694  28.813  33.168  1.00  0.00     0.074 A 
ATOM     52  C   UNL A   1      45.259  26.159  29.084  1.00  0.00     0.029 A 
ATOM     53  N   UNL A   1      43.732  25.205  30.366  1.00  0.00    -0.354 N 
ATOM     54  N   UNL A   1      43.384  27.983  32.436  1.00  0.00    -0.248 NA
ATOM     55  C   UNL A   1      42.589  28.368  34.559  1.00  0.00     0.031 C 
ATOM     56  C   UNL A   1      45.547  26.470  30.440  1.00  0.00     0.029 A 
ATOM     57  C   UNL A   1      44.600  25.848  31.228  1.00  0.00     0.049 A 
ATOM     58  H   UNL A   1      42.930  24.709  30.652  1.00  0.00     0.167 HD
ATOM     59  C   UNL A   1      43.725  26.890  33.191  1.00  0.00     0.074 A 
ATOM     60  C   UNL A   1      43.217  27.181  34.517  1.00  0.00     0.031 C 
ATOM     61  C   UNL A   1      44.343  25.798  32.656  1.00  0.00     0.031 A 
BRANCH  48  62
ATOM     62  C   UNL A   1      43.733  23.978  26.862  1.00  0.00    -0.014 A 
ATOM     63  C   UNL A   1      44.223  24.541  25.672  1.00  0.00     0.009 A 
ATOM     64  C   UNL A   1      43.683  22.574  26.922  1.00  0.00     0.009 A 
ATOM     65  C   UNL A   1      44.544  23.751  24.561  1.00  0.00     0.001 A 
ATOM     66  C   UNL A   1      43.964  21.782  25.803  1.00  0.00     0.001 A 
ATOM     67  C   UNL A   1      44.383  22.373  24.617  1.00  0.00     0.000 A 
ENDBRANCH  48  62
BRANCH  49  68
ATOM     68  C   UNL A   1      40.671  30.528  33.181  1.00  0.00    -0.014 A 
ATOM     69  C   UNL A   1      40.476  31.918  33.298  1.00  0.00     0.009 A 
ATOM     70  C   UNL A   1      39.555  29.684  33.262  1.00  0.00     0.009 A 
ATOM     71  C   UNL A   1      39.189  32.453  33.394  1.00  0.00     0.001 A 
ATOM     72  C   UNL A   1      38.269  30.223  33.369  1.00  0.00     0.001 A 
ATOM     73  C   UNL A   1      38.085  31.606  33.404  1.00  0.00     0.000 A 
ENDBRANCH  49  68
BRANCH  61  74
ATOM     74  C   UNL A   1      44.731  24.566  33.428  1.00  0.00    -0.014 A 
ATOM     75  C   UNL A   1      46.051  24.274  33.797  1.00  0.00     0.009 A 
ATOM     76  C   UNL A   1      43.760  23.579  33.706  1.00  0.00     0.009 A 
ATOM     77  C   UNL A   1      46.371  23.088  34.473  1.00  0.00     0.001 A 
ATOM     78  C   UNL A   1      44.078  22.385  34.357  1.00  0.00     0.001 A 
ATOM     79  C   UNL A   1      45.385  22.145  34.754  1.00  0.00     0.000 A 
ENDBRANCH  61  74
ENDBRANCH  35  36
ENDBRANCH  27  30
ENDBRANCH  25  26
ENDBRANCH  24  25
ENDBRANCH   1  24
TORSDOF 13
ENDMDL
MODEL 2
REMARK VINA RESULT:     -12.1      3.578      8.588
REMARK SMILES Cc1ccc(NC(=O)N2CCCC[C@@H]2C(=O)NCCCCNC(=O)c2ccc(-c3c4nc(c(-c5ccccc5)c5ccc([nH]5)c(-c5ccccc5)c5nc(c(-c6ccccc6)c6ccc3[nH]6)C=C5)C=C4)cc2)cc1
REMARK SMILES IDX 19 1 18 2 17 3 15 4 16 5 14 7 9 8 10 9 11 10 13 11 12 12
REMARK SMILES IDX 7 13 6 14 8 16 5 17 1 18 2 19 3 20 74 21 4 22 73 23 20 24
REMARK SMILES IDX 21 25 22 26 23 27 24 29 25 30 26 31 72 32 27 33 71 34 28 35
REMARK SMILES IDX 29 36 30 37 65 38 31 39 70 40 64 41 66 42 32 43 69 44 63 45
REMARK SMILES IDX 62 46 33 48 55 49 40 50 54 51 41 52 44 53 53 54 67 55 42 56
REMARK SMILES IDX 43 57 52 59 68 60 45 61 34 62 35 63 39 64 36 65 38 66 37 67
REMARK SMILES IDX 56 68 57 69 61 70 58 71 60 72 59 73 46 74 47 75 51 76 48 77
REMARK SMILES IDX 50 78 49 79
REMARK H PARENT 17 6 6 15 22 28 66 47 44 58
REMARK Flexibility Score: inf
ROOT
ATOM      1  C   UNL A   1      37.352  21.784  25.551  1.00  0.00     0.023 C 
ENDROOT
BRANCH   1   2
ATOM      2  C   UNL A   1      36.792  22.046  24.139  1.00  0.00     0.116 C 
BRANCH   2   3
ATOM      3  N   UNL A   1      36.124  23.333  24.051  1.00  0.00    -0.354 N 
ATOM      4  C   UNL A   1      34.854  23.708  24.375  1.00  0.00     0.242 C 
ATOM      5  O   UNL A   1      34.465  24.780  23.896  1.00  0.00    -0.273 OA
ATOM      6  H   UNL A   1      36.686  24.059  23.698  1.00  0.00     0.163 HD
BRANCH   4   7
ATOM      7  C   UNL A   1      33.881  22.797  25.166  1.00  0.00     0.176 C 
ATOM      8  N   UNL A   1      32.494  22.784  24.631  1.00  0.00    -0.313 N 
ATOM      9  C   UNL A   1      31.401  22.409  25.526  1.00  0.00     0.122 C 
ATOM     10  C   UNL A   1      31.537  22.928  26.946  1.00  0.00     0.022 C 
ATOM     11  C   UNL A   1      33.975  23.205  26.647  1.00  0.00     0.035 C 
ATOM     12  C   UNL A   1      32.900  22.568  27.510  1.00  0.00     0.004 C 
BRANCH   8  13
ATOM     13  C   UNL A   1      32.171  22.727  23.285  1.00  0.00     0.322 C 
ATOM     14  N   UNL A   1      31.251  23.575  22.756  1.00  0.00    -0.308 N 
ATOM     15  H   UNL A   1      30.640  23.163  22.101  1.00  0.00     0.171 HD
ATOM     16  O   UNL A   1      32.641  21.848  22.558  1.00  0.00    -0.248 OA
BRANCH  14  17
ATOM     17  C   UNL A   1      31.026  24.943  22.989  1.00  0.00     0.042 A 
ATOM     18  C   UNL A   1      29.948  29.100  23.240  1.00  0.00     0.044 C 
ATOM     19  C   UNL A   1      30.428  27.679  23.218  1.00  0.00    -0.051 A 
ATOM     20  C   UNL A   1      30.003  26.776  24.198  1.00  0.00     0.005 A 
ATOM     21  C   UNL A   1      31.227  27.212  22.169  1.00  0.00     0.005 A 
ATOM     22  C   UNL A   1      30.326  25.421  24.097  1.00  0.00     0.026 A 
ATOM     23  C   UNL A   1      31.542  25.855  22.066  1.00  0.00     0.026 A 
ENDBRANCH  14  17
ENDBRANCH   8  13
ENDBRANCH   4   7
ENDBRANCH   2   3
ENDBRANCH   1   2
BRANCH   1  24
ATOM     24  C   UNL A   1      38.880  21.755  25.666  1.00  0.00     0.023 C 
BRANCH  24  25
ATOM     25  C   UNL A   1      39.434  22.684  26.734  1.00  0.00     0.116 C 
BRANCH  25  26
ATOM     26  N   UNL A   1      40.817  23.083  26.520  1.00  0.00    -0.352 N 
ATOM     27  C   UNL A   1      41.372  24.353  26.517  1.00  0.00     0.251 C 
ATOM     28  H   UNL A   1      41.449  22.346  26.353  1.00  0.00     0.163 HD
ATOM     29  O   UNL A   1      42.557  24.507  26.277  1.00  0.00    -0.269 OA
BRANCH  27  30
ATOM     30  C   UNL A   1      40.536  25.509  26.932  1.00  0.00     0.039 A 
ATOM     31  C   UNL A   1      40.731  26.724  26.267  1.00  0.00     0.014 A 
ATOM     32  C   UNL A   1      39.733  25.454  28.069  1.00  0.00     0.014 A 
ATOM     33  C   UNL A   1      40.327  27.907  26.880  1.00  0.00     0.010 A 
ATOM     34  C   UNL A   1      39.408  26.631  28.720  1.00  0.00     0.010 A 
ATOM     35  C   UNL A   1      39.768  27.858  28.159  1.00  0.00    -0.014 A 
BRANCH  35  36
ATOM     36  C   UNL A   1      39.684  29.035  29.018  1.00  0.00     0.031 A 
ATOM     37  C   UNL A   1      38.641  30.057  28.825  1.00  0.00     0.074 A 
ATOM     38  C   UNL A   1      40.597  29.230  29.996  1.00  0.00     0.049 A 
ATOM     39  N   UNL A   1      38.837  31.319  29.032  1.00  0.00    -0.248 NA
ATOM     40  C   UNL A   1      37.296  29.741  28.360  1.00  0.00     0.031 C 
ATOM     41  C   UNL A   1      40.570  30.251  31.040  1.00  0.00     0.029 A 
ATOM     42  N   UNL A   1      41.872  28.673  30.085  1.00  0.00    -0.354 N 
ATOM     43  C   UNL A   1      37.608  31.925  29.010  1.00  0.00     0.074 A 
ATOM     44  C   UNL A   1      36.691  30.926  28.504  1.00  0.00     0.031 C 
ATOM     45  C   UNL A   1      41.823  30.447  31.481  1.00  0.00     0.029 A 
ATOM     46  C   UNL A   1      42.711  29.648  30.654  1.00  0.00     0.049 A 
ATOM     47  H   UNL A   1      42.136  27.767  29.802  1.00  0.00     0.167 HD
ATOM     48  C   UNL A   1      37.437  33.160  29.554  1.00  0.00     0.031 A 
ATOM     49  C   UNL A   1      43.808  30.112  29.989  1.00  0.00     0.031 A 
ATOM     50  C   UNL A   1      38.652  33.708  30.148  1.00  0.00     0.049 A 
ATOM     51  C   UNL A   1      43.789  31.597  29.690  1.00  0.00     0.074 A 
ATOM     52  C   UNL A   1      39.095  33.873  31.451  1.00  0.00     0.029 A 
ATOM     53  N   UNL A   1      39.751  33.947  29.340  1.00  0.00    -0.354 N 
ATOM     54  N   UNL A   1      42.805  32.402  29.981  1.00  0.00    -0.248 NA
ATOM     55  C   UNL A   1      44.838  32.264  28.916  1.00  0.00     0.031 C 
ATOM     56  C   UNL A   1      40.465  34.252  31.414  1.00  0.00     0.029 A 
ATOM     57  C   UNL A   1      40.851  34.317  30.091  1.00  0.00     0.049 A 
ATOM     58  H   UNL A   1      39.750  33.865  28.359  1.00  0.00     0.167 HD
ATOM     59  C   UNL A   1      43.024  33.618  29.386  1.00  0.00     0.074 A 
ATOM     60  C   UNL A   1      44.315  33.488  28.740  1.00  0.00     0.031 C 
ATOM     61  C   UNL A   1      42.099  34.620  29.413  1.00  0.00     0.031 A 
BRANCH  48  62
ATOM     62  C   UNL A   1      36.068  33.744  29.765  1.00  0.00    -0.014 A 
ATOM     63  C   UNL A   1      35.359  34.288  28.681  1.00  0.00     0.009 A 
ATOM     64  C   UNL A   1      35.442  33.805  31.022  1.00  0.00     0.009 A 
ATOM     65  C   UNL A   1      34.141  34.955  28.857  1.00  0.00     0.001 A 
ATOM     66  C   UNL A   1      34.245  34.506  31.212  1.00  0.00     0.001 A 
ATOM     67  C   UNL A   1      33.600  35.092  30.129  1.00  0.00     0.000 A 
ENDBRANCH  48  62
BRANCH  49  68
ATOM     68  C   UNL A   1      44.443  29.093  29.108  1.00  0.00    -0.014 A 
ATOM     69  C   UNL A   1      45.305  28.143  29.688  1.00  0.00     0.009 A 
ATOM     70  C   UNL A   1      43.960  28.861  27.813  1.00  0.00     0.009 A 
ATOM     71  C   UNL A   1      45.595  26.945  29.028  1.00  0.00     0.001 A 
ATOM     72  C   UNL A   1      44.262  27.666  27.152  1.00  0.00     0.001 A 
ATOM     73  C   UNL A   1      45.052  26.698  27.771  1.00  0.00     0.000 A 
ENDBRANCH  49  68
BRANCH  61  74
ATOM     74  C   UNL A   1      42.274  35.969  28.769  1.00  0.00    -0.014 A 
ATOM     75  C   UNL A   1      41.817  36.270  27.479  1.00  0.00     0.009 A 
ATOM     76  C   UNL A   1      43.033  36.963  29.424  1.00  0.00     0.009 A 
ATOM     77  C   UNL A   1      42.048  37.528  26.903  1.00  0.00     0.001 A 
ATOM     78  C   UNL A   1      43.286  38.208  28.844  1.00  0.00     0.001 A 
ATOM     79  C   UNL A   1      42.780  38.496  27.585  1.00  0.00     0.000 A 
ENDBRANCH  61  74
ENDBRANCH  35  36
ENDBRANCH  27  30
ENDBRANCH  25  26
ENDBRANCH  24  25
ENDBRANCH   1  24
TORSDOF 13
ENDMDL
MODEL 3
REMARK VINA RESULT:     -11.9      3.249      8.094
REMARK SMILES Cc1ccc(NC(=O)N2CCCC[C@@H]2C(=O)NCCCCNC(=O)c2ccc(-c3c4nc(c(-c5ccccc5)c5ccc([nH]5)c(-c5ccccc5)c5nc(c(-c6ccccc6)c6ccc3[nH]6)C=C5)C=C4)cc2)cc1
REMARK SMILES IDX 19 1 18 2 17 3 15 4 16 5 14 7 9 8 10 9 11 10 13 11 12 12
REMARK SMILES IDX 7 13 6 14 8 16 5 17 1 18 2 19 3 20 74 21 4 22 73 23 20 24
REMARK SMILES IDX 21 25 22 26 23 27 24 29 25 30 26 31 72 32 27 33 71 34 28 35
REMARK SMILES IDX 29 36 30 37 65 38 31 39 70 40 64 41 66 42 32 43 69 44 63 45
REMARK SMILES IDX 62 46 33 48 55 49 40 50 54 51 41 52 44 53 53 54 67 55 42 56
REMARK SMILES IDX 43 57 52 59 68 60 45 61 34 62 35 63 39 64 36 65 38 66 37 67
REMARK SMILES IDX 56 68 57 69 61 70 58 71 60 72 59 73 46 74 47 75 51 76 48 77
REMARK SMILES IDX 50 78 49 79
REMARK H PARENT 17 6 6 15 22 28 66 47 44 58
REMARK Flexibility Score: inf
ROOT
ATOM      1  C   UNL A   1      37.775  22.249  25.528  1.00  0.00     0.023 C 
ENDROOT
BRANCH   1   2
ATOM      2  C   UNL A   1      36.810  22.414  24.338  1.00  0.00     0.116 C 
BRANCH   2   3
ATOM      3  N   UNL A   1      36.132  23.697  24.364  1.00  0.00    -0.354 N 
ATOM      4  C   UNL A   1      34.847  24.027  24.681  1.00  0.00     0.242 C 
ATOM      5  O   UNL A   1      34.463  25.141  24.306  1.00  0.00    -0.273 OA
ATOM      6  H   UNL A   1      36.697  24.462  24.110  1.00  0.00     0.163 HD
BRANCH   4   7
ATOM      7  C   UNL A   1      33.857  23.029  25.335  1.00  0.00     0.176 C 
ATOM      8  N   UNL A   1      32.532  22.962  24.664  1.00  0.00    -0.313 N 
ATOM      9  C   UNL A   1      31.382  22.488  25.430  1.00  0.00     0.122 C 
ATOM     10  C   UNL A   1      31.347  22.951  26.875  1.00  0.00     0.022 C 
ATOM     11  C   UNL A   1      33.781  23.376  26.833  1.00  0.00     0.035 C 
ATOM     12  C   UNL A   1      32.667  22.643  27.559  1.00  0.00     0.004 C 
BRANCH   8  13
ATOM     13  C   UNL A   1      32.347  22.946  23.292  1.00  0.00     0.322 C 
ATOM     14  N   UNL A   1      31.480  23.808  22.698  1.00  0.00    -0.308 N 
ATOM     15  H   UNL A   1      30.941  23.416  21.973  1.00  0.00     0.171 HD
ATOM     16  O   UNL A   1      32.892  22.091  22.589  1.00  0.00    -0.248 OA
BRANCH  14  17
ATOM     17  C   UNL A   1      31.227  25.168  22.949  1.00  0.00     0.042 A 
ATOM     18  C   UNL A   1      30.729  29.238  24.249  1.00  0.00     0.044 C 
ATOM     19  C   UNL A   1      30.811  27.840  23.712  1.00  0.00    -0.051 A 
ATOM     20  C   UNL A   1      31.721  27.527  22.698  1.00  0.00     0.005 A 
ATOM     21  C   UNL A   1      30.051  26.813  24.281  1.00  0.00     0.005 A 
ATOM     22  C   UNL A   1      31.905  26.201  22.300  1.00  0.00     0.026 A 
ATOM     23  C   UNL A   1      30.243  25.486  23.887  1.00  0.00     0.026 A 
ENDBRANCH  14  17
ENDBRANCH   8  13
ENDBRANCH   4   7
ENDBRANCH   2   3
ENDBRANCH   1   2
BRANCH   1  24
ATOM     24  C   UNL A   1      38.664  21.000  25.495  1.00  0.00     0.023 C 
BRANCH  24  25
ATOM     25  C   UNL A   1      39.990  21.171  26.219  1.00  0.00     0.116 C 
BRANCH  25  26
ATOM     26  N   UNL A   1      41.064  20.335  25.703  1.00  0.00    -0.352 N 
ATOM     27  C   UNL A   1      42.434  20.528  25.770  1.00  0.00     0.251 C 
ATOM     28  H   UNL A   1      40.776  19.515  25.240  1.00  0.00     0.163 HD
ATOM     29  O   UNL A   1      43.195  19.736  25.241  1.00  0.00    -0.269 OA
BRANCH  27  30
ATOM     30  C   UNL A   1      42.969  21.640  26.598  1.00  0.00     0.039 A 
ATOM     31  C   UNL A   1      42.826  21.544  27.986  1.00  0.00     0.014 A 
ATOM     32  C   UNL A   1      43.414  22.827  26.020  1.00  0.00     0.014 A 
ATOM     33  C   UNL A   1      42.891  22.701  28.758  1.00  0.00     0.010 A 
ATOM     34  C   UNL A   1      43.394  23.989  26.771  1.00  0.00     0.010 A 
ATOM     35  C   UNL A   1      43.063  23.935  28.128  1.00  0.00    -0.014 A 
BRANCH  35  36
ATOM     36  C   UNL A   1      42.754  25.198  28.790  1.00  0.00     0.031 A 
ATOM     37  C   UNL A   1      41.562  25.986  28.430  1.00  0.00     0.074 A 
ATOM     38  C   UNL A   1      43.588  25.695  29.731  1.00  0.00     0.049 A 
ATOM     39  N   UNL A   1      41.538  27.279  28.437  1.00  0.00    -0.248 NA
ATOM     40  C   UNL A   1      40.305  25.378  28.011  1.00  0.00     0.031 C 
ATOM     41  C   UNL A   1      43.357  26.845  30.600  1.00  0.00     0.029 A 
ATOM     42  N   UNL A   1      44.935  25.383  29.915  1.00  0.00    -0.354 N 
ATOM     43  C   UNL A   1      40.226  27.656  28.311  1.00  0.00     0.074 A 
ATOM     44  C   UNL A   1      39.507  26.450  27.963  1.00  0.00     0.031 C 
ATOM     45  C   UNL A   1      44.543  27.317  31.013  1.00  0.00     0.029 A 
ATOM     46  C   UNL A   1      45.580  26.563  30.329  1.00  0.00     0.049 A 
ATOM     47  H   UNL A   1      45.356  24.503  29.781  1.00  0.00     0.167 HD
ATOM     48  C   UNL A   1      39.834  28.914  28.651  1.00  0.00     0.031 A 
ATOM     49  C   UNL A   1      46.606  27.098  29.607  1.00  0.00     0.031 A 
ATOM     50  C   UNL A   1      40.920  29.745  29.159  1.00  0.00     0.049 A 
ATOM     51  C   UNL A   1      46.349  28.494  29.077  1.00  0.00     0.074 A 
ATOM     52  C   UNL A   1      41.285  30.183  30.422  1.00  0.00     0.029 A 
ATOM     53  N   UNL A   1      41.990  30.040  28.332  1.00  0.00    -0.354 N 
ATOM     54  N   UNL A   1      45.235  29.155  29.230  1.00  0.00    -0.248 NA
ATOM     55  C   UNL A   1      47.298  29.202  28.215  1.00  0.00     0.031 C 
ATOM     56  C   UNL A   1      42.572  30.779  30.336  1.00  0.00     0.029 A 
ATOM     57  C   UNL A   1      42.987  30.703  29.022  1.00  0.00     0.049 A 
ATOM     58  H   UNL A   1      42.035  29.808  27.376  1.00  0.00     0.167 HD
ATOM     59  C   UNL A   1      45.268  30.284  28.451  1.00  0.00     0.074 A 
ATOM     60  C   UNL A   1      46.584  30.277  27.844  1.00  0.00     0.031 C 
ATOM     61  C   UNL A   1      44.188  31.105  28.313  1.00  0.00     0.031 A 
BRANCH  48  62
ATOM     62  C   UNL A   1      38.380  29.282  28.757  1.00  0.00    -0.014 A 
ATOM     63  C   UNL A   1      37.680  29.725  27.623  1.00  0.00     0.009 A 
ATOM     64  C   UNL A   1      37.659  29.232  29.963  1.00  0.00     0.009 A 
ATOM     65  C   UNL A   1      36.365  30.198  27.706  1.00  0.00     0.001 A 
ATOM     66  C   UNL A   1      36.359  29.741  30.062  1.00  0.00     0.001 A 
ATOM     67  C   UNL A   1      35.716  30.237  28.933  1.00  0.00     0.000 A 
ENDBRANCH  48  62
BRANCH  49  68
ATOM     68  C   UNL A   1      47.431  26.079  28.902  1.00  0.00    -0.014 A 
ATOM     69  C   UNL A   1      47.116  25.760  27.568  1.00  0.00     0.009 A 
ATOM     70  C   UNL A   1      48.677  25.686  29.411  1.00  0.00     0.009 A 
ATOM     71  C   UNL A   1      48.061  25.153  26.736  1.00  0.00     0.001 A 
ATOM     72  C   UNL A   1      49.616  25.068  28.578  1.00  0.00     0.001 A 
ATOM     73  C   UNL A   1      49.319  24.830  27.236  1.00  0.00     0.000 A 
ENDBRANCH  49  68
BRANCH  61  74
ATOM     74  C   UNL A   1      44.157  32.349  27.466  1.00  0.00    -0.014 A 
ATOM     75  C   UNL A   1      43.927  33.629  27.988  1.00  0.00     0.009 A 
ATOM     76  C   UNL A   1      44.244  32.241  26.061  1.00  0.00     0.009 A 
ATOM     77  C   UNL A   1      43.858  34.752  27.151  1.00  0.00     0.001 A 
ATOM     78  C   UNL A   1      44.152  33.354  25.222  1.00  0.00     0.001 A 
ATOM     79  C   UNL A   1      43.972  34.615  25.771  1.00  0.00     0.000 A 
ENDBRANCH  61  74
ENDBRANCH  35  36
ENDBRANCH  27  30
ENDBRANCH  25  26
ENDBRANCH  24  25
ENDBRANCH   1  24
TORSDOF 13
ENDMDL
