MODEL 1
REMARK VINA RESULT:     -11.7      0.000      0.000
REMARK SMILES Cc1cc(CNS(=O)(=O)c2ccc(C(=O)NCCCCNC(=O)c3ccc(-c4c5nc(c(-c6ccccc6)c6ccc([nH]6)c(-c6ccccc6)c6nc(c(-c7ccccc7)c7ccc4[nH]7)C=C6)C=C5)cc3)cc2F)no1
REMARK SMILES IDX 17 1 16 2 14 3 15 4 13 6 10 7 11 8 73 9 12 10 72 11 74 12
REMARK SMILES IDX 7 13 8 14 9 15 6 16 5 18 4 19 1 20 2 21 3 22 76 23 75 24
REMARK SMILES IDX 18 25 19 26 20 27 21 28 22 29 23 31 24 32 25 33 71 34 26 35
REMARK SMILES IDX 70 36 27 37 28 38 29 39 64 40 30 41 69 42 63 43 65 44 31 45
REMARK SMILES IDX 68 46 62 47 61 48 32 50 54 51 39 52 53 53 40 54 43 55 52 56
REMARK SMILES IDX 66 57 41 58 42 59 51 61 67 62 44 63 33 64 34 65 38 66 35 67
REMARK SMILES IDX 37 68 36 69 55 70 56 71 60 72 57 73 59 74 58 75 45 76 46 77
REMARK SMILES IDX 50 78 47 79 49 80 48 81
REMARK H PARENT 16 5 6 17 21 30 65 49 43 60
REMARK Flexibility Score: inf
ROOT
ATOM      1  C   UNL A   1      33.110  30.031  26.153  1.00  0.00     0.116 C 
ENDROOT
BRANCH   1   2
ATOM      2  N   UNL A   1      33.104  29.712  24.739  1.00  0.00    -0.352 N 
ATOM      3  C   UNL A   1      32.951  28.537  24.050  1.00  0.00     0.251 C 
ATOM      4  O   UNL A   1      32.973  28.606  22.820  1.00  0.00    -0.269 OA
ATOM      5  H   UNL A   1      33.237  30.496  24.158  1.00  0.00     0.163 HD
BRANCH   3   6
ATOM      6  C   UNL A   1      32.740  27.203  24.687  1.00  0.00     0.042 A 
ATOM      7  C   UNL A   1      32.144  24.680  25.780  1.00  0.00     0.118 A 
ATOM      8  C   UNL A   1      31.117  25.461  25.253  1.00  0.00     0.026 A 
ATOM      9  C   UNL A   1      33.446  25.150  25.765  1.00  0.00     0.144 A 
ATOM     10  C   UNL A   1      31.418  26.720  24.721  1.00  0.00     0.015 A 
ATOM     11  C   UNL A   1      33.751  26.384  25.194  1.00  0.00     0.054 A 
ATOM     12  F   UNL A   1      34.453  24.417  26.259  1.00  0.00    -0.205 F 
BRANCH   7  13
ATOM     13  S   UNL A   1      31.808  23.065  26.397  1.00  0.00     0.243 S 
ATOM     14  O   UNL A   1      30.433  22.758  26.055  1.00  0.00    -0.207 OA
ATOM     15  O   UNL A   1      32.283  23.024  27.756  1.00  0.00    -0.207 OA
BRANCH  13  16
ATOM     16  N   UNL A   1      32.768  22.038  25.486  1.00  0.00    -0.205 NA
ATOM     17  H   UNL A   1      32.177  21.640  24.757  1.00  0.00     0.141 HD
BRANCH  16  18
ATOM     18  C   UNL A   1      33.424  20.923  26.174  1.00  0.00     0.158 C 
BRANCH  18  19
ATOM     19  C   UNL A   1      33.287  19.697  25.334  1.00  0.00     0.099 A 
ATOM     20  C   UNL A   1      34.034  16.859  23.137  1.00  0.00     0.091 C 
ATOM     21  C   UNL A   1      33.627  17.965  24.021  1.00  0.00     0.133 A 
ATOM     22  C   UNL A   1      34.283  19.030  24.588  1.00  0.00     0.073 A 
ATOM     23  O   UNL A   1      32.321  17.991  24.397  1.00  0.00    -0.361 OA
ATOM     24  N   UNL A   1      32.101  19.076  25.229  1.00  0.00    -0.083 NA
ENDBRANCH  18  19
ENDBRANCH  16  18
ENDBRANCH  13  16
ENDBRANCH   7  13
ENDBRANCH   3   6
ENDBRANCH   1   2
BRANCH   1  25
ATOM     25  C   UNL A   1      31.714  30.453  26.622  1.00  0.00     0.023 C 
BRANCH  25  26
ATOM     26  C   UNL A   1      31.513  31.968  26.722  1.00  0.00     0.023 C 
BRANCH  26  27
ATOM     27  C   UNL A   1      32.709  32.740  27.272  1.00  0.00     0.116 C 
BRANCH  27  28
ATOM     28  N   UNL A   1      32.379  34.089  27.700  1.00  0.00    -0.352 N 
ATOM     29  C   UNL A   1      33.022  34.870  28.632  1.00  0.00     0.251 C 
ATOM     30  H   UNL A   1      31.594  34.497  27.268  1.00  0.00     0.163 HD
ATOM     31  O   UNL A   1      32.565  35.961  28.953  1.00  0.00    -0.269 OA
BRANCH  29  32
ATOM     32  C   UNL A   1      34.243  34.355  29.281  1.00  0.00     0.039 A 
ATOM     33  C   UNL A   1      34.121  33.692  30.505  1.00  0.00     0.014 A 
ATOM     34  C   UNL A   1      35.491  34.490  28.667  1.00  0.00     0.014 A 
ATOM     35  C   UNL A   1      35.244  33.097  31.079  1.00  0.00     0.010 A 
ATOM     36  C   UNL A   1      36.597  33.847  29.212  1.00  0.00     0.010 A 
ATOM     37  C   UNL A   1      36.481  33.138  30.417  1.00  0.00    -0.014 A 
BRANCH  37  38
ATOM     38  C   UNL A   1      37.664  32.426  30.956  1.00  0.00     0.031 A 
ATOM     39  C   UNL A   1      38.379  32.956  32.165  1.00  0.00     0.074 A 
ATOM     40  C   UNL A   1      38.138  31.345  30.308  1.00  0.00     0.049 A 
ATOM     41  N   UNL A   1      39.473  32.517  32.734  1.00  0.00    -0.248 NA
ATOM     42  C   UNL A   1      37.804  34.151  32.802  1.00  0.00     0.031 C 
ATOM     43  C   UNL A   1      37.556  30.754  29.102  1.00  0.00     0.029 A 
ATOM     44  N   UNL A   1      39.229  30.555  30.572  1.00  0.00    -0.354 N 
ATOM     45  C   UNL A   1      39.727  33.390  33.782  1.00  0.00     0.074 A 
ATOM     46  C   UNL A   1      38.697  34.407  33.747  1.00  0.00     0.031 C 
ATOM     47  C   UNL A   1      38.282  29.682  28.744  1.00  0.00     0.029 A 
ATOM     48  C   UNL A   1      39.397  29.533  29.672  1.00  0.00     0.049 A 
ATOM     49  H   UNL A   1      39.832  30.707  31.334  1.00  0.00     0.167 HD
ATOM     50  C   UNL A   1      40.719  33.343  34.703  1.00  0.00     0.031 A 
ATOM     51  C   UNL A   1      40.348  28.583  29.598  1.00  0.00     0.031 A 
ATOM     52  C   UNL A   1      41.734  32.326  34.748  1.00  0.00     0.049 A 
ATOM     53  C   UNL A   1      41.442  28.556  30.626  1.00  0.00     0.074 A 
ATOM     54  C   UNL A   1      42.748  32.160  35.676  1.00  0.00     0.029 A 
ATOM     55  N   UNL A   1      41.865  31.303  33.823  1.00  0.00    -0.354 N 
ATOM     56  N   UNL A   1      41.635  29.355  31.646  1.00  0.00    -0.248 NA
ATOM     57  C   UNL A   1      42.445  27.489  30.495  1.00  0.00     0.031 C 
ATOM     58  C   UNL A   1      43.515  31.055  35.290  1.00  0.00     0.029 A 
ATOM     59  C   UNL A   1      42.955  30.512  34.146  1.00  0.00     0.049 A 
ATOM     60  H   UNL A   1      41.272  31.160  33.050  1.00  0.00     0.167 HD
ATOM     61  C   UNL A   1      42.767  28.876  32.293  1.00  0.00     0.074 A 
ATOM     62  C   UNL A   1      43.210  27.709  31.556  1.00  0.00     0.031 C 
ATOM     63  C   UNL A   1      43.382  29.358  33.400  1.00  0.00     0.031 A 
BRANCH  50  64
ATOM     64  C   UNL A   1      40.750  34.434  35.733  1.00  0.00    -0.014 A 
ATOM     65  C   UNL A   1      40.074  34.297  36.957  1.00  0.00     0.009 A 
ATOM     66  C   UNL A   1      41.478  35.608  35.487  1.00  0.00     0.009 A 
ATOM     67  C   UNL A   1      40.095  35.330  37.896  1.00  0.00     0.001 A 
ATOM     68  C   UNL A   1      41.518  36.628  36.439  1.00  0.00     0.001 A 
ATOM     69  C   UNL A   1      40.819  36.493  37.637  1.00  0.00     0.000 A 
ENDBRANCH  50  64
BRANCH  51  70
ATOM     70  C   UNL A   1      40.296  27.564  28.520  1.00  0.00    -0.014 A 
ATOM     71  C   UNL A   1      39.620  26.352  28.726  1.00  0.00     0.009 A 
ATOM     72  C   UNL A   1      40.916  27.797  27.282  1.00  0.00     0.009 A 
ATOM     73  C   UNL A   1      39.582  25.384  27.720  1.00  0.00     0.001 A 
ATOM     74  C   UNL A   1      40.857  26.837  26.271  1.00  0.00     0.001 A 
ATOM     75  C   UNL A   1      40.196  25.629  26.492  1.00  0.00     0.000 A 
ENDBRANCH  51  70
BRANCH  63  76
ATOM     76  C   UNL A   1      44.584  28.607  33.895  1.00  0.00    -0.014 A 
ATOM     77  C   UNL A   1      44.450  27.524  34.777  1.00  0.00     0.009 A 
ATOM     78  C   UNL A   1      45.862  28.963  33.438  1.00  0.00     0.009 A 
ATOM     79  C   UNL A   1      45.578  26.829  35.215  1.00  0.00     0.001 A 
ATOM     80  C   UNL A   1      46.986  28.252  33.859  1.00  0.00     0.001 A 
ATOM     81  C   UNL A   1      46.844  27.191  34.752  1.00  0.00     0.000 A 
ENDBRANCH  63  76
ENDBRANCH  37  38
ENDBRANCH  29  32
ENDBRANCH  27  28
ENDBRANCH  26  27
ENDBRANCH  25  26
ENDBRANCH   1  25
TORSDOF 15
ENDMDL
MODEL 2
REMARK VINA RESULT:     -11.6      4.870      9.808
REMARK SMILES Cc1cc(CNS(=O)(=O)c2ccc(C(=O)NCCCCNC(=O)c3ccc(-c4c5nc(c(-c6ccccc6)c6ccc([nH]6)c(-c6ccccc6)c6nc(c(-c7ccccc7)c7ccc4[nH]7)C=C6)C=C5)cc3)cc2F)no1
REMARK SMILES IDX 17 1 16 2 14 3 15 4 13 6 10 7 11 8 73 9 12 10 72 11 74 12
REMARK SMILES IDX 7 13 8 14 9 15 6 16 5 18 4 19 1 20 2 21 3 22 76 23 75 24
REMARK SMILES IDX 18 25 19 26 20 27 21 28 22 29 23 31 24 32 25 33 71 34 26 35
REMARK SMILES IDX 70 36 27 37 28 38 29 39 64 40 30 41 69 42 63 43 65 44 31 45
REMARK SMILES IDX 68 46 62 47 61 48 32 50 54 51 39 52 53 53 40 54 43 55 52 56
REMARK SMILES IDX 66 57 41 58 42 59 51 61 67 62 44 63 33 64 34 65 38 66 35 67
REMARK SMILES IDX 37 68 36 69 55 70 56 71 60 72 57 73 59 74 58 75 45 76 46 77
REMARK SMILES IDX 50 78 47 79 49 80 48 81
REMARK H PARENT 16 5 6 17 21 30 65 49 43 60
REMARK Flexibility Score: inf
ROOT
ATOM      1  C   UNL A   1      36.648  22.169  25.970  1.00  0.00     0.116 C 
ENDROOT
BRANCH   1   2
ATOM      2  N   UNL A   1      35.477  22.319  26.810  1.00  0.00    -0.352 N 
ATOM      3  C   UNL A   1      34.275  22.953  26.627  1.00  0.00     0.251 C 
ATOM      4  O   UNL A   1      33.459  22.875  27.546  1.00  0.00    -0.269 OA
ATOM      5  H   UNL A   1      35.562  21.880  27.686  1.00  0.00     0.163 HD
BRANCH   3   6
ATOM      6  C   UNL A   1      33.890  23.699  25.392  1.00  0.00     0.042 A 
ATOM      7  C   UNL A   1      33.326  25.258  23.119  1.00  0.00     0.118 A 
ATOM      8  C   UNL A   1      34.027  25.823  24.183  1.00  0.00     0.026 A 
ATOM      9  C   UNL A   1      32.912  23.938  23.188  1.00  0.00     0.144 A 
ATOM     10  C   UNL A   1      34.295  25.046  25.316  1.00  0.00     0.015 A 
ATOM     11  C   UNL A   1      33.219  23.153  24.297  1.00  0.00     0.054 A 
ATOM     12  F   UNL A   1      32.243  23.369  22.176  1.00  0.00    -0.205 F 
BRANCH   7  13
ATOM     13  S   UNL A   1      33.030  26.188  21.653  1.00  0.00     0.243 S 
ATOM     14  O   UNL A   1      33.301  25.311  20.531  1.00  0.00    -0.207 OA
ATOM     15  O   UNL A   1      33.703  27.452  21.812  1.00  0.00    -0.207 OA
BRANCH  13  16
ATOM     16  N   UNL A   1      31.382  26.482  21.644  1.00  0.00    -0.205 NA
ATOM     17  H   UNL A   1      31.204  27.188  20.932  1.00  0.00     0.141 HD
BRANCH  16  18
ATOM     18  C   UNL A   1      30.762  26.949  22.887  1.00  0.00     0.158 C 
BRANCH  18  19
ATOM     19  C   UNL A   1      30.034  28.223  22.608  1.00  0.00     0.099 A 
ATOM     20  C   UNL A   1      27.631  30.986  22.767  1.00  0.00     0.091 C 
ATOM     21  C   UNL A   1      28.646  29.929  22.618  1.00  0.00     0.133 A 
ATOM     22  C   UNL A   1      28.884  28.734  23.250  1.00  0.00     0.073 A 
ATOM     23  O   UNL A   1      29.586  30.124  21.655  1.00  0.00    -0.361 OA
ATOM     24  N   UNL A   1      30.466  29.054  21.648  1.00  0.00    -0.083 NA
ENDBRANCH  18  19
ENDBRANCH  16  18
ENDBRANCH  13  16
ENDBRANCH   7  13
ENDBRANCH   3   6
ENDBRANCH   1   2
BRANCH   1  25
ATOM     25  C   UNL A   1      36.541  20.908  25.106  1.00  0.00     0.023 C 
BRANCH  25  26
ATOM     26  C   UNL A   1      37.889  20.296  24.714  1.00  0.00     0.023 C 
BRANCH  26  27
ATOM     27  C   UNL A   1      38.992  20.446  25.758  1.00  0.00     0.116 C 
BRANCH  27  28
ATOM     28  N   UNL A   1      39.891  19.305  25.816  1.00  0.00    -0.352 N 
ATOM     29  C   UNL A   1      41.231  19.291  26.124  1.00  0.00     0.251 C 
ATOM     30  H   UNL A   1      39.490  18.430  25.610  1.00  0.00     0.163 HD
ATOM     31  O   UNL A   1      41.879  18.253  26.042  1.00  0.00    -0.269 OA
BRANCH  29  32
ATOM     32  C   UNL A   1      41.895  20.552  26.505  1.00  0.00     0.039 A 
ATOM     33  C   UNL A   1      42.345  21.404  25.493  1.00  0.00     0.014 A 
ATOM     34  C   UNL A   1      42.035  20.910  27.848  1.00  0.00     0.014 A 
ATOM     35  C   UNL A   1      42.869  22.652  25.826  1.00  0.00     0.010 A 
ATOM     36  C   UNL A   1      42.505  22.177  28.176  1.00  0.00     0.010 A 
ATOM     37  C   UNL A   1      42.917  23.062  27.168  1.00  0.00    -0.014 A 
BRANCH  37  38
ATOM     38  C   UNL A   1      43.374  24.422  27.540  1.00  0.00     0.031 A 
ATOM     39  C   UNL A   1      42.377  25.472  27.935  1.00  0.00     0.074 A 
ATOM     40  C   UNL A   1      44.682  24.730  27.447  1.00  0.00     0.049 A 
ATOM     41  N   UNL A   1      42.578  26.735  28.217  1.00  0.00    -0.248 NA
ATOM     42  C   UNL A   1      40.967  25.055  27.997  1.00  0.00     0.031 C 
ATOM     43  C   UNL A   1      45.744  23.809  27.038  1.00  0.00     0.029 A 
ATOM     44  N   UNL A   1      45.337  25.912  27.681  1.00  0.00    -0.354 N 
ATOM     45  C   UNL A   1      41.321  27.266  28.471  1.00  0.00     0.074 A 
ATOM     46  C   UNL A   1      40.361  26.201  28.271  1.00  0.00     0.031 C 
ATOM     47  C   UNL A   1      46.921  24.455  27.073  1.00  0.00     0.029 A 
ATOM     48  C   UNL A   1      46.692  25.840  27.470  1.00  0.00     0.049 A 
ATOM     49  H   UNL A   1      44.880  26.733  27.972  1.00  0.00     0.167 HD
ATOM     50  C   UNL A   1      40.995  28.524  28.852  1.00  0.00     0.031 A 
ATOM     51  C   UNL A   1      47.643  26.786  27.578  1.00  0.00     0.031 A 
ATOM     52  C   UNL A   1      41.948  29.579  29.065  1.00  0.00     0.049 A 
ATOM     53  C   UNL A   1      47.256  28.175  27.996  1.00  0.00     0.074 A 
ATOM     54  C   UNL A   1      41.720  30.871  29.507  1.00  0.00     0.029 A 
ATOM     55  N   UNL A   1      43.311  29.463  28.849  1.00  0.00    -0.354 N 
ATOM     56  N   UNL A   1      46.069  28.647  28.289  1.00  0.00    -0.248 NA
ATOM     57  C   UNL A   1      48.342  29.159  28.104  1.00  0.00     0.031 C 
ATOM     58  C   UNL A   1      42.944  31.548  29.523  1.00  0.00     0.029 A 
ATOM     59  C   UNL A   1      43.937  30.666  29.130  1.00  0.00     0.049 A 
ATOM     60  H   UNL A   1      43.768  28.647  28.541  1.00  0.00     0.167 HD
ATOM     61  C   UNL A   1      46.267  29.977  28.639  1.00  0.00     0.074 A 
ATOM     62  C   UNL A   1      47.690  30.232  28.532  1.00  0.00     0.031 C 
ATOM     63  C   UNL A   1      45.352  30.902  29.016  1.00  0.00     0.031 A 
BRANCH  50  64
ATOM     64  C   UNL A   1      39.537  28.822  29.055  1.00  0.00    -0.014 A 
ATOM     65  C   UNL A   1      38.937  28.685  30.318  1.00  0.00     0.009 A 
ATOM     66  C   UNL A   1      38.756  29.262  27.976  1.00  0.00     0.009 A 
ATOM     67  C   UNL A   1      37.576  28.946  30.487  1.00  0.00     0.001 A 
ATOM     68  C   UNL A   1      37.401  29.546  28.153  1.00  0.00     0.001 A 
ATOM     69  C   UNL A   1      36.810  29.378  29.404  1.00  0.00     0.000 A 
ENDBRANCH  50  64
BRANCH  51  70
ATOM     70  C   UNL A   1      49.062  26.444  27.308  1.00  0.00    -0.014 A 
ATOM     71  C   UNL A   1      49.889  25.986  28.345  1.00  0.00     0.009 A 
ATOM     72  C   UNL A   1      49.596  26.570  26.016  1.00  0.00     0.009 A 
ATOM     73  C   UNL A   1      51.228  25.678  28.098  1.00  0.00     0.001 A 
ATOM     74  C   UNL A   1      50.930  26.240  25.768  1.00  0.00     0.001 A 
ATOM     75  C   UNL A   1      51.746  25.801  26.809  1.00  0.00     0.000 A 
ENDBRANCH  51  70
BRANCH  63  76
ATOM     76  C   UNL A   1      45.868  32.267  29.368  1.00  0.00    -0.014 A 
ATOM     77  C   UNL A   1      46.034  33.255  28.386  1.00  0.00     0.009 A 
ATOM     78  C   UNL A   1      46.150  32.579  30.707  1.00  0.00     0.009 A 
ATOM     79  C   UNL A   1      46.501  34.523  28.736  1.00  0.00     0.001 A 
ATOM     80  C   UNL A   1      46.594  33.854  31.056  1.00  0.00     0.001 A 
ATOM     81  C   UNL A   1      46.775  34.823  30.070  1.00  0.00     0.000 A 
ENDBRANCH  63  76
ENDBRANCH  37  38
ENDBRANCH  29  32
ENDBRANCH  27  28
ENDBRANCH  26  27
ENDBRANCH  25  26
ENDBRANCH   1  25
TORSDOF 15
ENDMDL
MODEL 3
REMARK VINA RESULT:     -11.4      4.043      9.260
REMARK SMILES Cc1cc(CNS(=O)(=O)c2ccc(C(=O)NCCCCNC(=O)c3ccc(-c4c5nc(c(-c6ccccc6)c6ccc([nH]6)c(-c6ccccc6)c6nc(c(-c7ccccc7)c7ccc4[nH]7)C=C6)C=C5)cc3)cc2F)no1
REMARK SMILES IDX 17 1 16 2 14 3 15 4 13 6 10 7 11 8 73 9 12 10 72 11 74 12
REMARK SMILES IDX 7 13 8 14 9 15 6 16 5 18 4 19 1 20 2 21 3 22 76 23 75 24
REMARK SMILES IDX 18 25 19 26 20 27 21 28 22 29 23 31 24 32 25 33 71 34 26 35
REMARK SMILES IDX 70 36 27 37 28 38 29 39 64 40 30 41 69 42 63 43 65 44 31 45
REMARK SMILES IDX 68 46 62 47 61 48 32 50 54 51 39 52 53 53 40 54 43 55 52 56
REMARK SMILES IDX 66 57 41 58 42 59 51 61 67 62 44 63 33 64 34 65 38 66 35 67
REMARK SMILES IDX 37 68 36 69 55 70 56 71 60 72 57 73 59 74 58 75 45 76 46 77
REMARK SMILES IDX 50 78 47 79 49 80 48 81
REMARK H PARENT 16 5 6 17 21 30 65 49 43 60
REMARK Flexibility Score: inf
ROOT
ATOM      1  C   UNL A   1      35.686  21.649  26.269  1.00  0.00     0.116 C 
ENDROOT
BRANCH   1   2
ATOM      2  N   UNL A   1      34.393  21.042  26.024  1.00  0.00    -0.352 N 
ATOM      3  C   UNL A   1      33.343  21.384  25.211  1.00  0.00     0.251 C 
ATOM      4  O   UNL A   1      32.369  20.630  25.213  1.00  0.00    -0.269 OA
ATOM      5  H   UNL A   1      34.238  20.222  26.545  1.00  0.00     0.163 HD
BRANCH   3   6
ATOM      6  C   UNL A   1      33.316  22.583  24.321  1.00  0.00     0.042 A 
ATOM      7  C   UNL A   1      33.124  24.726  22.508  1.00  0.00     0.118 A 
ATOM      8  C   UNL A   1      32.757  23.444  22.099  1.00  0.00     0.026 A 
ATOM      9  C   UNL A   1      33.581  24.934  23.799  1.00  0.00     0.144 A 
ATOM     10  C   UNL A   1      32.866  22.380  23.002  1.00  0.00     0.015 A 
ATOM     11  C   UNL A   1      33.646  23.882  24.710  1.00  0.00     0.054 A 
ATOM     12  F   UNL A   1      33.934  26.156  24.219  1.00  0.00    -0.205 F 
BRANCH   7  13
ATOM     13  S   UNL A   1      32.937  26.096  21.418  1.00  0.00     0.243 S 
ATOM     14  O   UNL A   1      32.984  25.573  20.067  1.00  0.00    -0.207 OA
ATOM     15  O   UNL A   1      33.842  27.122  21.870  1.00  0.00    -0.207 OA
BRANCH  13  16
ATOM     16  N   UNL A   1      31.374  26.644  21.665  1.00  0.00    -0.205 NA
ATOM     17  H   UNL A   1      30.931  26.717  20.750  1.00  0.00     0.141 HD
BRANCH  16  18
ATOM     18  C   UNL A   1      31.198  27.933  22.340  1.00  0.00     0.158 C 
BRANCH  18  19
ATOM     19  C   UNL A   1      31.154  27.698  23.813  1.00  0.00     0.099 A 
ATOM     20  C   UNL A   1      31.607  28.075  27.432  1.00  0.00     0.091 C 
ATOM     21  C   UNL A   1      31.370  27.828  25.999  1.00  0.00     0.133 A 
ATOM     22  C   UNL A   1      31.715  28.485  24.843  1.00  0.00     0.073 A 
ATOM     23  O   UNL A   1      30.653  26.716  25.686  1.00  0.00    -0.361 OA
ATOM     24  N   UNL A   1      30.509  26.632  24.311  1.00  0.00    -0.083 NA
ENDBRANCH  18  19
ENDBRANCH  16  18
ENDBRANCH  13  16
ENDBRANCH   7  13
ENDBRANCH   3   6
ENDBRANCH   1   2
BRANCH   1  25
ATOM     25  C   UNL A   1      36.539  21.647  24.996  1.00  0.00     0.023 C 
BRANCH  25  26
ATOM     26  C   UNL A   1      37.597  20.542  24.948  1.00  0.00     0.023 C 
BRANCH  26  27
ATOM     27  C   UNL A   1      38.898  20.864  25.678  1.00  0.00     0.116 C 
BRANCH  27  28
ATOM     28  N   UNL A   1      39.851  19.766  25.674  1.00  0.00    -0.352 N 
ATOM     29  C   UNL A   1      41.167  19.778  26.072  1.00  0.00     0.251 C 
ATOM     30  H   UNL A   1      39.511  18.903  25.345  1.00  0.00     0.163 HD
ATOM     31  O   UNL A   1      41.872  18.787  25.922  1.00  0.00    -0.269 OA
BRANCH  29  32
ATOM     32  C   UNL A   1      41.737  21.017  26.635  1.00  0.00     0.039 A 
ATOM     33  C   UNL A   1      42.269  21.967  25.760  1.00  0.00     0.014 A 
ATOM     34  C   UNL A   1      41.708  21.257  28.011  1.00  0.00     0.014 A 
ATOM     35  C   UNL A   1      42.706  23.194  26.259  1.00  0.00     0.010 A 
ATOM     36  C   UNL A   1      42.090  22.501  28.500  1.00  0.00     0.010 A 
ATOM     37  C   UNL A   1      42.585  23.483  27.627  1.00  0.00    -0.014 A 
BRANCH  37  38
ATOM     38  C   UNL A   1      42.946  24.815  28.166  1.00  0.00     0.031 A 
ATOM     39  C   UNL A   1      41.886  25.855  28.385  1.00  0.00     0.074 A 
ATOM     40  C   UNL A   1      44.242  25.112  28.384  1.00  0.00     0.049 A 
ATOM     41  N   UNL A   1      42.019  27.098  28.774  1.00  0.00    -0.248 NA
ATOM     42  C   UNL A   1      40.498  25.453  28.107  1.00  0.00     0.031 C 
ATOM     43  C   UNL A   1      45.369  24.202  28.173  1.00  0.00     0.029 A 
ATOM     44  N   UNL A   1      44.828  26.272  28.823  1.00  0.00    -0.354 N 
ATOM     45  C   UNL A   1      40.737  27.630  28.769  1.00  0.00     0.074 A 
ATOM     46  C   UNL A   1      39.846  26.589  28.302  1.00  0.00     0.031 C 
ATOM     47  C   UNL A   1      46.509  24.831  28.505  1.00  0.00     0.029 A 
ATOM     48  C   UNL A   1      46.196  26.195  28.916  1.00  0.00     0.049 A 
ATOM     49  H   UNL A   1      44.317  27.082  29.050  1.00  0.00     0.167 HD
ATOM     50  C   UNL A   1      40.333  28.870  29.136  1.00  0.00     0.031 A 
ATOM     51  C   UNL A   1      47.099  27.122  29.286  1.00  0.00     0.031 A 
ATOM     52  C   UNL A   1      41.214  29.900  29.614  1.00  0.00     0.049 A 
ATOM     53  C   UNL A   1      46.627  28.492  29.682  1.00  0.00     0.074 A 
ATOM     54  C   UNL A   1      40.894  31.170  30.064  1.00  0.00     0.029 A 
ATOM     55  N   UNL A   1      42.592  29.780  29.702  1.00  0.00    -0.354 N 
ATOM     56  N   UNL A   1      45.405  28.962  29.728  1.00  0.00    -0.248 NA
ATOM     57  C   UNL A   1      47.662  29.456  30.084  1.00  0.00     0.031 C 
ATOM     58  C   UNL A   1      42.083  31.830  30.391  1.00  0.00     0.029 A 
ATOM     59  C   UNL A   1      43.139  30.958  30.181  1.00  0.00     0.049 A 
ATOM     60  H   UNL A   1      43.106  28.976  29.459  1.00  0.00     0.167 HD
ATOM     61  C   UNL A   1      45.520  30.268  30.185  1.00  0.00     0.074 A 
ATOM     62  C   UNL A   1      46.930  30.511  30.413  1.00  0.00     0.031 C 
ATOM     63  C   UNL A   1      44.543  31.183  30.399  1.00  0.00     0.031 A 
BRANCH  50  64
ATOM     64  C   UNL A   1      38.867  29.174  29.025  1.00  0.00    -0.014 A 
ATOM     65  C   UNL A   1      38.007  29.016  30.124  1.00  0.00     0.009 A 
ATOM     66  C   UNL A   1      38.340  29.642  27.811  1.00  0.00     0.009 A 
ATOM     67  C   UNL A   1      36.643  29.283  29.999  1.00  0.00     0.001 A 
ATOM     68  C   UNL A   1      36.980  29.932  27.697  1.00  0.00     0.001 A 
ATOM     69  C   UNL A   1      36.131  29.743  28.786  1.00  0.00     0.000 A 
ENDBRANCH  50  64
BRANCH  51  70
ATOM     70  C   UNL A   1      48.542  26.778  29.321  1.00  0.00    -0.014 A 
ATOM     71  C   UNL A   1      49.117  26.261  30.492  1.00  0.00     0.009 A 
ATOM     72  C   UNL A   1      49.350  26.961  28.188  1.00  0.00     0.009 A 
ATOM     73  C   UNL A   1      50.478  25.951  30.533  1.00  0.00     0.001 A 
ATOM     74  C   UNL A   1      50.706  26.629  28.226  1.00  0.00     0.001 A 
ATOM     75  C   UNL A   1      51.270  26.130  29.400  1.00  0.00     0.000 A 
ENDBRANCH  51  70
BRANCH  63  76
ATOM     76  C   UNL A   1      44.967  32.521  30.931  1.00  0.00    -0.014 A 
ATOM     77  C   UNL A   1      45.268  33.583  30.066  1.00  0.00     0.009 A 
ATOM     78  C   UNL A   1      45.024  32.731  32.318  1.00  0.00     0.009 A 
ATOM     79  C   UNL A   1      45.646  34.825  30.581  1.00  0.00     0.001 A 
ATOM     80  C   UNL A   1      45.379  33.979  32.830  1.00  0.00     0.001 A 
ATOM     81  C   UNL A   1      45.696  35.022  31.962  1.00  0.00     0.000 A 
ENDBRANCH  63  76
ENDBRANCH  37  38
ENDBRANCH  29  32
ENDBRANCH  27  28
ENDBRANCH  26  27
ENDBRANCH  25  26
ENDBRANCH   1  25
TORSDOF 15
ENDMDL
