MODEL 1
REMARK VINA RESULT:     -12.2      0.000      0.000
REMARK SMILES O=C(NCCCCNC(=O)[C@@H](Cc1ccccc1)N1C(=O)/C(=C/c2ccncc2)SC1=S)c1ccc(-c2c3nc(c(-c4ccccc4)c4ccc([nH]4)c(-c4ccccc4)c4nc(c(-c5ccccc5)c5ccc2[nH]5)C=C4)C=C3)cc1
REMARK SMILES IDX 5 1 4 2 3 3 1 4 2 5 33 7 34 8 80 9 35 10 79 11 36 12 37 13
REMARK SMILES IDX 38 14 73 15 39 16 78 17 72 18 74 19 40 20 77 21 71 22 70 23
REMARK SMILES IDX 41 25 63 26 48 27 62 28 49 29 52 30 61 31 75 32 50 33 51 34
REMARK SMILES IDX 60 36 76 37 53 38 42 39 43 40 47 41 44 42 46 43 45 44 64 45
REMARK SMILES IDX 65 46 69 47 66 48 68 49 67 50 54 51 55 52 59 53 56 54 58 55
REMARK SMILES IDX 57 56 6 57 7 58 8 59 9 60 10 62 11 63 12 64 13 65 14 66
REMARK SMILES IDX 18 67 15 68 17 69 16 70 19 71 20 72 31 73 21 74 22 75 30 76
REMARK SMILES IDX 32 77 23 78 24 79 25 80 29 81 26 82 28 83 27 84
REMARK H PARENT 3 6 74 24 52 35 8 61
REMARK Flexibility Score: inf
ROOT
ATOM      1  C   UNL A   1      31.015  32.064  26.133  1.00  0.00     0.023 C 
ENDROOT
BRANCH   1   2
ATOM      2  C   UNL A   1      32.286  32.460  26.883  1.00  0.00     0.116 C 
BRANCH   2   3
ATOM      3  N   UNL A   1      32.224  33.750  27.564  1.00  0.00    -0.352 N 
ATOM      4  O   UNL A   1      32.927  35.395  28.965  1.00  0.00    -0.269 OA
ATOM      5  C   UNL A   1      33.139  34.315  28.426  1.00  0.00     0.251 C 
ATOM      6  H   UNL A   1      31.420  34.289  27.383  1.00  0.00     0.163 HD
BRANCH   5   7
ATOM      7  C   UNL A   1      34.366  33.558  28.742  1.00  0.00     0.039 A 
ATOM      8  C   UNL A   1      34.274  32.300  29.339  1.00  0.00     0.014 A 
ATOM      9  C   UNL A   1      35.605  34.175  28.562  1.00  0.00     0.014 A 
ATOM     10  C   UNL A   1      35.392  31.765  29.961  1.00  0.00     0.010 A 
ATOM     11  C   UNL A   1      36.750  33.573  29.089  1.00  0.00     0.010 A 
ATOM     12  C   UNL A   1      36.642  32.395  29.845  1.00  0.00    -0.014 A 
BRANCH  12  13
ATOM     13  C   UNL A   1      37.832  31.799  30.501  1.00  0.00     0.031 A 
ATOM     14  C   UNL A   1      38.660  30.751  29.807  1.00  0.00     0.074 A 
ATOM     15  C   UNL A   1      38.165  32.213  31.737  1.00  0.00     0.049 A 
ATOM     16  N   UNL A   1      39.668  30.059  30.272  1.00  0.00    -0.248 NA
ATOM     17  C   UNL A   1      38.305  30.431  28.414  1.00  0.00     0.031 C 
ATOM     18  C   UNL A   1      37.449  33.235  32.504  1.00  0.00     0.029 A 
ATOM     19  N   UNL A   1      39.189  31.831  32.562  1.00  0.00    -0.354 N 
ATOM     20  C   UNL A   1      40.038  29.191  29.252  1.00  0.00     0.074 A 
ATOM     21  C   UNL A   1      39.144  29.441  28.142  1.00  0.00     0.031 C 
ATOM     22  C   UNL A   1      38.073  33.421  33.674  1.00  0.00     0.029 A 
ATOM     23  C   UNL A   1      39.177  32.474  33.774  1.00  0.00     0.049 A 
ATOM     24  H   UNL A   1      39.867  31.162  32.311  1.00  0.00     0.167 HD
ATOM     25  C   UNL A   1      41.028  28.265  29.248  1.00  0.00     0.031 A 
ATOM     26  C   UNL A   1      39.934  32.297  34.870  1.00  0.00     0.031 A 
ATOM     27  C   UNL A   1      41.925  28.036  30.351  1.00  0.00     0.049 A 
ATOM     28  C   UNL A   1      41.003  31.249  34.853  1.00  0.00     0.074 A 
ATOM     29  C   UNL A   1      42.986  27.150  30.431  1.00  0.00     0.029 A 
ATOM     30  N   UNL A   1      41.864  28.698  31.568  1.00  0.00    -0.354 N 
ATOM     31  N   UNL A   1      41.342  30.438  33.881  1.00  0.00    -0.248 NA
ATOM     32  C   UNL A   1      41.788  31.087  36.083  1.00  0.00     0.031 C 
ATOM     33  C   UNL A   1      43.537  27.243  31.714  1.00  0.00     0.029 A 
ATOM     34  C   UNL A   1      42.851  28.222  32.415  1.00  0.00     0.049 A 
ATOM     35  H   UNL A   1      41.214  29.402  31.796  1.00  0.00     0.167 HD
ATOM     36  C   UNL A   1      42.386  29.673  34.376  1.00  0.00     0.074 A 
ATOM     37  C   UNL A   1      42.634  30.127  35.730  1.00  0.00     0.031 C 
ATOM     38  C   UNL A   1      43.077  28.682  33.761  1.00  0.00     0.031 A 
BRANCH  25  39
ATOM     39  C   UNL A   1      41.162  27.396  28.028  1.00  0.00    -0.014 A 
ATOM     40  C   UNL A   1      41.985  27.758  26.949  1.00  0.00     0.009 A 
ATOM     41  C   UNL A   1      40.475  26.172  27.973  1.00  0.00     0.009 A 
ATOM     42  C   UNL A   1      42.085  26.931  25.827  1.00  0.00     0.001 A 
ATOM     43  C   UNL A   1      40.595  25.337  26.862  1.00  0.00     0.001 A 
ATOM     44  C   UNL A   1      41.392  25.721  25.785  1.00  0.00     0.000 A 
ENDBRANCH  25  39
BRANCH  26  45
ATOM     45  C   UNL A   1      39.653  33.114  36.075  1.00  0.00    -0.014 A 
ATOM     46  C   UNL A   1      40.284  34.351  36.263  1.00  0.00     0.009 A 
ATOM     47  C   UNL A   1      38.676  32.698  36.995  1.00  0.00     0.009 A 
ATOM     48  C   UNL A   1      39.940  35.157  37.350  1.00  0.00     0.001 A 
ATOM     49  C   UNL A   1      38.315  33.518  38.064  1.00  0.00     0.001 A 
ATOM     50  C   UNL A   1      38.949  34.745  38.242  1.00  0.00     0.000 A 
ENDBRANCH  26  45
BRANCH  38  51
ATOM     51  C   UNL A   1      44.184  28.040  34.541  1.00  0.00    -0.014 A 
ATOM     52  C   UNL A   1      45.481  28.577  34.534  1.00  0.00     0.009 A 
ATOM     53  C   UNL A   1      43.914  26.912  35.330  1.00  0.00     0.009 A 
ATOM     54  C   UNL A   1      46.492  27.981  35.290  1.00  0.00     0.001 A 
ATOM     55  C   UNL A   1      44.922  26.332  36.101  1.00  0.00     0.001 A 
ATOM     56  C   UNL A   1      46.210  26.863  36.076  1.00  0.00     0.000 A 
ENDBRANCH  38  51
ENDBRANCH  12  13
ENDBRANCH   5   7
ENDBRANCH   2   3
ENDBRANCH   1   2
BRANCH   1  57
ATOM     57  C   UNL A   1      31.065  30.728  25.409  1.00  0.00     0.023 C 
BRANCH  57  58
ATOM     58  C   UNL A   1      32.153  29.792  25.900  1.00  0.00     0.116 C 
BRANCH  58  59
ATOM     59  N   UNL A   1      33.185  29.470  24.955  1.00  0.00    -0.354 N 
ATOM     60  C   UNL A   1      32.963  28.890  23.740  1.00  0.00     0.243 C 
ATOM     61  H   UNL A   1      34.115  29.682  25.200  1.00  0.00     0.163 HD
ATOM     62  O   UNL A   1      33.640  29.318  22.797  1.00  0.00    -0.273 OA
BRANCH  60  63
ATOM     63  C   UNL A   1      31.914  27.768  23.508  1.00  0.00     0.185 C 
BRANCH  63  64
ATOM     64  C   UNL A   1      30.865  27.925  22.367  1.00  0.00     0.071 C 
BRANCH  64  65
ATOM     65  C   UNL A   1      29.734  28.917  22.440  1.00  0.00    -0.045 A 
ATOM     66  C   UNL A   1      28.515  28.553  23.039  1.00  0.00     0.004 A 
ATOM     67  C   UNL A   1      29.845  30.197  21.889  1.00  0.00     0.004 A 
ATOM     68  C   UNL A   1      27.477  29.479  23.168  1.00  0.00     0.000 A 
ATOM     69  C   UNL A   1      28.818  31.132  22.044  1.00  0.00     0.000 A 
ATOM     70  C   UNL A   1      27.641  30.778  22.699  1.00  0.00     0.000 A 
ENDBRANCH  64  65
ENDBRANCH  63  64
BRANCH  63  71
ATOM     71  N   UNL A   1      32.231  26.386  23.976  1.00  0.00    -0.280 N 
ATOM     72  C   UNL A   1      33.140  25.637  23.221  1.00  0.00     0.266 C 
ATOM     73  C   UNL A   1      31.735  25.711  25.073  1.00  0.00     0.149 C 
ATOM     74  O   UNL A   1      33.694  25.969  22.183  1.00  0.00    -0.268 OA
ATOM     75  C   UNL A   1      33.366  24.311  23.853  1.00  0.00     0.081 C 
ATOM     76  S   UNL A   1      32.785  24.361  25.461  1.00  0.00    -0.054 SA
ATOM     77  S   UNL A   1      30.356  25.885  25.981  1.00  0.00    -0.052 S 
ATOM     78  C   UNL A   1      33.858  23.234  23.226  1.00  0.00     0.029 C 
BRANCH  78  79
ATOM     79  C   UNL A   1      33.942  21.926  23.891  1.00  0.00    -0.021 A 
ATOM     80  C   UNL A   1      35.122  21.530  24.529  1.00  0.00     0.028 A 
ATOM     81  C   UNL A   1      32.896  21.016  23.776  1.00  0.00     0.028 A 
ATOM     82  C   UNL A   1      35.215  20.229  24.989  1.00  0.00     0.111 A 
ATOM     83  C   UNL A   1      33.084  19.740  24.281  1.00  0.00     0.111 A 
ATOM     84  N   UNL A   1      34.220  19.324  24.882  1.00  0.00    -0.265 NA
ENDBRANCH  78  79
ENDBRANCH  63  71
ENDBRANCH  60  63
ENDBRANCH  58  59
ENDBRANCH  57  58
ENDBRANCH   1  57
TORSDOF 15
ENDMDL
MODEL 2
REMARK VINA RESULT:     -12.2      4.203      9.664
REMARK SMILES O=C(NCCCCNC(=O)[C@@H](Cc1ccccc1)N1C(=O)/C(=C/c2ccncc2)SC1=S)c1ccc(-c2c3nc(c(-c4ccccc4)c4ccc([nH]4)c(-c4ccccc4)c4nc(c(-c5ccccc5)c5ccc2[nH]5)C=C4)C=C3)cc1
REMARK SMILES IDX 5 1 4 2 3 3 1 4 2 5 33 7 34 8 80 9 35 10 79 11 36 12 37 13
REMARK SMILES IDX 38 14 73 15 39 16 78 17 72 18 74 19 40 20 77 21 71 22 70 23
REMARK SMILES IDX 41 25 63 26 48 27 62 28 49 29 52 30 61 31 75 32 50 33 51 34
REMARK SMILES IDX 60 36 76 37 53 38 42 39 43 40 47 41 44 42 46 43 45 44 64 45
REMARK SMILES IDX 65 46 69 47 66 48 68 49 67 50 54 51 55 52 59 53 56 54 58 55
REMARK SMILES IDX 57 56 6 57 7 58 8 59 9 60 10 62 11 63 12 64 13 65 14 66
REMARK SMILES IDX 18 67 15 68 17 69 16 70 19 71 20 72 31 73 21 74 22 75 30 76
REMARK SMILES IDX 32 77 23 78 24 79 25 80 29 81 26 82 28 83 27 84
REMARK H PARENT 3 6 74 24 52 35 8 61
REMARK Flexibility Score: inf
ROOT
ATOM      1  C   UNL A   1      37.749  21.097  24.739  1.00  0.00     0.023 C 
ENDROOT
BRANCH   1   2
ATOM      2  C   UNL A   1      38.889  21.071  25.755  1.00  0.00     0.116 C 
BRANCH   2   3
ATOM      3  N   UNL A   1      39.761  19.903  25.674  1.00  0.00    -0.352 N 
ATOM      4  O   UNL A   1      41.708  18.747  25.866  1.00  0.00    -0.269 OA
ATOM      5  C   UNL A   1      41.085  19.788  26.039  1.00  0.00     0.251 C 
ATOM      6  H   UNL A   1      39.348  19.087  25.309  1.00  0.00     0.163 HD
BRANCH   5   7
ATOM      7  C   UNL A   1      41.767  20.975  26.592  1.00  0.00     0.039 A 
ATOM      8  C   UNL A   1      41.828  21.162  27.973  1.00  0.00     0.014 A 
ATOM      9  C   UNL A   1      42.222  21.962  25.717  1.00  0.00     0.014 A 
ATOM     10  C   UNL A   1      42.127  22.421  28.472  1.00  0.00     0.010 A 
ATOM     11  C   UNL A   1      42.635  23.192  26.231  1.00  0.00     0.010 A 
ATOM     12  C   UNL A   1      42.532  23.451  27.608  1.00  0.00    -0.014 A 
BRANCH  12  13
ATOM     13  C   UNL A   1      42.866  24.787  28.159  1.00  0.00     0.031 A 
ATOM     14  C   UNL A   1      41.795  25.810  28.425  1.00  0.00     0.074 A 
ATOM     15  C   UNL A   1      44.154  25.074  28.424  1.00  0.00     0.049 A 
ATOM     16  N   UNL A   1      41.924  27.054  28.811  1.00  0.00    -0.248 NA
ATOM     17  C   UNL A   1      40.399  25.387  28.222  1.00  0.00     0.031 C 
ATOM     18  C   UNL A   1      45.279  24.158  28.223  1.00  0.00     0.029 A 
ATOM     19  N   UNL A   1      44.733  26.212  28.918  1.00  0.00    -0.354 N 
ATOM     20  C   UNL A   1      40.637  27.576  28.852  1.00  0.00     0.074 A 
ATOM     21  C   UNL A   1      39.739  26.514  28.449  1.00  0.00     0.031 C 
ATOM     22  C   UNL A   1      46.409  24.758  28.620  1.00  0.00     0.029 A 
ATOM     23  C   UNL A   1      46.099  26.125  29.020  1.00  0.00     0.049 A 
ATOM     24  H   UNL A   1      44.221  27.013  29.176  1.00  0.00     0.167 HD
ATOM     25  C   UNL A   1      40.243  28.829  29.188  1.00  0.00     0.031 A 
ATOM     26  C   UNL A   1      47.015  27.050  29.351  1.00  0.00     0.031 A 
ATOM     27  C   UNL A   1      41.141  29.873  29.606  1.00  0.00     0.049 A 
ATOM     28  C   UNL A   1      46.561  28.435  29.690  1.00  0.00     0.074 A 
ATOM     29  C   UNL A   1      40.838  31.163  30.005  1.00  0.00     0.029 A 
ATOM     30  N   UNL A   1      42.521  29.746  29.676  1.00  0.00    -0.354 N 
ATOM     31  N   UNL A   1      45.341  28.913  29.726  1.00  0.00    -0.248 NA
ATOM     32  C   UNL A   1      47.606  29.409  30.027  1.00  0.00     0.031 C 
ATOM     33  C   UNL A   1      42.039  31.831  30.272  1.00  0.00     0.029 A 
ATOM     34  C   UNL A   1      43.085  30.942  30.087  1.00  0.00     0.049 A 
ATOM     35  H   UNL A   1      43.024  28.926  29.464  1.00  0.00     0.167 HD
ATOM     36  C   UNL A   1      45.467  30.242  30.097  1.00  0.00     0.074 A 
ATOM     37  C   UNL A   1      46.883  30.491  30.289  1.00  0.00     0.031 C 
ATOM     38  C   UNL A   1      44.496  31.171  30.265  1.00  0.00     0.031 A 
BRANCH  25  39
ATOM     39  C   UNL A   1      38.779  29.152  29.070  1.00  0.00    -0.014 A 
ATOM     40  C   UNL A   1      37.910  29.055  30.168  1.00  0.00     0.009 A 
ATOM     41  C   UNL A   1      38.268  29.596  27.839  1.00  0.00     0.009 A 
ATOM     42  C   UNL A   1      36.553  29.358  30.025  1.00  0.00     0.001 A 
ATOM     43  C   UNL A   1      36.917  29.922  27.705  1.00  0.00     0.001 A 
ATOM     44  C   UNL A   1      36.059  29.793  28.795  1.00  0.00     0.000 A 
ENDBRANCH  25  39
BRANCH  26  45
ATOM     45  C   UNL A   1      48.451  26.679  29.323  1.00  0.00    -0.014 A 
ATOM     46  C   UNL A   1      49.224  26.897  28.175  1.00  0.00     0.009 A 
ATOM     47  C   UNL A   1      49.075  26.193  30.484  1.00  0.00     0.009 A 
ATOM     48  C   UNL A   1      50.596  26.636  28.190  1.00  0.00     0.001 A 
ATOM     49  C   UNL A   1      50.450  25.959  30.504  1.00  0.00     0.001 A 
ATOM     50  C   UNL A   1      51.208  26.179  29.357  1.00  0.00     0.000 A 
ENDBRANCH  26  45
BRANCH  38  51
ATOM     51  C   UNL A   1      44.931  32.538  30.701  1.00  0.00    -0.014 A 
ATOM     52  C   UNL A   1      45.183  33.552  29.763  1.00  0.00     0.009 A 
ATOM     53  C   UNL A   1      45.043  32.828  32.069  1.00  0.00     0.009 A 
ATOM     54  C   UNL A   1      45.558  34.826  30.190  1.00  0.00     0.001 A 
ATOM     55  C   UNL A   1      45.398  34.109  32.492  1.00  0.00     0.001 A 
ATOM     56  C   UNL A   1      45.661  35.105  31.553  1.00  0.00     0.000 A 
ENDBRANCH  38  51
ENDBRANCH  12  13
ENDBRANCH   5   7
ENDBRANCH   2   3
ENDBRANCH   1   2
BRANCH   1  57
ATOM     57  C   UNL A   1      36.353  21.280  25.315  1.00  0.00     0.023 C 
BRANCH  57  58
ATOM     58  C   UNL A   1      36.074  22.676  25.839  1.00  0.00     0.116 C 
BRANCH  58  59
ATOM     59  N   UNL A   1      35.122  22.771  26.910  1.00  0.00    -0.354 N 
ATOM     60  C   UNL A   1      33.877  22.211  26.885  1.00  0.00     0.243 C 
ATOM     61  H   UNL A   1      35.383  23.273  27.715  1.00  0.00     0.163 HD
ATOM     62  O   UNL A   1      33.488  21.696  27.940  1.00  0.00    -0.273 OA
BRANCH  60  63
ATOM     63  C   UNL A   1      32.978  22.182  25.618  1.00  0.00     0.185 C 
BRANCH  63  64
ATOM     64  C   UNL A   1      32.076  20.941  25.348  1.00  0.00     0.071 C 
BRANCH  64  65
ATOM     65  C   UNL A   1      32.552  19.754  24.553  1.00  0.00    -0.045 A 
ATOM     66  C   UNL A   1      33.466  18.848  25.119  1.00  0.00     0.004 A 
ATOM     67  C   UNL A   1      32.138  19.541  23.234  1.00  0.00     0.004 A 
ATOM     68  C   UNL A   1      33.873  17.710  24.417  1.00  0.00     0.000 A 
ATOM     69  C   UNL A   1      32.522  18.387  22.545  1.00  0.00     0.000 A 
ATOM     70  C   UNL A   1      33.375  17.464  23.142  1.00  0.00     0.000 A 
ENDBRANCH  64  65
ENDBRANCH  63  64
BRANCH  63  71
ATOM     71  N   UNL A   1      32.582  23.479  24.995  1.00  0.00    -0.280 N 
ATOM     72  C   UNL A   1      31.778  24.343  25.747  1.00  0.00     0.266 C 
ATOM     73  C   UNL A   1      32.891  23.965  23.740  1.00  0.00     0.149 C 
ATOM     74  O   UNL A   1      31.321  24.148  26.864  1.00  0.00    -0.268 OA
ATOM     75  C   UNL A   1      31.517  25.595  24.990  1.00  0.00     0.081 C 
ATOM     76  S   UNL A   1      32.631  25.698  23.695  1.00  0.00    -0.054 SA
ATOM     77  S   UNL A   1      33.352  23.229  22.324  1.00  0.00    -0.052 S 
ATOM     78  C   UNL A   1      30.513  26.447  25.234  1.00  0.00     0.029 C 
BRANCH  78  79
ATOM     79  C   UNL A   1      30.253  27.604  24.366  1.00  0.00    -0.021 A 
ATOM     80  C   UNL A   1      30.904  28.821  24.595  1.00  0.00     0.028 A 
ATOM     81  C   UNL A   1      29.261  27.538  23.394  1.00  0.00     0.028 A 
ATOM     82  C   UNL A   1      30.504  29.927  23.866  1.00  0.00     0.111 A 
ATOM     83  C   UNL A   1      28.943  28.700  22.709  1.00  0.00     0.111 A 
ATOM     84  N   UNL A   1      29.538  29.893  22.925  1.00  0.00    -0.265 NA
ENDBRANCH  78  79
ENDBRANCH  63  71
ENDBRANCH  60  63
ENDBRANCH  58  59
ENDBRANCH  57  58
ENDBRANCH   1  57
TORSDOF 15
ENDMDL
MODEL 3
REMARK VINA RESULT:     -12.1      1.182      5.767
REMARK SMILES O=C(NCCCCNC(=O)[C@@H](Cc1ccccc1)N1C(=O)/C(=C/c2ccncc2)SC1=S)c1ccc(-c2c3nc(c(-c4ccccc4)c4ccc([nH]4)c(-c4ccccc4)c4nc(c(-c5ccccc5)c5ccc2[nH]5)C=C4)C=C3)cc1
REMARK SMILES IDX 5 1 4 2 3 3 1 4 2 5 33 7 34 8 80 9 35 10 79 11 36 12 37 13
REMARK SMILES IDX 38 14 73 15 39 16 78 17 72 18 74 19 40 20 77 21 71 22 70 23
REMARK SMILES IDX 41 25 63 26 48 27 62 28 49 29 52 30 61 31 75 32 50 33 51 34
REMARK SMILES IDX 60 36 76 37 53 38 42 39 43 40 47 41 44 42 46 43 45 44 64 45
REMARK SMILES IDX 65 46 69 47 66 48 68 49 67 50 54 51 55 52 59 53 56 54 58 55
REMARK SMILES IDX 57 56 6 57 7 58 8 59 9 60 10 62 11 63 12 64 13 65 14 66
REMARK SMILES IDX 18 67 15 68 17 69 16 70 19 71 20 72 31 73 21 74 22 75 30 76
REMARK SMILES IDX 32 77 23 78 24 79 25 80 29 81 26 82 28 83 27 84
REMARK H PARENT 3 6 74 24 52 35 8 61
REMARK Flexibility Score: inf
ROOT
ATOM      1  C   UNL A   1      32.259  30.985  27.229  1.00  0.00     0.023 C 
ENDROOT
BRANCH   1   2
ATOM      2  C   UNL A   1      33.274  32.127  27.206  1.00  0.00     0.116 C 
BRANCH   2   3
ATOM      3  N   UNL A   1      32.753  33.425  27.624  1.00  0.00    -0.352 N 
ATOM      4  O   UNL A   1      32.681  35.339  28.846  1.00  0.00    -0.269 OA
ATOM      5  C   UNL A   1      33.260  34.296  28.564  1.00  0.00     0.251 C 
ATOM      6  H   UNL A   1      31.927  33.717  27.174  1.00  0.00     0.163 HD
BRANCH   5   7
ATOM      7  C   UNL A   1      34.495  33.918  29.277  1.00  0.00     0.039 A 
ATOM      8  C   UNL A   1      35.738  34.269  28.750  1.00  0.00     0.014 A 
ATOM      9  C   UNL A   1      34.402  33.097  30.402  1.00  0.00     0.014 A 
ATOM     10  C   UNL A   1      36.873  33.613  29.204  1.00  0.00     0.010 A 
ATOM     11  C   UNL A   1      35.562  32.530  30.931  1.00  0.00     0.010 A 
ATOM     12  C   UNL A   1      36.799  32.735  30.298  1.00  0.00    -0.014 A 
BRANCH  12  13
ATOM     13  C   UNL A   1      38.026  32.057  30.783  1.00  0.00     0.031 A 
ATOM     14  C   UNL A   1      38.834  32.628  31.917  1.00  0.00     0.074 A 
ATOM     15  C   UNL A   1      38.409  30.911  30.191  1.00  0.00     0.049 A 
ATOM     16  N   UNL A   1      39.979  32.217  32.398  1.00  0.00    -0.248 NA
ATOM     17  C   UNL A   1      38.292  33.819  32.593  1.00  0.00     0.031 C 
ATOM     18  C   UNL A   1      37.698  30.252  29.093  1.00  0.00     0.029 A 
ATOM     19  N   UNL A   1      39.485  30.099  30.429  1.00  0.00    -0.354 N 
ATOM     20  C   UNL A   1      40.320  33.122  33.397  1.00  0.00     0.074 A 
ATOM     21  C   UNL A   1      39.260  34.106  33.453  1.00  0.00     0.031 C 
ATOM     22  C   UNL A   1      38.339  29.121  28.773  1.00  0.00     0.029 A 
ATOM     23  C   UNL A   1      39.547  29.021  29.582  1.00  0.00     0.049 A 
ATOM     24  H   UNL A   1      40.148  30.270  31.137  1.00  0.00     0.167 HD
ATOM     25  C   UNL A   1      41.420  33.132  34.189  1.00  0.00     0.031 A 
ATOM     26  C   UNL A   1      40.492  28.077  29.430  1.00  0.00     0.031 A 
ATOM     27  C   UNL A   1      42.461  32.137  34.140  1.00  0.00     0.049 A 
ATOM     28  C   UNL A   1      41.712  28.124  30.296  1.00  0.00     0.074 A 
ATOM     29  C   UNL A   1      43.595  32.036  34.925  1.00  0.00     0.029 A 
ATOM     30  N   UNL A   1      42.492  31.072  33.251  1.00  0.00    -0.354 N 
ATOM     31  N   UNL A   1      42.019  28.983  31.236  1.00  0.00    -0.248 NA
ATOM     32  C   UNL A   1      42.719  27.078  30.075  1.00  0.00     0.031 C 
ATOM     33  C   UNL A   1      44.337  30.936  34.481  1.00  0.00     0.029 A 
ATOM     34  C   UNL A   1      43.640  30.324  33.453  1.00  0.00     0.049 A 
ATOM     35  H   UNL A   1      41.801  30.878  32.578  1.00  0.00     0.167 HD
ATOM     36  C   UNL A   1      43.250  28.580  31.728  1.00  0.00     0.074 A 
ATOM     37  C   UNL A   1      43.627  27.390  30.991  1.00  0.00     0.031 C 
ATOM     38  C   UNL A   1      44.000  29.147  32.704  1.00  0.00     0.031 A 
BRANCH  25  39
ATOM     39  C   UNL A   1      41.579  34.283  35.144  1.00  0.00    -0.014 A 
ATOM     40  C   UNL A   1      41.084  34.227  36.456  1.00  0.00     0.009 A 
ATOM     41  C   UNL A   1      42.268  35.434  34.728  1.00  0.00     0.009 A 
ATOM     42  C   UNL A   1      41.243  35.315  37.319  1.00  0.00     0.001 A 
ATOM     43  C   UNL A   1      42.447  36.510  35.599  1.00  0.00     0.001 A 
ATOM     44  C   UNL A   1      41.926  36.454  36.891  1.00  0.00     0.000 A 
ENDBRANCH  25  39
BRANCH  26  45
ATOM     45  C   UNL A   1      40.313  27.047  28.378  1.00  0.00    -0.014 A 
ATOM     46  C   UNL A   1      40.886  27.213  27.111  1.00  0.00     0.009 A 
ATOM     47  C   UNL A   1      39.647  25.846  28.675  1.00  0.00     0.009 A 
ATOM     48  C   UNL A   1      40.796  26.194  26.159  1.00  0.00     0.001 A 
ATOM     49  C   UNL A   1      39.583  24.820  27.732  1.00  0.00     0.001 A 
ATOM     50  C   UNL A   1      40.155  24.997  26.475  1.00  0.00     0.000 A 
ENDBRANCH  26  45
BRANCH  38  51
ATOM     51  C   UNL A   1      45.293  28.470  33.048  1.00  0.00    -0.014 A 
ATOM     52  C   UNL A   1      46.495  28.849  32.432  1.00  0.00     0.009 A 
ATOM     53  C   UNL A   1      45.313  27.474  34.036  1.00  0.00     0.009 A 
ATOM     54  C   UNL A   1      47.693  28.227  32.787  1.00  0.00     0.001 A 
ATOM     55  C   UNL A   1      46.516  26.870  34.403  1.00  0.00     0.001 A 
ATOM     56  C   UNL A   1      47.702  27.242  33.775  1.00  0.00     0.000 A 
ENDBRANCH  38  51
ENDBRANCH  12  13
ENDBRANCH   5   7
ENDBRANCH   2   3
ENDBRANCH   1   2
BRANCH   1  57
ATOM     57  C   UNL A   1      32.211  30.118  25.981  1.00  0.00     0.023 C 
BRANCH  57  58
ATOM     58  C   UNL A   1      33.344  29.115  25.876  1.00  0.00     0.116 C 
BRANCH  58  59
ATOM     59  N   UNL A   1      33.928  28.953  24.574  1.00  0.00    -0.354 N 
ATOM     60  C   UNL A   1      33.218  28.675  23.441  1.00  0.00     0.243 C 
ATOM     61  H   UNL A   1      34.904  29.049  24.492  1.00  0.00     0.163 HD
ATOM     62  O   UNL A   1      33.576  29.263  22.414  1.00  0.00    -0.273 OA
BRANCH  60  63
ATOM     63  C   UNL A   1      32.011  27.698  23.408  1.00  0.00     0.185 C 
BRANCH  63  64
ATOM     64  C   UNL A   1      30.832  27.972  22.428  1.00  0.00     0.071 C 
BRANCH  64  65
ATOM     65  C   UNL A   1      29.657  28.839  22.800  1.00  0.00    -0.045 A 
ATOM     66  C   UNL A   1      29.855  30.190  23.132  1.00  0.00     0.004 A 
ATOM     67  C   UNL A   1      28.358  28.325  22.863  1.00  0.00     0.004 A 
ATOM     68  C   UNL A   1      28.771  31.022  23.422  1.00  0.00     0.000 A 
ATOM     69  C   UNL A   1      27.272  29.164  23.123  1.00  0.00     0.000 A 
ATOM     70  C   UNL A   1      27.476  30.516  23.386  1.00  0.00     0.000 A 
ENDBRANCH  64  65
ENDBRANCH  63  64
BRANCH  63  71
ATOM     71  N   UNL A   1      32.215  26.295  23.876  1.00  0.00    -0.280 N 
ATOM     72  C   UNL A   1      33.076  25.481  23.132  1.00  0.00     0.266 C 
ATOM     73  C   UNL A   1      31.652  25.657  24.963  1.00  0.00     0.149 C 
ATOM     74  O   UNL A   1      33.670  25.772  22.104  1.00  0.00    -0.268 OA
ATOM     75  C   UNL A   1      33.191  24.140  23.763  1.00  0.00     0.081 C 
ATOM     76  S   UNL A   1      32.590  24.230  25.362  1.00  0.00    -0.054 SA
ATOM     77  S   UNL A   1      30.275  25.933  25.849  1.00  0.00    -0.052 S 
ATOM     78  C   UNL A   1      33.609  23.030  23.140  1.00  0.00     0.029 C 
BRANCH  78  79
ATOM     79  C   UNL A   1      33.583  21.718  23.801  1.00  0.00    -0.021 A 
ATOM     80  C   UNL A   1      34.685  21.276  24.541  1.00  0.00     0.028 A 
ATOM     81  C   UNL A   1      32.518  20.849  23.586  1.00  0.00     0.028 A 
ATOM     82  C   UNL A   1      34.687  19.970  25.000  1.00  0.00     0.111 A 
ATOM     83  C   UNL A   1      32.612  19.565  24.098  1.00  0.00     0.111 A 
ATOM     84  N   UNL A   1      33.672  19.105  24.797  1.00  0.00    -0.265 NA
ENDBRANCH  78  79
ENDBRANCH  63  71
ENDBRANCH  60  63
ENDBRANCH  58  59
ENDBRANCH  57  58
ENDBRANCH   1  57
TORSDOF 15
ENDMDL
