MODEL 1
REMARK VINA RESULT:     -11.7      0.000      0.000
REMARK SMILES CS(=O)(=O)N1C[C@@H]2CN(C(=O)c3ccco3)C[C@]2(C(=O)NCCCCNC(=O)c2ccc(-c3c4nc(c(-c5ccccc5)c5ccc([nH]5)c(-c5ccccc5)c5nc(c(-c6ccccc6)c6ccc3[nH]6)C=C5)C=C4)cc2)C1
REMARK SMILES IDX 23 1 22 2 21 3 19 4 20 5 18 7 5 8 6 9 77 10 7 11 8 12 17 13
REMARK SMILES IDX 9 14 2 15 1 16 3 17 4 18 10 19 11 20 12 21 13 22 16 23 14 24
REMARK SMILES IDX 15 25 24 26 25 27 26 28 27 29 28 31 29 32 30 33 76 34 31 35
REMARK SMILES IDX 75 36 32 37 33 38 34 39 69 40 35 41 74 42 68 43 70 44 36 45
REMARK SMILES IDX 73 46 67 47 66 48 37 50 59 51 44 52 58 53 45 54 48 55 57 56
REMARK SMILES IDX 71 57 46 58 47 59 56 61 72 62 49 63 38 64 39 65 43 66 40 67
REMARK SMILES IDX 42 68 41 69 60 70 61 71 65 72 62 73 64 74 63 75 50 76 51 77
REMARK SMILES IDX 55 78 52 79 54 80 53 81
REMARK H PARENT 21 6 26 30 70 49 48 60
REMARK Flexibility Score: inf
ROOT
ATOM      1  C   UNL A   1      36.960  21.789  24.337  1.00  0.00     0.023 C 
ENDROOT
BRANCH   1   2
ATOM      2  C   UNL A   1      36.470  22.846  25.316  1.00  0.00     0.116 C 
BRANCH   2   3
ATOM      3  N   UNL A   1      35.905  22.186  26.472  1.00  0.00    -0.356 N 
ATOM      4  C   UNL A   1      34.561  22.059  26.736  1.00  0.00     0.229 C 
ATOM      5  O   UNL A   1      34.201  21.838  27.890  1.00  0.00    -0.274 OA
ATOM      6  H   UNL A   1      36.533  21.794  27.122  1.00  0.00     0.163 HD
BRANCH   4   7
ATOM      7  C   UNL A   1      33.618  22.165  25.507  1.00  0.00     0.086 C 
ATOM      8  N   UNL A   1      33.329  20.044  24.178  1.00  0.00    -0.201 NA
ATOM      9  C   UNL A   1      32.402  21.010  23.626  1.00  0.00     0.108 C 
ATOM     10  C   UNL A   1      33.671  20.548  25.555  1.00  0.00     0.121 C 
ATOM     11  C   UNL A   1      32.242  22.001  24.753  1.00  0.00     0.042 C 
ATOM     12  C   UNL A   1      31.850  23.360  24.216  1.00  0.00     0.126 C 
ATOM     13  C   UNL A   1      32.915  23.406  26.299  1.00  0.00     0.138 C 
ATOM     14  N   UNL A   1      32.351  24.237  25.226  1.00  0.00    -0.334 N 
BRANCH   8  15
ATOM     15  S   UNL A   1      33.005  18.386  24.117  1.00  0.00     0.211 S 
ATOM     16  C   UNL A   1      32.292  18.129  22.504  1.00  0.00     0.176 C 
ATOM     17  O   UNL A   1      31.972  18.111  25.095  1.00  0.00    -0.213 OA
ATOM     18  O   UNL A   1      34.282  17.711  24.171  1.00  0.00    -0.213 OA
ENDBRANCH   8  15
BRANCH  14  19
ATOM     19  C   UNL A   1      32.474  25.589  24.907  1.00  0.00     0.289 C 
ATOM     20  O   UNL A   1      32.731  25.903  23.740  1.00  0.00    -0.265 OA
BRANCH  19  21
ATOM     21  C   UNL A   1      32.441  26.608  25.935  1.00  0.00     0.191 A 
ATOM     22  C   UNL A   1      33.390  27.578  26.222  1.00  0.00     0.056 A 
ATOM     23  O   UNL A   1      31.362  26.772  26.757  1.00  0.00    -0.459 OA
ATOM     24  C   UNL A   1      32.877  28.358  27.281  1.00  0.00     0.043 A 
ATOM     25  C   UNL A   1      31.625  27.853  27.546  1.00  0.00     0.196 A 
ENDBRANCH  19  21
ENDBRANCH  14  19
ENDBRANCH   4   7
ENDBRANCH   2   3
ENDBRANCH   1   2
BRANCH   1  26
ATOM     26  C   UNL A   1      37.570  20.559  24.985  1.00  0.00     0.023 C 
BRANCH  26  27
ATOM     27  C   UNL A   1      38.858  20.875  25.708  1.00  0.00     0.116 C 
BRANCH  27  28
ATOM     28  N   UNL A   1      39.812  19.770  25.671  1.00  0.00    -0.352 N 
ATOM     29  C   UNL A   1      41.144  19.765  25.999  1.00  0.00     0.251 C 
ATOM     30  H   UNL A   1      39.448  18.907  25.368  1.00  0.00     0.163 HD
ATOM     31  O   UNL A   1      41.837  18.777  25.781  1.00  0.00    -0.269 OA
BRANCH  29  32
ATOM     32  C   UNL A   1      41.733  20.993  26.562  1.00  0.00     0.039 A 
ATOM     33  C   UNL A   1      42.223  21.967  25.692  1.00  0.00     0.014 A 
ATOM     34  C   UNL A   1      41.691  21.220  27.938  1.00  0.00     0.014 A 
ATOM     35  C   UNL A   1      42.587  23.209  26.204  1.00  0.00     0.010 A 
ATOM     36  C   UNL A   1      41.912  22.497  28.421  1.00  0.00     0.010 A 
ATOM     37  C   UNL A   1      42.379  23.502  27.563  1.00  0.00    -0.014 A 
BRANCH  37  38
ATOM     38  C   UNL A   1      42.650  24.849  28.114  1.00  0.00     0.031 A 
ATOM     39  C   UNL A   1      44.042  25.213  28.551  1.00  0.00     0.074 A 
ATOM     40  C   UNL A   1      41.630  25.715  28.281  1.00  0.00     0.049 A 
ATOM     41  N   UNL A   1      44.472  26.324  29.091  1.00  0.00    -0.248 NA
ATOM     42  C   UNL A   1      45.082  24.180  28.402  1.00  0.00     0.031 C 
ATOM     43  C   UNL A   1      40.226  25.450  27.959  1.00  0.00     0.029 A 
ATOM     44  N   UNL A   1      41.622  26.998  28.762  1.00  0.00    -0.354 N 
ATOM     45  C   UNL A   1      45.817  26.113  29.360  1.00  0.00     0.074 A 
ATOM     46  C   UNL A   1      46.118  24.748  28.997  1.00  0.00     0.031 C 
ATOM     47  C   UNL A   1      39.502  26.555  28.203  1.00  0.00     0.029 A 
ATOM     48  C   UNL A   1      40.381  27.586  28.743  1.00  0.00     0.049 A 
ATOM     49  H   UNL A   1      42.429  27.457  29.091  1.00  0.00     0.167 HD
ATOM     50  C   UNL A   1      46.734  26.988  29.836  1.00  0.00     0.031 A 
ATOM     51  C   UNL A   1      39.994  28.819  29.118  1.00  0.00     0.031 A 
ATOM     52  C   UNL A   1      46.433  28.350  30.179  1.00  0.00     0.049 A 
ATOM     53  C   UNL A   1      41.031  29.773  29.643  1.00  0.00     0.074 A 
ATOM     54  C   UNL A   1      47.297  29.343  30.605  1.00  0.00     0.029 A 
ATOM     55  N   UNL A   1      45.164  28.910  30.137  1.00  0.00    -0.354 N 
ATOM     56  N   UNL A   1      42.318  29.588  29.808  1.00  0.00    -0.248 NA
ATOM     57  C   UNL A   1      40.559  31.112  30.023  1.00  0.00     0.031 C 
ATOM     58  C   UNL A   1      46.541  30.485  30.883  1.00  0.00     0.029 A 
ATOM     59  C   UNL A   1      45.217  30.226  30.561  1.00  0.00     0.049 A 
ATOM     60  H   UNL A   1      44.349  28.441  29.848  1.00  0.00     0.167 HD
ATOM     61  C   UNL A   1      42.816  30.792  30.286  1.00  0.00     0.074 A 
ATOM     62  C   UNL A   1      41.694  31.707  30.360  1.00  0.00     0.031 C 
ATOM     63  C   UNL A   1      44.086  31.115  30.637  1.00  0.00     0.031 A 
BRANCH  50  64
ATOM     64  C   UNL A   1      48.141  26.488  30.014  1.00  0.00    -0.014 A 
ATOM     65  C   UNL A   1      49.108  26.651  29.008  1.00  0.00     0.009 A 
ATOM     66  C   UNL A   1      48.512  25.863  31.214  1.00  0.00     0.009 A 
ATOM     67  C   UNL A   1      50.404  26.160  29.184  1.00  0.00     0.001 A 
ATOM     68  C   UNL A   1      49.818  25.405  31.401  1.00  0.00     0.001 A 
ATOM     69  C   UNL A   1      50.759  25.543  30.383  1.00  0.00     0.000 A 
ENDBRANCH  50  64
BRANCH  51  70
ATOM     70  C   UNL A   1      38.571  29.229  28.991  1.00  0.00    -0.014 A 
ATOM     71  C   UNL A   1      38.070  29.708  27.771  1.00  0.00     0.009 A 
ATOM     72  C   UNL A   1      37.702  29.147  30.092  1.00  0.00     0.009 A 
ATOM     73  C   UNL A   1      36.742  30.128  27.663  1.00  0.00     0.001 A 
ATOM     74  C   UNL A   1      36.366  29.535  29.972  1.00  0.00     0.001 A 
ATOM     75  C   UNL A   1      35.890  30.035  28.762  1.00  0.00     0.000 A 
ENDBRANCH  51  70
BRANCH  63  76
ATOM     76  C   UNL A   1      44.327  32.522  31.105  1.00  0.00    -0.014 A 
ATOM     77  C   UNL A   1      44.256  32.863  32.464  1.00  0.00     0.009 A 
ATOM     78  C   UNL A   1      44.659  33.516  30.171  1.00  0.00     0.009 A 
ATOM     79  C   UNL A   1      44.469  34.181  32.873  1.00  0.00     0.001 A 
ATOM     80  C   UNL A   1      44.907  34.824  30.586  1.00  0.00     0.001 A 
ATOM     81  C   UNL A   1      44.798  35.158  31.935  1.00  0.00     0.000 A 
ENDBRANCH  63  76
ENDBRANCH  37  38
ENDBRANCH  29  32
ENDBRANCH  27  28
ENDBRANCH  26  27
ENDBRANCH   1  26
TORSDOF 14
ENDMDL
MODEL 2
REMARK VINA RESULT:     -11.6      3.628      8.855
REMARK SMILES CS(=O)(=O)N1C[C@@H]2CN(C(=O)c3ccco3)C[C@]2(C(=O)NCCCCNC(=O)c2ccc(-c3c4nc(c(-c5ccccc5)c5ccc([nH]5)c(-c5ccccc5)c5nc(c(-c6ccccc6)c6ccc3[nH]6)C=C5)C=C4)cc2)C1
REMARK SMILES IDX 23 1 22 2 21 3 19 4 20 5 18 7 5 8 6 9 77 10 7 11 8 12 17 13
REMARK SMILES IDX 9 14 2 15 1 16 3 17 4 18 10 19 11 20 12 21 13 22 16 23 14 24
REMARK SMILES IDX 15 25 24 26 25 27 26 28 27 29 28 31 29 32 30 33 76 34 31 35
REMARK SMILES IDX 75 36 32 37 33 38 34 39 69 40 35 41 74 42 68 43 70 44 36 45
REMARK SMILES IDX 73 46 67 47 66 48 37 50 59 51 44 52 58 53 45 54 48 55 57 56
REMARK SMILES IDX 71 57 46 58 47 59 56 61 72 62 49 63 38 64 39 65 43 66 40 67
REMARK SMILES IDX 42 68 41 69 60 70 61 71 65 72 62 73 64 74 63 75 50 76 51 77
REMARK SMILES IDX 55 78 52 79 54 80 53 81
REMARK H PARENT 21 6 26 30 70 49 48 60
REMARK Flexibility Score: inf
ROOT
ATOM      1  C   UNL A   1      32.129  29.130  26.651  1.00  0.00     0.023 C 
ENDROOT
BRANCH   1   2
ATOM      2  C   UNL A   1      33.321  28.343  26.127  1.00  0.00     0.116 C 
BRANCH   2   3
ATOM      3  N   UNL A   1      33.784  28.956  24.902  1.00  0.00    -0.356 N 
ATOM      4  C   UNL A   1      33.556  28.469  23.636  1.00  0.00     0.229 C 
ATOM      5  O   UNL A   1      34.293  28.829  22.720  1.00  0.00    -0.274 OA
ATOM      6  H   UNL A   1      34.303  29.790  24.980  1.00  0.00     0.163 HD
BRANCH   4   7
ATOM      7  C   UNL A   1      32.331  27.528  23.484  1.00  0.00     0.086 C 
ATOM      8  N   UNL A   1      30.089  28.673  23.398  1.00  0.00    -0.201 NA
ATOM      9  C   UNL A   1      29.849  27.271  23.128  1.00  0.00     0.108 C 
ATOM     10  C   UNL A   1      31.551  28.899  23.119  1.00  0.00     0.121 C 
ATOM     11  C   UNL A   1      31.202  26.783  22.670  1.00  0.00     0.042 C 
ATOM     12  C   UNL A   1      31.352  25.301  22.933  1.00  0.00     0.126 C 
ATOM     13  C   UNL A   1      33.371  26.475  22.799  1.00  0.00     0.138 C 
ATOM     14  N   UNL A   1      32.767  25.161  23.058  1.00  0.00    -0.334 N 
BRANCH   8  15
ATOM     15  S   UNL A   1      29.079  29.872  22.763  1.00  0.00     0.211 S 
ATOM     16  C   UNL A   1      27.441  29.176  22.864  1.00  0.00     0.176 C 
ATOM     17  O   UNL A   1      29.403  30.011  21.358  1.00  0.00    -0.213 OA
ATOM     18  O   UNL A   1      29.158  31.000  23.662  1.00  0.00    -0.213 OA
ENDBRANCH   8  15
BRANCH  14  19
ATOM     19  C   UNL A   1      33.253  23.989  23.641  1.00  0.00     0.289 C 
ATOM     20  O   UNL A   1      32.446  23.190  24.128  1.00  0.00    -0.265 OA
BRANCH  19  21
ATOM     21  C   UNL A   1      34.674  23.767  23.804  1.00  0.00     0.191 A 
ATOM     22  C   UNL A   1      35.480  24.084  24.887  1.00  0.00     0.056 A 
ATOM     23  O   UNL A   1      35.417  23.116  22.860  1.00  0.00    -0.459 OA
ATOM     24  C   UNL A   1      36.780  23.625  24.583  1.00  0.00     0.043 A 
ATOM     25  C   UNL A   1      36.683  23.010  23.356  1.00  0.00     0.196 A 
ENDBRANCH  19  21
ENDBRANCH  14  19
ENDBRANCH   4   7
ENDBRANCH   2   3
ENDBRANCH   1   2
BRANCH   1  26
ATOM     26  C   UNL A   1      32.150  30.612  26.315  1.00  0.00     0.023 C 
BRANCH  26  27
ATOM     27  C   UNL A   1      33.045  31.395  27.246  1.00  0.00     0.116 C 
BRANCH  27  28
ATOM     28  N   UNL A   1      32.595  32.771  27.436  1.00  0.00    -0.352 N 
ATOM     29  C   UNL A   1      33.168  33.774  28.177  1.00  0.00     0.251 C 
ATOM     30  H   UNL A   1      31.765  33.013  26.967  1.00  0.00     0.163 HD
ATOM     31  O   UNL A   1      32.585  34.840  28.340  1.00  0.00    -0.269 OA
BRANCH  29  32
ATOM     32  C   UNL A   1      34.469  33.517  28.820  1.00  0.00     0.039 A 
ATOM     33  C   UNL A   1      34.501  32.801  30.015  1.00  0.00     0.014 A 
ATOM     34  C   UNL A   1      35.651  33.888  28.177  1.00  0.00     0.014 A 
ATOM     35  C   UNL A   1      35.729  32.377  30.517  1.00  0.00     0.010 A 
ATOM     36  C   UNL A   1      36.850  33.341  28.596  1.00  0.00     0.010 A 
ATOM     37  C   UNL A   1      36.906  32.594  29.780  1.00  0.00    -0.014 A 
BRANCH  37  38
ATOM     38  C   UNL A   1      38.210  32.057  30.230  1.00  0.00     0.031 A 
ATOM     39  C   UNL A   1      38.715  30.754  29.674  1.00  0.00     0.074 A 
ATOM     40  C   UNL A   1      38.902  32.708  31.187  1.00  0.00     0.049 A 
ATOM     41  N   UNL A   1      39.810  30.102  29.969  1.00  0.00    -0.248 NA
ATOM     42  C   UNL A   1      37.859  30.072  28.687  1.00  0.00     0.031 C 
ATOM     43  C   UNL A   1      38.481  33.944  31.852  1.00  0.00     0.029 A 
ATOM     44  N   UNL A   1      40.111  32.419  31.764  1.00  0.00    -0.354 N 
ATOM     45  C   UNL A   1      39.760  28.932  29.222  1.00  0.00     0.074 A 
ATOM     46  C   UNL A   1      38.498  28.925  28.520  1.00  0.00     0.031 C 
ATOM     47  C   UNL A   1      39.440  34.333  32.707  1.00  0.00     0.029 A 
ATOM     48  C   UNL A   1      40.518  33.352  32.686  1.00  0.00     0.049 A 
ATOM     49  H   UNL A   1      40.639  31.619  31.538  1.00  0.00     0.167 HD
ATOM     50  C   UNL A   1      40.697  27.963  29.102  1.00  0.00     0.031 A 
ATOM     51  C   UNL A   1      41.638  33.409  33.431  1.00  0.00     0.031 A 
ATOM     52  C   UNL A   1      41.958  27.984  29.790  1.00  0.00     0.049 A 
ATOM     53  C   UNL A   1      42.664  32.321  33.281  1.00  0.00     0.074 A 
ATOM     54  C   UNL A   1      43.009  27.090  29.690  1.00  0.00     0.029 A 
ATOM     55  N   UNL A   1      42.337  28.951  30.709  1.00  0.00    -0.354 N 
ATOM     56  N   UNL A   1      42.643  31.266  32.502  1.00  0.00    -0.248 NA
ATOM     57  C   UNL A   1      43.874  32.440  34.105  1.00  0.00     0.031 C 
ATOM     58  C   UNL A   1      43.997  27.481  30.598  1.00  0.00     0.029 A 
ATOM     59  C   UNL A   1      43.593  28.658  31.210  1.00  0.00     0.049 A 
ATOM     60  H   UNL A   1      41.793  29.730  30.967  1.00  0.00     0.167 HD
ATOM     61  C   UNL A   1      43.845  30.608  32.723  1.00  0.00     0.074 A 
ATOM     62  C   UNL A   1      44.581  31.400  33.690  1.00  0.00     0.031 C 
ATOM     63  C   UNL A   1      44.302  29.453  32.180  1.00  0.00     0.031 A 
BRANCH  50  64
ATOM     64  C   UNL A   1      40.382  26.803  28.198  1.00  0.00    -0.014 A 
ATOM     65  C   UNL A   1      40.868  26.749  26.881  1.00  0.00     0.009 A 
ATOM     66  C   UNL A   1      39.603  25.737  28.676  1.00  0.00     0.009 A 
ATOM     67  C   UNL A   1      40.547  25.674  26.050  1.00  0.00     0.001 A 
ATOM     68  C   UNL A   1      39.313  24.647  27.855  1.00  0.00     0.001 A 
ATOM     69  C   UNL A   1      39.775  24.621  26.540  1.00  0.00     0.000 A 
ENDBRANCH  50  64
BRANCH  51  70
ATOM     70  C   UNL A   1      41.856  34.543  34.368  1.00  0.00    -0.014 A 
ATOM     71  C   UNL A   1      41.458  34.449  35.711  1.00  0.00     0.009 A 
ATOM     72  C   UNL A   1      42.461  35.730  33.924  1.00  0.00     0.009 A 
ATOM     73  C   UNL A   1      41.630  35.530  36.580  1.00  0.00     0.001 A 
ATOM     74  C   UNL A   1      42.662  36.796  34.804  1.00  0.00     0.001 A 
ATOM     75  C   UNL A   1      42.236  36.699  36.127  1.00  0.00     0.000 A 
ENDBRANCH  51  70
BRANCH  63  76
ATOM     76  C   UNL A   1      45.669  28.995  32.601  1.00  0.00    -0.014 A 
ATOM     77  C   UNL A   1      46.822  29.416  31.920  1.00  0.00     0.009 A 
ATOM     78  C   UNL A   1      45.807  28.152  33.715  1.00  0.00     0.009 A 
ATOM     79  C   UNL A   1      48.081  28.965  32.320  1.00  0.00     0.001 A 
ATOM     80  C   UNL A   1      47.069  27.733  34.135  1.00  0.00     0.001 A 
ATOM     81  C   UNL A   1      48.204  28.128  33.429  1.00  0.00     0.000 A 
ENDBRANCH  63  76
ENDBRANCH  37  38
ENDBRANCH  29  32
ENDBRANCH  27  28
ENDBRANCH  26  27
ENDBRANCH   1  26
TORSDOF 14
ENDMDL
MODEL 3
REMARK VINA RESULT:     -11.6      3.306      8.187
REMARK SMILES CS(=O)(=O)N1C[C@@H]2CN(C(=O)c3ccco3)C[C@]2(C(=O)NCCCCNC(=O)c2ccc(-c3c4nc(c(-c5ccccc5)c5ccc([nH]5)c(-c5ccccc5)c5nc(c(-c6ccccc6)c6ccc3[nH]6)C=C5)C=C4)cc2)C1
REMARK SMILES IDX 23 1 22 2 21 3 19 4 20 5 18 7 5 8 6 9 77 10 7 11 8 12 17 13
REMARK SMILES IDX 9 14 2 15 1 16 3 17 4 18 10 19 11 20 12 21 13 22 16 23 14 24
REMARK SMILES IDX 15 25 24 26 25 27 26 28 27 29 28 31 29 32 30 33 76 34 31 35
REMARK SMILES IDX 75 36 32 37 33 38 34 39 69 40 35 41 74 42 68 43 70 44 36 45
REMARK SMILES IDX 73 46 67 47 66 48 37 50 59 51 44 52 58 53 45 54 48 55 57 56
REMARK SMILES IDX 71 57 46 58 47 59 56 61 72 62 49 63 38 64 39 65 43 66 40 67
REMARK SMILES IDX 42 68 41 69 60 70 61 71 65 72 62 73 64 74 63 75 50 76 51 77
REMARK SMILES IDX 55 78 52 79 54 80 53 81
REMARK H PARENT 21 6 26 30 70 49 48 60
REMARK Flexibility Score: inf
ROOT
ATOM      1  C   UNL A   1      31.794  29.019  27.273  1.00  0.00     0.023 C 
ENDROOT
BRANCH   1   2
ATOM      2  C   UNL A   1      32.164  27.763  26.499  1.00  0.00     0.116 C 
BRANCH   2   3
ATOM      3  N   UNL A   1      31.259  26.699  26.874  1.00  0.00    -0.356 N 
ATOM      4  C   UNL A   1      30.584  25.885  25.994  1.00  0.00     0.229 C 
ATOM      5  O   UNL A   1      29.578  25.295  26.383  1.00  0.00    -0.274 OA
ATOM      6  H   UNL A   1      31.114  26.545  27.836  1.00  0.00     0.163 HD
BRANCH   4   7
ATOM      7  C   UNL A   1      31.207  25.756  24.577  1.00  0.00     0.086 C 
ATOM      8  N   UNL A   1      32.514  23.644  24.158  1.00  0.00    -0.201 NA
ATOM      9  C   UNL A   1      32.439  24.344  22.893  1.00  0.00     0.108 C 
ATOM     10  C   UNL A   1      31.401  24.206  25.002  1.00  0.00     0.121 C 
ATOM     11  C   UNL A   1      31.248  25.252  23.083  1.00  0.00     0.042 C 
ATOM     12  C   UNL A   1      31.359  26.470  22.193  1.00  0.00     0.126 C 
ATOM     13  C   UNL A   1      30.024  26.769  24.091  1.00  0.00     0.138 C 
ATOM     14  N   UNL A   1      30.592  27.436  22.912  1.00  0.00    -0.334 N 
BRANCH   8  15
ATOM     15  S   UNL A   1      32.634  21.958  24.220  1.00  0.00     0.211 S 
ATOM     16  C   UNL A   1      32.093  21.413  22.611  1.00  0.00     0.176 C 
ATOM     17  O   UNL A   1      31.659  21.490  25.184  1.00  0.00    -0.213 OA
ATOM     18  O   UNL A   1      34.037  21.647  24.365  1.00  0.00    -0.213 OA
ENDBRANCH   8  15
BRANCH  14  19
ATOM     19  C   UNL A   1      30.751  28.778  22.564  1.00  0.00     0.289 C 
ATOM     20  O   UNL A   1      31.895  29.235  22.467  1.00  0.00    -0.265 OA
BRANCH  19  21
ATOM     21  C   UNL A   1      29.611  29.663  22.451  1.00  0.00     0.191 A 
ATOM     22  C   UNL A   1      29.052  30.481  23.422  1.00  0.00     0.056 A 
ATOM     23  O   UNL A   1      28.951  29.847  21.268  1.00  0.00    -0.459 OA
ATOM     24  C   UNL A   1      27.989  31.180  22.812  1.00  0.00     0.043 A 
ATOM     25  C   UNL A   1      27.992  30.789  21.493  1.00  0.00     0.196 A 
ENDBRANCH  19  21
ENDBRANCH  14  19
ENDBRANCH   4   7
ENDBRANCH   2   3
ENDBRANCH   1   2
BRANCH   1  26
ATOM     26  C   UNL A   1      31.968  30.315  26.500  1.00  0.00     0.023 C 
BRANCH  26  27
ATOM     27  C   UNL A   1      33.003  31.219  27.128  1.00  0.00     0.116 C 
BRANCH  27  28
ATOM     28  N   UNL A   1      32.507  32.573  27.354  1.00  0.00    -0.352 N 
ATOM     29  C   UNL A   1      33.063  33.585  28.096  1.00  0.00     0.251 C 
ATOM     30  H   UNL A   1      31.656  32.791  26.912  1.00  0.00     0.163 HD
ATOM     31  O   UNL A   1      32.444  34.625  28.293  1.00  0.00    -0.269 OA
BRANCH  29  32
ATOM     32  C   UNL A   1      34.389  33.368  28.699  1.00  0.00     0.039 A 
ATOM     33  C   UNL A   1      34.472  32.727  29.934  1.00  0.00     0.014 A 
ATOM     34  C   UNL A   1      35.542  33.696  27.985  1.00  0.00     0.014 A 
ATOM     35  C   UNL A   1      35.721  32.334  30.410  1.00  0.00     0.010 A 
ATOM     36  C   UNL A   1      36.759  33.176  28.387  1.00  0.00     0.010 A 
ATOM     37  C   UNL A   1      36.866  32.504  29.612  1.00  0.00    -0.014 A 
BRANCH  37  38
ATOM     38  C   UNL A   1      38.188  31.995  30.041  1.00  0.00     0.031 A 
ATOM     39  C   UNL A   1      38.690  30.679  29.514  1.00  0.00     0.074 A 
ATOM     40  C   UNL A   1      38.902  32.684  30.954  1.00  0.00     0.049 A 
ATOM     41  N   UNL A   1      39.799  30.047  29.796  1.00  0.00    -0.248 NA
ATOM     42  C   UNL A   1      37.812  29.955  28.576  1.00  0.00     0.031 C 
ATOM     43  C   UNL A   1      38.487  33.938  31.589  1.00  0.00     0.029 A 
ATOM     44  N   UNL A   1      40.130  32.426  31.503  1.00  0.00    -0.354 N 
ATOM     45  C   UNL A   1      39.740  28.852  29.091  1.00  0.00     0.074 A 
ATOM     46  C   UNL A   1      38.457  28.810  28.428  1.00  0.00     0.031 C 
ATOM     47  C   UNL A   1      39.468  34.364  32.401  1.00  0.00     0.029 A 
ATOM     48  C   UNL A   1      40.555  33.393  32.381  1.00  0.00     0.049 A 
ATOM     49  H   UNL A   1      40.659  31.624  31.289  1.00  0.00     0.167 HD
ATOM     50  C   UNL A   1      40.683  27.888  28.976  1.00  0.00     0.031 A 
ATOM     51  C   UNL A   1      41.695  33.486  33.090  1.00  0.00     0.031 A 
ATOM     52  C   UNL A   1      41.964  27.945  29.624  1.00  0.00     0.049 A 
ATOM     53  C   UNL A   1      42.728  32.404  32.945  1.00  0.00     0.074 A 
ATOM     54  C   UNL A   1      43.020  27.058  29.522  1.00  0.00     0.029 A 
ATOM     55  N   UNL A   1      42.360  28.946  30.498  1.00  0.00    -0.354 N 
ATOM     56  N   UNL A   1      42.695  31.323  32.203  1.00  0.00    -0.248 NA
ATOM     57  C   UNL A   1      43.961  32.562  33.727  1.00  0.00     0.031 C 
ATOM     58  C   UNL A   1      44.031  27.489  30.386  1.00  0.00     0.029 A 
ATOM     59  C   UNL A   1      43.634  28.682  30.971  1.00  0.00     0.049 A 
ATOM     60  H   UNL A   1      41.816  29.728  30.746  1.00  0.00     0.167 HD
ATOM     61  C   UNL A   1      43.910  30.684  32.409  1.00  0.00     0.074 A 
ATOM     62  C   UNL A   1      44.666  31.515  33.326  1.00  0.00     0.031 C 
ATOM     63  C   UNL A   1      44.362  29.516  31.891  1.00  0.00     0.031 A 
BRANCH  50  64
ATOM     64  C   UNL A   1      40.353  26.696  28.121  1.00  0.00    -0.014 A 
ATOM     65  C   UNL A   1      39.584  25.630  28.617  1.00  0.00     0.009 A 
ATOM     66  C   UNL A   1      40.802  26.645  26.792  1.00  0.00     0.009 A 
ATOM     67  C   UNL A   1      39.307  24.522  27.814  1.00  0.00     0.001 A 
ATOM     68  C   UNL A   1      40.493  25.552  25.980  1.00  0.00     0.001 A 
ATOM     69  C   UNL A   1      39.756  24.486  26.495  1.00  0.00     0.000 A 
ENDBRANCH  50  64
BRANCH  51  70
ATOM     70  C   UNL A   1      41.930  34.653  33.981  1.00  0.00    -0.014 A 
ATOM     71  C   UNL A   1      41.566  34.604  35.336  1.00  0.00     0.009 A 
ATOM     72  C   UNL A   1      42.516  35.828  33.482  1.00  0.00     0.009 A 
ATOM     73  C   UNL A   1      41.753  35.714  36.163  1.00  0.00     0.001 A 
ATOM     74  C   UNL A   1      42.732  36.925  34.318  1.00  0.00     0.001 A 
ATOM     75  C   UNL A   1      42.340  36.871  35.655  1.00  0.00     0.000 A 
ENDBRANCH  51  70
BRANCH  63  76
ATOM     76  C   UNL A   1      45.747  29.085  32.286  1.00  0.00    -0.014 A 
ATOM     77  C   UNL A   1      45.967  28.268  33.405  1.00  0.00     0.009 A 
ATOM     78  C   UNL A   1      46.845  29.482  31.506  1.00  0.00     0.009 A 
ATOM     79  C   UNL A   1      47.264  27.894  33.761  1.00  0.00     0.001 A 
ATOM     80  C   UNL A   1      48.136  29.076  31.843  1.00  0.00     0.001 A 
ATOM     81  C   UNL A   1      48.346  28.294  32.978  1.00  0.00     0.000 A 
ENDBRANCH  63  76
ENDBRANCH  37  38
ENDBRANCH  29  32
ENDBRANCH  27  28
ENDBRANCH  26  27
ENDBRANCH   1  26
TORSDOF 14
ENDMDL
