MODEL 1
REMARK VINA RESULT:     -11.5      0.000      0.000
REMARK SMILES O=C(NCCCCNC(=O)[C@H]1C[C@](O)(c2ccc(Cl)cc2)[C@@H](c2ccc(Cl)cc2)O1)c1ccc(-c2c3nc(c(-c4ccccc4)c4ccc([nH]4)c(-c4ccccc4)c4nc(c(-c5ccccc5)c5ccc2[nH]5)C=C4)C=C3)cc1
REMARK SMILES IDX 5 1 4 2 3 3 1 4 2 5 31 7 32 8 78 9 33 10 77 11 34 12 35 13
REMARK SMILES IDX 36 14 71 15 37 16 76 17 70 18 72 19 38 20 75 21 69 22 68 23
REMARK SMILES IDX 39 25 61 26 46 27 60 28 47 29 50 30 59 31 73 32 48 33 49 34
REMARK SMILES IDX 58 36 74 37 51 38 40 39 41 40 45 41 42 42 44 43 43 44 62 45
REMARK SMILES IDX 63 46 67 47 64 48 66 49 65 50 52 51 53 52 57 53 54 54 56 55
REMARK SMILES IDX 55 56 6 57 7 58 8 59 9 60 10 62 11 63 12 64 30 65 13 66
REMARK SMILES IDX 22 67 15 68 16 69 21 70 17 71 20 72 18 73 19 74 14 75 23 77
REMARK SMILES IDX 24 78 29 79 25 80 28 81 26 82 27 83
REMARK H PARENT 3 6 72 24 50 35 8 61 14 76
REMARK Flexibility Score: inf
ROOT
ATOM      1  C   UNL A   1      40.171  20.784  26.462  1.00  0.00     0.023 C 
ENDROOT
BRANCH   1   2
ATOM      2  C   UNL A   1      41.316  19.963  27.036  1.00  0.00     0.116 C 
BRANCH   2   3
ATOM      3  N   UNL A   1      42.425  19.796  26.102  1.00  0.00    -0.352 N 
ATOM      4  O   UNL A   1      44.089  20.266  24.675  1.00  0.00    -0.269 OA
ATOM      5  C   UNL A   1      43.334  20.674  25.548  1.00  0.00     0.251 C 
ATOM      6  H   UNL A   1      42.550  18.865  25.807  1.00  0.00     0.163 HD
BRANCH   5   7
ATOM      7  C   UNL A   1      43.384  22.105  25.947  1.00  0.00     0.039 A 
ATOM      8  C   UNL A   1      43.772  22.485  27.221  1.00  0.00     0.014 A 
ATOM      9  C   UNL A   1      43.066  23.108  25.020  1.00  0.00     0.014 A 
ATOM     10  C   UNL A   1      43.594  23.785  27.656  1.00  0.00     0.010 A 
ATOM     11  C   UNL A   1      43.095  24.460  25.402  1.00  0.00     0.010 A 
ATOM     12  C   UNL A   1      43.329  24.808  26.739  1.00  0.00    -0.014 A 
BRANCH  12  13
ATOM     13  C   UNL A   1      43.422  26.209  27.235  1.00  0.00     0.031 A 
ATOM     14  C   UNL A   1      42.216  26.952  27.730  1.00  0.00     0.074 A 
ATOM     15  C   UNL A   1      44.649  26.770  27.325  1.00  0.00     0.049 A 
ATOM     16  N   UNL A   1      42.154  28.153  28.250  1.00  0.00    -0.248 NA
ATOM     17  C   UNL A   1      40.912  26.280  27.618  1.00  0.00     0.031 C 
ATOM     18  C   UNL A   1      45.899  26.144  26.875  1.00  0.00     0.029 A 
ATOM     19  N   UNL A   1      45.065  27.952  27.881  1.00  0.00    -0.354 N 
ATOM     20  C   UNL A   1      40.808  28.395  28.489  1.00  0.00     0.074 A 
ATOM     21  C   UNL A   1      40.084  27.223  28.044  1.00  0.00     0.031 C 
ATOM     22  C   UNL A   1      46.939  26.879  27.285  1.00  0.00     0.029 A 
ATOM     23  C   UNL A   1      46.433  28.094  27.904  1.00  0.00     0.049 A 
ATOM     24  H   UNL A   1      44.444  28.632  28.231  1.00  0.00     0.167 HD
ATOM     25  C   UNL A   1      40.231  29.499  29.024  1.00  0.00     0.031 A 
ATOM     26  C   UNL A   1      47.207  29.103  28.341  1.00  0.00     0.031 A 
ATOM     27  C   UNL A   1      40.964  30.656  29.472  1.00  0.00     0.049 A 
ATOM     28  C   UNL A   1      46.538  30.322  28.899  1.00  0.00     0.074 A 
ATOM     29  C   UNL A   1      40.474  31.818  30.043  1.00  0.00     0.029 A 
ATOM     30  N   UNL A   1      42.342  30.796  29.402  1.00  0.00    -0.354 N 
ATOM     31  N   UNL A   1      45.262  30.535  29.108  1.00  0.00    -0.248 NA
ATOM     32  C   UNL A   1      47.412  31.444  29.257  1.00  0.00     0.031 C 
ATOM     33  C   UNL A   1      41.551  32.684  30.262  1.00  0.00     0.029 A 
ATOM     34  C   UNL A   1      42.718  32.037  29.891  1.00  0.00     0.049 A 
ATOM     35  H   UNL A   1      42.962  30.114  29.055  1.00  0.00     0.167 HD
ATOM     36  C   UNL A   1      45.176  31.817  29.626  1.00  0.00     0.074 A 
ATOM     37  C   UNL A   1      46.534  32.317  29.731  1.00  0.00     0.031 C 
ATOM     38  C   UNL A   1      44.073  32.520  29.975  1.00  0.00     0.031 A 
BRANCH  25  39
ATOM     39  C   UNL A   1      38.729  29.527  29.108  1.00  0.00    -0.014 A 
ATOM     40  C   UNL A   1      38.050  29.302  30.316  1.00  0.00     0.009 A 
ATOM     41  C   UNL A   1      37.979  29.813  27.955  1.00  0.00     0.009 A 
ATOM     42  C   UNL A   1      36.654  29.328  30.360  1.00  0.00     0.001 A 
ATOM     43  C   UNL A   1      36.585  29.869  28.007  1.00  0.00     0.001 A 
ATOM     44  C   UNL A   1      35.922  29.616  29.207  1.00  0.00     0.000 A 
ENDBRANCH  25  39
BRANCH  26  45
ATOM     45  C   UNL A   1      48.686  29.019  28.209  1.00  0.00    -0.014 A 
ATOM     46  C   UNL A   1      49.336  29.488  27.058  1.00  0.00     0.009 A 
ATOM     47  C   UNL A   1      49.461  28.483  29.253  1.00  0.00     0.009 A 
ATOM     48  C   UNL A   1      50.727  29.411  26.952  1.00  0.00     0.001 A 
ATOM     49  C   UNL A   1      50.852  28.443  29.160  1.00  0.00     0.001 A 
ATOM     50  C   UNL A   1      51.484  28.898  28.006  1.00  0.00     0.000 A 
ENDBRANCH  26  45
BRANCH  38  51
ATOM     51  C   UNL A   1      44.300  33.897  30.528  1.00  0.00    -0.014 A 
ATOM     52  C   UNL A   1      44.300  35.026  29.695  1.00  0.00     0.009 A 
ATOM     53  C   UNL A   1      44.505  34.065  31.907  1.00  0.00     0.009 A 
ATOM     54  C   UNL A   1      44.537  36.294  30.227  1.00  0.00     0.001 A 
ATOM     55  C   UNL A   1      44.710  35.339  32.439  1.00  0.00     0.001 A 
ATOM     56  C   UNL A   1      44.737  36.450  31.598  1.00  0.00     0.000 A 
ENDBRANCH  38  51
ENDBRANCH  12  13
ENDBRANCH   5   7
ENDBRANCH   2   3
ENDBRANCH   1   2
BRANCH   1  57
ATOM     57  C   UNL A   1      40.082  22.131  27.157  1.00  0.00     0.023 C 
BRANCH  57  58
ATOM     58  C   UNL A   1      39.058  23.096  26.556  1.00  0.00     0.116 C 
BRANCH  58  59
ATOM     59  N   UNL A   1      38.522  22.565  25.320  1.00  0.00    -0.354 N 
ATOM     60  C   UNL A   1      37.233  22.555  24.873  1.00  0.00     0.249 C 
ATOM     61  H   UNL A   1      39.182  22.153  24.716  1.00  0.00     0.163 HD
ATOM     62  O   UNL A   1      37.006  21.920  23.840  1.00  0.00    -0.272 OA
BRANCH  60  63
ATOM     63  C   UNL A   1      36.133  23.397  25.582  1.00  0.00     0.211 C 
ATOM     64  C   UNL A   1      35.405  24.296  24.580  1.00  0.00     0.085 C 
ATOM     65  O   UNL A   1      35.153  22.667  26.316  1.00  0.00    -0.357 OA
ATOM     66  C   UNL A   1      33.922  24.152  24.889  1.00  0.00     0.123 C 
ATOM     67  C   UNL A   1      33.853  22.854  25.729  1.00  0.00     0.186 C 
BRANCH  66  68
ATOM     68  C   UNL A   1      33.366  25.387  25.613  1.00  0.00    -0.013 A 
ATOM     69  C   UNL A   1      34.172  26.532  25.760  1.00  0.00     0.008 A 
ATOM     70  C   UNL A   1      32.049  25.451  26.106  1.00  0.00     0.008 A 
ATOM     71  C   UNL A   1      33.658  27.723  26.278  1.00  0.00     0.021 A 
ATOM     72  C   UNL A   1      31.529  26.646  26.616  1.00  0.00     0.021 A 
ATOM     73  C   UNL A   1      32.330  27.781  26.680  1.00  0.00     0.041 A 
ATOM     74  Cl  UNL A   1      31.671  29.264  27.250  1.00  0.00    -0.084 Cl
ENDBRANCH  66  68
BRANCH  66  75
ATOM     75  O   UNL A   1      33.201  24.025  23.656  1.00  0.00    -0.382 OA
ATOM     76  H   UNL A   1      33.352  24.813  23.110  1.00  0.00     0.212 HD
ENDBRANCH  66  75
BRANCH  67  77
ATOM     77  C   UNL A   1      33.438  21.545  25.076  1.00  0.00    -0.016 A 
ATOM     78  C   UNL A   1      32.394  21.456  24.144  1.00  0.00     0.008 A 
ATOM     79  C   UNL A   1      34.215  20.394  25.324  1.00  0.00     0.008 A 
ATOM     80  C   UNL A   1      32.154  20.260  23.457  1.00  0.00     0.021 A 
ATOM     81  C   UNL A   1      33.980  19.204  24.633  1.00  0.00     0.021 A 
ATOM     82  C   UNL A   1      32.957  19.146  23.693  1.00  0.00     0.041 A 
ATOM     83  Cl  UNL A   1      32.713  17.706  22.786  1.00  0.00    -0.084 Cl
ENDBRANCH  67  77
ENDBRANCH  60  63
ENDBRANCH  58  59
ENDBRANCH  57  58
ENDBRANCH   1  57
TORSDOF 14
ENDMDL
MODEL 2
REMARK VINA RESULT:     -11.4      4.384      9.270
REMARK SMILES O=C(NCCCCNC(=O)[C@H]1C[C@](O)(c2ccc(Cl)cc2)[C@@H](c2ccc(Cl)cc2)O1)c1ccc(-c2c3nc(c(-c4ccccc4)c4ccc([nH]4)c(-c4ccccc4)c4nc(c(-c5ccccc5)c5ccc2[nH]5)C=C4)C=C3)cc1
REMARK SMILES IDX 5 1 4 2 3 3 1 4 2 5 31 7 32 8 78 9 33 10 77 11 34 12 35 13
REMARK SMILES IDX 36 14 71 15 37 16 76 17 70 18 72 19 38 20 75 21 69 22 68 23
REMARK SMILES IDX 39 25 61 26 46 27 60 28 47 29 50 30 59 31 73 32 48 33 49 34
REMARK SMILES IDX 58 36 74 37 51 38 40 39 41 40 45 41 42 42 44 43 43 44 62 45
REMARK SMILES IDX 63 46 67 47 64 48 66 49 65 50 52 51 53 52 57 53 54 54 56 55
REMARK SMILES IDX 55 56 6 57 7 58 8 59 9 60 10 62 11 63 12 64 30 65 13 66
REMARK SMILES IDX 22 67 15 68 16 69 21 70 17 71 20 72 18 73 19 74 14 75 23 77
REMARK SMILES IDX 24 78 29 79 25 80 28 81 26 82 27 83
REMARK H PARENT 3 6 72 24 50 35 8 61 14 76
REMARK Flexibility Score: inf
ROOT
ATOM      1  C   UNL A   1      33.729  32.895  27.985  1.00  0.00     0.023 C 
ENDROOT
BRANCH   1   2
ATOM      2  C   UNL A   1      33.976  34.377  28.220  1.00  0.00     0.116 C 
BRANCH   2   3
ATOM      3  N   UNL A   1      33.517  34.835  29.527  1.00  0.00    -0.352 N 
ATOM      4  O   UNL A   1      33.242  34.990  31.747  1.00  0.00    -0.269 OA
ATOM      5  C   UNL A   1      33.908  34.549  30.819  1.00  0.00     0.251 C 
ATOM      6  H   UNL A   1      32.774  35.479  29.477  1.00  0.00     0.163 HD
BRANCH   5   7
ATOM      7  C   UNL A   1      35.081  33.684  31.108  1.00  0.00     0.039 A 
ATOM      8  C   UNL A   1      36.371  34.098  30.822  1.00  0.00     0.014 A 
ATOM      9  C   UNL A   1      34.903  32.432  31.714  1.00  0.00     0.014 A 
ATOM     10  C   UNL A   1      37.427  33.208  30.874  1.00  0.00     0.010 A 
ATOM     11  C   UNL A   1      36.010  31.604  31.970  1.00  0.00     0.010 A 
ATOM     12  C   UNL A   1      37.283  31.976  31.521  1.00  0.00    -0.014 A 
BRANCH  12  13
ATOM     13  C   UNL A   1      38.523  31.192  31.779  1.00  0.00     0.031 A 
ATOM     14  C   UNL A   1      38.981  30.109  30.846  1.00  0.00     0.074 A 
ATOM     15  C   UNL A   1      39.291  31.550  32.832  1.00  0.00     0.049 A 
ATOM     16  N   UNL A   1      40.071  29.387  30.908  1.00  0.00    -0.248 NA
ATOM     17  C   UNL A   1      38.107  29.779  29.710  1.00  0.00     0.031 C 
ATOM     18  C   UNL A   1      38.951  32.590  33.812  1.00  0.00     0.029 A 
ATOM     19  N   UNL A   1      40.539  31.138  33.224  1.00  0.00    -0.354 N 
ATOM     20  C   UNL A   1      39.996  28.493  29.848  1.00  0.00     0.074 A 
ATOM     21  C   UNL A   1      38.746  28.753  29.166  1.00  0.00     0.031 C 
ATOM     22  C   UNL A   1      40.005  32.821  34.602  1.00  0.00     0.029 A 
ATOM     23  C   UNL A   1      41.047  31.858  34.280  1.00  0.00     0.049 A 
ATOM     24  H   UNL A   1      41.024  30.399  32.790  1.00  0.00     0.167 HD
ATOM     25  C   UNL A   1      40.887  27.539  29.483  1.00  0.00     0.031 A 
ATOM     26  C   UNL A   1      42.208  31.743  34.948  1.00  0.00     0.031 A 
ATOM     27  C   UNL A   1      42.134  27.296  30.165  1.00  0.00     0.049 A 
ATOM     28  C   UNL A   1      43.158  30.659  34.541  1.00  0.00     0.074 A 
ATOM     29  C   UNL A   1      43.112  26.364  29.865  1.00  0.00     0.029 A 
ATOM     30  N   UNL A   1      42.574  27.992  31.281  1.00  0.00    -0.354 N 
ATOM     31  N   UNL A   1      43.064  29.818  33.541  1.00  0.00    -0.248 NA
ATOM     32  C   UNL A   1      44.359  30.494  35.367  1.00  0.00     0.031 C 
ATOM     33  C   UNL A   1      44.115  26.456  30.835  1.00  0.00     0.029 A 
ATOM     34  C   UNL A   1      43.796  27.490  31.700  1.00  0.00     0.049 A 
ATOM     35  H   UNL A   1      42.090  28.733  31.712  1.00  0.00     0.167 HD
ATOM     36  C   UNL A   1      44.195  29.022  33.613  1.00  0.00     0.074 A 
ATOM     37  C   UNL A   1      44.976  29.506  34.735  1.00  0.00     0.031 C 
ATOM     38  C   UNL A   1      44.551  27.978  32.826  1.00  0.00     0.031 A 
BRANCH  25  39
ATOM     39  C   UNL A   1      40.521  26.653  28.324  1.00  0.00    -0.014 A 
ATOM     40  C   UNL A   1      41.059  26.851  27.042  1.00  0.00     0.009 A 
ATOM     41  C   UNL A   1      39.640  25.577  28.528  1.00  0.00     0.009 A 
ATOM     42  C   UNL A   1      40.694  26.014  25.984  1.00  0.00     0.001 A 
ATOM     43  C   UNL A   1      39.301  24.725  27.476  1.00  0.00     0.001 A 
ATOM     44  C   UNL A   1      39.819  24.949  26.202  1.00  0.00     0.000 A 
ENDBRANCH  25  39
BRANCH  26  45
ATOM     45  C   UNL A   1      42.497  32.640  36.099  1.00  0.00    -0.014 A 
ATOM     46  C   UNL A   1      43.157  33.863  35.913  1.00  0.00     0.009 A 
ATOM     47  C   UNL A   1      42.090  32.281  37.396  1.00  0.00     0.009 A 
ATOM     48  C   UNL A   1      43.413  34.700  37.003  1.00  0.00     0.001 A 
ATOM     49  C   UNL A   1      42.313  33.136  38.475  1.00  0.00     0.001 A 
ATOM     50  C   UNL A   1      42.983  34.341  38.280  1.00  0.00     0.000 A 
ENDBRANCH  26  45
BRANCH  38  51
ATOM     51  C   UNL A   1      45.858  27.312  33.145  1.00  0.00    -0.014 A 
ATOM     52  C   UNL A   1      47.068  27.796  32.624  1.00  0.00     0.009 A 
ATOM     53  C   UNL A   1      45.878  26.192  33.990  1.00  0.00     0.009 A 
ATOM     54  C   UNL A   1      48.269  27.148  32.914  1.00  0.00     0.001 A 
ATOM     55  C   UNL A   1      47.084  25.566  34.303  1.00  0.00     0.001 A 
ATOM     56  C   UNL A   1      48.277  26.037  33.757  1.00  0.00     0.000 A 
ENDBRANCH  38  51
ENDBRANCH  12  13
ENDBRANCH   5   7
ENDBRANCH   2   3
ENDBRANCH   1   2
BRANCH   1  57
ATOM     57  C   UNL A   1      35.046  32.151  27.850  1.00  0.00     0.023 C 
BRANCH  57  58
ATOM     58  C   UNL A   1      34.912  30.641  27.647  1.00  0.00     0.116 C 
BRANCH  58  59
ATOM     59  N   UNL A   1      33.555  30.210  27.909  1.00  0.00    -0.354 N 
ATOM     60  C   UNL A   1      32.834  29.217  27.311  1.00  0.00     0.249 C 
ATOM     61  H   UNL A   1      33.085  30.704  28.621  1.00  0.00     0.163 HD
ATOM     62  O   UNL A   1      31.642  29.131  27.620  1.00  0.00    -0.272 OA
BRANCH  60  63
ATOM     63  C   UNL A   1      33.519  28.186  26.369  1.00  0.00     0.211 C 
ATOM     64  C   UNL A   1      32.866  26.808  26.505  1.00  0.00     0.085 C 
ATOM     65  O   UNL A   1      33.560  28.523  24.985  1.00  0.00    -0.357 OA
ATOM     66  C   UNL A   1      32.669  26.298  25.085  1.00  0.00     0.123 C 
ATOM     67  C   UNL A   1      32.793  27.576  24.221  1.00  0.00     0.186 C 
BRANCH  66  68
ATOM     68  C   UNL A   1      33.689  25.207  24.723  1.00  0.00    -0.013 A 
ATOM     69  C   UNL A   1      33.617  24.575  23.466  1.00  0.00     0.008 A 
ATOM     70  C   UNL A   1      34.740  24.833  25.581  1.00  0.00     0.008 A 
ATOM     71  C   UNL A   1      34.609  23.688  23.040  1.00  0.00     0.021 A 
ATOM     72  C   UNL A   1      35.740  23.952  25.152  1.00  0.00     0.021 A 
ATOM     73  C   UNL A   1      35.680  23.400  23.877  1.00  0.00     0.041 A 
ATOM     74  Cl  UNL A   1      36.941  22.367  23.330  1.00  0.00    -0.084 Cl
ENDBRANCH  66  68
BRANCH  66  75
ATOM     75  O   UNL A   1      31.366  25.710  24.980  1.00  0.00    -0.382 OA
ATOM     76  H   UNL A   1      30.949  25.994  24.151  1.00  0.00     0.212 HD
ENDBRANCH  66  75
BRANCH  67  77
ATOM     77  C   UNL A   1      31.542  28.279  23.718  1.00  0.00    -0.016 A 
ATOM     78  C   UNL A   1      30.648  27.688  22.813  1.00  0.00     0.008 A 
ATOM     79  C   UNL A   1      31.201  29.528  24.277  1.00  0.00     0.008 A 
ATOM     80  C   UNL A   1      29.434  28.313  22.503  1.00  0.00     0.021 A 
ATOM     81  C   UNL A   1      29.988  30.147  23.973  1.00  0.00     0.021 A 
ATOM     82  C   UNL A   1      29.103  29.530  23.095  1.00  0.00     0.041 A 
ATOM     83  Cl  UNL A   1      27.576  30.252  22.776  1.00  0.00    -0.084 Cl
ENDBRANCH  67  77
ENDBRANCH  60  63
ENDBRANCH  58  59
ENDBRANCH  57  58
ENDBRANCH   1  57
TORSDOF 14
ENDMDL
MODEL 3
REMARK VINA RESULT:     -11.3      0.396      5.836
REMARK SMILES O=C(NCCCCNC(=O)[C@H]1C[C@](O)(c2ccc(Cl)cc2)[C@@H](c2ccc(Cl)cc2)O1)c1ccc(-c2c3nc(c(-c4ccccc4)c4ccc([nH]4)c(-c4ccccc4)c4nc(c(-c5ccccc5)c5ccc2[nH]5)C=C4)C=C3)cc1
REMARK SMILES IDX 5 1 4 2 3 3 1 4 2 5 31 7 32 8 78 9 33 10 77 11 34 12 35 13
REMARK SMILES IDX 36 14 71 15 37 16 76 17 70 18 72 19 38 20 75 21 69 22 68 23
REMARK SMILES IDX 39 25 61 26 46 27 60 28 47 29 50 30 59 31 73 32 48 33 49 34
REMARK SMILES IDX 58 36 74 37 51 38 40 39 41 40 45 41 42 42 44 43 43 44 62 45
REMARK SMILES IDX 63 46 67 47 64 48 66 49 65 50 52 51 53 52 57 53 54 54 56 55
REMARK SMILES IDX 55 56 6 57 7 58 8 59 9 60 10 62 11 63 12 64 30 65 13 66
REMARK SMILES IDX 22 67 15 68 16 69 21 70 17 71 20 72 18 73 19 74 14 75 23 77
REMARK SMILES IDX 24 78 29 79 25 80 28 81 26 82 27 83
REMARK H PARENT 3 6 72 24 50 35 8 61 14 76
REMARK Flexibility Score: inf
ROOT
ATOM      1  C   UNL A   1      40.063  20.759  26.100  1.00  0.00     0.023 C 
ENDROOT
BRANCH   1   2
ATOM      2  C   UNL A   1      41.161  19.884  26.686  1.00  0.00     0.116 C 
BRANCH   2   3
ATOM      3  N   UNL A   1      42.322  19.758  25.811  1.00  0.00    -0.352 N 
ATOM      4  O   UNL A   1      44.095  20.288  24.546  1.00  0.00    -0.269 OA
ATOM      5  C   UNL A   1      43.302  20.643  25.408  1.00  0.00     0.251 C 
ATOM      6  H   UNL A   1      42.427  18.857  25.429  1.00  0.00     0.163 HD
BRANCH   5   7
ATOM      7  C   UNL A   1      43.385  22.021  25.956  1.00  0.00     0.039 A 
ATOM      8  C   UNL A   1      43.703  22.252  27.284  1.00  0.00     0.014 A 
ATOM      9  C   UNL A   1      43.173  23.127  25.120  1.00  0.00     0.014 A 
ATOM     10  C   UNL A   1      43.550  23.508  27.839  1.00  0.00     0.010 A 
ATOM     11  C   UNL A   1      43.233  24.431  25.641  1.00  0.00     0.010 A 
ATOM     12  C   UNL A   1      43.392  24.630  27.019  1.00  0.00    -0.014 A 
BRANCH  12  13
ATOM     13  C   UNL A   1      43.510  25.968  27.662  1.00  0.00     0.031 A 
ATOM     14  C   UNL A   1      44.839  26.646  27.834  1.00  0.00     0.074 A 
ATOM     15  C   UNL A   1      42.372  26.612  28.001  1.00  0.00     0.049 A 
ATOM     16  N   UNL A   1      45.090  27.837  28.318  1.00  0.00    -0.248 NA
ATOM     17  C   UNL A   1      46.039  25.897  27.431  1.00  0.00     0.031 C 
ATOM     18  C   UNL A   1      41.018  26.054  27.881  1.00  0.00     0.029 A 
ATOM     19  N   UNL A   1      42.153  27.890  28.448  1.00  0.00    -0.354 N 
ATOM     20  C   UNL A   1      46.473  27.965  28.315  1.00  0.00     0.074 A 
ATOM     21  C   UNL A   1      47.009  26.724  27.795  1.00  0.00     0.031 C 
ATOM     22  C   UNL A   1      40.117  27.015  28.117  1.00  0.00     0.029 A 
ATOM     23  C   UNL A   1      40.820  28.217  28.539  1.00  0.00     0.049 A 
ATOM     24  H   UNL A   1      42.880  28.512  28.681  1.00  0.00     0.167 HD
ATOM     25  C   UNL A   1      47.224  29.019  28.716  1.00  0.00     0.031 A 
ATOM     26  C   UNL A   1      40.215  29.346  28.949  1.00  0.00     0.031 A 
ATOM     27  C   UNL A   1      46.678  30.253  29.223  1.00  0.00     0.049 A 
ATOM     28  C   UNL A   1      41.072  30.482  29.416  1.00  0.00     0.074 A 
ATOM     29  C   UNL A   1      47.353  31.386  29.642  1.00  0.00     0.029 A 
ATOM     30  N   UNL A   1      45.324  30.515  29.378  1.00  0.00    -0.354 N 
ATOM     31  N   UNL A   1      42.379  30.579  29.413  1.00  0.00    -0.248 NA
ATOM     32  C   UNL A   1      40.374  31.650  29.962  1.00  0.00     0.031 C 
ATOM     33  C   UNL A   1      46.410  32.310  30.105  1.00  0.00     0.029 A 
ATOM     34  C   UNL A   1      45.145  31.780  29.914  1.00  0.00     0.049 A 
ATOM     35  H   UNL A   1      44.598  29.893  29.142  1.00  0.00     0.167 HD
ATOM     36  C   UNL A   1      42.663  31.822  29.955  1.00  0.00     0.074 A 
ATOM     37  C   UNL A   1      41.389  32.455  30.242  1.00  0.00     0.031 C 
ATOM     38  C   UNL A   1      43.870  32.386  30.202  1.00  0.00     0.031 A 
BRANCH  25  39
ATOM     39  C   UNL A   1      48.720  28.864  28.671  1.00  0.00    -0.014 A 
ATOM     40  C   UNL A   1      49.442  28.328  29.749  1.00  0.00     0.009 A 
ATOM     41  C   UNL A   1      49.417  29.238  27.510  1.00  0.00     0.009 A 
ATOM     42  C   UNL A   1      50.832  28.203  29.678  1.00  0.00     0.001 A 
ATOM     43  C   UNL A   1      50.803  29.084  27.430  1.00  0.00     0.001 A 
ATOM     44  C   UNL A   1      51.511  28.577  28.518  1.00  0.00     0.000 A 
ENDBRANCH  25  39
BRANCH  26  45
ATOM     45  C   UNL A   1      38.730  29.423  28.989  1.00  0.00    -0.014 A 
ATOM     46  C   UNL A   1      38.030  29.242  30.190  1.00  0.00     0.009 A 
ATOM     47  C   UNL A   1      38.004  29.703  27.818  1.00  0.00     0.009 A 
ATOM     48  C   UNL A   1      36.635  29.328  30.214  1.00  0.00     0.001 A 
ATOM     49  C   UNL A   1      36.615  29.826  27.852  1.00  0.00     0.001 A 
ATOM     50  C   UNL A   1      35.930  29.629  29.048  1.00  0.00     0.000 A 
ENDBRANCH  26  45
BRANCH  38  51
ATOM     51  C   UNL A   1      43.859  33.768  30.788  1.00  0.00    -0.014 A 
ATOM     52  C   UNL A   1      43.891  33.970  32.177  1.00  0.00     0.009 A 
ATOM     53  C   UNL A   1      43.829  34.882  29.936  1.00  0.00     0.009 A 
ATOM     54  C   UNL A   1      43.855  35.263  32.701  1.00  0.00     0.001 A 
ATOM     55  C   UNL A   1      43.826  36.174  30.463  1.00  0.00     0.001 A 
ATOM     56  C   UNL A   1      43.829  36.363  31.844  1.00  0.00     0.000 A 
ENDBRANCH  38  51
ENDBRANCH  12  13
ENDBRANCH   5   7
ENDBRANCH   2   3
ENDBRANCH   1   2
BRANCH   1  57
ATOM     57  C   UNL A   1      39.971  22.074  26.853  1.00  0.00     0.023 C 
BRANCH  57  58
ATOM     58  C   UNL A   1      38.762  22.938  26.490  1.00  0.00     0.116 C 
BRANCH  58  59
ATOM     59  N   UNL A   1      38.266  22.593  25.174  1.00  0.00    -0.354 N 
ATOM     60  C   UNL A   1      37.009  22.733  24.662  1.00  0.00     0.249 C 
ATOM     61  H   UNL A   1      38.931  22.202  24.561  1.00  0.00     0.163 HD
ATOM     62  O   UNL A   1      36.801  22.237  23.552  1.00  0.00    -0.272 OA
BRANCH  60  63
ATOM     63  C   UNL A   1      35.930  23.571  25.406  1.00  0.00     0.211 C 
ATOM     64  C   UNL A   1      35.185  24.486  24.431  1.00  0.00     0.085 C 
ATOM     65  O   UNL A   1      34.962  22.837  26.153  1.00  0.00    -0.357 OA
ATOM     66  C   UNL A   1      33.708  24.346  24.772  1.00  0.00     0.123 C 
ATOM     67  C   UNL A   1      33.651  23.038  25.598  1.00  0.00     0.186 C 
BRANCH  66  68
ATOM     68  C   UNL A   1      33.175  25.575  25.524  1.00  0.00    -0.013 A 
ATOM     69  C   UNL A   1      34.026  26.672  25.759  1.00  0.00     0.008 A 
ATOM     70  C   UNL A   1      31.841  25.682  25.957  1.00  0.00     0.008 A 
ATOM     71  C   UNL A   1      33.544  27.864  26.305  1.00  0.00     0.021 A 
ATOM     72  C   UNL A   1      31.352  26.878  26.496  1.00  0.00     0.021 A 
ATOM     73  C   UNL A   1      32.201  27.970  26.647  1.00  0.00     0.041 A 
ATOM     74  Cl  UNL A   1      31.585  29.457  27.251  1.00  0.00    -0.084 Cl
ENDBRANCH  66  68
BRANCH  66  75
ATOM     75  O   UNL A   1      32.959  24.239  23.555  1.00  0.00    -0.382 OA
ATOM     76  H   UNL A   1      32.780  25.126  23.206  1.00  0.00     0.212 HD
ENDBRANCH  66  75
BRANCH  67  77
ATOM     77  C   UNL A   1      33.214  21.740  24.938  1.00  0.00    -0.016 A 
ATOM     78  C   UNL A   1      32.397  21.701  23.799  1.00  0.00     0.008 A 
ATOM     79  C   UNL A   1      33.752  20.528  25.418  1.00  0.00     0.008 A 
ATOM     80  C   UNL A   1      32.153  20.491  23.140  1.00  0.00     0.021 A 
ATOM     81  C   UNL A   1      33.515  19.322  24.756  1.00  0.00     0.021 A 
ATOM     82  C   UNL A   1      32.725  19.311  23.612  1.00  0.00     0.041 A 
ATOM     83  Cl  UNL A   1      32.491  17.841  22.751  1.00  0.00    -0.084 Cl
ENDBRANCH  67  77
ENDBRANCH  60  63
ENDBRANCH  58  59
ENDBRANCH  57  58
ENDBRANCH   1  57
TORSDOF 14
ENDMDL
