MODEL 1
REMARK VINA RESULT:     -12.0      0.000      0.000
REMARK SMILES C[C@@]1(C(=O)c2ccccc2N)[C@H](C(=O)NCCCCNC(=O)c2ccc(-c3c4nc(c(-c5ccccc5)c5ccc([nH]5)c(-c5ccccc5)c5nc(c(-c6ccccc6)c6ccc3[nH]6)C=C5)C=C4)cc2)[C@@H]1C(=O)N1CCOCC1
REMARK SMILES IDX 17 1 16 2 15 3 13 4 14 5 12 7 1 8 2 9 71 10 3 11 4 12 5 13
REMARK SMILES IDX 6 14 10 15 7 16 9 17 8 18 11 19 72 22 73 23 74 24 75 25
REMARK SMILES IDX 79 26 76 27 78 28 77 29 18 30 19 31 20 32 21 33 22 35 23 36
REMARK SMILES IDX 24 37 70 38 25 39 69 40 26 41 27 42 28 43 63 44 29 45 68 46
REMARK SMILES IDX 62 47 64 48 30 49 67 50 61 51 60 52 31 54 53 55 38 56 52 57
REMARK SMILES IDX 39 58 42 59 51 60 65 61 40 62 41 63 50 65 66 66 43 67 32 68
REMARK SMILES IDX 33 69 37 70 34 71 36 72 35 73 54 74 55 75 59 76 56 77 58 78
REMARK SMILES IDX 57 79 44 80 45 81 49 82 46 83 48 84 47 85
REMARK H PARENT 15 6 11 20 11 21 20 34 64 53 42 64
REMARK Flexibility Score: inf
ROOT
ATOM      1  C   UNL A   1      37.023  22.242  23.806  1.00  0.00     0.023 C 
ENDROOT
BRANCH   1   2
ATOM      2  C   UNL A   1      35.931  23.235  24.160  1.00  0.00     0.116 C 
BRANCH   2   3
ATOM      3  N   UNL A   1      34.833  23.283  23.236  1.00  0.00    -0.356 N 
ATOM      4  C   UNL A   1      34.033  24.329  22.875  1.00  0.00     0.224 C 
ATOM      5  O   UNL A   1      33.508  24.233  21.762  1.00  0.00    -0.275 OA
ATOM      6  H   UNL A   1      34.624  22.429  22.795  1.00  0.00     0.163 HD
BRANCH   4   7
ATOM      7  C   UNL A   1      33.669  25.541  23.664  1.00  0.00     0.106 C 
ATOM      8  C   UNL A   1      33.146  27.946  24.159  1.00  0.00     0.022 C 
ATOM      9  C   UNL A   1      32.569  26.585  23.732  1.00  0.00     0.056 C 
ATOM     10  C   UNL A   1      32.612  25.452  24.759  1.00  0.00     0.106 C 
BRANCH   9  11
ATOM     11  C   UNL A   1      31.489  26.764  22.710  1.00  0.00     0.172 C 
ATOM     12  O   UNL A   1      31.629  26.181  21.635  1.00  0.00    -0.293 OA
BRANCH  11  13
ATOM     13  C   UNL A   1      30.290  27.639  22.907  1.00  0.00     0.041 A 
ATOM     14  C   UNL A   1      30.410  28.935  22.354  1.00  0.00     0.014 A 
ATOM     15  C   UNL A   1      29.067  27.244  23.477  1.00  0.00     0.042 A 
ATOM     16  C   UNL A   1      29.302  29.765  22.213  1.00  0.00     0.001 A 
ATOM     17  C   UNL A   1      27.951  28.077  23.276  1.00  0.00     0.026 A 
ATOM     18  C   UNL A   1      28.062  29.320  22.645  1.00  0.00     0.002 A 
BRANCH  15  19
ATOM     19  N   UNL A   1      28.851  26.025  24.122  1.00  0.00    -0.398 N 
ATOM     20  H   UNL A   1      29.598  25.400  24.256  1.00  0.00     0.156 HD
ATOM     21  H   UNL A   1      27.950  25.792  24.445  1.00  0.00     0.156 HD
ENDBRANCH  15  19
ENDBRANCH  11  13
ENDBRANCH   9  11
BRANCH  10  22
ATOM     22  C   UNL A   1      31.804  24.193  24.783  1.00  0.00     0.227 C 
ATOM     23  O   UNL A   1      30.885  24.022  23.996  1.00  0.00    -0.275 OA
ATOM     24  N   UNL A   1      32.228  23.171  25.617  1.00  0.00    -0.338 N 
ATOM     25  C   UNL A   1      32.938  23.317  26.888  1.00  0.00     0.148 C 
ATOM     26  C   UNL A   1      31.807  21.801  25.322  1.00  0.00     0.148 C 
ATOM     27  C   UNL A   1      34.051  22.275  27.029  1.00  0.00     0.181 C 
ATOM     28  C   UNL A   1      32.991  20.843  25.481  1.00  0.00     0.181 C 
ATOM     29  O   UNL A   1      33.556  20.946  26.799  1.00  0.00    -0.378 OA
ENDBRANCH  10  22
ENDBRANCH   4   7
ENDBRANCH   2   3
ENDBRANCH   1   2
BRANCH   1  30
ATOM     30  C   UNL A   1      37.177  21.091  24.792  1.00  0.00     0.023 C 
BRANCH  30  31
ATOM     31  C   UNL A   1      38.397  21.170  25.707  1.00  0.00     0.116 C 
BRANCH  31  32
ATOM     32  N   UNL A   1      39.272  20.006  25.631  1.00  0.00    -0.352 N 
ATOM     33  C   UNL A   1      40.596  19.885  25.982  1.00  0.00     0.251 C 
ATOM     34  H   UNL A   1      38.854  19.187  25.278  1.00  0.00     0.163 HD
ATOM     35  O   UNL A   1      41.213  18.847  25.772  1.00  0.00    -0.269 OA
BRANCH  33  36
ATOM     36  C   UNL A   1      41.286  21.046  26.579  1.00  0.00     0.039 A 
ATOM     37  C   UNL A   1      41.901  21.972  25.735  1.00  0.00     0.014 A 
ATOM     38  C   UNL A   1      41.256  21.252  27.960  1.00  0.00     0.014 A 
ATOM     39  C   UNL A   1      42.398  23.161  26.270  1.00  0.00     0.010 A 
ATOM     40  C   UNL A   1      41.675  22.471  28.478  1.00  0.00     0.010 A 
ATOM     41  C   UNL A   1      42.239  23.442  27.636  1.00  0.00    -0.014 A 
BRANCH  41  42
ATOM     42  C   UNL A   1      42.634  24.752  28.208  1.00  0.00     0.031 A 
ATOM     43  C   UNL A   1      41.601  25.821  28.428  1.00  0.00     0.074 A 
ATOM     44  C   UNL A   1      43.935  25.013  28.446  1.00  0.00     0.049 A 
ATOM     45  N   UNL A   1      41.763  27.057  28.826  1.00  0.00    -0.248 NA
ATOM     46  C   UNL A   1      40.204  25.462  28.131  1.00  0.00     0.031 C 
ATOM     47  C   UNL A   1      45.044  24.080  28.227  1.00  0.00     0.029 A 
ATOM     48  N   UNL A   1      44.544  26.148  28.917  1.00  0.00    -0.354 N 
ATOM     49  C   UNL A   1      40.498  27.629  28.797  1.00  0.00     0.074 A 
ATOM     50  C   UNL A   1      39.586  26.620  28.305  1.00  0.00     0.031 C 
ATOM     51  C   UNL A   1      46.193  24.671  28.595  1.00  0.00     0.029 A 
ATOM     52  C   UNL A   1      45.908  26.032  29.036  1.00  0.00     0.049 A 
ATOM     53  H   UNL A   1      44.051  26.968  29.149  1.00  0.00     0.167 HD
ATOM     54  C   UNL A   1      40.126  28.878  29.163  1.00  0.00     0.031 A 
ATOM     55  C   UNL A   1      46.827  26.924  29.451  1.00  0.00     0.031 A 
ATOM     56  C   UNL A   1      41.023  29.872  29.684  1.00  0.00     0.049 A 
ATOM     57  C   UNL A   1      46.385  28.295  29.871  1.00  0.00     0.074 A 
ATOM     58  C   UNL A   1      40.728  31.141  30.150  1.00  0.00     0.029 A 
ATOM     59  N   UNL A   1      42.393  29.705  29.811  1.00  0.00    -0.354 N 
ATOM     60  N   UNL A   1      45.176  28.802  29.896  1.00  0.00    -0.248 NA
ATOM     61  C   UNL A   1      47.435  29.217  30.329  1.00  0.00     0.031 C 
ATOM     62  C   UNL A   1      41.925  31.755  30.529  1.00  0.00     0.029 A 
ATOM     63  C   UNL A   1      42.960  30.854  30.336  1.00  0.00     0.049 A 
ATOM     64  H   UNL A   1      42.890  28.891  29.566  1.00  0.00     0.167 HD
ATOM     65  C   UNL A   1      45.316  30.089  30.394  1.00  0.00     0.074 A 
ATOM     66  C   UNL A   1      46.725  30.284  30.670  1.00  0.00     0.031 C 
ATOM     67  C   UNL A   1      44.362  31.027  30.607  1.00  0.00     0.031 A 
BRANCH  54  68
ATOM     68  C   UNL A   1      38.675  29.233  29.012  1.00  0.00    -0.014 A 
ATOM     69  C   UNL A   1      37.784  29.118  30.090  1.00  0.00     0.009 A 
ATOM     70  C   UNL A   1      38.199  29.711  27.781  1.00  0.00     0.009 A 
ATOM     71  C   UNL A   1      36.435  29.441  29.929  1.00  0.00     0.001 A 
ATOM     72  C   UNL A   1      36.854  30.058  27.631  1.00  0.00     0.001 A 
ATOM     73  C   UNL A   1      35.973  29.913  28.702  1.00  0.00     0.000 A 
ENDBRANCH  54  68
BRANCH  55  74
ATOM     74  C   UNL A   1      48.260  26.539  29.519  1.00  0.00    -0.014 A 
ATOM     75  C   UNL A   1      49.130  26.871  28.469  1.00  0.00     0.009 A 
ATOM     76  C   UNL A   1      48.763  25.834  30.623  1.00  0.00     0.009 A 
ATOM     77  C   UNL A   1      50.470  26.486  28.513  1.00  0.00     0.001 A 
ATOM     78  C   UNL A   1      50.111  25.471  30.674  1.00  0.00     0.001 A 
ATOM     79  C   UNL A   1      50.960  25.789  29.616  1.00  0.00     0.000 A 
ENDBRANCH  55  74
BRANCH  67  80
ATOM     80  C   UNL A   1      44.806  32.333  31.196  1.00  0.00    -0.014 A 
ATOM     81  C   UNL A   1      45.170  33.413  30.376  1.00  0.00     0.009 A 
ATOM     82  C   UNL A   1      44.819  32.497  32.590  1.00  0.00     0.009 A 
ATOM     83  C   UNL A   1      45.567  34.624  30.946  1.00  0.00     0.001 A 
ATOM     84  C   UNL A   1      45.194  33.716  33.154  1.00  0.00     0.001 A 
ATOM     85  C   UNL A   1      45.574  34.777  32.332  1.00  0.00     0.000 A 
ENDBRANCH  67  80
ENDBRANCH  41  42
ENDBRANCH  33  36
ENDBRANCH  31  32
ENDBRANCH  30  31
ENDBRANCH   1  30
TORSDOF 15
ENDMDL
MODEL 2
REMARK VINA RESULT:     -12.0      2.123      7.660
REMARK SMILES C[C@@]1(C(=O)c2ccccc2N)[C@H](C(=O)NCCCCNC(=O)c2ccc(-c3c4nc(c(-c5ccccc5)c5ccc([nH]5)c(-c5ccccc5)c5nc(c(-c6ccccc6)c6ccc3[nH]6)C=C5)C=C4)cc2)[C@@H]1C(=O)N1CCOCC1
REMARK SMILES IDX 17 1 16 2 15 3 13 4 14 5 12 7 1 8 2 9 71 10 3 11 4 12 5 13
REMARK SMILES IDX 6 14 10 15 7 16 9 17 8 18 11 19 72 22 73 23 74 24 75 25
REMARK SMILES IDX 79 26 76 27 78 28 77 29 18 30 19 31 20 32 21 33 22 35 23 36
REMARK SMILES IDX 24 37 70 38 25 39 69 40 26 41 27 42 28 43 63 44 29 45 68 46
REMARK SMILES IDX 62 47 64 48 30 49 67 50 61 51 60 52 31 54 53 55 38 56 52 57
REMARK SMILES IDX 39 58 42 59 51 60 65 61 40 62 41 63 50 65 66 66 43 67 32 68
REMARK SMILES IDX 33 69 37 70 34 71 36 72 35 73 54 74 55 75 59 76 56 77 58 78
REMARK SMILES IDX 57 79 44 80 45 81 49 82 46 83 48 84 47 85
REMARK H PARENT 15 6 11 20 11 21 20 34 64 53 42 64
REMARK Flexibility Score: inf
ROOT
ATOM      1  C   UNL A   1      31.717  28.038  27.285  1.00  0.00     0.023 C 
ENDROOT
BRANCH   1   2
ATOM      2  C   UNL A   1      32.250  26.805  26.577  1.00  0.00     0.116 C 
BRANCH   2   3
ATOM      3  N   UNL A   1      31.417  25.641  26.678  1.00  0.00    -0.356 N 
ATOM      4  C   UNL A   1      31.752  24.317  26.662  1.00  0.00     0.224 C 
ATOM      5  O   UNL A   1      30.954  23.563  27.227  1.00  0.00    -0.275 OA
ATOM      6  H   UNL A   1      30.455  25.824  26.775  1.00  0.00     0.163 HD
BRANCH   4   7
ATOM      7  C   UNL A   1      32.919  23.657  26.010  1.00  0.00     0.106 C 
ATOM      8  C   UNL A   1      34.662  21.914  25.532  1.00  0.00     0.022 C 
ATOM      9  C   UNL A   1      33.240  22.408  25.211  1.00  0.00     0.056 C 
ATOM     10  C   UNL A   1      33.109  23.756  24.500  1.00  0.00     0.106 C 
BRANCH   9  11
ATOM     11  C   UNL A   1      32.310  21.251  25.015  1.00  0.00     0.172 C 
ATOM     12  O   UNL A   1      31.293  21.222  25.707  1.00  0.00    -0.293 OA
BRANCH  11  13
ATOM     13  C   UNL A   1      32.571  20.120  24.069  1.00  0.00     0.041 A 
ATOM     14  C   UNL A   1      33.120  18.964  24.669  1.00  0.00     0.014 A 
ATOM     15  C   UNL A   1      32.220  20.088  22.707  1.00  0.00     0.042 A 
ATOM     16  C   UNL A   1      33.168  17.750  23.991  1.00  0.00     0.001 A 
ATOM     17  C   UNL A   1      32.228  18.839  22.058  1.00  0.00     0.026 A 
ATOM     18  C   UNL A   1      32.688  17.681  22.692  1.00  0.00     0.002 A 
BRANCH  15  19
ATOM     19  N   UNL A   1      31.746  21.183  21.985  1.00  0.00    -0.398 N 
ATOM     20  H   UNL A   1      31.062  21.056  21.288  1.00  0.00     0.156 HD
ATOM     21  H   UNL A   1      32.093  22.085  22.173  1.00  0.00     0.156 HD
ENDBRANCH  15  19
ENDBRANCH  11  13
ENDBRANCH   9  11
BRANCH  10  22
ATOM     22  C   UNL A   1      31.942  24.287  23.731  1.00  0.00     0.227 C 
ATOM     23  O   UNL A   1      30.887  23.673  23.686  1.00  0.00    -0.275 OA
ATOM     24  N   UNL A   1      32.045  25.565  23.205  1.00  0.00    -0.338 N 
ATOM     25  C   UNL A   1      33.268  26.228  22.752  1.00  0.00     0.148 C 
ATOM     26  C   UNL A   1      30.819  26.303  22.901  1.00  0.00     0.148 C 
ATOM     27  C   UNL A   1      33.299  27.697  23.181  1.00  0.00     0.181 C 
ATOM     28  C   UNL A   1      30.948  27.753  23.378  1.00  0.00     0.181 C 
ATOM     29  O   UNL A   1      32.098  28.382  22.789  1.00  0.00    -0.378 OA
ENDBRANCH  10  22
ENDBRANCH   4   7
ENDBRANCH   2   3
ENDBRANCH   1   2
BRANCH   1  30
ATOM     30  C   UNL A   1      32.245  29.359  26.741  1.00  0.00     0.023 C 
BRANCH  30  31
ATOM     31  C   UNL A   1      33.661  29.729  27.174  1.00  0.00     0.116 C 
BRANCH  31  32
ATOM     32  N   UNL A   1      33.730  30.901  28.040  1.00  0.00    -0.352 N 
ATOM     33  C   UNL A   1      34.747  31.315  28.867  1.00  0.00     0.251 C 
ATOM     34  H   UNL A   1      32.934  31.479  28.031  1.00  0.00     0.163 HD
ATOM     35  O   UNL A   1      34.608  32.288  29.600  1.00  0.00    -0.269 OA
BRANCH  33  36
ATOM     36  C   UNL A   1      36.004  30.542  28.897  1.00  0.00     0.039 A 
ATOM     37  C   UNL A   1      36.865  30.609  27.800  1.00  0.00     0.014 A 
ATOM     38  C   UNL A   1      36.360  29.818  30.037  1.00  0.00     0.014 A 
ATOM     39  C   UNL A   1      38.133  30.033  27.887  1.00  0.00     0.010 A 
ATOM     40  C   UNL A   1      37.651  29.318  30.154  1.00  0.00     0.010 A 
ATOM     41  C   UNL A   1      38.554  29.431  29.085  1.00  0.00    -0.014 A 
BRANCH  41  42
ATOM     42  C   UNL A   1      39.940  28.931  29.253  1.00  0.00     0.031 A 
ATOM     43  C   UNL A   1      41.008  29.838  29.793  1.00  0.00     0.074 A 
ATOM     44  C   UNL A   1      40.257  27.689  28.837  1.00  0.00     0.049 A 
ATOM     45  N   UNL A   1      42.291  29.617  29.923  1.00  0.00    -0.248 NA
ATOM     46  C   UNL A   1      40.583  31.184  30.212  1.00  0.00     0.031 C 
ATOM     47  C   UNL A   1      39.325  26.723  28.246  1.00  0.00     0.029 A 
ATOM     48  N   UNL A   1      41.459  27.028  28.839  1.00  0.00    -0.354 N 
ATOM     49  C   UNL A   1      42.828  30.802  30.408  1.00  0.00     0.074 A 
ATOM     50  C   UNL A   1      41.742  31.750  30.512  1.00  0.00     0.031 C 
ATOM     51  C   UNL A   1      39.984  25.585  27.975  1.00  0.00     0.029 A 
ATOM     52  C   UNL A   1      41.388  25.752  28.334  1.00  0.00     0.049 A 
ATOM     53  H   UNL A   1      42.294  27.429  29.172  1.00  0.00     0.167 HD
ATOM     54  C   UNL A   1      44.109  31.071  30.755  1.00  0.00     0.031 A 
ATOM     55  C   UNL A   1      42.348  24.822  28.174  1.00  0.00     0.031 A 
ATOM     56  C   UNL A   1      45.185  30.121  30.685  1.00  0.00     0.049 A 
ATOM     57  C   UNL A   1      43.757  25.139  28.584  1.00  0.00     0.074 A 
ATOM     58  C   UNL A   1      46.501  30.278  31.081  1.00  0.00     0.029 A 
ATOM     59  N   UNL A   1      45.064  28.832  30.191  1.00  0.00    -0.354 N 
ATOM     60  N   UNL A   1      44.237  26.245  29.099  1.00  0.00    -0.248 NA
ATOM     61  C   UNL A   1      44.755  24.076  28.398  1.00  0.00     0.031 C 
ATOM     62  C   UNL A   1      47.187  29.094  30.795  1.00  0.00     0.029 A 
ATOM     63  C   UNL A   1      46.287  28.187  30.259  1.00  0.00     0.049 A 
ATOM     64  H   UNL A   1      44.234  28.434  29.843  1.00  0.00     0.167 HD
ATOM     65  C   UNL A   1      45.586  26.002  29.322  1.00  0.00     0.074 A 
ATOM     66  C   UNL A   1      45.845  24.642  28.898  1.00  0.00     0.031 C 
ATOM     67  C   UNL A   1      46.526  26.833  29.835  1.00  0.00     0.031 A 
BRANCH  54  68
ATOM     68  C   UNL A   1      44.411  32.458  31.242  1.00  0.00    -0.014 A 
ATOM     69  C   UNL A   1      44.326  32.782  32.606  1.00  0.00     0.009 A 
ATOM     70  C   UNL A   1      44.807  33.448  30.330  1.00  0.00     0.009 A 
ATOM     71  C   UNL A   1      44.597  34.080  33.041  1.00  0.00     0.001 A 
ATOM     72  C   UNL A   1      45.104  34.739  30.772  1.00  0.00     0.001 A 
ATOM     73  C   UNL A   1      44.989  35.056  32.126  1.00  0.00     0.000 A 
ENDBRANCH  54  68
BRANCH  55  74
ATOM     74  C   UNL A   1      42.005  23.486  27.624  1.00  0.00    -0.014 A 
ATOM     75  C   UNL A   1      42.131  23.236  26.249  1.00  0.00     0.009 A 
ATOM     76  C   UNL A   1      41.545  22.460  28.463  1.00  0.00     0.009 A 
ATOM     77  C   UNL A   1      41.782  21.992  25.721  1.00  0.00     0.001 A 
ATOM     78  C   UNL A   1      41.218  21.209  27.935  1.00  0.00     0.001 A 
ATOM     79  C   UNL A   1      41.329  20.979  26.565  1.00  0.00     0.000 A 
ENDBRANCH  55  74
BRANCH  67  80
ATOM     80  C   UNL A   1      47.911  26.280  29.997  1.00  0.00    -0.014 A 
ATOM     81  C   UNL A   1      48.837  26.322  28.943  1.00  0.00     0.009 A 
ATOM     82  C   UNL A   1      48.306  25.749  31.234  1.00  0.00     0.009 A 
ATOM     83  C   UNL A   1      50.125  25.816  29.120  1.00  0.00     0.001 A 
ATOM     84  C   UNL A   1      49.602  25.265  31.414  1.00  0.00     0.001 A 
ATOM     85  C   UNL A   1      50.508  25.292  30.354  1.00  0.00     0.000 A 
ENDBRANCH  67  80
ENDBRANCH  41  42
ENDBRANCH  33  36
ENDBRANCH  31  32
ENDBRANCH  30  31
ENDBRANCH   1  30
TORSDOF 15
ENDMDL
MODEL 3
REMARK VINA RESULT:     -11.9      3.095      8.486
REMARK SMILES C[C@@]1(C(=O)c2ccccc2N)[C@H](C(=O)NCCCCNC(=O)c2ccc(-c3c4nc(c(-c5ccccc5)c5ccc([nH]5)c(-c5ccccc5)c5nc(c(-c6ccccc6)c6ccc3[nH]6)C=C5)C=C4)cc2)[C@@H]1C(=O)N1CCOCC1
REMARK SMILES IDX 17 1 16 2 15 3 13 4 14 5 12 7 1 8 2 9 71 10 3 11 4 12 5 13
REMARK SMILES IDX 6 14 10 15 7 16 9 17 8 18 11 19 72 22 73 23 74 24 75 25
REMARK SMILES IDX 79 26 76 27 78 28 77 29 18 30 19 31 20 32 21 33 22 35 23 36
REMARK SMILES IDX 24 37 70 38 25 39 69 40 26 41 27 42 28 43 63 44 29 45 68 46
REMARK SMILES IDX 62 47 64 48 30 49 67 50 61 51 60 52 31 54 53 55 38 56 52 57
REMARK SMILES IDX 39 58 42 59 51 60 65 61 40 62 41 63 50 65 66 66 43 67 32 68
REMARK SMILES IDX 33 69 37 70 34 71 36 72 35 73 54 74 55 75 59 76 56 77 58 78
REMARK SMILES IDX 57 79 44 80 45 81 49 82 46 83 48 84 47 85
REMARK H PARENT 15 6 11 20 11 21 20 34 64 53 42 64
REMARK Flexibility Score: inf
ROOT
ATOM      1  C   UNL A   1      31.713  28.932  27.277  1.00  0.00     0.023 C 
ENDROOT
BRANCH   1   2
ATOM      2  C   UNL A   1      32.238  27.672  26.614  1.00  0.00     0.116 C 
BRANCH   2   3
ATOM      3  N   UNL A   1      31.284  26.605  26.499  1.00  0.00    -0.356 N 
ATOM      4  C   UNL A   1      31.473  25.253  26.510  1.00  0.00     0.224 C 
ATOM      5  O   UNL A   1      30.498  24.586  26.869  1.00  0.00    -0.275 OA
ATOM      6  H   UNL A   1      30.349  26.893  26.397  1.00  0.00     0.163 HD
BRANCH   4   7
ATOM      7  C   UNL A   1      32.676  24.475  26.097  1.00  0.00     0.106 C 
ATOM      8  C   UNL A   1      34.361  22.615  26.047  1.00  0.00     0.022 C 
ATOM      9  C   UNL A   1      33.027  23.133  25.482  1.00  0.00     0.056 C 
ATOM     10  C   UNL A   1      33.072  24.401  24.627  1.00  0.00     0.106 C 
BRANCH   9  11
ATOM     11  C   UNL A   1      32.064  22.004  25.276  1.00  0.00     0.172 C 
ATOM     12  O   UNL A   1      30.968  22.091  25.829  1.00  0.00    -0.293 OA
BRANCH  11  13
ATOM     13  C   UNL A   1      32.379  20.772  24.485  1.00  0.00     0.041 A 
ATOM     14  C   UNL A   1      32.728  19.645  25.263  1.00  0.00     0.014 A 
ATOM     15  C   UNL A   1      32.248  20.633  23.092  1.00  0.00     0.042 A 
ATOM     16  C   UNL A   1      32.782  18.371  24.707  1.00  0.00     0.001 A 
ATOM     17  C   UNL A   1      32.255  19.330  22.560  1.00  0.00     0.026 A 
ATOM     18  C   UNL A   1      32.511  18.209  23.357  1.00  0.00     0.002 A 
BRANCH  15  19
ATOM     19  N   UNL A   1      31.987  21.684  22.211  1.00  0.00    -0.398 N 
ATOM     20  H   UNL A   1      32.096  21.553  21.242  1.00  0.00     0.156 HD
ATOM     21  H   UNL A   1      31.692  22.556  22.559  1.00  0.00     0.156 HD
ENDBRANCH  15  19
ENDBRANCH  11  13
ENDBRANCH   9  11
BRANCH  10  22
ATOM     22  C   UNL A   1      32.052  24.897  23.652  1.00  0.00     0.227 C 
ATOM     23  O   UNL A   1      31.022  24.272  23.449  1.00  0.00    -0.275 OA
ATOM     24  N   UNL A   1      32.240  26.157  23.109  1.00  0.00    -0.338 N 
ATOM     25  C   UNL A   1      33.520  26.815  22.849  1.00  0.00     0.148 C 
ATOM     26  C   UNL A   1      31.081  26.875  22.576  1.00  0.00     0.148 C 
ATOM     27  C   UNL A   1      33.473  28.298  23.227  1.00  0.00     0.181 C 
ATOM     28  C   UNL A   1      31.123  28.340  23.019  1.00  0.00     0.181 C 
ATOM     29  O   UNL A   1      32.355  28.959  22.613  1.00  0.00    -0.378 OA
ENDBRANCH  10  22
ENDBRANCH   4   7
ENDBRANCH   2   3
ENDBRANCH   1   2
BRANCH   1  30
ATOM     30  C   UNL A   1      31.937  30.210  26.477  1.00  0.00     0.023 C 
BRANCH  30  31
ATOM     31  C   UNL A   1      32.989  31.161  27.043  1.00  0.00     0.116 C 
BRANCH  31  32
ATOM     32  N   UNL A   1      32.486  32.501  27.327  1.00  0.00    -0.352 N 
ATOM     33  C   UNL A   1      33.056  33.507  28.070  1.00  0.00     0.251 C 
ATOM     34  H   UNL A   1      31.612  32.716  26.928  1.00  0.00     0.163 HD
ATOM     35  O   UNL A   1      32.454  34.554  28.282  1.00  0.00    -0.269 OA
BRANCH  33  36
ATOM     36  C   UNL A   1      34.395  33.294  28.654  1.00  0.00     0.039 A 
ATOM     37  C   UNL A   1      34.497  32.675  29.901  1.00  0.00     0.014 A 
ATOM     38  C   UNL A   1      35.542  33.636  27.934  1.00  0.00     0.014 A 
ATOM     39  C   UNL A   1      35.753  32.306  30.383  1.00  0.00     0.010 A 
ATOM     40  C   UNL A   1      36.783  33.193  28.375  1.00  0.00     0.010 A 
ATOM     41  C   UNL A   1      36.899  32.513  29.597  1.00  0.00    -0.014 A 
BRANCH  41  42
ATOM     42  C   UNL A   1      38.228  32.010  30.021  1.00  0.00     0.031 A 
ATOM     43  C   UNL A   1      38.742  30.702  29.491  1.00  0.00     0.074 A 
ATOM     44  C   UNL A   1      38.933  32.685  30.950  1.00  0.00     0.049 A 
ATOM     45  N   UNL A   1      39.832  30.051  29.813  1.00  0.00    -0.248 NA
ATOM     46  C   UNL A   1      37.907  30.019  28.489  1.00  0.00     0.031 C 
ATOM     47  C   UNL A   1      38.524  33.942  31.584  1.00  0.00     0.029 A 
ATOM     48  N   UNL A   1      40.143  32.400  31.531  1.00  0.00    -0.354 N 
ATOM     49  C   UNL A   1      39.795  28.873  29.079  1.00  0.00     0.074 A 
ATOM     50  C   UNL A   1      38.560  28.878  28.327  1.00  0.00     0.031 C 
ATOM     51  C   UNL A   1      39.482  34.335  32.440  1.00  0.00     0.029 A 
ATOM     52  C   UNL A   1      40.551  33.342  32.445  1.00  0.00     0.049 A 
ATOM     53  H   UNL A   1      40.671  31.599  31.312  1.00  0.00     0.167 HD
ATOM     54  C   UNL A   1      40.716  27.882  29.022  1.00  0.00     0.031 A 
ATOM     55  C   UNL A   1      41.660  33.397  33.205  1.00  0.00     0.031 A 
ATOM     56  C   UNL A   1      41.959  27.888  29.743  1.00  0.00     0.049 A 
ATOM     57  C   UNL A   1      42.675  32.295  33.109  1.00  0.00     0.074 A 
ATOM     58  C   UNL A   1      42.988  26.964  29.694  1.00  0.00     0.029 A 
ATOM     59  N   UNL A   1      42.344  28.873  30.638  1.00  0.00    -0.354 N 
ATOM     60  N   UNL A   1      42.654  31.217  32.364  1.00  0.00    -0.248 NA
ATOM     61  C   UNL A   1      43.871  32.423  33.953  1.00  0.00     0.031 C 
ATOM     62  C   UNL A   1      43.983  27.374  30.588  1.00  0.00     0.029 A 
ATOM     63  C   UNL A   1      43.589  28.572  31.161  1.00  0.00     0.049 A 
ATOM     64  H   UNL A   1      41.811  29.668  30.869  1.00  0.00     0.167 HD
ATOM     65  C   UNL A   1      43.843  30.552  32.630  1.00  0.00     0.074 A 
ATOM     66  C   UNL A   1      44.567  31.352  33.596  1.00  0.00     0.031 C 
ATOM     67  C   UNL A   1      44.296  29.382  32.118  1.00  0.00     0.031 A 
BRANCH  54  68
ATOM     68  C   UNL A   1      40.404  26.705  28.144  1.00  0.00    -0.014 A 
ATOM     69  C   UNL A   1      40.893  26.631  26.830  1.00  0.00     0.009 A 
ATOM     70  C   UNL A   1      39.631  25.646  28.645  1.00  0.00     0.009 A 
ATOM     71  C   UNL A   1      40.583  25.535  26.022  1.00  0.00     0.001 A 
ATOM     72  C   UNL A   1      39.345  24.539  27.843  1.00  0.00     0.001 A 
ATOM     73  C   UNL A   1      39.813  24.490  26.530  1.00  0.00     0.000 A 
ENDBRANCH  54  68
BRANCH  55  74
ATOM     74  C   UNL A   1      41.887  34.555  34.108  1.00  0.00    -0.014 A 
ATOM     75  C   UNL A   1      41.455  34.505  35.442  1.00  0.00     0.009 A 
ATOM     76  C   UNL A   1      42.525  35.714  33.642  1.00  0.00     0.009 A 
ATOM     77  C   UNL A   1      41.638  35.600  36.286  1.00  0.00     0.001 A 
ATOM     78  C   UNL A   1      42.727  36.801  34.496  1.00  0.00     0.001 A 
ATOM     79  C   UNL A   1      42.276  36.746  35.814  1.00  0.00     0.000 A 
ENDBRANCH  55  74
BRANCH  67  80
ATOM     80  C   UNL A   1      45.649  28.917  32.567  1.00  0.00    -0.014 A 
ATOM     81  C   UNL A   1      46.816  29.338  31.912  1.00  0.00     0.009 A 
ATOM     82  C   UNL A   1      45.758  28.081  33.689  1.00  0.00     0.009 A 
ATOM     83  C   UNL A   1      48.067  28.906  32.356  1.00  0.00     0.001 A 
ATOM     84  C   UNL A   1      47.011  27.669  34.144  1.00  0.00     0.001 A 
ATOM     85  C   UNL A   1      48.164  28.076  33.473  1.00  0.00     0.000 A 
ENDBRANCH  67  80
ENDBRANCH  41  42
ENDBRANCH  33  36
ENDBRANCH  31  32
ENDBRANCH  30  31
ENDBRANCH   1  30
TORSDOF 15
ENDMDL
