MODEL 1
REMARK VINA RESULT:     -11.9      0.000      0.000
REMARK SMILES COc1ccc(NS(=O)(=O)c2ccc(NC(=O)[C@H]3CCCC[C@@H]3C(=O)NCCCCNC(=O)c3ccc(-c4c5nc(c(-c6ccccc6)c6ccc([nH]6)c(-c6ccccc6)c6nc(c(-c7ccccc7)c7ccc4[nH]7)C=C6)C=C5)cc3)cc2)cc1
REMARK SMILES IDX 24 1 25 2 26 3 23 5 18 6 19 7 20 8 22 9 21 10 16 11 15 12
REMARK SMILES IDX 17 14 14 15 11 16 12 17 83 18 13 19 82 20 8 21 9 22 10 23
REMARK SMILES IDX 7 24 6 26 3 27 4 28 85 29 5 30 84 31 2 32 1 33 27 34 28 35
REMARK SMILES IDX 29 36 30 37 31 38 32 39 33 41 34 42 35 43 81 44 36 45 80 46
REMARK SMILES IDX 37 47 38 48 39 49 74 50 40 51 79 52 73 53 75 54 41 55 78 56
REMARK SMILES IDX 72 57 71 58 42 60 64 61 49 62 63 63 50 64 53 65 62 66 76 67
REMARK SMILES IDX 51 68 52 69 61 71 77 72 54 73 43 74 44 75 48 76 45 77 47 78
REMARK SMILES IDX 46 79 65 80 66 81 70 82 67 83 69 84 68 85 55 86 56 87 60 88
REMARK SMILES IDX 57 89 59 90 58 91
REMARK H PARENT 26 4 15 13 7 25 31 40 75 59 53 70
REMARK Flexibility Score: inf
ROOT
ATOM      1  C   UNL A   1      31.737  23.823  26.737  1.00  0.00     0.223 C 
ATOM      2  O   UNL A   1      31.319  23.071  27.617  1.00  0.00    -0.275 OA
ATOM      3  N   UNL A   1      31.047  24.996  26.497  1.00  0.00    -0.356 N 
ATOM      4  H   UNL A   1      30.243  25.123  27.050  1.00  0.00     0.163 HD
ENDROOT
BRANCH   1   5
ATOM      5  C   UNL A   1      33.026  23.523  25.970  1.00  0.00     0.091 C 
ATOM      6  C   UNL A   1      32.968  22.862  24.620  1.00  0.00     0.091 C 
ATOM      7  C   UNL A   1      32.838  21.330  24.814  1.00  0.00     0.014 C 
ATOM      8  C   UNL A   1      33.952  20.738  25.678  1.00  0.00     0.001 C 
ATOM      9  C   UNL A   1      34.161  22.977  26.834  1.00  0.00     0.014 C 
ATOM     10  C   UNL A   1      34.110  21.468  27.008  1.00  0.00     0.001 C 
BRANCH   6  11
ATOM     11  C   UNL A   1      34.129  23.252  23.638  1.00  0.00     0.228 C 
ATOM     12  N   UNL A   1      35.498  23.213  23.777  1.00  0.00    -0.326 N 
ATOM     13  H   UNL A   1      35.905  23.532  22.939  1.00  0.00     0.169 HD
ATOM     14  O   UNL A   1      33.777  23.659  22.513  1.00  0.00    -0.274 OA
BRANCH  12  15
ATOM     15  C   UNL A   1      36.542  22.882  24.691  1.00  0.00     0.041 A 
ATOM     16  C   UNL A   1      38.908  22.512  26.231  1.00  0.00     0.087 A 
ATOM     17  C   UNL A   1      38.388  21.469  25.508  1.00  0.00     0.024 A 
ATOM     18  C   UNL A   1      38.151  23.682  26.367  1.00  0.00     0.024 A 
ATOM     19  C   UNL A   1      37.189  21.665  24.832  1.00  0.00     0.027 A 
ATOM     20  C   UNL A   1      36.988  23.868  25.581  1.00  0.00     0.027 A 
BRANCH  16  21
ATOM     21  S   UNL A   1      40.477  22.281  27.003  1.00  0.00     0.261 S 
ATOM     22  O   UNL A   1      40.441  20.951  27.601  1.00  0.00    -0.201 OA
ATOM     23  O   UNL A   1      40.757  23.435  27.814  1.00  0.00    -0.201 OA
BRANCH  21  24
ATOM     24  N   UNL A   1      41.676  22.160  25.811  1.00  0.00    -0.280 N 
ATOM     25  H   UNL A   1      41.690  22.864  25.123  1.00  0.00     0.180 HD
BRANCH  24  26
ATOM     26  C   UNL A   1      42.674  21.132  25.706  1.00  0.00     0.049 A 
ATOM     27  C   UNL A   1      44.702  19.227  25.184  1.00  0.00     0.119 A 
ATOM     28  C   UNL A   1      43.412  18.828  25.525  1.00  0.00     0.048 A 
ATOM     29  C   UNL A   1      44.970  20.583  25.041  1.00  0.00     0.048 A 
ATOM     30  C   UNL A   1      42.400  19.769  25.749  1.00  0.00     0.030 A 
ATOM     31  C   UNL A   1      43.959  21.525  25.297  1.00  0.00     0.030 A 
BRANCH  27  32
ATOM     32  O   UNL A   1      45.582  18.211  24.943  1.00  0.00    -0.497 OA
ATOM     33  C   UNL A   1      46.754  18.195  25.750  1.00  0.00     0.278 C 
ENDBRANCH  27  32
ENDBRANCH  24  26
ENDBRANCH  21  24
ENDBRANCH  16  21
ENDBRANCH  12  15
ENDBRANCH   6  11
ENDBRANCH   1   5
BRANCH   3  34
ATOM     34  C   UNL A   1      31.321  26.077  25.555  1.00  0.00     0.116 C 
BRANCH  34  35
ATOM     35  C   UNL A   1      32.100  27.268  26.101  1.00  0.00     0.023 C 
BRANCH  35  36
ATOM     36  C   UNL A   1      33.588  27.280  25.768  1.00  0.00     0.023 C 
BRANCH  36  37
ATOM     37  C   UNL A   1      34.195  28.651  25.465  1.00  0.00     0.116 C 
BRANCH  37  38
ATOM     38  N   UNL A   1      33.350  29.768  25.869  1.00  0.00    -0.352 N 
ATOM     39  C   UNL A   1      33.507  30.677  26.892  1.00  0.00     0.251 C 
ATOM     40  H   UNL A   1      32.538  29.892  25.324  1.00  0.00     0.163 HD
ATOM     41  O   UNL A   1      32.605  31.466  27.157  1.00  0.00    -0.269 OA
BRANCH  39  42
ATOM     42  C   UNL A   1      34.744  30.679  27.705  1.00  0.00     0.039 A 
ATOM     43  C   UNL A   1      35.059  29.547  28.463  1.00  0.00     0.014 A 
ATOM     44  C   UNL A   1      35.598  31.783  27.714  1.00  0.00     0.014 A 
ATOM     45  C   UNL A   1      36.278  29.485  29.143  1.00  0.00     0.010 A 
ATOM     46  C   UNL A   1      36.852  31.683  28.313  1.00  0.00     0.010 A 
ATOM     47  C   UNL A   1      37.210  30.531  29.029  1.00  0.00    -0.014 A 
BRANCH  47  48
ATOM     48  C   UNL A   1      38.565  30.431  29.636  1.00  0.00     0.031 A 
ATOM     49  C   UNL A   1      38.899  31.200  30.884  1.00  0.00     0.074 A 
ATOM     50  C   UNL A   1      39.519  29.701  29.022  1.00  0.00     0.049 A 
ATOM     51  N   UNL A   1      40.040  31.283  31.524  1.00  0.00    -0.248 NA
ATOM     52  C   UNL A   1      37.819  32.002  31.482  1.00  0.00     0.031 C 
ATOM     53  C   UNL A   1      39.343  28.939  27.784  1.00  0.00     0.029 A 
ATOM     54  N   UNL A   1      40.834  29.486  29.357  1.00  0.00    -0.354 N 
ATOM     55  C   UNL A   1      39.819  32.155  32.581  1.00  0.00     0.074 A 
ATOM     56  C   UNL A   1      38.453  32.618  32.469  1.00  0.00     0.031 C 
ATOM     57  C   UNL A   1      40.492  28.312  27.485  1.00  0.00     0.029 A 
ATOM     58  C   UNL A   1      41.501  28.666  28.477  1.00  0.00     0.049 A 
ATOM     59  H   UNL A   1      41.259  29.880  30.152  1.00  0.00     0.167 HD
ATOM     60  C   UNL A   1      40.667  32.526  33.570  1.00  0.00     0.031 A 
ATOM     61  C   UNL A   1      42.783  28.252  28.463  1.00  0.00     0.031 A 
ATOM     62  C   UNL A   1      42.025  32.062  33.689  1.00  0.00     0.049 A 
ATOM     63  C   UNL A   1      43.712  28.701  29.557  1.00  0.00     0.074 A 
ATOM     64  C   UNL A   1      42.943  32.333  34.688  1.00  0.00     0.029 A 
ATOM     65  N   UNL A   1      42.661  31.237  32.774  1.00  0.00    -0.354 N 
ATOM     66  N   UNL A   1      43.464  29.465  30.593  1.00  0.00    -0.248 NA
ATOM     67  C   UNL A   1      45.100  28.219  29.485  1.00  0.00     0.031 C 
ATOM     68  C   UNL A   1      44.154  31.726  34.345  1.00  0.00     0.029 A 
ATOM     69  C   UNL A   1      43.970  31.017  33.169  1.00  0.00     0.049 A 
ATOM     70  H   UNL A   1      42.244  30.863  31.965  1.00  0.00     0.167 HD
ATOM     71  C   UNL A   1      44.651  29.529  31.311  1.00  0.00     0.074 A 
ATOM     72  C   UNL A   1      45.614  28.712  30.602  1.00  0.00     0.031 C 
ATOM     73  C   UNL A   1      44.919  30.202  32.456  1.00  0.00     0.031 A 
BRANCH  60  74
ATOM     74  C   UNL A   1      40.153  33.494  34.602  1.00  0.00    -0.014 A 
ATOM     75  C   UNL A   1      39.407  33.057  35.707  1.00  0.00     0.009 A 
ATOM     76  C   UNL A   1      40.456  34.861  34.486  1.00  0.00     0.009 A 
ATOM     77  C   UNL A   1      38.941  33.973  36.654  1.00  0.00     0.001 A 
ATOM     78  C   UNL A   1      40.018  35.769  35.451  1.00  0.00     0.001 A 
ATOM     79  C   UNL A   1      39.252  35.326  36.528  1.00  0.00     0.000 A 
ENDBRANCH  60  74
BRANCH  61  80
ATOM     80  C   UNL A   1      43.269  27.353  27.382  1.00  0.00    -0.014 A 
ATOM     81  C   UNL A   1      43.142  25.960  27.501  1.00  0.00     0.009 A 
ATOM     82  C   UNL A   1      43.882  27.880  26.234  1.00  0.00     0.009 A 
ATOM     83  C   UNL A   1      43.649  25.114  26.511  1.00  0.00     0.001 A 
ATOM     84  C   UNL A   1      44.356  27.034  25.230  1.00  0.00     0.001 A 
ATOM     85  C   UNL A   1      44.251  25.652  25.375  1.00  0.00     0.000 A 
ENDBRANCH  61  80
BRANCH  73  86
ATOM     86  C   UNL A   1      46.297  30.051  33.041  1.00  0.00    -0.014 A 
ATOM     87  C   UNL A   1      47.333  30.940  32.718  1.00  0.00     0.009 A 
ATOM     88  C   UNL A   1      46.548  29.021  33.962  1.00  0.00     0.009 A 
ATOM     89  C   UNL A   1      48.603  30.778  33.279  1.00  0.00     0.001 A 
ATOM     90  C   UNL A   1      47.807  28.883  34.547  1.00  0.00     0.001 A 
ATOM     91  C   UNL A   1      48.836  29.754  34.197  1.00  0.00     0.000 A 
ENDBRANCH  73  86
ENDBRANCH  47  48
ENDBRANCH  39  42
ENDBRANCH  37  38
ENDBRANCH  36  37
ENDBRANCH  35  36
ENDBRANCH  34  35
ENDBRANCH   3  34
TORSDOF 17
ENDMDL
MODEL 2
REMARK VINA RESULT:     -11.8      3.302      7.432
REMARK SMILES COc1ccc(NS(=O)(=O)c2ccc(NC(=O)[C@H]3CCCC[C@@H]3C(=O)NCCCCNC(=O)c3ccc(-c4c5nc(c(-c6ccccc6)c6ccc([nH]6)c(-c6ccccc6)c6nc(c(-c7ccccc7)c7ccc4[nH]7)C=C6)C=C5)cc3)cc2)cc1
REMARK SMILES IDX 24 1 25 2 26 3 23 5 18 6 19 7 20 8 22 9 21 10 16 11 15 12
REMARK SMILES IDX 17 14 14 15 11 16 12 17 83 18 13 19 82 20 8 21 9 22 10 23
REMARK SMILES IDX 7 24 6 26 3 27 4 28 85 29 5 30 84 31 2 32 1 33 27 34 28 35
REMARK SMILES IDX 29 36 30 37 31 38 32 39 33 41 34 42 35 43 81 44 36 45 80 46
REMARK SMILES IDX 37 47 38 48 39 49 74 50 40 51 79 52 73 53 75 54 41 55 78 56
REMARK SMILES IDX 72 57 71 58 42 60 64 61 49 62 63 63 50 64 53 65 62 66 76 67
REMARK SMILES IDX 51 68 52 69 61 71 77 72 54 73 43 74 44 75 48 76 45 77 47 78
REMARK SMILES IDX 46 79 65 80 66 81 70 82 67 83 69 84 68 85 55 86 56 87 60 88
REMARK SMILES IDX 57 89 59 90 58 91
REMARK H PARENT 26 4 15 13 7 25 31 40 75 59 53 70
REMARK Flexibility Score: inf
ROOT
ATOM      1  C   UNL A   1      33.126  28.934  24.027  1.00  0.00     0.223 C 
ATOM      2  O   UNL A   1      33.508  29.274  22.908  1.00  0.00    -0.275 OA
ATOM      3  N   UNL A   1      34.034  28.977  25.069  1.00  0.00    -0.356 N 
ATOM      4  H   UNL A   1      34.941  29.261  24.815  1.00  0.00     0.163 HD
ENDROOT
BRANCH   1   5
ATOM      5  C   UNL A   1      31.672  28.543  24.295  1.00  0.00     0.091 C 
ATOM      6  C   UNL A   1      30.846  27.906  23.211  1.00  0.00     0.091 C 
ATOM      7  C   UNL A   1      30.280  29.016  22.290  1.00  0.00     0.014 C 
ATOM      8  C   UNL A   1      29.482  30.076  23.048  1.00  0.00     0.001 C 
ATOM      9  C   UNL A   1      30.880  29.576  25.095  1.00  0.00     0.014 C 
ATOM     10  C   UNL A   1      30.256  30.657  24.228  1.00  0.00     0.001 C 
BRANCH   6  11
ATOM     11  C   UNL A   1      29.739  26.914  23.716  1.00  0.00     0.228 C 
ATOM     12  N   UNL A   1      29.820  25.700  24.358  1.00  0.00    -0.326 N 
ATOM     13  H   UNL A   1      28.906  25.373  24.524  1.00  0.00     0.169 HD
ATOM     14  O   UNL A   1      28.560  27.275  23.528  1.00  0.00    -0.274 OA
BRANCH  12  15
ATOM     15  C   UNL A   1      30.744  24.741  24.871  1.00  0.00     0.041 A 
ATOM     16  C   UNL A   1      32.933  23.117  25.691  1.00  0.00     0.087 A 
ATOM     17  C   UNL A   1      32.054  22.658  24.743  1.00  0.00     0.024 A 
ATOM     18  C   UNL A   1      32.620  24.288  26.392  1.00  0.00     0.024 A 
ATOM     19  C   UNL A   1      30.954  23.446  24.426  1.00  0.00     0.027 A 
ATOM     20  C   UNL A   1      31.543  25.102  25.963  1.00  0.00     0.027 A 
BRANCH  16  21
ATOM     21  S   UNL A   1      34.375  22.154  26.014  1.00  0.00     0.261 S 
ATOM     22  O   UNL A   1      34.061  21.332  27.178  1.00  0.00    -0.201 OA
ATOM     23  O   UNL A   1      35.512  23.034  26.032  1.00  0.00    -0.201 OA
BRANCH  21  24
ATOM     24  N   UNL A   1      34.589  21.028  24.765  1.00  0.00    -0.280 N 
ATOM     25  H   UNL A   1      35.058  21.344  23.958  1.00  0.00     0.180 HD
BRANCH  24  26
ATOM     26  C   UNL A   1      34.155  19.659  24.767  1.00  0.00     0.049 A 
ATOM     27  C   UNL A   1      33.488  16.922  24.487  1.00  0.00     0.119 A 
ATOM     28  C   UNL A   1      32.499  17.902  24.526  1.00  0.00     0.048 A 
ATOM     29  C   UNL A   1      34.821  17.311  24.525  1.00  0.00     0.048 A 
ATOM     30  C   UNL A   1      32.831  19.258  24.629  1.00  0.00     0.030 A 
ATOM     31  C   UNL A   1      35.148  18.671  24.660  1.00  0.00     0.030 A 
BRANCH  27  32
ATOM     32  O   UNL A   1      33.035  15.643  24.334  1.00  0.00    -0.497 OA
ATOM     33  C   UNL A   1      32.918  14.874  25.526  1.00  0.00     0.278 C 
ENDBRANCH  27  32
ENDBRANCH  24  26
ENDBRANCH  21  24
ENDBRANCH  16  21
ENDBRANCH  12  15
ENDBRANCH   6  11
ENDBRANCH   1   5
BRANCH   3  34
ATOM     34  C   UNL A   1      33.861  28.669  26.485  1.00  0.00     0.116 C 
BRANCH  34  35
ATOM     35  C   UNL A   1      34.114  29.811  27.462  1.00  0.00     0.023 C 
BRANCH  35  36
ATOM     36  C   UNL A   1      32.991  30.838  27.568  1.00  0.00     0.023 C 
BRANCH  36  37
ATOM     37  C   UNL A   1      33.259  32.193  26.910  1.00  0.00     0.116 C 
BRANCH  37  38
ATOM     38  N   UNL A   1      32.741  33.325  27.667  1.00  0.00    -0.352 N 
ATOM     39  C   UNL A   1      33.260  33.970  28.769  1.00  0.00     0.251 C 
ATOM     40  H   UNL A   1      31.885  33.687  27.339  1.00  0.00     0.163 HD
ATOM     41  O   UNL A   1      32.597  34.823  29.350  1.00  0.00    -0.269 OA
BRANCH  39  42
ATOM     42  C   UNL A   1      34.600  33.607  29.283  1.00  0.00     0.039 A 
ATOM     43  C   UNL A   1      34.694  32.793  30.415  1.00  0.00     0.014 A 
ATOM     44  C   UNL A   1      35.760  34.054  28.648  1.00  0.00     0.014 A 
ATOM     45  C   UNL A   1      35.946  32.346  30.846  1.00  0.00     0.010 A 
ATOM     46  C   UNL A   1      36.997  33.533  29.020  1.00  0.00     0.010 A 
ATOM     47  C   UNL A   1      37.105  32.667  30.119  1.00  0.00    -0.014 A 
BRANCH  47  48
ATOM     48  C   UNL A   1      38.430  32.096  30.481  1.00  0.00     0.031 A 
ATOM     49  C   UNL A   1      38.890  30.797  29.877  1.00  0.00     0.074 A 
ATOM     50  C   UNL A   1      39.191  32.711  31.410  1.00  0.00     0.049 A 
ATOM     51  N   UNL A   1      39.985  30.118  30.115  1.00  0.00    -0.248 NA
ATOM     52  C   UNL A   1      37.995  30.165  28.895  1.00  0.00     0.031 C 
ATOM     53  C   UNL A   1      38.847  33.953  32.105  1.00  0.00     0.029 A 
ATOM     54  N   UNL A   1      40.414  32.368  31.933  1.00  0.00    -0.354 N 
ATOM     55  C   UNL A   1      39.899  28.976  29.330  1.00  0.00     0.074 A 
ATOM     56  C   UNL A   1      38.623  29.025  28.650  1.00  0.00     0.031 C 
ATOM     57  C   UNL A   1      39.849  34.286  32.934  1.00  0.00     0.029 A 
ATOM     58  C   UNL A   1      40.883  33.259  32.870  1.00  0.00     0.049 A 
ATOM     59  H   UNL A   1      40.909  31.562  31.663  1.00  0.00     0.167 HD
ATOM     60  C   UNL A   1      40.806  27.982  29.172  1.00  0.00     0.031 A 
ATOM     61  C   UNL A   1      42.013  33.248  33.603  1.00  0.00     0.031 A 
ATOM     62  C   UNL A   1      42.079  27.933  29.842  1.00  0.00     0.049 A 
ATOM     63  C   UNL A   1      42.991  32.118  33.429  1.00  0.00     0.074 A 
ATOM     64  C   UNL A   1      43.091  26.999  29.701  1.00  0.00     0.029 A 
ATOM     65  N   UNL A   1      42.512  28.853  30.784  1.00  0.00    -0.354 N 
ATOM     66  N   UNL A   1      42.928  31.086  32.624  1.00  0.00    -0.248 NA
ATOM     67  C   UNL A   1      44.203  32.160  34.260  1.00  0.00     0.031 C 
ATOM     68  C   UNL A   1      44.108  27.318  30.605  1.00  0.00     0.029 A 
ATOM     69  C   UNL A   1      43.762  28.490  31.258  1.00  0.00     0.049 A 
ATOM     70  H   UNL A   1      42.007  29.647  31.073  1.00  0.00     0.167 HD
ATOM     71  C   UNL A   1      44.104  30.374  32.827  1.00  0.00     0.074 A 
ATOM     72  C   UNL A   1      44.868  31.102  33.818  1.00  0.00     0.031 C 
ATOM     73  C   UNL A   1      44.514  29.222  32.243  1.00  0.00     0.031 A 
BRANCH  60  74
ATOM     74  C   UNL A   1      40.448  26.854  28.242  1.00  0.00    -0.014 A 
ATOM     75  C   UNL A   1      40.925  26.814  26.922  1.00  0.00     0.009 A 
ATOM     76  C   UNL A   1      39.653  25.794  28.708  1.00  0.00     0.009 A 
ATOM     77  C   UNL A   1      40.580  25.757  26.077  1.00  0.00     0.001 A 
ATOM     78  C   UNL A   1      39.339  24.722  27.871  1.00  0.00     0.001 A 
ATOM     79  C   UNL A   1      39.794  24.709  26.553  1.00  0.00     0.000 A 
ENDBRANCH  60  74
BRANCH  61  80
ATOM     80  C   UNL A   1      42.294  34.347  34.566  1.00  0.00    -0.014 A 
ATOM     81  C   UNL A   1      41.883  34.247  35.904  1.00  0.00     0.009 A 
ATOM     82  C   UNL A   1      42.957  35.512  34.148  1.00  0.00     0.009 A 
ATOM     83  C   UNL A   1      42.098  35.302  36.794  1.00  0.00     0.001 A 
ATOM     84  C   UNL A   1      43.201  36.551  35.048  1.00  0.00     0.001 A 
ATOM     85  C   UNL A   1      42.761  36.451  36.366  1.00  0.00     0.000 A 
ENDBRANCH  61  80
BRANCH  73  86
ATOM     86  C   UNL A   1      45.871  28.697  32.628  1.00  0.00    -0.014 A 
ATOM     87  C   UNL A   1      46.033  27.782  33.679  1.00  0.00     0.009 A 
ATOM     88  C   UNL A   1      47.000  29.098  31.896  1.00  0.00     0.009 A 
ATOM     89  C   UNL A   1      47.304  27.308  34.012  1.00  0.00     0.001 A 
ATOM     90  C   UNL A   1      48.264  28.596  32.208  1.00  0.00     0.001 A 
ATOM     91  C   UNL A   1      48.416  27.711  33.273  1.00  0.00     0.000 A 
ENDBRANCH  73  86
ENDBRANCH  47  48
ENDBRANCH  39  42
ENDBRANCH  37  38
ENDBRANCH  36  37
ENDBRANCH  35  36
ENDBRANCH  34  35
ENDBRANCH   3  34
TORSDOF 17
ENDMDL
MODEL 3
REMARK VINA RESULT:     -11.8      3.359      5.490
REMARK SMILES COc1ccc(NS(=O)(=O)c2ccc(NC(=O)[C@H]3CCCC[C@@H]3C(=O)NCCCCNC(=O)c3ccc(-c4c5nc(c(-c6ccccc6)c6ccc([nH]6)c(-c6ccccc6)c6nc(c(-c7ccccc7)c7ccc4[nH]7)C=C6)C=C5)cc3)cc2)cc1
REMARK SMILES IDX 24 1 25 2 26 3 23 5 18 6 19 7 20 8 22 9 21 10 16 11 15 12
REMARK SMILES IDX 17 14 14 15 11 16 12 17 83 18 13 19 82 20 8 21 9 22 10 23
REMARK SMILES IDX 7 24 6 26 3 27 4 28 85 29 5 30 84 31 2 32 1 33 27 34 28 35
REMARK SMILES IDX 29 36 30 37 31 38 32 39 33 41 34 42 35 43 81 44 36 45 80 46
REMARK SMILES IDX 37 47 38 48 39 49 74 50 40 51 79 52 73 53 75 54 41 55 78 56
REMARK SMILES IDX 72 57 71 58 42 60 64 61 49 62 63 63 50 64 53 65 62 66 76 67
REMARK SMILES IDX 51 68 52 69 61 71 77 72 54 73 43 74 44 75 48 76 45 77 47 78
REMARK SMILES IDX 46 79 65 80 66 81 70 82 67 83 69 84 68 85 55 86 56 87 60 88
REMARK SMILES IDX 57 89 59 90 58 91
REMARK H PARENT 26 4 15 13 7 25 31 40 75 59 53 70
REMARK Flexibility Score: inf
ROOT
ATOM      1  C   UNL A   1      33.156  28.760  24.004  1.00  0.00     0.223 C 
ATOM      2  O   UNL A   1      33.590  28.871  22.858  1.00  0.00    -0.275 OA
ATOM      3  N   UNL A   1      34.019  29.004  25.057  1.00  0.00    -0.356 N 
ATOM      4  H   UNL A   1      34.940  29.228  24.792  1.00  0.00     0.163 HD
ENDROOT
BRANCH   1   5
ATOM      5  C   UNL A   1      31.686  28.438  24.279  1.00  0.00     0.091 C 
ATOM      6  C   UNL A   1      30.806  27.918  23.175  1.00  0.00     0.091 C 
ATOM      7  C   UNL A   1      30.290  29.114  22.337  1.00  0.00     0.014 C 
ATOM      8  C   UNL A   1      29.568  30.169  23.175  1.00  0.00     0.001 C 
ATOM      9  C   UNL A   1      30.970  29.462  25.157  1.00  0.00     0.014 C 
ATOM     10  C   UNL A   1      30.395  30.629  24.371  1.00  0.00     0.001 C 
BRANCH   6  11
ATOM     11  C   UNL A   1      29.652  26.962  23.642  1.00  0.00     0.228 C 
ATOM     12  N   UNL A   1      29.674  25.719  24.233  1.00  0.00    -0.326 N 
ATOM     13  H   UNL A   1      28.745  25.431  24.388  1.00  0.00     0.169 HD
ATOM     14  O   UNL A   1      28.491  27.387  23.473  1.00  0.00    -0.274 OA
BRANCH  12  15
ATOM     15  C   UNL A   1      30.550  24.695  24.703  1.00  0.00     0.041 A 
ATOM     16  C   UNL A   1      32.637  23.012  25.658  1.00  0.00     0.087 A 
ATOM     17  C   UNL A   1      32.152  22.850  24.385  1.00  0.00     0.024 A 
ATOM     18  C   UNL A   1      31.955  23.861  26.538  1.00  0.00     0.024 A 
ATOM     19  C   UNL A   1      31.080  23.639  23.982  1.00  0.00     0.027 A 
ATOM     20  C   UNL A   1      30.933  24.712  26.050  1.00  0.00     0.027 A 
BRANCH  16  21
ATOM     21  S   UNL A   1      34.058  22.077  26.125  1.00  0.00     0.261 S 
ATOM     22  O   UNL A   1      33.597  21.102  27.107  1.00  0.00    -0.201 OA
ATOM     23  O   UNL A   1      35.116  22.993  26.452  1.00  0.00    -0.201 OA
BRANCH  21  24
ATOM     24  N   UNL A   1      34.560  21.127  24.812  1.00  0.00    -0.280 N 
ATOM     25  H   UNL A   1      35.126  21.567  24.138  1.00  0.00     0.180 HD
BRANCH  24  26
ATOM     26  C   UNL A   1      34.240  19.745  24.588  1.00  0.00     0.049 A 
ATOM     27  C   UNL A   1      33.406  17.045  24.422  1.00  0.00     0.119 A 
ATOM     28  C   UNL A   1      34.754  17.374  24.538  1.00  0.00     0.048 A 
ATOM     29  C   UNL A   1      32.460  18.063  24.450  1.00  0.00     0.048 A 
ATOM     30  C   UNL A   1      35.164  18.708  24.656  1.00  0.00     0.030 A 
ATOM     31  C   UNL A   1      32.878  19.402  24.537  1.00  0.00     0.030 A 
BRANCH  27  32
ATOM     32  O   UNL A   1      33.135  15.708  24.365  1.00  0.00    -0.497 OA
ATOM     33  C   UNL A   1      32.553  15.137  25.532  1.00  0.00     0.278 C 
ENDBRANCH  27  32
ENDBRANCH  24  26
ENDBRANCH  21  24
ENDBRANCH  16  21
ENDBRANCH  12  15
ENDBRANCH   6  11
ENDBRANCH   1   5
BRANCH   3  34
ATOM     34  C   UNL A   1      33.781  28.982  26.497  1.00  0.00     0.116 C 
BRANCH  34  35
ATOM     35  C   UNL A   1      34.216  30.220  27.272  1.00  0.00     0.023 C 
BRANCH  35  36
ATOM     36  C   UNL A   1      33.092  31.181  27.649  1.00  0.00     0.023 C 
BRANCH  36  37
ATOM     37  C   UNL A   1      33.006  32.465  26.822  1.00  0.00     0.116 C 
BRANCH  37  38
ATOM     38  N   UNL A   1      32.562  33.625  27.585  1.00  0.00    -0.352 N 
ATOM     39  C   UNL A   1      33.136  34.247  28.672  1.00  0.00     0.251 C 
ATOM     40  H   UNL A   1      31.717  34.027  27.275  1.00  0.00     0.163 HD
ATOM     41  O   UNL A   1      32.530  35.134  29.264  1.00  0.00    -0.269 OA
BRANCH  39  42
ATOM     42  C   UNL A   1      34.468  33.821  29.158  1.00  0.00     0.039 A 
ATOM     43  C   UNL A   1      34.553  33.079  30.340  1.00  0.00     0.014 A 
ATOM     44  C   UNL A   1      35.628  34.136  28.449  1.00  0.00     0.014 A 
ATOM     45  C   UNL A   1      35.788  32.570  30.752  1.00  0.00     0.010 A 
ATOM     46  C   UNL A   1      36.840  33.550  28.808  1.00  0.00     0.010 A 
ATOM     47  C   UNL A   1      36.933  32.755  29.960  1.00  0.00    -0.014 A 
BRANCH  47  48
ATOM     48  C   UNL A   1      38.228  32.112  30.309  1.00  0.00     0.031 A 
ATOM     49  C   UNL A   1      39.204  32.809  31.219  1.00  0.00     0.074 A 
ATOM     50  C   UNL A   1      38.560  30.929  29.751  1.00  0.00     0.049 A 
ATOM     51  N   UNL A   1      40.403  32.432  31.589  1.00  0.00    -0.248 NA
ATOM     52  C   UNL A   1      38.791  34.111  31.766  1.00  0.00     0.031 C 
ATOM     53  C   UNL A   1      37.727  30.165  28.821  1.00  0.00     0.029 A 
ATOM     54  N   UNL A   1      39.694  30.164  29.883  1.00  0.00    -0.354 N 
ATOM     55  C   UNL A   1      40.889  33.454  32.393  1.00  0.00     0.074 A 
ATOM     56  C   UNL A   1      39.881  34.492  32.414  1.00  0.00     0.031 C 
ATOM     57  C   UNL A   1      38.359  29.026  28.495  1.00  0.00     0.029 A 
ATOM     58  C   UNL A   1      39.663  29.001  29.151  1.00  0.00     0.049 A 
ATOM     59  H   UNL A   1      40.456  30.424  30.449  1.00  0.00     0.167 HD
ATOM     60  C   UNL A   1      42.061  33.520  33.070  1.00  0.00     0.031 A 
ATOM     61  C   UNL A   1      40.583  28.027  29.012  1.00  0.00     0.031 A 
ATOM     62  C   UNL A   1      43.063  32.487  33.056  1.00  0.00     0.049 A 
ATOM     63  C   UNL A   1      41.887  28.137  29.753  1.00  0.00     0.074 A 
ATOM     64  C   UNL A   1      44.255  32.434  33.757  1.00  0.00     0.029 A 
ATOM     65  N   UNL A   1      42.993  31.328  32.299  1.00  0.00    -0.354 N 
ATOM     66  N   UNL A   1      42.298  29.076  30.570  1.00  0.00    -0.248 NA
ATOM     67  C   UNL A   1      42.852  27.045  29.558  1.00  0.00     0.031 C 
ATOM     68  C   UNL A   1      44.937  31.276  33.374  1.00  0.00     0.029 A 
ATOM     69  C   UNL A   1      44.138  30.570  32.489  1.00  0.00     0.049 A 
ATOM     70  H   UNL A   1      42.243  31.079  31.713  1.00  0.00     0.167 HD
ATOM     71  C   UNL A   1      43.552  28.672  31.011  1.00  0.00     0.074 A 
ATOM     72  C   UNL A   1      43.826  27.396  30.385  1.00  0.00     0.031 C 
ATOM     73  C   UNL A   1      44.399  29.302  31.862  1.00  0.00     0.031 A 
BRANCH  60  74
ATOM     74  C   UNL A   1      42.330  34.762  33.877  1.00  0.00    -0.014 A 
ATOM     75  C   UNL A   1      42.919  35.897  33.298  1.00  0.00     0.009 A 
ATOM     76  C   UNL A   1      41.949  34.809  35.228  1.00  0.00     0.009 A 
ATOM     77  C   UNL A   1      43.157  37.039  34.066  1.00  0.00     0.001 A 
ATOM     78  C   UNL A   1      42.158  35.964  35.983  1.00  0.00     0.001 A 
ATOM     79  C   UNL A   1      42.771  37.075  35.405  1.00  0.00     0.000 A 
ENDBRANCH  60  74
BRANCH  61  80
ATOM     80  C   UNL A   1      40.305  26.850  28.145  1.00  0.00    -0.014 A 
ATOM     81  C   UNL A   1      39.588  25.750  28.642  1.00  0.00     0.009 A 
ATOM     82  C   UNL A   1      40.773  26.810  26.822  1.00  0.00     0.009 A 
ATOM     83  C   UNL A   1      39.376  24.623  27.844  1.00  0.00     0.001 A 
ATOM     84  C   UNL A   1      40.529  25.696  26.016  1.00  0.00     0.001 A 
ATOM     85  C   UNL A   1      39.842  24.599  26.531  1.00  0.00     0.000 A 
ENDBRANCH  61  80
BRANCH  73  86
ATOM     86  C   UNL A   1      45.687  28.600  32.200  1.00  0.00    -0.014 A 
ATOM     87  C   UNL A   1      45.763  27.668  33.245  1.00  0.00     0.009 A 
ATOM     88  C   UNL A   1      46.833  28.852  31.429  1.00  0.00     0.009 A 
ATOM     89  C   UNL A   1      46.971  27.029  33.535  1.00  0.00     0.001 A 
ATOM     90  C   UNL A   1      48.030  28.186  31.698  1.00  0.00     0.001 A 
ATOM     91  C   UNL A   1      48.101  27.284  32.757  1.00  0.00     0.000 A 
ENDBRANCH  73  86
ENDBRANCH  47  48
ENDBRANCH  39  42
ENDBRANCH  37  38
ENDBRANCH  36  37
ENDBRANCH  35  36
ENDBRANCH  34  35
ENDBRANCH   3  34
TORSDOF 17
ENDMDL
