MODEL 1
REMARK VINA RESULT:     -13.0      0.000      0.000
REMARK SMILES Cc1ccccc1S(=O)(=O)Nc1ccc(N2CCOCC2)cc1C(=O)NCCCCNC(=O)c1ccc(-c2c3nc(c(-c4ccccc4)c4ccc([nH]4)c(-c4ccccc4)c4nc(c(-c5ccccc5)c5ccc2[nH]5)C=C4)C=C3)cc1
REMARK SMILES IDX 28 1 27 2 26 3 24 4 25 5 23 7 12 8 13 9 14 10 22 11 15 12
REMARK SMILES IDX 11 13 8 15 9 16 10 17 7 18 1 19 2 20 3 21 4 22 6 23 5 24
REMARK SMILES IDX 16 25 17 26 21 27 18 28 20 29 19 30 29 31 30 32 31 33 32 34
REMARK SMILES IDX 33 36 34 37 35 38 81 39 36 40 80 41 37 42 38 43 39 44 74 45
REMARK SMILES IDX 40 46 79 47 73 48 75 49 41 50 78 51 72 52 71 53 42 55 64 56
REMARK SMILES IDX 49 57 63 58 50 59 53 60 62 61 76 62 51 63 52 64 61 66 77 67
REMARK SMILES IDX 54 68 43 69 44 70 48 71 45 72 47 73 46 74 65 75 66 76 70 77
REMARK SMILES IDX 67 78 69 79 68 80 55 81 56 82 60 83 57 84 59 85 58 86
REMARK H PARENT 26 6 11 14 31 35 75 54 53 65
REMARK Flexibility Score: inf
ROOT
ATOM      1  C   UNL A   1      33.709  29.208  26.421  1.00  0.00     0.023 C 
ENDROOT
BRANCH   1   2
ATOM      2  C   UNL A   1      32.917  29.234  25.115  1.00  0.00     0.116 C 
BRANCH   2   3
ATOM      3  N   UNL A   1      33.338  28.285  24.088  1.00  0.00    -0.352 N 
ATOM      4  C   UNL A   1      32.648  27.503  23.182  1.00  0.00     0.253 C 
ATOM      5  O   UNL A   1      33.301  26.882  22.345  1.00  0.00    -0.269 OA
ATOM      6  H   UNL A   1      34.315  28.180  24.031  1.00  0.00     0.163 HD
BRANCH   4   7
ATOM      7  C   UNL A   1      31.166  27.373  23.215  1.00  0.00     0.066 A 
ATOM      8  C   UNL A   1      30.538  26.348  23.941  1.00  0.00     0.062 A 
ATOM      9  C   UNL A   1      29.148  26.328  24.025  1.00  0.00     0.030 A 
ATOM     10  C   UNL A   1      28.405  27.395  23.506  1.00  0.00     0.028 A 
ATOM     11  C   UNL A   1      30.378  28.321  22.549  1.00  0.00     0.042 A 
ATOM     12  C   UNL A   1      29.009  28.440  22.795  1.00  0.00     0.038 A 
BRANCH   8  13
ATOM     13  N   UNL A   1      31.277  25.304  24.553  1.00  0.00    -0.279 N 
ATOM     14  H   UNL A   1      31.762  24.667  23.980  1.00  0.00     0.180 HD
BRANCH  13  15
ATOM     15  S   UNL A   1      31.355  25.112  26.210  1.00  0.00     0.262 S 
ATOM     16  O   UNL A   1      30.092  24.498  26.587  1.00  0.00    -0.201 OA
ATOM     17  O   UNL A   1      31.730  26.365  26.819  1.00  0.00    -0.201 OA
BRANCH  15  18
ATOM     18  C   UNL A   1      32.649  23.900  26.488  1.00  0.00     0.090 A 
ATOM     19  C   UNL A   1      34.498  25.202  25.209  1.00  0.00     0.046 C 
ATOM     20  C   UNL A   1      33.989  24.102  26.095  1.00  0.00    -0.031 A 
ATOM     21  C   UNL A   1      34.950  23.152  26.497  1.00  0.00     0.005 A 
ATOM     22  C   UNL A   1      34.608  22.044  27.269  1.00  0.00     0.000 A 
ATOM     23  C   UNL A   1      32.310  22.770  27.257  1.00  0.00     0.022 A 
ATOM     24  C   UNL A   1      33.284  21.848  27.643  1.00  0.00     0.001 A 
ENDBRANCH  15  18
ENDBRANCH  13  15
ENDBRANCH   8  13
BRANCH  12  25
ATOM     25  N   UNL A   1      28.303  29.561  22.416  1.00  0.00    -0.367 N 
ATOM     26  C   UNL A   1      28.701  30.460  21.323  1.00  0.00     0.145 C 
ATOM     27  C   UNL A   1      27.193  30.073  23.245  1.00  0.00     0.145 C 
ATOM     28  C   UNL A   1      28.927  31.882  21.856  1.00  0.00     0.181 C 
ATOM     29  C   UNL A   1      27.465  31.530  23.668  1.00  0.00     0.181 C 
ATOM     30  O   UNL A   1      27.769  32.374  22.546  1.00  0.00    -0.378 OA
ENDBRANCH  12  25
ENDBRANCH   4   7
ENDBRANCH   2   3
ENDBRANCH   1   2
BRANCH   1  31
ATOM     31  C   UNL A   1      34.302  30.529  26.882  1.00  0.00     0.023 C 
BRANCH  31  32
ATOM     32  C   UNL A   1      34.403  30.676  28.392  1.00  0.00     0.116 C 
BRANCH  32  33
ATOM     33  N   UNL A   1      35.389  31.654  28.840  1.00  0.00    -0.352 N 
ATOM     34  C   UNL A   1      36.749  31.463  29.062  1.00  0.00     0.251 C 
ATOM     35  H   UNL A   1      35.049  32.563  29.006  1.00  0.00     0.163 HD
ATOM     36  O   UNL A   1      37.470  32.380  29.393  1.00  0.00    -0.269 OA
BRANCH  34  37
ATOM     37  C   UNL A   1      37.316  30.126  28.756  1.00  0.00     0.039 A 
ATOM     38  C   UNL A   1      37.467  29.229  29.816  1.00  0.00     0.014 A 
ATOM     39  C   UNL A   1      37.936  29.896  27.531  1.00  0.00     0.014 A 
ATOM     40  C   UNL A   1      38.459  28.256  29.733  1.00  0.00     0.010 A 
ATOM     41  C   UNL A   1      38.987  29.002  27.486  1.00  0.00     0.010 A 
ATOM     42  C   UNL A   1      39.295  28.239  28.617  1.00  0.00    -0.014 A 
BRANCH  42  43
ATOM     43  C   UNL A   1      40.582  27.554  28.612  1.00  0.00     0.031 A 
ATOM     44  C   UNL A   1      40.661  26.104  28.377  1.00  0.00     0.074 A 
ATOM     45  C   UNL A   1      41.723  28.254  28.804  1.00  0.00     0.049 A 
ATOM     46  N   UNL A   1      41.611  25.354  28.823  1.00  0.00    -0.248 NA
ATOM     47  C   UNL A   1      39.628  25.370  27.657  1.00  0.00     0.031 C 
ATOM     48  C   UNL A   1      43.095  27.794  28.620  1.00  0.00     0.029 A 
ATOM     49  N   UNL A   1      41.854  29.490  29.443  1.00  0.00    -0.354 N 
ATOM     50  C   UNL A   1      41.481  24.127  28.220  1.00  0.00     0.074 A 
ATOM     51  C   UNL A   1      40.187  24.159  27.575  1.00  0.00     0.031 C 
ATOM     52  C   UNL A   1      43.911  28.565  29.356  1.00  0.00     0.029 A 
ATOM     53  C   UNL A   1      43.076  29.453  30.146  1.00  0.00     0.049 A 
ATOM     54  H   UNL A   1      41.218  30.241  29.409  1.00  0.00     0.167 HD
ATOM     55  C   UNL A   1      42.534  23.263  28.217  1.00  0.00     0.031 A 
ATOM     56  C   UNL A   1      43.099  29.554  31.507  1.00  0.00     0.031 A 
ATOM     57  C   UNL A   1      43.682  23.777  28.964  1.00  0.00     0.049 A 
ATOM     58  C   UNL A   1      43.652  28.336  32.223  1.00  0.00     0.074 A 
ATOM     59  C   UNL A   1      44.905  24.323  28.607  1.00  0.00     0.029 A 
ATOM     60  N   UNL A   1      43.539  24.022  30.320  1.00  0.00    -0.354 N 
ATOM     61  N   UNL A   1      44.048  27.243  31.633  1.00  0.00    -0.248 NA
ATOM     62  C   UNL A   1      43.690  28.221  33.683  1.00  0.00     0.031 C 
ATOM     63  C   UNL A   1      45.498  24.889  29.773  1.00  0.00     0.029 A 
ATOM     64  C   UNL A   1      44.642  24.676  30.834  1.00  0.00     0.049 A 
ATOM     65  H   UNL A   1      42.750  23.763  30.850  1.00  0.00     0.167 HD
ATOM     66  C   UNL A   1      44.318  26.285  32.578  1.00  0.00     0.074 A 
ATOM     67  C   UNL A   1      44.087  26.948  33.847  1.00  0.00     0.031 C 
ATOM     68  C   UNL A   1      44.657  25.005  32.250  1.00  0.00     0.031 A 
BRANCH  55  69
ATOM     69  C   UNL A   1      42.601  22.051  27.320  1.00  0.00    -0.014 A 
ATOM     70  C   UNL A   1      41.826  20.916  27.622  1.00  0.00     0.009 A 
ATOM     71  C   UNL A   1      43.433  21.944  26.193  1.00  0.00     0.009 A 
ATOM     72  C   UNL A   1      41.956  19.716  26.911  1.00  0.00     0.001 A 
ATOM     73  C   UNL A   1      43.603  20.734  25.504  1.00  0.00     0.001 A 
ATOM     74  C   UNL A   1      42.872  19.614  25.873  1.00  0.00     0.000 A 
ENDBRANCH  55  69
BRANCH  56  75
ATOM     75  C   UNL A   1      42.022  30.435  32.044  1.00  0.00    -0.014 A 
ATOM     76  C   UNL A   1      42.089  31.817  31.772  1.00  0.00     0.009 A 
ATOM     77  C   UNL A   1      40.805  29.898  32.483  1.00  0.00     0.009 A 
ATOM     78  C   UNL A   1      40.940  32.610  31.816  1.00  0.00     0.001 A 
ATOM     79  C   UNL A   1      39.661  30.703  32.546  1.00  0.00     0.001 A 
ATOM     80  C   UNL A   1      39.721  32.045  32.175  1.00  0.00     0.000 A 
ENDBRANCH  56  75
BRANCH  68  81
ATOM     81  C   UNL A   1      44.985  23.923  33.248  1.00  0.00    -0.014 A 
ATOM     82  C   UNL A   1      44.050  22.976  33.688  1.00  0.00     0.009 A 
ATOM     83  C   UNL A   1      46.250  23.903  33.874  1.00  0.00     0.009 A 
ATOM     84  C   UNL A   1      44.389  22.010  34.647  1.00  0.00     0.001 A 
ATOM     85  C   UNL A   1      46.585  22.959  34.847  1.00  0.00     0.001 A 
ATOM     86  C   UNL A   1      45.657  22.000  35.223  1.00  0.00     0.000 A 
ENDBRANCH  68  81
ENDBRANCH  42  43
ENDBRANCH  34  37
ENDBRANCH  32  33
ENDBRANCH  31  32
ENDBRANCH   1  31
TORSDOF 15
ENDMDL
MODEL 2
REMARK VINA RESULT:     -12.8      3.563      8.880
REMARK SMILES Cc1ccccc1S(=O)(=O)Nc1ccc(N2CCOCC2)cc1C(=O)NCCCCNC(=O)c1ccc(-c2c3nc(c(-c4ccccc4)c4ccc([nH]4)c(-c4ccccc4)c4nc(c(-c5ccccc5)c5ccc2[nH]5)C=C4)C=C3)cc1
REMARK SMILES IDX 28 1 27 2 26 3 24 4 25 5 23 7 12 8 13 9 14 10 22 11 15 12
REMARK SMILES IDX 11 13 8 15 9 16 10 17 7 18 1 19 2 20 3 21 4 22 6 23 5 24
REMARK SMILES IDX 16 25 17 26 21 27 18 28 20 29 19 30 29 31 30 32 31 33 32 34
REMARK SMILES IDX 33 36 34 37 35 38 81 39 36 40 80 41 37 42 38 43 39 44 74 45
REMARK SMILES IDX 40 46 79 47 73 48 75 49 41 50 78 51 72 52 71 53 42 55 64 56
REMARK SMILES IDX 49 57 63 58 50 59 53 60 62 61 76 62 51 63 52 64 61 66 77 67
REMARK SMILES IDX 54 68 43 69 44 70 48 71 45 72 47 73 46 74 65 75 66 76 70 77
REMARK SMILES IDX 67 78 69 79 68 80 55 81 56 82 60 83 57 84 59 85 58 86
REMARK H PARENT 26 6 11 14 31 35 75 54 53 65
REMARK Flexibility Score: inf
ROOT
ATOM      1  C   UNL A   1      37.886  22.881  25.785  1.00  0.00     0.023 C 
ENDROOT
BRANCH   1   2
ATOM      2  C   UNL A   1      36.388  22.727  25.530  1.00  0.00     0.116 C 
BRANCH   2   3
ATOM      3  N   UNL A   1      35.539  22.636  26.715  1.00  0.00    -0.352 N 
ATOM      4  C   UNL A   1      34.284  22.106  26.943  1.00  0.00     0.253 C 
ATOM      5  O   UNL A   1      33.876  22.074  28.102  1.00  0.00    -0.269 OA
ATOM      6  H   UNL A   1      35.945  23.038  27.517  1.00  0.00     0.163 HD
BRANCH   4   7
ATOM      7  C   UNL A   1      33.421  21.612  25.836  1.00  0.00     0.066 A 
ATOM      8  C   UNL A   1      32.936  22.480  24.844  1.00  0.00     0.062 A 
ATOM      9  C   UNL A   1      32.217  21.954  23.773  1.00  0.00     0.030 A 
ATOM     10  C   UNL A   1      32.104  20.567  23.626  1.00  0.00     0.028 A 
ATOM     11  C   UNL A   1      33.124  20.245  25.753  1.00  0.00     0.042 A 
ATOM     12  C   UNL A   1      32.595  19.678  24.592  1.00  0.00     0.038 A 
BRANCH   8  13
ATOM     13  N   UNL A   1      33.119  23.884  24.924  1.00  0.00    -0.279 N 
ATOM     14  H   UNL A   1      33.981  24.267  24.644  1.00  0.00     0.180 HD
BRANCH  13  15
ATOM     15  S   UNL A   1      31.926  24.914  25.477  1.00  0.00     0.262 S 
ATOM     16  O   UNL A   1      31.682  24.516  26.854  1.00  0.00    -0.201 OA
ATOM     17  O   UNL A   1      30.825  24.914  24.544  1.00  0.00    -0.201 OA
BRANCH  15  18
ATOM     18  C   UNL A   1      32.682  26.541  25.511  1.00  0.00     0.090 A 
ATOM     19  C   UNL A   1      33.264  26.606  22.980  1.00  0.00     0.046 C 
ATOM     20  C   UNL A   1      33.129  27.206  24.350  1.00  0.00    -0.031 A 
ATOM     21  C   UNL A   1      33.567  28.540  24.474  1.00  0.00     0.005 A 
ATOM     22  C   UNL A   1      33.557  29.203  25.699  1.00  0.00     0.000 A 
ATOM     23  C   UNL A   1      32.689  27.215  26.748  1.00  0.00     0.022 A 
ATOM     24  C   UNL A   1      33.125  28.538  26.839  1.00  0.00     0.001 A 
ENDBRANCH  15  18
ENDBRANCH  13  15
ENDBRANCH   8  13
BRANCH  12  25
ATOM     25  N   UNL A   1      32.619  18.317  24.379  1.00  0.00    -0.367 N 
ATOM     26  C   UNL A   1      32.585  17.310  25.450  1.00  0.00     0.145 C 
ATOM     27  C   UNL A   1      32.910  17.765  23.041  1.00  0.00     0.145 C 
ATOM     28  C   UNL A   1      33.844  16.434  25.399  1.00  0.00     0.181 C 
ATOM     29  C   UNL A   1      34.139  16.836  23.098  1.00  0.00     0.181 C 
ATOM     30  O   UNL A   1      34.009  15.825  24.110  1.00  0.00    -0.378 OA
ENDBRANCH  12  25
ENDBRANCH   4   7
ENDBRANCH   2   3
ENDBRANCH   1   2
BRANCH   1  31
ATOM     31  C   UNL A   1      38.703  21.600  25.830  1.00  0.00     0.023 C 
BRANCH  31  32
ATOM     32  C   UNL A   1      40.156  21.799  26.230  1.00  0.00     0.116 C 
BRANCH  32  33
ATOM     33  N   UNL A   1      41.073  20.797  25.695  1.00  0.00    -0.352 N 
ATOM     34  C   UNL A   1      42.449  20.707  25.880  1.00  0.00     0.251 C 
ATOM     35  H   UNL A   1      40.667  20.098  25.133  1.00  0.00     0.163 HD
ATOM     36  O   UNL A   1      43.091  19.790  25.412  1.00  0.00    -0.269 OA
BRANCH  34  37
ATOM     37  C   UNL A   1      43.090  21.700  26.777  1.00  0.00     0.039 A 
ATOM     38  C   UNL A   1      42.798  21.624  28.141  1.00  0.00     0.014 A 
ATOM     39  C   UNL A   1      43.708  22.826  26.240  1.00  0.00     0.014 A 
ATOM     40  C   UNL A   1      42.875  22.784  28.907  1.00  0.00     0.010 A 
ATOM     41  C   UNL A   1      43.686  23.997  26.970  1.00  0.00     0.010 A 
ATOM     42  C   UNL A   1      43.195  23.987  28.279  1.00  0.00    -0.014 A 
BRANCH  42  43
ATOM     43  C   UNL A   1      42.911  25.285  28.880  1.00  0.00     0.031 A 
ATOM     44  C   UNL A   1      41.728  26.059  28.472  1.00  0.00     0.074 A 
ATOM     45  C   UNL A   1      43.726  25.780  29.839  1.00  0.00     0.049 A 
ATOM     46  N   UNL A   1      41.650  27.345  28.546  1.00  0.00    -0.248 NA
ATOM     47  C   UNL A   1      40.547  25.437  27.889  1.00  0.00     0.031 C 
ATOM     48  C   UNL A   1      43.493  26.936  30.700  1.00  0.00     0.029 A 
ATOM     49  N   UNL A   1      45.064  25.445  30.062  1.00  0.00    -0.354 N 
ATOM     50  C   UNL A   1      40.343  27.690  28.308  1.00  0.00     0.074 A 
ATOM     51  C   UNL A   1      39.717  26.481  27.818  1.00  0.00     0.031 C 
ATOM     52  C   UNL A   1      44.676  27.391  31.140  1.00  0.00     0.029 A 
ATOM     53  C   UNL A   1      45.713  26.631  30.464  1.00  0.00     0.049 A 
ATOM     54  H   UNL A   1      45.473  24.557  29.957  1.00  0.00     0.167 HD
ATOM     55  C   UNL A   1      39.895  28.923  28.673  1.00  0.00     0.031 A 
ATOM     56  C   UNL A   1      46.718  27.165  29.709  1.00  0.00     0.031 A 
ATOM     57  C   UNL A   1      40.956  29.764  29.227  1.00  0.00     0.049 A 
ATOM     58  C   UNL A   1      46.426  28.547  29.154  1.00  0.00     0.074 A 
ATOM     59  C   UNL A   1      41.300  30.173  30.506  1.00  0.00     0.029 A 
ATOM     60  N   UNL A   1      42.032  30.096  28.421  1.00  0.00    -0.354 N 
ATOM     61  N   UNL A   1      45.307  29.195  29.324  1.00  0.00    -0.248 NA
ATOM     62  C   UNL A   1      47.346  29.255  28.261  1.00  0.00     0.031 C 
ATOM     63  C   UNL A   1      42.594  30.766  30.452  1.00  0.00     0.029 A 
ATOM     64  C   UNL A   1      43.027  30.727  29.142  1.00  0.00     0.049 A 
ATOM     65  H   UNL A   1      42.082  29.906  27.455  1.00  0.00     0.167 HD
ATOM     66  C   UNL A   1      45.312  30.326  28.548  1.00  0.00     0.074 A 
ATOM     67  C   UNL A   1      46.613  30.325  27.906  1.00  0.00     0.031 C 
ATOM     68  C   UNL A   1      44.230  31.150  28.443  1.00  0.00     0.031 A 
BRANCH  55  69
ATOM     69  C   UNL A   1      38.429  29.275  28.750  1.00  0.00    -0.014 A 
ATOM     70  C   UNL A   1      37.765  29.754  27.605  1.00  0.00     0.009 A 
ATOM     71  C   UNL A   1      37.657  29.201  29.921  1.00  0.00     0.009 A 
ATOM     72  C   UNL A   1      36.448  30.231  27.655  1.00  0.00     0.001 A 
ATOM     73  C   UNL A   1      36.355  29.719  29.991  1.00  0.00     0.001 A 
ATOM     74  C   UNL A   1      35.755  30.246  28.857  1.00  0.00     0.000 A 
ENDBRANCH  55  69
BRANCH  56  75
ATOM     75  C   UNL A   1      47.538  26.131  29.016  1.00  0.00    -0.014 A 
ATOM     76  C   UNL A   1      47.228  25.817  27.676  1.00  0.00     0.009 A 
ATOM     77  C   UNL A   1      48.785  25.742  29.522  1.00  0.00     0.009 A 
ATOM     78  C   UNL A   1      48.187  25.247  26.836  1.00  0.00     0.001 A 
ATOM     79  C   UNL A   1      49.735  25.150  28.681  1.00  0.00     0.001 A 
ATOM     80  C   UNL A   1      49.450  24.940  27.332  1.00  0.00     0.000 A 
ENDBRANCH  56  75
BRANCH  68  81
ATOM     81  C   UNL A   1      44.191  32.415  27.622  1.00  0.00    -0.014 A 
ATOM     82  C   UNL A   1      44.231  32.422  26.222  1.00  0.00     0.009 A 
ATOM     83  C   UNL A   1      44.230  33.672  28.264  1.00  0.00     0.009 A 
ATOM     84  C   UNL A   1      44.232  33.624  25.500  1.00  0.00     0.001 A 
ATOM     85  C   UNL A   1      44.255  34.872  27.551  1.00  0.00     0.001 A 
ATOM     86  C   UNL A   1      44.239  34.848  26.164  1.00  0.00     0.000 A 
ENDBRANCH  68  81
ENDBRANCH  42  43
ENDBRANCH  34  37
ENDBRANCH  32  33
ENDBRANCH  31  32
ENDBRANCH   1  31
TORSDOF 15
ENDMDL
MODEL 3
REMARK VINA RESULT:     -12.8      2.214      3.779
REMARK SMILES Cc1ccccc1S(=O)(=O)Nc1ccc(N2CCOCC2)cc1C(=O)NCCCCNC(=O)c1ccc(-c2c3nc(c(-c4ccccc4)c4ccc([nH]4)c(-c4ccccc4)c4nc(c(-c5ccccc5)c5ccc2[nH]5)C=C4)C=C3)cc1
REMARK SMILES IDX 28 1 27 2 26 3 24 4 25 5 23 7 12 8 13 9 14 10 22 11 15 12
REMARK SMILES IDX 11 13 8 15 9 16 10 17 7 18 1 19 2 20 3 21 4 22 6 23 5 24
REMARK SMILES IDX 16 25 17 26 21 27 18 28 20 29 19 30 29 31 30 32 31 33 32 34
REMARK SMILES IDX 33 36 34 37 35 38 81 39 36 40 80 41 37 42 38 43 39 44 74 45
REMARK SMILES IDX 40 46 79 47 73 48 75 49 41 50 78 51 72 52 71 53 42 55 64 56
REMARK SMILES IDX 49 57 63 58 50 59 53 60 62 61 76 62 51 63 52 64 61 66 77 67
REMARK SMILES IDX 54 68 43 69 44 70 48 71 45 72 47 73 46 74 65 75 66 76 70 77
REMARK SMILES IDX 67 78 69 79 68 80 55 81 56 82 60 83 57 84 59 85 58 86
REMARK H PARENT 26 6 11 14 31 35 75 54 53 65
REMARK Flexibility Score: inf
ROOT
ATOM      1  C   UNL A   1      32.997  30.238  27.329  1.00  0.00     0.023 C 
ENDROOT
BRANCH   1   2
ATOM      2  C   UNL A   1      32.546  30.320  25.872  1.00  0.00     0.116 C 
BRANCH   2   3
ATOM      3  N   UNL A   1      33.331  29.550  24.911  1.00  0.00    -0.352 N 
ATOM      4  C   UNL A   1      32.992  28.743  23.842  1.00  0.00     0.253 C 
ATOM      5  O   UNL A   1      33.901  28.318  23.132  1.00  0.00    -0.269 OA
ATOM      6  H   UNL A   1      34.302  29.619  25.057  1.00  0.00     0.163 HD
BRANCH   4   7
ATOM      7  C   UNL A   1      31.583  28.360  23.556  1.00  0.00     0.066 A 
ATOM      8  C   UNL A   1      31.075  27.106  23.933  1.00  0.00     0.062 A 
ATOM      9  C   UNL A   1      29.724  26.832  23.734  1.00  0.00     0.030 A 
ATOM     10  C   UNL A   1      28.867  27.846  23.292  1.00  0.00     0.028 A 
ATOM     11  C   UNL A   1      30.730  29.285  22.940  1.00  0.00     0.042 A 
ATOM     12  C   UNL A   1      29.345  29.111  22.927  1.00  0.00     0.038 A 
BRANCH   8  13
ATOM     13  N   UNL A   1      31.909  26.092  24.469  1.00  0.00    -0.279 N 
ATOM     14  H   UNL A   1      32.371  25.482  23.850  1.00  0.00     0.180 HD
BRANCH  13  15
ATOM     15  S   UNL A   1      32.134  25.890  26.112  1.00  0.00     0.262 S 
ATOM     16  O   UNL A   1      30.798  25.785  26.674  1.00  0.00    -0.201 OA
ATOM     17  O   UNL A   1      33.019  26.920  26.602  1.00  0.00    -0.201 OA
BRANCH  15  18
ATOM     18  C   UNL A   1      32.922  24.288  26.291  1.00  0.00     0.090 A 
ATOM     19  C   UNL A   1      34.834  24.754  24.594  1.00  0.00     0.046 C 
ATOM     20  C   UNL A   1      34.140  23.956  25.660  1.00  0.00    -0.031 A 
ATOM     21  C   UNL A   1      34.746  22.726  25.989  1.00  0.00     0.005 A 
ATOM     22  C   UNL A   1      34.178  21.855  26.916  1.00  0.00     0.000 A 
ATOM     23  C   UNL A   1      32.349  23.395  27.216  1.00  0.00     0.022 A 
ATOM     24  C   UNL A   1      32.974  22.186  27.525  1.00  0.00     0.001 A 
ENDBRANCH  15  18
ENDBRANCH  13  15
ENDBRANCH   8  13
BRANCH  12  25
ATOM     25  N   UNL A   1      28.490  30.153  22.638  1.00  0.00    -0.367 N 
ATOM     26  C   UNL A   1      27.942  30.427  21.301  1.00  0.00     0.145 C 
ATOM     27  C   UNL A   1      28.235  31.220  23.626  1.00  0.00     0.145 C 
ATOM     28  C   UNL A   1      28.363  31.826  20.829  1.00  0.00     0.181 C 
ATOM     29  C   UNL A   1      28.610  32.596  23.040  1.00  0.00     0.181 C 
ATOM     30  O   UNL A   1      27.979  32.837  21.772  1.00  0.00    -0.378 OA
ENDBRANCH  12  25
ENDBRANCH   4   7
ENDBRANCH   2   3
ENDBRANCH   1   2
BRANCH   1  31
ATOM     31  C   UNL A   1      34.491  30.355  27.586  1.00  0.00     0.023 C 
BRANCH  31  32
ATOM     32  C   UNL A   1      34.994  31.783  27.705  1.00  0.00     0.116 C 
BRANCH  32  33
ATOM     33  N   UNL A   1      34.028  32.719  28.273  1.00  0.00    -0.352 N 
ATOM     34  C   UNL A   1      34.180  33.541  29.386  1.00  0.00     0.251 C 
ATOM     35  H   UNL A   1      33.161  32.776  27.811  1.00  0.00     0.163 HD
ATOM     36  O   UNL A   1      33.307  34.311  29.726  1.00  0.00    -0.269 OA
BRANCH  34  37
ATOM     37  C   UNL A   1      35.497  33.537  30.070  1.00  0.00     0.039 A 
ATOM     38  C   UNL A   1      36.547  34.227  29.457  1.00  0.00     0.014 A 
ATOM     39  C   UNL A   1      35.740  32.644  31.109  1.00  0.00     0.014 A 
ATOM     40  C   UNL A   1      37.853  33.812  29.701  1.00  0.00     0.010 A 
ATOM     41  C   UNL A   1      37.022  32.162  31.274  1.00  0.00     0.010 A 
ATOM     42  C   UNL A   1      38.065  32.696  30.510  1.00  0.00    -0.014 A 
BRANCH  42  43
ATOM     43  C   UNL A   1      39.318  31.949  30.502  1.00  0.00     0.031 A 
ATOM     44  C   UNL A   1      39.434  30.686  29.757  1.00  0.00     0.074 A 
ATOM     45  C   UNL A   1      40.395  32.426  31.166  1.00  0.00     0.049 A 
ATOM     46  N   UNL A   1      40.259  29.743  30.065  1.00  0.00    -0.248 NA
ATOM     47  C   UNL A   1      38.577  30.362  28.624  1.00  0.00     0.031 C 
ATOM     48  C   UNL A   1      41.772  31.945  31.097  1.00  0.00     0.029 A 
ATOM     49  N   UNL A   1      40.394  33.324  32.236  1.00  0.00    -0.354 N 
ATOM     50  C   UNL A   1      40.254  28.840  29.030  1.00  0.00     0.074 A 
ATOM     51  C   UNL A   1      39.131  29.222  28.203  1.00  0.00     0.031 C 
ATOM     52  C   UNL A   1      42.415  32.316  32.215  1.00  0.00     0.029 A 
ATOM     53  C   UNL A   1      41.434  32.922  33.100  1.00  0.00     0.049 A 
ATOM     54  H   UNL A   1      39.787  34.088  32.363  1.00  0.00     0.167 HD
ATOM     55  C   UNL A   1      41.276  27.948  28.910  1.00  0.00     0.031 A 
ATOM     56  C   UNL A   1      41.163  32.515  34.374  1.00  0.00     0.031 A 
ATOM     57  C   UNL A   1      42.239  28.047  30.007  1.00  0.00     0.049 A 
ATOM     58  C   UNL A   1      41.538  31.074  34.671  1.00  0.00     0.074 A 
ATOM     59  C   UNL A   1      43.514  28.575  30.133  1.00  0.00     0.029 A 
ATOM     60  N   UNL A   1      41.806  27.789  31.298  1.00  0.00    -0.354 N 
ATOM     61  N   UNL A   1      42.044  30.244  33.802  1.00  0.00    -0.248 NA
ATOM     62  C   UNL A   1      41.258  30.429  35.956  1.00  0.00     0.031 C 
ATOM     63  C   UNL A   1      43.845  28.619  31.518  1.00  0.00     0.029 A 
ATOM     64  C   UNL A   1      42.777  28.107  32.228  1.00  0.00     0.049 A 
ATOM     65  H   UNL A   1      40.919  27.425  31.524  1.00  0.00     0.167 HD
ATOM     66  C   UNL A   1      42.096  28.987  34.349  1.00  0.00     0.074 A 
ATOM     67  C   UNL A   1      41.600  29.155  35.702  1.00  0.00     0.031 C 
ATOM     68  C   UNL A   1      42.487  27.891  33.636  1.00  0.00     0.031 A 
BRANCH  55  69
ATOM     69  C   UNL A   1      41.526  27.149  27.654  1.00  0.00    -0.014 A 
ATOM     70  C   UNL A   1      40.882  25.910  27.476  1.00  0.00     0.009 A 
ATOM     71  C   UNL A   1      42.410  27.534  26.632  1.00  0.00     0.009 A 
ATOM     72  C   UNL A   1      41.186  25.062  26.402  1.00  0.00     0.001 A 
ATOM     73  C   UNL A   1      42.755  26.673  25.581  1.00  0.00     0.001 A 
ATOM     74  C   UNL A   1      42.150  25.429  25.473  1.00  0.00     0.000 A 
ENDBRANCH  55  69
BRANCH  56  75
ATOM     75  C   UNL A   1      40.002  33.229  34.979  1.00  0.00    -0.014 A 
ATOM     76  C   UNL A   1      38.711  32.697  34.779  1.00  0.00     0.009 A 
ATOM     77  C   UNL A   1      40.188  34.170  36.000  1.00  0.00     0.009 A 
ATOM     78  C   UNL A   1      37.669  33.003  35.659  1.00  0.00     0.001 A 
ATOM     79  C   UNL A   1      39.134  34.490  36.865  1.00  0.00     0.001 A 
ATOM     80  C   UNL A   1      37.890  33.877  36.718  1.00  0.00     0.000 A 
ENDBRANCH  56  75
BRANCH  68  81
ATOM     81  C   UNL A   1      42.582  26.494  34.195  1.00  0.00    -0.014 A 
ATOM     82  C   UNL A   1      41.648  25.961  35.092  1.00  0.00     0.009 A 
ATOM     83  C   UNL A   1      43.714  25.698  33.911  1.00  0.00     0.009 A 
ATOM     84  C   UNL A   1      41.797  24.668  35.617  1.00  0.00     0.001 A 
ATOM     85  C   UNL A   1      43.880  24.420  34.449  1.00  0.00     0.001 A 
ATOM     86  C   UNL A   1      42.910  23.897  35.291  1.00  0.00     0.000 A 
ENDBRANCH  68  81
ENDBRANCH  42  43
ENDBRANCH  34  37
ENDBRANCH  32  33
ENDBRANCH  31  32
ENDBRANCH   1  31
TORSDOF 15
ENDMDL
