MODEL 1
REMARK VINA RESULT:     -13.2      0.000      0.000
REMARK SMILES Cc1ccccc1[C@@H]1[NH2+][C@@H](C(=O)NCCCCNC(=O)c2ccc(-c3c4nc(c(-c5ccccc5)c5ccc([nH]5)c(-c5ccccc5)c5nc(c(-c6ccccc6)c6ccc3[nH]6)C=C5)C=C4)cc2)CC2=c3ccccc3=N[C@@H]21
REMARK SMILES IDX 16 1 15 2 14 3 13 4 11 5 12 6 10 8 8 9 9 10 78 11 70 14
REMARK SMILES IDX 77 15 69 16 71 17 76 18 72 19 75 20 73 21 74 22 7 23 1 24
REMARK SMILES IDX 2 25 3 26 4 27 6 28 5 29 17 30 18 31 19 32 20 34 21 35 22 36
REMARK SMILES IDX 68 37 23 38 67 39 24 40 25 41 26 42 61 43 27 44 66 45 60 46
REMARK SMILES IDX 62 47 28 48 65 49 59 50 58 51 29 53 51 54 36 55 50 56 37 57
REMARK SMILES IDX 40 58 49 59 63 60 38 61 39 62 48 64 64 65 41 66 30 67 31 68
REMARK SMILES IDX 35 69 32 70 34 71 33 72 52 73 53 74 57 75 54 76 56 77 55 78
REMARK SMILES IDX 42 79 43 80 47 81 44 82 46 83 45 84
REMARK H PARENT 13 7 9 12 9 13 18 33 62 52 40 63
REMARK Flexibility Score: inf
ROOT
ATOM      1  C   UNL A   1      33.650  31.696  27.635  1.00  0.00     0.023 C 
ENDROOT
BRANCH   1   2
ATOM      2  C   UNL A   1      32.453  30.855  27.109  1.00  0.00     0.023 C 
BRANCH   2   3
ATOM      3  C   UNL A   1      32.539  29.896  25.878  1.00  0.00     0.116 C 
BRANCH   3   4
ATOM      4  N   UNL A   1      33.652  29.688  24.921  1.00  0.00    -0.351 N 
ATOM      5  C   UNL A   1      33.934  28.706  23.976  1.00  0.00     0.278 C 
ATOM      6  O   UNL A   1      34.669  28.930  23.019  1.00  0.00    -0.268 OA
ATOM      7  H   UNL A   1      34.337  30.394  24.963  1.00  0.00     0.163 HD
BRANCH   5   8
ATOM      8  C   UNL A   1      33.331  27.353  24.271  1.00  0.00     0.277 C 
ATOM      9  C   UNL A   1      30.844  27.257  24.175  1.00  0.00     0.243 C 
ATOM     10  N   UNL A   1      32.116  27.348  23.451  1.00  0.00    -0.327 N 
ATOM     11  C   UNL A   1      30.899  25.721  24.635  1.00  0.00     0.196 C 
ATOM     12  H   UNL A   1      32.103  28.211  22.908  1.00  0.00     0.347 HD
ATOM     13  H   UNL A   1      32.170  26.498  22.889  1.00  0.00     0.347 HD
ATOM     14  C   UNL A   1      32.274  25.504  25.347  1.00  0.00    -0.024 C 
ATOM     15  N   UNL A   1      31.004  24.771  23.460  1.00  0.00    -0.270 NA
ATOM     16  C   UNL A   1      33.061  26.783  25.680  1.00  0.00     0.109 C 
ATOM     17  C   UNL A   1      32.940  24.453  24.838  1.00  0.00     0.002 A 
ATOM     18  C   UNL A   1      32.129  24.135  23.639  1.00  0.00     0.066 A 
ATOM     19  C   UNL A   1      34.350  24.142  24.869  1.00  0.00     0.010 A 
ATOM     20  C   UNL A   1      32.783  23.242  22.639  1.00  0.00     0.028 A 
ATOM     21  C   UNL A   1      34.902  23.452  23.859  1.00  0.00     0.001 A 
ATOM     22  C   UNL A   1      34.092  22.956  22.763  1.00  0.00     0.002 A 
BRANCH   9  23
ATOM     23  C   UNL A   1      29.807  28.042  23.332  1.00  0.00     0.015 A 
ATOM     24  C   UNL A   1      27.764  26.704  24.086  1.00  0.00     0.045 C 
ATOM     25  C   UNL A   1      28.419  27.827  23.338  1.00  0.00    -0.042 A 
ATOM     26  C   UNL A   1      27.553  28.791  22.748  1.00  0.00     0.004 A 
ATOM     27  C   UNL A   1      28.026  29.959  22.149  1.00  0.00     0.000 A 
ATOM     28  C   UNL A   1      30.232  29.273  22.732  1.00  0.00     0.010 A 
ATOM     29  C   UNL A   1      29.381  30.201  22.136  1.00  0.00     0.001 A 
ENDBRANCH   9  23
ENDBRANCH   5   8
ENDBRANCH   3   4
ENDBRANCH   2   3
ENDBRANCH   1   2
BRANCH   1  30
ATOM     30  C   UNL A   1      34.895  30.899  27.959  1.00  0.00     0.116 C 
BRANCH  30  31
ATOM     31  N   UNL A   1      35.874  31.583  28.807  1.00  0.00    -0.352 N 
ATOM     32  C   UNL A   1      37.085  31.080  29.271  1.00  0.00     0.251 C 
ATOM     33  H   UNL A   1      35.650  32.501  29.081  1.00  0.00     0.163 HD
ATOM     34  O   UNL A   1      37.832  31.726  29.980  1.00  0.00    -0.269 OA
BRANCH  32  35
ATOM     35  C   UNL A   1      37.494  29.754  28.749  1.00  0.00     0.039 A 
ATOM     36  C   UNL A   1      37.834  28.798  29.708  1.00  0.00     0.014 A 
ATOM     37  C   UNL A   1      37.966  29.674  27.438  1.00  0.00     0.014 A 
ATOM     38  C   UNL A   1      38.885  27.933  29.437  1.00  0.00     0.010 A 
ATOM     39  C   UNL A   1      39.070  28.873  27.203  1.00  0.00     0.010 A 
ATOM     40  C   UNL A   1      39.580  28.071  28.232  1.00  0.00    -0.014 A 
BRANCH  40  41
ATOM     41  C   UNL A   1      40.887  27.454  28.036  1.00  0.00     0.031 A 
ATOM     42  C   UNL A   1      40.944  26.000  27.838  1.00  0.00     0.074 A 
ATOM     43  C   UNL A   1      42.051  28.121  28.199  1.00  0.00     0.049 A 
ATOM     44  N   UNL A   1      41.771  25.225  28.456  1.00  0.00    -0.248 NA
ATOM     45  C   UNL A   1      39.998  25.306  26.979  1.00  0.00     0.031 C 
ATOM     46  C   UNL A   1      43.401  27.604  27.977  1.00  0.00     0.029 A 
ATOM     47  N   UNL A   1      42.258  29.343  28.829  1.00  0.00    -0.354 N 
ATOM     48  C   UNL A   1      41.649  23.985  27.880  1.00  0.00     0.074 A 
ATOM     49  C   UNL A   1      40.471  24.061  27.043  1.00  0.00     0.031 C 
ATOM     50  C   UNL A   1      44.263  28.324  28.713  1.00  0.00     0.029 A 
ATOM     51  C   UNL A   1      43.493  29.280  29.491  1.00  0.00     0.049 A 
ATOM     52  H   UNL A   1      41.646  30.114  28.814  1.00  0.00     0.167 HD
ATOM     53  C   UNL A   1      42.633  23.056  28.026  1.00  0.00     0.031 A 
ATOM     54  C   UNL A   1      43.670  29.594  30.804  1.00  0.00     0.031 A 
ATOM     55  C   UNL A   1      43.760  23.551  28.812  1.00  0.00     0.049 A 
ATOM     56  C   UNL A   1      44.231  28.445  31.605  1.00  0.00     0.074 A 
ATOM     57  C   UNL A   1      44.988  24.076  28.442  1.00  0.00     0.029 A 
ATOM     58  N   UNL A   1      43.603  23.834  30.164  1.00  0.00    -0.354 N 
ATOM     59  N   UNL A   1      44.332  27.228  31.151  1.00  0.00    -0.248 NA
ATOM     60  C   UNL A   1      44.607  28.551  33.014  1.00  0.00     0.031 C 
ATOM     61  C   UNL A   1      45.551  24.720  29.570  1.00  0.00     0.029 A 
ATOM     62  C   UNL A   1      44.674  24.575  30.630  1.00  0.00     0.049 A 
ATOM     63  H   UNL A   1      42.836  23.547  30.712  1.00  0.00     0.167 HD
ATOM     64  C   UNL A   1      44.682  26.391  32.177  1.00  0.00     0.074 A 
ATOM     65  C   UNL A   1      44.885  27.271  33.313  1.00  0.00     0.031 C 
ATOM     66  C   UNL A   1      44.721  25.038  32.011  1.00  0.00     0.031 A 
BRANCH  53  67
ATOM     67  C   UNL A   1      42.691  21.848  27.127  1.00  0.00    -0.014 A 
ATOM     68  C   UNL A   1      41.897  20.725  27.413  1.00  0.00     0.009 A 
ATOM     69  C   UNL A   1      43.561  21.733  26.030  1.00  0.00     0.009 A 
ATOM     70  C   UNL A   1      42.061  19.514  26.729  1.00  0.00     0.001 A 
ATOM     71  C   UNL A   1      43.771  20.512  25.378  1.00  0.00     0.001 A 
ATOM     72  C   UNL A   1      43.028  19.396  25.739  1.00  0.00     0.000 A 
ENDBRANCH  53  67
BRANCH  54  73
ATOM     73  C   UNL A   1      42.667  30.555  31.332  1.00  0.00    -0.014 A 
ATOM     74  C   UNL A   1      41.439  30.040  31.789  1.00  0.00     0.009 A 
ATOM     75  C   UNL A   1      43.068  31.830  31.758  1.00  0.00     0.009 A 
ATOM     76  C   UNL A   1      40.706  30.722  32.762  1.00  0.00     0.001 A 
ATOM     77  C   UNL A   1      42.324  32.507  32.728  1.00  0.00     0.001 A 
ATOM     78  C   UNL A   1      41.172  31.932  33.265  1.00  0.00     0.000 A 
ENDBRANCH  54  73
BRANCH  66  79
ATOM     79  C   UNL A   1      44.877  24.032  33.121  1.00  0.00    -0.014 A 
ATOM     80  C   UNL A   1      46.100  23.708  33.724  1.00  0.00     0.009 A 
ATOM     81  C   UNL A   1      43.719  23.452  33.682  1.00  0.00     0.009 A 
ATOM     82  C   UNL A   1      46.172  22.800  34.790  1.00  0.00     0.001 A 
ATOM     83  C   UNL A   1      43.781  22.582  34.774  1.00  0.00     0.001 A 
ATOM     84  C   UNL A   1      45.012  22.243  35.317  1.00  0.00     0.000 A 
ENDBRANCH  66  79
ENDBRANCH  40  41
ENDBRANCH  32  35
ENDBRANCH  30  31
ENDBRANCH   1  30
TORSDOF 12
ENDMDL
MODEL 2
REMARK VINA RESULT:     -13.1      3.859      7.564
REMARK SMILES Cc1ccccc1[C@@H]1[NH2+][C@@H](C(=O)NCCCCNC(=O)c2ccc(-c3c4nc(c(-c5ccccc5)c5ccc([nH]5)c(-c5ccccc5)c5nc(c(-c6ccccc6)c6ccc3[nH]6)C=C5)C=C4)cc2)CC2=c3ccccc3=N[C@@H]21
REMARK SMILES IDX 16 1 15 2 14 3 13 4 11 5 12 6 10 8 8 9 9 10 78 11 70 14
REMARK SMILES IDX 77 15 69 16 71 17 76 18 72 19 75 20 73 21 74 22 7 23 1 24
REMARK SMILES IDX 2 25 3 26 4 27 6 28 5 29 17 30 18 31 19 32 20 34 21 35 22 36
REMARK SMILES IDX 68 37 23 38 67 39 24 40 25 41 26 42 61 43 27 44 66 45 60 46
REMARK SMILES IDX 62 47 28 48 65 49 59 50 58 51 29 53 51 54 36 55 50 56 37 57
REMARK SMILES IDX 40 58 49 59 63 60 38 61 39 62 48 64 64 65 41 66 30 67 31 68
REMARK SMILES IDX 35 69 32 70 34 71 33 72 52 73 53 74 57 75 54 76 56 77 55 78
REMARK SMILES IDX 42 79 43 80 47 81 44 82 46 83 45 84
REMARK H PARENT 13 7 9 12 9 13 18 33 62 52 40 63
REMARK Flexibility Score: inf
ROOT
ATOM      1  C   UNL A   1      34.104  30.395  26.919  1.00  0.00     0.023 C 
ENDROOT
BRANCH   1   2
ATOM      2  C   UNL A   1      33.457  31.560  27.720  1.00  0.00     0.023 C 
BRANCH   2   3
ATOM      3  C   UNL A   1      34.055  33.002  27.793  1.00  0.00     0.116 C 
BRANCH   3   4
ATOM      4  N   UNL A   1      35.472  33.432  27.863  1.00  0.00    -0.351 N 
ATOM      5  C   UNL A   1      36.385  33.564  28.906  1.00  0.00     0.278 C 
ATOM      6  O   UNL A   1      37.596  33.531  28.705  1.00  0.00    -0.268 OA
ATOM      7  H   UNL A   1      35.847  33.678  26.987  1.00  0.00     0.163 HD
BRANCH   5   8
ATOM      8  C   UNL A   1      35.766  33.820  30.260  1.00  0.00     0.277 C 
ATOM      9  C   UNL A   1      37.270  33.424  32.205  1.00  0.00     0.243 C 
ATOM     10  N   UNL A   1      36.906  34.270  31.064  1.00  0.00    -0.327 N 
ATOM     11  C   UNL A   1      36.056  33.763  33.196  1.00  0.00     0.196 C 
ATOM     12  H   UNL A   1      37.717  34.327  30.448  1.00  0.00     0.347 HD
ATOM     13  H   UNL A   1      36.620  35.162  31.467  1.00  0.00     0.347 HD
ATOM     14  C   UNL A   1      34.732  33.543  32.392  1.00  0.00    -0.024 C 
ATOM     15  N   UNL A   1      35.976  35.238  33.527  1.00  0.00    -0.270 NA
ATOM     16  C   UNL A   1      34.885  32.822  31.043  1.00  0.00     0.109 C 
ATOM     17  C   UNL A   1      33.922  34.613  32.463  1.00  0.00     0.002 A 
ATOM     18  C   UNL A   1      34.806  35.620  33.095  1.00  0.00     0.066 A 
ATOM     19  C   UNL A   1      32.853  35.029  31.585  1.00  0.00     0.010 A 
ATOM     20  C   UNL A   1      34.343  37.034  32.998  1.00  0.00     0.028 A 
ATOM     21  C   UNL A   1      32.581  36.336  31.438  1.00  0.00     0.001 A 
ATOM     22  C   UNL A   1      33.304  37.337  32.197  1.00  0.00     0.002 A 
BRANCH   9  23
ATOM     23  C   UNL A   1      38.805  33.560  32.374  1.00  0.00     0.015 A 
ATOM     24  C   UNL A   1      39.436  32.201  30.303  1.00  0.00     0.045 C 
ATOM     25  C   UNL A   1      39.772  33.058  31.487  1.00  0.00    -0.042 A 
ATOM     26  C   UNL A   1      41.123  33.490  31.599  1.00  0.00     0.004 A 
ATOM     27  C   UNL A   1      41.543  34.404  32.566  1.00  0.00     0.000 A 
ATOM     28  C   UNL A   1      39.288  34.518  33.325  1.00  0.00     0.010 A 
ATOM     29  C   UNL A   1      40.616  34.921  33.443  1.00  0.00     0.001 A 
ENDBRANCH   9  23
ENDBRANCH   5   8
ENDBRANCH   3   4
ENDBRANCH   2   3
ENDBRANCH   1   2
BRANCH   1  30
ATOM     30  C   UNL A   1      34.946  29.446  27.745  1.00  0.00     0.116 C 
BRANCH  30  31
ATOM     31  N   UNL A   1      35.473  30.002  28.994  1.00  0.00    -0.352 N 
ATOM     32  C   UNL A   1      36.726  29.778  29.554  1.00  0.00     0.251 C 
ATOM     33  H   UNL A   1      34.873  30.601  29.493  1.00  0.00     0.163 HD
ATOM     34  O   UNL A   1      37.071  30.283  30.605  1.00  0.00    -0.269 OA
BRANCH  32  35
ATOM     35  C   UNL A   1      37.683  28.992  28.739  1.00  0.00     0.039 A 
ATOM     36  C   UNL A   1      38.102  27.779  29.289  1.00  0.00     0.014 A 
ATOM     37  C   UNL A   1      38.446  29.663  27.782  1.00  0.00     0.014 A 
ATOM     38  C   UNL A   1      39.422  27.389  29.107  1.00  0.00     0.010 A 
ATOM     39  C   UNL A   1      39.784  29.321  27.675  1.00  0.00     0.010 A 
ATOM     40  C   UNL A   1      40.286  28.238  28.409  1.00  0.00    -0.014 A 
BRANCH  40  41
ATOM     41  C   UNL A   1      41.733  28.073  28.482  1.00  0.00     0.031 A 
ATOM     42  C   UNL A   1      42.320  26.847  27.930  1.00  0.00     0.074 A 
ATOM     43  C   UNL A   1      42.537  28.905  29.182  1.00  0.00     0.049 A 
ATOM     44  N   UNL A   1      43.201  26.133  28.547  1.00  0.00    -0.248 NA
ATOM     45  C   UNL A   1      41.880  26.291  26.660  1.00  0.00     0.031 C 
ATOM     46  C   UNL A   1      43.995  28.851  29.273  1.00  0.00     0.029 A 
ATOM     47  N   UNL A   1      42.173  29.835  30.149  1.00  0.00    -0.354 N 
ATOM     48  C   UNL A   1      43.636  25.188  27.652  1.00  0.00     0.074 A 
ATOM     49  C   UNL A   1      42.719  25.262  26.534  1.00  0.00     0.031 C 
ATOM     50  C   UNL A   1      44.377  29.453  30.411  1.00  0.00     0.029 A 
ATOM     51  C   UNL A   1      43.177  29.850  31.128  1.00  0.00     0.049 A 
ATOM     52  H   UNL A   1      41.357  30.386  30.147  1.00  0.00     0.167 HD
ATOM     53  C   UNL A   1      44.818  24.542  27.849  1.00  0.00     0.031 A 
ATOM     54  C   UNL A   1      42.942  29.712  32.462  1.00  0.00     0.031 A 
ATOM     55  C   UNL A   1      45.507  24.988  29.056  1.00  0.00     0.049 A 
ATOM     56  C   UNL A   1      43.665  28.531  33.061  1.00  0.00     0.074 A 
ATOM     57  C   UNL A   1      46.535  25.896  29.254  1.00  0.00     0.029 A 
ATOM     58  N   UNL A   1      44.967  24.726  30.310  1.00  0.00    -0.354 N 
ATOM     59  N   UNL A   1      44.270  27.619  32.353  1.00  0.00    -0.248 NA
ATOM     60  C   UNL A   1      43.661  28.221  34.489  1.00  0.00     0.031 C 
ATOM     61  C   UNL A   1      46.582  26.217  30.632  1.00  0.00     0.029 A 
ATOM     62  C   UNL A   1      45.593  25.494  31.276  1.00  0.00     0.049 A 
ATOM     63  H   UNL A   1      44.241  24.084  30.486  1.00  0.00     0.167 HD
ATOM     64  C   UNL A   1      44.644  26.587  33.172  1.00  0.00     0.074 A 
ATOM     65  C   UNL A   1      44.280  27.029  34.506  1.00  0.00     0.031 C 
ATOM     66  C   UNL A   1      45.173  25.434  32.670  1.00  0.00     0.031 A 
BRANCH  53  67
ATOM     67  C   UNL A   1      45.478  23.784  26.726  1.00  0.00    -0.014 A 
ATOM     68  C   UNL A   1      46.267  24.469  25.788  1.00  0.00     0.009 A 
ATOM     69  C   UNL A   1      45.295  22.408  26.502  1.00  0.00     0.009 A 
ATOM     70  C   UNL A   1      46.734  23.847  24.624  1.00  0.00     0.001 A 
ATOM     71  C   UNL A   1      45.710  21.792  25.314  1.00  0.00     0.001 A 
ATOM     72  C   UNL A   1      46.419  22.518  24.367  1.00  0.00     0.000 A 
ENDBRANCH  53  67
BRANCH  54  73
ATOM     73  C   UNL A   1      41.582  30.145  32.879  1.00  0.00    -0.014 A 
ATOM     74  C   UNL A   1      40.486  29.370  32.454  1.00  0.00     0.009 A 
ATOM     75  C   UNL A   1      41.422  31.002  33.978  1.00  0.00     0.009 A 
ATOM     76  C   UNL A   1      39.308  29.347  33.202  1.00  0.00     0.001 A 
ATOM     77  C   UNL A   1      40.235  30.975  34.716  1.00  0.00     0.001 A 
ATOM     78  C   UNL A   1      39.199  30.113  34.358  1.00  0.00     0.000 A 
ENDBRANCH  54  73
BRANCH  66  79
ATOM     79  C   UNL A   1      45.410  24.173  33.458  1.00  0.00    -0.014 A 
ATOM     80  C   UNL A   1      46.614  23.861  34.103  1.00  0.00     0.009 A 
ATOM     81  C   UNL A   1      44.329  23.290  33.669  1.00  0.00     0.009 A 
ATOM     82  C   UNL A   1      46.753  22.693  34.865  1.00  0.00     0.001 A 
ATOM     83  C   UNL A   1      44.450  22.149  34.466  1.00  0.00     0.001 A 
ATOM     84  C   UNL A   1      45.670  21.841  35.051  1.00  0.00     0.000 A 
ENDBRANCH  66  79
ENDBRANCH  40  41
ENDBRANCH  32  35
ENDBRANCH  30  31
ENDBRANCH   1  30
TORSDOF 12
ENDMDL
MODEL 3
REMARK VINA RESULT:     -13.1      2.843      5.633
REMARK SMILES Cc1ccccc1[C@@H]1[NH2+][C@@H](C(=O)NCCCCNC(=O)c2ccc(-c3c4nc(c(-c5ccccc5)c5ccc([nH]5)c(-c5ccccc5)c5nc(c(-c6ccccc6)c6ccc3[nH]6)C=C5)C=C4)cc2)CC2=c3ccccc3=N[C@@H]21
REMARK SMILES IDX 16 1 15 2 14 3 13 4 11 5 12 6 10 8 8 9 9 10 78 11 70 14
REMARK SMILES IDX 77 15 69 16 71 17 76 18 72 19 75 20 73 21 74 22 7 23 1 24
REMARK SMILES IDX 2 25 3 26 4 27 6 28 5 29 17 30 18 31 19 32 20 34 21 35 22 36
REMARK SMILES IDX 68 37 23 38 67 39 24 40 25 41 26 42 61 43 27 44 66 45 60 46
REMARK SMILES IDX 62 47 28 48 65 49 59 50 58 51 29 53 51 54 36 55 50 56 37 57
REMARK SMILES IDX 40 58 49 59 63 60 38 61 39 62 48 64 64 65 41 66 30 67 31 68
REMARK SMILES IDX 35 69 32 70 34 71 33 72 52 73 53 74 57 75 54 76 56 77 55 78
REMARK SMILES IDX 42 79 43 80 47 81 44 82 46 83 45 84
REMARK H PARENT 13 7 9 12 9 13 18 33 62 52 40 63
REMARK Flexibility Score: inf
ROOT
ATOM      1  C   UNL A   1      34.805  32.745  28.193  1.00  0.00     0.023 C 
ENDROOT
BRANCH   1   2
ATOM      2  C   UNL A   1      34.776  31.291  27.644  1.00  0.00     0.023 C 
BRANCH   2   3
ATOM      3  C   UNL A   1      33.500  30.609  27.054  1.00  0.00     0.116 C 
BRANCH   3   4
ATOM      4  N   UNL A   1      32.523  29.709  27.712  1.00  0.00    -0.351 N 
ATOM      5  C   UNL A   1      31.740  28.650  27.261  1.00  0.00     0.278 C 
ATOM      6  O   UNL A   1      31.325  27.787  28.031  1.00  0.00    -0.268 OA
ATOM      7  H   UNL A   1      32.401  29.901  28.669  1.00  0.00     0.163 HD
BRANCH   5   8
ATOM      8  C   UNL A   1      31.393  28.700  25.792  1.00  0.00     0.277 C 
ATOM      9  C   UNL A   1      31.900  26.624  24.512  1.00  0.00     0.243 C 
ATOM     10  N   UNL A   1      31.046  27.308  25.488  1.00  0.00    -0.327 N 
ATOM     11  C   UNL A   1      31.417  27.352  23.167  1.00  0.00     0.196 C 
ATOM     12  H   UNL A   1      31.085  26.780  26.359  1.00  0.00     0.347 HD
ATOM     13  H   UNL A   1      30.120  27.346  25.060  1.00  0.00     0.347 HD
ATOM     14  C   UNL A   1      31.516  28.892  23.417  1.00  0.00    -0.024 C 
ATOM     15  N   UNL A   1      29.935  27.174  22.915  1.00  0.00    -0.270 NA
ATOM     16  C   UNL A   1      32.278  29.313  24.685  1.00  0.00     0.109 C 
ATOM     17  C   UNL A   1      30.367  29.522  23.117  1.00  0.00     0.002 A 
ATOM     18  C   UNL A   1      29.444  28.382  22.911  1.00  0.00     0.066 A 
ATOM     19  C   UNL A   1      29.863  30.799  23.566  1.00  0.00     0.010 A 
ATOM     20  C   UNL A   1      27.992  28.722  22.913  1.00  0.00     0.028 A 
ATOM     21  C   UNL A   1      28.538  30.989  23.679  1.00  0.00     0.001 A 
ATOM     22  C   UNL A   1      27.600  29.952  23.296  1.00  0.00     0.002 A 
BRANCH   9  23
ATOM     23  C   UNL A   1      31.919  25.130  24.924  1.00  0.00     0.015 A 
ATOM     24  C   UNL A   1      34.297  24.649  24.119  1.00  0.00     0.045 C 
ATOM     25  C   UNL A   1      33.017  24.262  24.797  1.00  0.00    -0.042 A 
ATOM     26  C   UNL A   1      33.004  23.007  25.467  1.00  0.00     0.004 A 
ATOM     27  C   UNL A   1      31.933  22.587  26.256  1.00  0.00     0.000 A 
ATOM     28  C   UNL A   1      30.863  24.659  25.771  1.00  0.00     0.010 A 
ATOM     29  C   UNL A   1      30.847  23.420  26.407  1.00  0.00     0.001 A 
ENDBRANCH   9  23
ENDBRANCH   5   8
ENDBRANCH   3   4
ENDBRANCH   2   3
ENDBRANCH   1   2
BRANCH   1  30
ATOM     30  C   UNL A   1      35.101  32.861  29.673  1.00  0.00     0.116 C 
BRANCH  30  31
ATOM     31  N   UNL A   1      34.058  33.509  30.472  1.00  0.00    -0.352 N 
ATOM     32  C   UNL A   1      34.139  33.906  31.802  1.00  0.00     0.251 C 
ATOM     33  H   UNL A   1      33.202  33.681  30.016  1.00  0.00     0.163 HD
ATOM     34  O   UNL A   1      33.211  34.434  32.384  1.00  0.00    -0.269 OA
BRANCH  32  35
ATOM     35  C   UNL A   1      35.466  33.779  32.450  1.00  0.00     0.039 A 
ATOM     36  C   UNL A   1      36.430  34.709  32.056  1.00  0.00     0.014 A 
ATOM     37  C   UNL A   1      35.822  32.545  32.997  1.00  0.00     0.014 A 
ATOM     38  C   UNL A   1      37.746  34.286  31.929  1.00  0.00     0.010 A 
ATOM     39  C   UNL A   1      37.115  32.099  32.785  1.00  0.00     0.010 A 
ATOM     40  C   UNL A   1      38.050  32.942  32.169  1.00  0.00    -0.014 A 
BRANCH  40  41
ATOM     41  C   UNL A   1      39.308  32.358  31.720  1.00  0.00     0.031 A 
ATOM     42  C   UNL A   1      39.253  31.181  30.845  1.00  0.00     0.074 A 
ATOM     43  C   UNL A   1      40.512  32.735  32.205  1.00  0.00     0.049 A 
ATOM     44  N   UNL A   1      39.967  30.120  31.024  1.00  0.00    -0.248 NA
ATOM     45  C   UNL A   1      38.310  31.090  29.741  1.00  0.00     0.031 C 
ATOM     46  C   UNL A   1      41.824  32.246  31.783  1.00  0.00     0.029 A 
ATOM     47  N   UNL A   1      40.781  33.475  33.351  1.00  0.00    -0.354 N 
ATOM     48  C   UNL A   1      39.777  29.329  29.918  1.00  0.00     0.074 A 
ATOM     49  C   UNL A   1      38.668  29.924  29.203  1.00  0.00     0.031 C 
ATOM     50  C   UNL A   1      42.694  32.427  32.790  1.00  0.00     0.029 A 
ATOM     51  C   UNL A   1      41.959  32.969  33.920  1.00  0.00     0.049 A 
ATOM     52  H   UNL A   1      40.241  34.220  33.701  1.00  0.00     0.167 HD
ATOM     53  C   UNL A   1      40.665  28.345  29.613  1.00  0.00     0.031 A 
ATOM     54  C   UNL A   1      42.075  32.595  35.224  1.00  0.00     0.031 A 
ATOM     55  C   UNL A   1      41.775  28.277  30.559  1.00  0.00     0.049 A 
ATOM     56  C   UNL A   1      42.480  31.149  35.379  1.00  0.00     0.074 A 
ATOM     57  C   UNL A   1      43.066  28.779  30.510  1.00  0.00     0.029 A 
ATOM     58  N   UNL A   1      41.553  27.892  31.876  1.00  0.00    -0.354 N 
ATOM     59  N   UNL A   1      42.506  30.296  34.394  1.00  0.00    -0.248 NA
ATOM     60  C   UNL A   1      42.769  30.526  36.669  1.00  0.00     0.031 C 
ATOM     61  C   UNL A   1      43.606  28.738  31.818  1.00  0.00     0.029 A 
ATOM     62  C   UNL A   1      42.651  28.198  32.661  1.00  0.00     0.049 A 
ATOM     63  H   UNL A   1      40.730  27.462  32.204  1.00  0.00     0.167 HD
ATOM     64  C   UNL A   1      42.712  29.038  34.893  1.00  0.00     0.074 A 
ATOM     65  C   UNL A   1      42.914  29.237  36.316  1.00  0.00     0.031 C 
ATOM     66  C   UNL A   1      42.645  27.934  34.094  1.00  0.00     0.031 A 
BRANCH  53  67
ATOM     67  C   UNL A   1      40.678  27.717  28.243  1.00  0.00    -0.014 A 
ATOM     68  C   UNL A   1      40.068  26.468  28.040  1.00  0.00     0.009 A 
ATOM     69  C   UNL A   1      41.338  28.276  27.135  1.00  0.00     0.009 A 
ATOM     70  C   UNL A   1      40.224  25.758  26.843  1.00  0.00     0.001 A 
ATOM     71  C   UNL A   1      41.546  27.550  25.956  1.00  0.00     0.001 A 
ATOM     72  C   UNL A   1      40.999  26.282  25.816  1.00  0.00     0.000 A 
ENDBRANCH  53  67
BRANCH  54  73
ATOM     73  C   UNL A   1      41.126  33.287  36.134  1.00  0.00    -0.014 A 
ATOM     74  C   UNL A   1      41.424  34.609  36.514  1.00  0.00     0.009 A 
ATOM     75  C   UNL A   1      39.807  32.827  36.258  1.00  0.00     0.009 A 
ATOM     76  C   UNL A   1      40.399  35.489  36.868  1.00  0.00     0.001 A 
ATOM     77  C   UNL A   1      38.789  33.714  36.620  1.00  0.00     0.001 A 
ATOM     78  C   UNL A   1      39.078  35.054  36.876  1.00  0.00     0.000 A 
ENDBRANCH  54  73
BRANCH  66  79
ATOM     79  C   UNL A   1      42.640  26.509  34.581  1.00  0.00    -0.014 A 
ATOM     80  C   UNL A   1      41.581  25.922  35.287  1.00  0.00     0.009 A 
ATOM     81  C   UNL A   1      43.707  25.661  34.216  1.00  0.00     0.009 A 
ATOM     82  C   UNL A   1      41.616  24.573  35.668  1.00  0.00     0.001 A 
ATOM     83  C   UNL A   1      43.725  24.305  34.553  1.00  0.00     0.001 A 
ATOM     84  C   UNL A   1      42.685  23.765  35.295  1.00  0.00     0.000 A 
ENDBRANCH  66  79
ENDBRANCH  40  41
ENDBRANCH  32  35
ENDBRANCH  30  31
ENDBRANCH   1  30
TORSDOF 12
ENDMDL
