MODEL 1
REMARK VINA RESULT:     -11.2      0.000      0.000
REMARK SMILES O=C(CSc1ccc2ccccc2n1)NCc1ccc(C(=O)NCCCCNC(=O)c2ccc(-c3c4nc(c(-c5ccccc5)c5ccc([nH]5)c(-c5ccccc5)c5nc(c(-c6ccccc6)c6ccc3[nH]6)C=C5)C=C4)cc2)cc1
REMARK SMILES IDX 24 1 23 2 21 3 22 4 20 6 17 7 18 8 80 9 19 10 79 11 16 12
REMARK SMILES IDX 15 13 1 14 2 15 3 17 4 18 5 19 6 20 14 21 7 22 13 23 8 24
REMARK SMILES IDX 12 25 9 26 11 27 10 28 25 29 26 30 27 31 28 32 29 33 30 35
REMARK SMILES IDX 31 36 32 37 78 38 33 39 77 40 34 41 35 42 36 43 71 44 37 45
REMARK SMILES IDX 76 46 70 47 72 48 38 49 75 50 69 51 68 52 39 54 61 55 46 56
REMARK SMILES IDX 60 57 47 58 50 59 59 60 73 61 48 62 49 63 58 65 74 66 51 67
REMARK SMILES IDX 40 68 41 69 45 70 42 71 44 72 43 73 62 74 63 75 67 76 64 77
REMARK SMILES IDX 66 78 65 79 52 80 53 81 57 82 54 83 56 84 55 85
REMARK H PARENT 23 5 15 16 28 34 72 53 50 64
REMARK Flexibility Score: inf
ROOT
ATOM      1  C   UNL A   1      31.650  29.201  24.721  1.00  0.00     0.116 C 
ENDROOT
BRANCH   1   2
ATOM      2  N   UNL A   1      30.500  28.849  23.911  1.00  0.00    -0.352 N 
ATOM      3  C   UNL A   1      29.815  27.666  23.770  1.00  0.00     0.251 C 
ATOM      4  O   UNL A   1      28.813  27.667  23.054  1.00  0.00    -0.269 OA
ATOM      5  H   UNL A   1      30.146  29.589  23.367  1.00  0.00     0.163 HD
BRANCH   3   6
ATOM      6  C   UNL A   1      30.201  26.414  24.477  1.00  0.00     0.039 A 
ATOM      7  C   UNL A   1      31.002  24.127  25.948  1.00  0.00    -0.029 A 
ATOM      8  C   UNL A   1      30.992  25.398  26.543  1.00  0.00     0.006 A 
ATOM      9  C   UNL A   1      30.564  24.015  24.623  1.00  0.00     0.006 A 
ATOM     10  C   UNL A   1      30.597  26.527  25.816  1.00  0.00     0.014 A 
ATOM     11  C   UNL A   1      30.146  25.142  23.906  1.00  0.00     0.014 A 
BRANCH   7  12
ATOM     12  C   UNL A   1      31.486  22.944  26.761  1.00  0.00     0.151 C 
BRANCH  12  13
ATOM     13  N   UNL A   1      32.196  21.958  25.981  1.00  0.00    -0.351 N 
ATOM     14  O   UNL A   1      33.677  21.350  27.621  1.00  0.00    -0.274 OA
ATOM     15  C   UNL A   1      33.255  21.232  26.471  1.00  0.00     0.230 C 
ATOM     16  H   UNL A   1      31.908  21.796  25.053  1.00  0.00     0.163 HD
BRANCH  15  17
ATOM     17  C   UNL A   1      33.987  20.370  25.455  1.00  0.00     0.176 C 
BRANCH  17  18
ATOM     18  S   UNL A   1      35.586  21.050  24.930  1.00  0.00    -0.096 SA
BRANCH  18  19
ATOM     19  C   UNL A   1      35.063  22.699  24.522  1.00  0.00     0.097 A 
ATOM     20  C   UNL A   1      35.325  23.758  25.377  1.00  0.00     0.036 A 
ATOM     21  N   UNL A   1      34.390  22.831  23.359  1.00  0.00    -0.241 NA
ATOM     22  C   UNL A   1      34.871  25.023  25.020  1.00  0.00     0.013 A 
ATOM     23  C   UNL A   1      33.945  24.053  23.020  1.00  0.00     0.072 A 
ATOM     24  C   UNL A   1      34.162  25.191  23.826  1.00  0.00     0.000 A 
ATOM     25  C   UNL A   1      33.235  24.217  21.837  1.00  0.00     0.029 A 
ATOM     26  C   UNL A   1      33.670  26.448  23.430  1.00  0.00     0.010 A 
ATOM     27  C   UNL A   1      32.741  25.465  21.441  1.00  0.00     0.002 A 
ATOM     28  C   UNL A   1      32.959  26.581  22.241  1.00  0.00     0.001 A 
ENDBRANCH  18  19
ENDBRANCH  17  18
ENDBRANCH  15  17
ENDBRANCH  12  13
ENDBRANCH   7  12
ENDBRANCH   3   6
ENDBRANCH   1   2
BRANCH   1  29
ATOM     29  C   UNL A   1      31.405  30.509  25.477  1.00  0.00     0.023 C 
BRANCH  29  30
ATOM     30  C   UNL A   1      31.933  30.518  26.914  1.00  0.00     0.023 C 
BRANCH  30  31
ATOM     31  C   UNL A   1      33.054  31.516  27.181  1.00  0.00     0.116 C 
BRANCH  31  32
ATOM     32  N   UNL A   1      32.574  32.847  27.518  1.00  0.00    -0.352 N 
ATOM     33  C   UNL A   1      33.175  33.795  28.314  1.00  0.00     0.251 C 
ATOM     34  H   UNL A   1      31.707  33.102  27.127  1.00  0.00     0.163 HD
ATOM     35  O   UNL A   1      32.601  34.842  28.583  1.00  0.00    -0.269 OA
BRANCH  33  36
ATOM     36  C   UNL A   1      34.508  33.509  28.878  1.00  0.00     0.039 A 
ATOM     37  C   UNL A   1      34.591  32.800  30.079  1.00  0.00     0.014 A 
ATOM     38  C   UNL A   1      35.666  33.884  28.192  1.00  0.00     0.014 A 
ATOM     39  C   UNL A   1      35.840  32.392  30.552  1.00  0.00     0.010 A 
ATOM     40  C   UNL A   1      36.903  33.427  28.633  1.00  0.00     0.010 A 
ATOM     41  C   UNL A   1      36.998  32.664  29.807  1.00  0.00    -0.014 A 
BRANCH  41  42
ATOM     42  C   UNL A   1      38.321  32.134  30.215  1.00  0.00     0.031 A 
ATOM     43  C   UNL A   1      38.805  30.819  29.676  1.00  0.00     0.074 A 
ATOM     44  C   UNL A   1      39.043  32.794  31.141  1.00  0.00     0.049 A 
ATOM     45  N   UNL A   1      39.875  30.140  29.999  1.00  0.00    -0.248 NA
ATOM     46  C   UNL A   1      37.964  30.173  28.656  1.00  0.00     0.031 C 
ATOM     47  C   UNL A   1      38.669  34.065  31.765  1.00  0.00     0.029 A 
ATOM     48  N   UNL A   1      40.241  32.475  31.732  1.00  0.00    -0.354 N 
ATOM     49  C   UNL A   1      39.828  28.980  29.236  1.00  0.00     0.074 A 
ATOM     50  C   UNL A   1      38.605  29.030  28.464  1.00  0.00     0.031 C 
ATOM     51  C   UNL A   1      39.624  34.426  32.637  1.00  0.00     0.029 A 
ATOM     52  C   UNL A   1      40.654  33.393  32.666  1.00  0.00     0.049 A 
ATOM     53  H   UNL A   1      40.754  31.667  31.507  1.00  0.00     0.167 HD
ATOM     54  C   UNL A   1      40.729  27.971  29.175  1.00  0.00     0.031 A 
ATOM     55  C   UNL A   1      41.734  33.395  33.471  1.00  0.00     0.031 A 
ATOM     56  C   UNL A   1      41.948  27.926  29.934  1.00  0.00     0.049 A 
ATOM     57  C   UNL A   1      42.700  32.246  33.407  1.00  0.00     0.074 A 
ATOM     58  C   UNL A   1      42.952  26.975  29.897  1.00  0.00     0.029 A 
ATOM     59  N   UNL A   1      42.327  28.874  30.872  1.00  0.00    -0.354 N 
ATOM     60  N   UNL A   1      42.670  31.184  32.639  1.00  0.00    -0.248 NA
ATOM     61  C   UNL A   1      43.848  32.295  34.324  1.00  0.00     0.031 C 
ATOM     62  C   UNL A   1      43.920  27.324  30.844  1.00  0.00     0.029 A 
ATOM     63  C   UNL A   1      43.539  28.515  31.440  1.00  0.00     0.049 A 
ATOM     64  H   UNL A   1      41.813  29.681  31.100  1.00  0.00     0.167 HD
ATOM     65  C   UNL A   1      43.803  30.450  32.964  1.00  0.00     0.074 A 
ATOM     66  C   UNL A   1      44.506  31.194  33.989  1.00  0.00     0.031 C 
ATOM     67  C   UNL A   1      44.223  29.265  32.459  1.00  0.00     0.031 A 
BRANCH  54  68
ATOM     68  C   UNL A   1      40.420  26.828  28.252  1.00  0.00    -0.014 A 
ATOM     69  C   UNL A   1      39.633  25.745  28.677  1.00  0.00     0.009 A 
ATOM     70  C   UNL A   1      40.892  26.849  26.931  1.00  0.00     0.009 A 
ATOM     71  C   UNL A   1      39.353  24.691  27.806  1.00  0.00     0.001 A 
ATOM     72  C   UNL A   1      40.589  25.804  26.055  1.00  0.00     0.001 A 
ATOM     73  C   UNL A   1      39.827  24.724  26.496  1.00  0.00     0.000 A 
ENDBRANCH  54  68
BRANCH  55  74
ATOM     74  C   UNL A   1      41.963  34.522  34.410  1.00  0.00    -0.014 A 
ATOM     75  C   UNL A   1      42.693  35.648  33.999  1.00  0.00     0.009 A 
ATOM     76  C   UNL A   1      41.463  34.476  35.720  1.00  0.00     0.009 A 
ATOM     77  C   UNL A   1      42.937  36.695  34.890  1.00  0.00     0.001 A 
ATOM     78  C   UNL A   1      41.688  35.536  36.601  1.00  0.00     0.001 A 
ATOM     79  C   UNL A   1      42.431  36.640  36.188  1.00  0.00     0.000 A 
ENDBRANCH  55  74
BRANCH  67  80
ATOM     80  C   UNL A   1      45.512  28.712  32.989  1.00  0.00    -0.014 A 
ATOM     81  C   UNL A   1      45.525  27.823  34.074  1.00  0.00     0.009 A 
ATOM     82  C   UNL A   1      46.723  29.045  32.363  1.00  0.00     0.009 A 
ATOM     83  C   UNL A   1      46.732  27.294  34.536  1.00  0.00     0.001 A 
ATOM     84  C   UNL A   1      47.925  28.497  32.812  1.00  0.00     0.001 A 
ATOM     85  C   UNL A   1      47.929  27.626  33.901  1.00  0.00     0.000 A 
ENDBRANCH  67  80
ENDBRANCH  41  42
ENDBRANCH  33  36
ENDBRANCH  31  32
ENDBRANCH  30  31
ENDBRANCH  29  30
ENDBRANCH   1  29
TORSDOF 16
ENDMDL
MODEL 2
REMARK VINA RESULT:     -11.1      2.509      6.676
REMARK SMILES O=C(CSc1ccc2ccccc2n1)NCc1ccc(C(=O)NCCCCNC(=O)c2ccc(-c3c4nc(c(-c5ccccc5)c5ccc([nH]5)c(-c5ccccc5)c5nc(c(-c6ccccc6)c6ccc3[nH]6)C=C5)C=C4)cc2)cc1
REMARK SMILES IDX 24 1 23 2 21 3 22 4 20 6 17 7 18 8 80 9 19 10 79 11 16 12
REMARK SMILES IDX 15 13 1 14 2 15 3 17 4 18 5 19 6 20 14 21 7 22 13 23 8 24
REMARK SMILES IDX 12 25 9 26 11 27 10 28 25 29 26 30 27 31 28 32 29 33 30 35
REMARK SMILES IDX 31 36 32 37 78 38 33 39 77 40 34 41 35 42 36 43 71 44 37 45
REMARK SMILES IDX 76 46 70 47 72 48 38 49 75 50 69 51 68 52 39 54 61 55 46 56
REMARK SMILES IDX 60 57 47 58 50 59 59 60 73 61 48 62 49 63 58 65 74 66 51 67
REMARK SMILES IDX 40 68 41 69 45 70 42 71 44 72 43 73 62 74 63 75 67 76 64 77
REMARK SMILES IDX 66 78 65 79 52 80 53 81 57 82 54 83 56 84 55 85
REMARK H PARENT 23 5 15 16 28 34 72 53 50 64
REMARK Flexibility Score: inf
ROOT
ATOM      1  C   UNL A   1      34.026  31.884  28.049  1.00  0.00     0.116 C 
ENDROOT
BRANCH   1   2
ATOM      2  N   UNL A   1      32.827  32.056  27.252  1.00  0.00    -0.352 N 
ATOM      3  C   UNL A   1      32.059  31.153  26.557  1.00  0.00     0.251 C 
ATOM      4  O   UNL A   1      31.035  31.570  26.015  1.00  0.00    -0.269 OA
ATOM      5  H   UNL A   1      32.505  32.985  27.201  1.00  0.00     0.163 HD
BRANCH   3   6
ATOM      6  C   UNL A   1      32.384  29.703  26.477  1.00  0.00     0.039 A 
ATOM      7  C   UNL A   1      32.866  26.909  26.422  1.00  0.00    -0.029 A 
ATOM      8  C   UNL A   1      31.639  27.419  26.876  1.00  0.00     0.006 A 
ATOM      9  C   UNL A   1      33.825  27.816  25.957  1.00  0.00     0.006 A 
ATOM     10  C   UNL A   1      31.402  28.799  26.903  1.00  0.00     0.014 A 
ATOM     11  C   UNL A   1      33.577  29.193  25.963  1.00  0.00     0.014 A 
BRANCH   7  12
ATOM     12  C   UNL A   1      33.092  25.412  26.459  1.00  0.00     0.151 C 
BRANCH  12  13
ATOM     13  N   UNL A   1      33.550  24.865  25.203  1.00  0.00    -0.351 N 
ATOM     14  O   UNL A   1      33.032  22.682  25.668  1.00  0.00    -0.274 OA
ATOM     15  C   UNL A   1      33.493  23.526  24.900  1.00  0.00     0.230 C 
ATOM     16  H   UNL A   1      33.920  25.482  24.530  1.00  0.00     0.163 HD
BRANCH  15  17
ATOM     17  C   UNL A   1      34.178  23.115  23.607  1.00  0.00     0.176 C 
BRANCH  17  18
ATOM     18  S   UNL A   1      33.142  23.319  22.130  1.00  0.00    -0.096 SA
BRANCH  18  19
ATOM     19  C   UNL A   1      32.717  25.034  22.327  1.00  0.00     0.097 A 
ATOM     20  C   UNL A   1      33.641  26.029  22.051  1.00  0.00     0.036 A 
ATOM     21  N   UNL A   1      31.468  25.281  22.776  1.00  0.00    -0.241 NA
ATOM     22  C   UNL A   1      33.262  27.353  22.245  1.00  0.00     0.013 A 
ATOM     23  C   UNL A   1      31.107  26.561  22.971  1.00  0.00     0.072 A 
ATOM     24  C   UNL A   1      31.978  27.643  22.719  1.00  0.00     0.000 A 
ATOM     25  C   UNL A   1      29.834  26.846  23.447  1.00  0.00     0.029 A 
ATOM     26  C   UNL A   1      31.556  28.965  22.946  1.00  0.00     0.010 A 
ATOM     27  C   UNL A   1      29.410  28.160  23.678  1.00  0.00     0.002 A 
ATOM     28  C   UNL A   1      30.274  29.220  23.427  1.00  0.00     0.001 A 
ENDBRANCH  18  19
ENDBRANCH  17  18
ENDBRANCH  15  17
ENDBRANCH  12  13
ENDBRANCH   7  12
ENDBRANCH   3   6
ENDBRANCH   1   2
BRANCH   1  29
ATOM     29  C   UNL A   1      34.316  33.140  28.876  1.00  0.00     0.023 C 
BRANCH  29  30
ATOM     30  C   UNL A   1      33.258  34.239  28.749  1.00  0.00     0.023 C 
BRANCH  30  31
ATOM     31  C   UNL A   1      33.639  35.574  29.378  1.00  0.00     0.116 C 
BRANCH  31  32
ATOM     32  N   UNL A   1      32.688  36.032  30.380  1.00  0.00    -0.352 N 
ATOM     33  C   UNL A   1      32.717  35.830  31.741  1.00  0.00     0.251 C 
ATOM     34  H   UNL A   1      31.925  36.554  30.040  1.00  0.00     0.163 HD
ATOM     35  O   UNL A   1      31.791  36.199  32.449  1.00  0.00    -0.269 OA
BRANCH  33  36
ATOM     36  C   UNL A   1      33.867  35.115  32.329  1.00  0.00     0.039 A 
ATOM     37  C   UNL A   1      33.672  33.825  32.828  1.00  0.00     0.014 A 
ATOM     38  C   UNL A   1      35.138  35.694  32.329  1.00  0.00     0.014 A 
ATOM     39  C   UNL A   1      34.773  33.078  33.251  1.00  0.00     0.010 A 
ATOM     40  C   UNL A   1      36.240  34.929  32.696  1.00  0.00     0.010 A 
ATOM     41  C   UNL A   1      36.068  33.610  33.146  1.00  0.00    -0.014 A 
BRANCH  41  42
ATOM     42  C   UNL A   1      37.266  32.797  33.466  1.00  0.00     0.031 A 
ATOM     43  C   UNL A   1      38.028  33.046  34.735  1.00  0.00     0.074 A 
ATOM     44  C   UNL A   1      37.718  31.900  32.568  1.00  0.00     0.049 A 
ATOM     45  N   UNL A   1      39.157  32.520  35.135  1.00  0.00    -0.248 NA
ATOM     46  C   UNL A   1      37.456  34.030  35.668  1.00  0.00     0.031 C 
ATOM     47  C   UNL A   1      37.085  31.588  31.285  1.00  0.00     0.029 A 
ATOM     48  N   UNL A   1      38.829  31.094  32.595  1.00  0.00    -0.354 N 
ATOM     49  C   UNL A   1      39.440  33.120  36.354  1.00  0.00     0.074 A 
ATOM     50  C   UNL A   1      38.385  34.077  36.611  1.00  0.00     0.031 C 
ATOM     51  C   UNL A   1      37.808  30.648  30.655  1.00  0.00     0.029 A 
ATOM     52  C   UNL A   1      38.975  30.322  31.468  1.00  0.00     0.049 A 
ATOM     53  H   UNL A   1      39.460  31.071  33.349  1.00  0.00     0.167 HD
ATOM     54  C   UNL A   1      40.478  32.886  37.191  1.00  0.00     0.031 A 
ATOM     55  C   UNL A   1      39.949  29.462  31.119  1.00  0.00     0.031 A 
ATOM     56  C   UNL A   1      41.520  31.928  36.942  1.00  0.00     0.049 A 
ATOM     57  C   UNL A   1      41.108  29.246  32.051  1.00  0.00     0.074 A 
ATOM     58  C   UNL A   1      42.582  31.578  37.757  1.00  0.00     0.029 A 
ATOM     59  N   UNL A   1      41.633  31.170  35.787  1.00  0.00    -0.354 N 
ATOM     60  N   UNL A   1      41.331  29.780  33.227  1.00  0.00    -0.248 NA
ATOM     61  C   UNL A   1      42.150  28.309  31.606  1.00  0.00     0.031 C 
ATOM     62  C   UNL A   1      43.363  30.638  37.077  1.00  0.00     0.029 A 
ATOM     63  C   UNL A   1      42.763  30.372  35.857  1.00  0.00     0.049 A 
ATOM     64  H   UNL A   1      41.004  31.195  35.030  1.00  0.00     0.167 HD
ATOM     65  C   UNL A   1      42.526  29.230  33.671  1.00  0.00     0.074 A 
ATOM     66  C   UNL A   1      42.974  28.311  32.645  1.00  0.00     0.031 C 
ATOM     67  C   UNL A   1      43.194  29.466  34.826  1.00  0.00     0.031 A 
BRANCH  54  68
ATOM     68  C   UNL A   1      40.534  33.688  38.459  1.00  0.00    -0.014 A 
ATOM     69  C   UNL A   1      41.203  34.922  38.506  1.00  0.00     0.009 A 
ATOM     70  C   UNL A   1      39.883  33.222  39.611  1.00  0.00     0.009 A 
ATOM     71  C   UNL A   1      41.244  35.658  39.692  1.00  0.00     0.001 A 
ATOM     72  C   UNL A   1      39.906  33.973  40.788  1.00  0.00     0.001 A 
ATOM     73  C   UNL A   1      40.593  35.184  40.829  1.00  0.00     0.000 A 
ENDBRANCH  54  68
BRANCH  55  74
ATOM     74  C   UNL A   1      39.876  28.736  29.825  1.00  0.00    -0.014 A 
ATOM     75  C   UNL A   1      39.322  27.448  29.767  1.00  0.00     0.009 A 
ATOM     76  C   UNL A   1      40.367  29.320  28.648  1.00  0.00     0.009 A 
ATOM     77  C   UNL A   1      39.281  26.752  28.557  1.00  0.00     0.001 A 
ATOM     78  C   UNL A   1      40.302  28.630  27.435  1.00  0.00     0.001 A 
ATOM     79  C   UNL A   1      39.768  27.343  27.392  1.00  0.00     0.000 A 
ENDBRANCH  55  74
BRANCH  67  80
ATOM     80  C   UNL A   1      44.465  28.702  35.052  1.00  0.00    -0.014 A 
ATOM     81  C   UNL A   1      45.705  29.233  34.669  1.00  0.00     0.009 A 
ATOM     82  C   UNL A   1      44.425  27.459  35.702  1.00  0.00     0.009 A 
ATOM     83  C   UNL A   1      46.882  28.521  34.914  1.00  0.00     0.001 A 
ATOM     84  C   UNL A   1      45.603  26.761  35.966  1.00  0.00     0.001 A 
ATOM     85  C   UNL A   1      46.831  27.290  35.567  1.00  0.00     0.000 A 
ENDBRANCH  67  80
ENDBRANCH  41  42
ENDBRANCH  33  36
ENDBRANCH  31  32
ENDBRANCH  30  31
ENDBRANCH  29  30
ENDBRANCH   1  29
TORSDOF 16
ENDMDL
MODEL 3
REMARK VINA RESULT:     -11.1      1.127      6.052
REMARK SMILES O=C(CSc1ccc2ccccc2n1)NCc1ccc(C(=O)NCCCCNC(=O)c2ccc(-c3c4nc(c(-c5ccccc5)c5ccc([nH]5)c(-c5ccccc5)c5nc(c(-c6ccccc6)c6ccc3[nH]6)C=C5)C=C4)cc2)cc1
REMARK SMILES IDX 24 1 23 2 21 3 22 4 20 6 17 7 18 8 80 9 19 10 79 11 16 12
REMARK SMILES IDX 15 13 1 14 2 15 3 17 4 18 5 19 6 20 14 21 7 22 13 23 8 24
REMARK SMILES IDX 12 25 9 26 11 27 10 28 25 29 26 30 27 31 28 32 29 33 30 35
REMARK SMILES IDX 31 36 32 37 78 38 33 39 77 40 34 41 35 42 36 43 71 44 37 45
REMARK SMILES IDX 76 46 70 47 72 48 38 49 75 50 69 51 68 52 39 54 61 55 46 56
REMARK SMILES IDX 60 57 47 58 50 59 59 60 73 61 48 62 49 63 58 65 74 66 51 67
REMARK SMILES IDX 40 68 41 69 45 70 42 71 44 72 43 73 62 74 63 75 67 76 64 77
REMARK SMILES IDX 66 78 65 79 52 80 53 81 57 82 54 83 56 84 55 85
REMARK H PARENT 23 5 15 16 28 34 72 53 50 64
REMARK Flexibility Score: inf
ROOT
ATOM      1  C   UNL A   1      31.398  29.104  25.940  1.00  0.00     0.116 C 
ENDROOT
BRANCH   1   2
ATOM      2  N   UNL A   1      31.844  29.417  24.596  1.00  0.00    -0.352 N 
ATOM      3  C   UNL A   1      32.668  28.739  23.730  1.00  0.00     0.251 C 
ATOM      4  O   UNL A   1      32.825  29.208  22.602  1.00  0.00    -0.269 OA
ATOM      5  H   UNL A   1      31.494  30.265  24.240  1.00  0.00     0.163 HD
BRANCH   3   6
ATOM      6  C   UNL A   1      33.329  27.451  24.078  1.00  0.00     0.039 A 
ATOM      7  C   UNL A   1      34.616  25.061  24.898  1.00  0.00    -0.029 A 
ATOM      8  C   UNL A   1      34.209  26.019  25.840  1.00  0.00     0.006 A 
ATOM      9  C   UNL A   1      34.329  25.300  23.549  1.00  0.00     0.006 A 
ATOM     10  C   UNL A   1      33.574  27.200  25.434  1.00  0.00     0.014 A 
ATOM     11  C   UNL A   1      33.673  26.469  23.148  1.00  0.00     0.014 A 
BRANCH   7  12
ATOM     12  C   UNL A   1      35.343  23.825  25.383  1.00  0.00     0.151 C 
BRANCH  12  13
ATOM     13  N   UNL A   1      34.466  22.814  25.926  1.00  0.00    -0.351 N 
ATOM     14  O   UNL A   1      35.924  21.061  25.704  1.00  0.00    -0.274 OA
ATOM     15  C   UNL A   1      34.822  21.491  26.040  1.00  0.00     0.230 C 
ATOM     16  H   UNL A   1      33.568  23.085  26.230  1.00  0.00     0.163 HD
BRANCH  15  17
ATOM     17  C   UNL A   1      33.712  20.546  26.470  1.00  0.00     0.176 C 
BRANCH  17  18
ATOM     18  S   UNL A   1      32.685  19.946  25.098  1.00  0.00    -0.096 SA
BRANCH  18  19
ATOM     19  C   UNL A   1      31.991  21.496  24.575  1.00  0.00     0.097 A 
ATOM     20  C   UNL A   1      31.977  21.850  23.234  1.00  0.00     0.036 A 
ATOM     21  N   UNL A   1      31.514  22.288  25.558  1.00  0.00    -0.241 NA
ATOM     22  C   UNL A   1      31.444  23.085  22.884  1.00  0.00     0.013 A 
ATOM     23  C   UNL A   1      31.006  23.486  25.218  1.00  0.00     0.072 A 
ATOM     24  C   UNL A   1      30.950  23.933  23.880  1.00  0.00     0.000 A 
ATOM     25  C   UNL A   1      30.523  24.329  26.209  1.00  0.00     0.029 A 
ATOM     26  C   UNL A   1      30.416  25.198  23.575  1.00  0.00     0.010 A 
ATOM     27  C   UNL A   1      29.994  25.589  25.911  1.00  0.00     0.002 A 
ATOM     28  C   UNL A   1      29.942  26.024  24.591  1.00  0.00     0.001 A 
ENDBRANCH  18  19
ENDBRANCH  17  18
ENDBRANCH  15  17
ENDBRANCH  12  13
ENDBRANCH   7  12
ENDBRANCH   3   6
ENDBRANCH   1   2
BRANCH   1  29
ATOM     29  C   UNL A   1      32.105  29.991  26.968  1.00  0.00     0.023 C 
BRANCH  29  30
ATOM     30  C   UNL A   1      31.820  31.487  26.816  1.00  0.00     0.023 C 
BRANCH  30  31
ATOM     31  C   UNL A   1      32.993  32.402  27.148  1.00  0.00     0.116 C 
BRANCH  31  32
ATOM     32  N   UNL A   1      32.584  33.723  27.601  1.00  0.00    -0.352 N 
ATOM     33  C   UNL A   1      33.177  34.520  28.553  1.00  0.00     0.251 C 
ATOM     34  H   UNL A   1      31.780  34.094  27.171  1.00  0.00     0.163 HD
ATOM     35  O   UNL A   1      32.661  35.575  28.897  1.00  0.00    -0.269 OA
BRANCH  33  36
ATOM     36  C   UNL A   1      34.426  34.059  29.189  1.00  0.00     0.039 A 
ATOM     37  C   UNL A   1      34.345  33.333  30.380  1.00  0.00     0.014 A 
ATOM     38  C   UNL A   1      35.661  34.290  28.580  1.00  0.00     0.014 A 
ATOM     39  C   UNL A   1      35.500  32.763  30.918  1.00  0.00     0.010 A 
ATOM     40  C   UNL A   1      36.801  33.673  29.084  1.00  0.00     0.010 A 
ATOM     41  C   UNL A   1      36.727  32.891  30.248  1.00  0.00    -0.014 A 
BRANCH  41  42
ATOM     42  C   UNL A   1      37.944  32.192  30.724  1.00  0.00     0.031 A 
ATOM     43  C   UNL A   1      38.803  32.812  31.787  1.00  0.00     0.074 A 
ATOM     44  C   UNL A   1      38.323  31.043  30.131  1.00  0.00     0.049 A 
ATOM     45  N   UNL A   1      39.959  32.411  32.250  1.00  0.00    -0.248 NA
ATOM     46  C   UNL A   1      38.308  34.058  32.394  1.00  0.00     0.031 C 
ATOM     47  C   UNL A   1      37.590  30.354  29.066  1.00  0.00     0.029 A 
ATOM     48  N   UNL A   1      39.430  30.258  30.334  1.00  0.00    -0.354 N 
ATOM     49  C   UNL A   1      40.337  33.362  33.188  1.00  0.00     0.074 A 
ATOM     50  C   UNL A   1      39.308  34.380  33.201  1.00  0.00     0.031 C 
ATOM     51  C   UNL A   1      38.260  29.242  28.720  1.00  0.00     0.029 A 
ATOM     52  C   UNL A   1      39.487  29.162  29.507  1.00  0.00     0.049 A 
ATOM     53  H   UNL A   1      40.118  30.460  31.007  1.00  0.00     0.167 HD
ATOM     54  C   UNL A   1      41.437  33.380  33.978  1.00  0.00     0.031 A 
ATOM     55  C   UNL A   1      40.429  28.209  29.382  1.00  0.00     0.031 A 
ATOM     56  C   UNL A   1      42.455  32.365  33.974  1.00  0.00     0.049 A 
ATOM     57  C   UNL A   1      41.657  28.271  30.247  1.00  0.00     0.074 A 
ATOM     58  C   UNL A   1      43.576  32.265  34.778  1.00  0.00     0.029 A 
ATOM     59  N   UNL A   1      42.476  31.275  33.118  1.00  0.00    -0.354 N 
ATOM     60  N   UNL A   1      41.972  29.148  31.169  1.00  0.00    -0.248 NA
ATOM     61  C   UNL A   1      42.658  27.214  30.051  1.00  0.00     0.031 C 
ATOM     62  C   UNL A   1      44.299  31.137  34.381  1.00  0.00     0.029 A 
ATOM     63  C   UNL A   1      43.605  30.511  33.358  1.00  0.00     0.049 A 
ATOM     64  H   UNL A   1      41.790  31.073  32.442  1.00  0.00     0.167 HD
ATOM     65  C   UNL A   1      43.196  28.736  31.678  1.00  0.00     0.074 A 
ATOM     66  C   UNL A   1      43.561  27.525  30.971  1.00  0.00     0.031 C 
ATOM     67  C   UNL A   1      43.953  29.310  32.644  1.00  0.00     0.031 A 
BRANCH  54  68
ATOM     68  C   UNL A   1      41.594  34.544  34.914  1.00  0.00    -0.014 A 
ATOM     69  C   UNL A   1      41.051  34.512  36.208  1.00  0.00     0.009 A 
ATOM     70  C   UNL A   1      42.322  35.673  34.508  1.00  0.00     0.009 A 
ATOM     71  C   UNL A   1      41.208  35.601  37.067  1.00  0.00     0.001 A 
ATOM     72  C   UNL A   1      42.498  36.750  35.379  1.00  0.00     0.001 A 
ATOM     73  C   UNL A   1      41.934  36.717  36.653  1.00  0.00     0.000 A 
ENDBRANCH  54  68
BRANCH  55  74
ATOM     74  C   UNL A   1      40.254  27.110  28.399  1.00  0.00    -0.014 A 
ATOM     75  C   UNL A   1      40.783  27.226  27.105  1.00  0.00     0.009 A 
ATOM     76  C   UNL A   1      39.551  25.945  28.745  1.00  0.00     0.009 A 
ATOM     77  C   UNL A   1      40.592  26.207  26.170  1.00  0.00     0.001 A 
ATOM     78  C   UNL A   1      39.383  24.918  27.814  1.00  0.00     0.001 A 
ATOM     79  C   UNL A   1      39.896  25.053  26.526  1.00  0.00     0.000 A 
ENDBRANCH  55  74
BRANCH  67  80
ATOM     80  C   UNL A   1      45.236  28.625  33.009  1.00  0.00    -0.014 A 
ATOM     81  C   UNL A   1      45.264  27.615  33.982  1.00  0.00     0.009 A 
ATOM     82  C   UNL A   1      46.421  28.960  32.336  1.00  0.00     0.009 A 
ATOM     83  C   UNL A   1      46.463  26.967  34.288  1.00  0.00     0.001 A 
ATOM     84  C   UNL A   1      47.612  28.295  32.627  1.00  0.00     0.001 A 
ATOM     85  C   UNL A   1      47.633  27.302  33.608  1.00  0.00     0.000 A 
ENDBRANCH  67  80
ENDBRANCH  41  42
ENDBRANCH  33  36
ENDBRANCH  31  32
ENDBRANCH  30  31
ENDBRANCH  29  30
ENDBRANCH   1  29
TORSDOF 16
ENDMDL
