MODEL 1
REMARK VINA RESULT:     -13.0      0.000      0.000
REMARK SMILES C[C@H](C(=O)NCCCCNC(=O)c1ccc(-c2c3nc(c(-c4ccccc4)c4ccc([nH]4)c(-c4ccccc4)c4nc(c(-c5ccccc5)c5ccc2[nH]5)C=C4)C=C3)cc1)c1ccc2c3cc(Cl)ccc3n(C(=O)c3ccc(Cl)cc3)c2c1
REMARK SMILES IDX 7 1 6 2 5 3 3 4 4 5 2 7 1 8 61 9 62 10 83 11 63 12 82 13
REMARK SMILES IDX 64 14 72 15 65 16 71 17 66 18 70 19 67 20 69 21 68 22 73 23
REMARK SMILES IDX 74 24 75 25 76 26 81 27 77 28 80 29 78 30 79 31 8 32 9 33
REMARK SMILES IDX 10 34 11 35 12 37 13 38 14 39 60 40 15 41 59 42 16 43 17 44
REMARK SMILES IDX 18 45 53 46 19 47 58 48 52 49 54 50 20 51 57 52 51 53 50 54
REMARK SMILES IDX 21 56 43 57 28 58 42 59 29 60 32 61 41 62 55 63 30 64 31 65
REMARK SMILES IDX 40 67 56 68 33 69 22 70 23 71 27 72 24 73 26 74 25 75 44 76
REMARK SMILES IDX 45 77 49 78 46 79 48 80 47 81 34 82 35 83 39 84 36 85 38 86
REMARK SMILES IDX 37 87
REMARK H PARENT 5 6 10 36 54 55 32 66
REMARK Flexibility Score: inf
ROOT
ATOM      1  C   UNL A   1      30.938  29.337  24.274  1.00  0.00     0.023 C 
ENDROOT
BRANCH   1   2
ATOM      2  C   UNL A   1      30.744  27.858  23.945  1.00  0.00     0.116 C 
BRANCH   2   3
ATOM      3  N   UNL A   1      30.473  27.003  25.086  1.00  0.00    -0.356 N 
ATOM      4  C   UNL A   1      31.310  26.178  25.783  1.00  0.00     0.227 C 
ATOM      5  O   UNL A   1      30.909  25.812  26.895  1.00  0.00    -0.274 OA
ATOM      6  H   UNL A   1      29.543  27.019  25.407  1.00  0.00     0.163 HD
BRANCH   4   7
ATOM      7  C   UNL A   1      32.603  25.577  25.204  1.00  0.00     0.105 C 
ATOM      8  C   UNL A   1      33.752  26.422  25.776  1.00  0.00     0.023 C 
BRANCH   7   9
ATOM      9  C   UNL A   1      32.805  24.068  25.337  1.00  0.00    -0.034 A 
ATOM     10  C   UNL A   1      31.718  23.193  25.439  1.00  0.00     0.005 A 
ATOM     11  C   UNL A   1      34.100  23.525  25.353  1.00  0.00     0.032 A 
ATOM     12  C   UNL A   1      31.891  21.807  25.377  1.00  0.00     0.011 A 
ATOM     13  C   UNL A   1      34.271  22.134  25.178  1.00  0.00     0.057 A 
ATOM     14  C   UNL A   1      33.177  21.276  25.171  1.00  0.00     0.008 A 
ATOM     15  N   UNL A   1      35.416  21.385  24.866  1.00  0.00    -0.276 N 
ATOM     16  C   UNL A   1      33.666  19.960  24.946  1.00  0.00     0.009 A 
ATOM     17  C   UNL A   1      35.056  20.034  24.808  1.00  0.00     0.057 A 
ATOM     18  C   UNL A   1      33.017  18.710  24.855  1.00  0.00     0.031 A 
ATOM     19  C   UNL A   1      35.824  18.859  24.680  1.00  0.00     0.029 A 
ATOM     20  C   UNL A   1      33.776  17.558  24.669  1.00  0.00     0.041 A 
ATOM     21  C   UNL A   1      35.161  17.627  24.596  1.00  0.00     0.023 A 
ATOM     22  Cl  UNL A   1      32.984  16.035  24.548  1.00  0.00    -0.084 Cl
BRANCH  15  23
ATOM     23  C   UNL A   1      36.680  21.979  24.610  1.00  0.00     0.262 C 
ATOM     24  O   UNL A   1      36.829  22.466  23.489  1.00  0.00    -0.268 OA
BRANCH  23  25
ATOM     25  C   UNL A   1      37.886  22.004  25.496  1.00  0.00     0.040 A 
ATOM     26  C   UNL A   1      38.139  23.200  26.198  1.00  0.00     0.015 A 
ATOM     27  C   UNL A   1      38.835  20.978  25.569  1.00  0.00     0.015 A 
ATOM     28  C   UNL A   1      39.280  23.350  26.990  1.00  0.00     0.021 A 
ATOM     29  C   UNL A   1      39.964  21.117  26.391  1.00  0.00     0.021 A 
ATOM     30  C   UNL A   1      40.180  22.298  27.100  1.00  0.00     0.041 A 
ATOM     31  Cl  UNL A   1      41.562  22.462  28.111  1.00  0.00    -0.084 Cl
ENDBRANCH  23  25
ENDBRANCH  15  23
ENDBRANCH   7   9
ENDBRANCH   4   7
ENDBRANCH   2   3
ENDBRANCH   1   2
BRANCH   1  32
ATOM     32  C   UNL A   1      32.209  29.708  25.040  1.00  0.00     0.023 C 
BRANCH  32  33
ATOM     33  C   UNL A   1      32.024  30.080  26.509  1.00  0.00     0.116 C 
BRANCH  33  34
ATOM     34  N   UNL A   1      31.871  31.512  26.722  1.00  0.00    -0.352 N 
ATOM     35  C   UNL A   1      32.710  32.416  27.333  1.00  0.00     0.251 C 
ATOM     36  H   UNL A   1      31.034  31.896  26.374  1.00  0.00     0.163 HD
ATOM     37  O   UNL A   1      32.308  33.552  27.570  1.00  0.00    -0.269 OA
BRANCH  35  38
ATOM     38  C   UNL A   1      34.074  32.019  27.755  1.00  0.00     0.039 A 
ATOM     39  C   UNL A   1      35.051  33.010  27.906  1.00  0.00     0.014 A 
ATOM     40  C   UNL A   1      34.394  30.687  28.020  1.00  0.00     0.014 A 
ATOM     41  C   UNL A   1      36.301  32.684  28.441  1.00  0.00     0.010 A 
ATOM     42  C   UNL A   1      35.610  30.374  28.624  1.00  0.00     0.010 A 
ATOM     43  C   UNL A   1      36.567  31.373  28.866  1.00  0.00    -0.014 A 
BRANCH  43  44
ATOM     44  C   UNL A   1      37.802  31.020  29.615  1.00  0.00     0.031 A 
ATOM     45  C   UNL A   1      38.854  30.153  28.985  1.00  0.00     0.074 A 
ATOM     46  C   UNL A   1      37.914  31.365  30.914  1.00  0.00     0.049 A 
ATOM     47  N   UNL A   1      39.900  29.589  29.534  1.00  0.00    -0.248 NA
ATOM     48  C   UNL A   1      38.686  29.853  27.556  1.00  0.00     0.031 C 
ATOM     49  C   UNL A   1      36.946  32.165  31.667  1.00  0.00     0.029 A 
ATOM     50  N   UNL A   1      38.879  31.053  31.841  1.00  0.00    -0.354 N 
ATOM     51  C   UNL A   1      40.491  28.835  28.530  1.00  0.00     0.074 A 
ATOM     52  C   UNL A   1      39.672  28.992  27.346  1.00  0.00     0.031 C 
ATOM     53  C   UNL A   1      37.364  32.281  32.937  1.00  0.00     0.029 A 
ATOM     54  C   UNL A   1      38.602  31.526  33.101  1.00  0.00     0.049 A 
ATOM     55  H   UNL A   1      39.691  30.540  31.624  1.00  0.00     0.167 HD
ATOM     56  C   UNL A   1      41.616  28.082  28.584  1.00  0.00     0.031 A 
ATOM     57  C   UNL A   1      39.252  31.353  34.268  1.00  0.00     0.031 A 
ATOM     58  C   UNL A   1      42.443  27.938  29.752  1.00  0.00     0.049 A 
ATOM     59  C   UNL A   1      40.506  30.529  34.304  1.00  0.00     0.074 A 
ATOM     60  C   UNL A   1      43.644  27.260  29.881  1.00  0.00     0.029 A 
ATOM     61  N   UNL A   1      42.154  28.478  30.996  1.00  0.00    -0.354 N 
ATOM     62  N   UNL A   1      41.089  29.875  33.330  1.00  0.00    -0.248 NA
ATOM     63  C   UNL A   1      41.194  30.424  35.599  1.00  0.00     0.031 C 
ATOM     64  C   UNL A   1      44.059  27.355  31.214  1.00  0.00     0.029 A 
ATOM     65  C   UNL A   1      43.141  28.131  31.903  1.00  0.00     0.049 A 
ATOM     66  H   UNL A   1      41.364  29.028  31.202  1.00  0.00     0.167 HD
ATOM     67  C   UNL A   1      42.224  29.300  33.885  1.00  0.00     0.074 A 
ATOM     68  C   UNL A   1      42.252  29.689  35.280  1.00  0.00     0.031 C 
ATOM     69  C   UNL A   1      43.160  28.523  33.288  1.00  0.00     0.031 A 
BRANCH  56  70
ATOM     70  C   UNL A   1      42.001  27.332  27.338  1.00  0.00    -0.014 A 
ATOM     71  C   UNL A   1      41.539  26.028  27.097  1.00  0.00     0.009 A 
ATOM     72  C   UNL A   1      42.835  27.944  26.390  1.00  0.00     0.009 A 
ATOM     73  C   UNL A   1      41.946  25.336  25.955  1.00  0.00     0.001 A 
ATOM     74  C   UNL A   1      43.215  27.259  25.235  1.00  0.00     0.001 A 
ATOM     75  C   UNL A   1      42.782  25.952  25.025  1.00  0.00     0.000 A 
ENDBRANCH  56  70
BRANCH  57  76
ATOM     76  C   UNL A   1      38.717  31.982  35.503  1.00  0.00    -0.014 A 
ATOM     77  C   UNL A   1      38.054  31.205  36.465  1.00  0.00     0.009 A 
ATOM     78  C   UNL A   1      38.898  33.353  35.741  1.00  0.00     0.009 A 
ATOM     79  C   UNL A   1      37.573  31.794  37.637  1.00  0.00     0.001 A 
ATOM     80  C   UNL A   1      38.437  33.933  36.924  1.00  0.00     0.001 A 
ATOM     81  C   UNL A   1      37.770  33.154  37.868  1.00  0.00     0.000 A 
ENDBRANCH  57  76
BRANCH  69  82
ATOM     82  C   UNL A   1      44.317  28.067  34.128  1.00  0.00    -0.014 A 
ATOM     83  C   UNL A   1      45.471  28.853  34.267  1.00  0.00     0.009 A 
ATOM     84  C   UNL A   1      44.224  26.860  34.839  1.00  0.00     0.009 A 
ATOM     85  C   UNL A   1      46.518  28.427  35.088  1.00  0.00     0.001 A 
ATOM     86  C   UNL A   1      45.262  26.449  35.677  1.00  0.00     0.001 A 
ATOM     87  C   UNL A   1      46.410  27.231  35.796  1.00  0.00     0.000 A 
ENDBRANCH  69  82
ENDBRANCH  43  44
ENDBRANCH  35  38
ENDBRANCH  33  34
ENDBRANCH  32  33
ENDBRANCH   1  32
TORSDOF 14
ENDMDL
MODEL 2
REMARK VINA RESULT:     -12.8      1.877      3.793
REMARK SMILES C[C@H](C(=O)NCCCCNC(=O)c1ccc(-c2c3nc(c(-c4ccccc4)c4ccc([nH]4)c(-c4ccccc4)c4nc(c(-c5ccccc5)c5ccc2[nH]5)C=C4)C=C3)cc1)c1ccc2c3cc(Cl)ccc3n(C(=O)c3ccc(Cl)cc3)c2c1
REMARK SMILES IDX 7 1 6 2 5 3 3 4 4 5 2 7 1 8 61 9 62 10 83 11 63 12 82 13
REMARK SMILES IDX 64 14 72 15 65 16 71 17 66 18 70 19 67 20 69 21 68 22 73 23
REMARK SMILES IDX 74 24 75 25 76 26 81 27 77 28 80 29 78 30 79 31 8 32 9 33
REMARK SMILES IDX 10 34 11 35 12 37 13 38 14 39 60 40 15 41 59 42 16 43 17 44
REMARK SMILES IDX 18 45 53 46 19 47 58 48 52 49 54 50 20 51 57 52 51 53 50 54
REMARK SMILES IDX 21 56 43 57 28 58 42 59 29 60 32 61 41 62 55 63 30 64 31 65
REMARK SMILES IDX 40 67 56 68 33 69 22 70 23 71 27 72 24 73 26 74 25 75 44 76
REMARK SMILES IDX 45 77 49 78 46 79 48 80 47 81 34 82 35 83 39 84 36 85 38 86
REMARK SMILES IDX 37 87
REMARK H PARENT 5 6 10 36 54 55 32 66
REMARK Flexibility Score: inf
ROOT
ATOM      1  C   UNL A   1      32.052  30.026  25.487  1.00  0.00     0.023 C 
ENDROOT
BRANCH   1   2
ATOM      2  C   UNL A   1      30.801  29.971  24.614  1.00  0.00     0.116 C 
BRANCH   2   3
ATOM      3  N   UNL A   1      30.939  29.213  23.383  1.00  0.00    -0.356 N 
ATOM      4  C   UNL A   1      30.789  27.874  23.156  1.00  0.00     0.227 C 
ATOM      5  O   UNL A   1      30.648  27.537  21.973  1.00  0.00    -0.274 OA
ATOM      6  H   UNL A   1      31.178  29.745  22.591  1.00  0.00     0.163 HD
BRANCH   4   7
ATOM      7  C   UNL A   1      30.943  26.795  24.242  1.00  0.00     0.105 C 
ATOM      8  C   UNL A   1      29.710  25.888  24.112  1.00  0.00     0.023 C 
BRANCH   7   9
ATOM      9  C   UNL A   1      32.272  26.044  24.311  1.00  0.00    -0.034 A 
ATOM     10  C   UNL A   1      33.422  26.642  24.839  1.00  0.00     0.005 A 
ATOM     11  C   UNL A   1      32.364  24.722  23.845  1.00  0.00     0.032 A 
ATOM     12  C   UNL A   1      34.586  25.903  25.071  1.00  0.00     0.011 A 
ATOM     13  C   UNL A   1      33.496  23.946  24.178  1.00  0.00     0.057 A 
ATOM     14  C   UNL A   1      34.597  24.521  24.804  1.00  0.00     0.008 A 
ATOM     15  N   UNL A   1      33.711  22.561  24.104  1.00  0.00    -0.276 N 
ATOM     16  C   UNL A   1      35.548  23.490  25.033  1.00  0.00     0.009 A 
ATOM     17  C   UNL A   1      35.009  22.292  24.552  1.00  0.00     0.057 A 
ATOM     18  C   UNL A   1      36.834  23.498  25.615  1.00  0.00     0.031 A 
ATOM     19  C   UNL A   1      35.780  21.112  24.552  1.00  0.00     0.029 A 
ATOM     20  C   UNL A   1      37.568  22.316  25.666  1.00  0.00     0.041 A 
ATOM     21  C   UNL A   1      37.056  21.142  25.130  1.00  0.00     0.023 A 
ATOM     22  Cl  UNL A   1      39.132  22.324  26.384  1.00  0.00    -0.084 Cl
BRANCH  15  23
ATOM     23  C   UNL A   1      32.708  21.647  23.688  1.00  0.00     0.262 C 
ATOM     24  O   UNL A   1      31.757  22.133  23.075  1.00  0.00    -0.268 OA
BRANCH  23  25
ATOM     25  C   UNL A   1      32.613  20.182  23.981  1.00  0.00     0.040 A 
ATOM     26  C   UNL A   1      32.670  19.796  25.335  1.00  0.00     0.015 A 
ATOM     27  C   UNL A   1      32.606  19.180  23.004  1.00  0.00     0.015 A 
ATOM     28  C   UNL A   1      32.667  18.449  25.708  1.00  0.00     0.021 A 
ATOM     29  C   UNL A   1      32.570  17.828  23.379  1.00  0.00     0.021 A 
ATOM     30  C   UNL A   1      32.596  17.469  24.727  1.00  0.00     0.041 A 
ATOM     31  Cl  UNL A   1      32.545  15.811  25.184  1.00  0.00    -0.084 Cl
ENDBRANCH  23  25
ENDBRANCH  15  23
ENDBRANCH   7   9
ENDBRANCH   4   7
ENDBRANCH   2   3
ENDBRANCH   1   2
BRANCH   1  32
ATOM     32  C   UNL A   1      31.909  30.703  26.850  1.00  0.00     0.023 C 
BRANCH  32  33
ATOM     33  C   UNL A   1      33.038  31.647  27.254  1.00  0.00     0.116 C 
BRANCH  33  34
ATOM     34  N   UNL A   1      32.592  33.018  27.461  1.00  0.00    -0.352 N 
ATOM     35  C   UNL A   1      33.089  34.001  28.286  1.00  0.00     0.251 C 
ATOM     36  H   UNL A   1      31.811  33.285  26.924  1.00  0.00     0.163 HD
ATOM     37  O   UNL A   1      32.451  35.039  28.445  1.00  0.00    -0.269 OA
BRANCH  35  38
ATOM     38  C   UNL A   1      34.357  33.800  29.025  1.00  0.00     0.039 A 
ATOM     39  C   UNL A   1      34.333  33.089  30.231  1.00  0.00     0.014 A 
ATOM     40  C   UNL A   1      35.569  34.287  28.535  1.00  0.00     0.014 A 
ATOM     41  C   UNL A   1      35.531  32.760  30.874  1.00  0.00     0.010 A 
ATOM     42  C   UNL A   1      36.766  33.894  29.132  1.00  0.00     0.010 A 
ATOM     43  C   UNL A   1      36.761  33.104  30.293  1.00  0.00    -0.014 A 
BRANCH  43  44
ATOM     44  C   UNL A   1      38.055  32.610  30.833  1.00  0.00     0.031 A 
ATOM     45  C   UNL A   1      38.713  31.396  30.241  1.00  0.00     0.074 A 
ATOM     46  C   UNL A   1      38.570  33.171  31.945  1.00  0.00     0.049 A 
ATOM     47  N   UNL A   1      39.736  30.710  30.686  1.00  0.00    -0.248 NA
ATOM     48  C   UNL A   1      38.120  30.866  29.005  1.00  0.00     0.031 C 
ATOM     49  C   UNL A   1      38.011  34.325  32.653  1.00  0.00     0.029 A 
ATOM     50  N   UNL A   1      39.664  32.819  32.699  1.00  0.00    -0.354 N 
ATOM     51  C   UNL A   1      39.882  29.644  29.808  1.00  0.00     0.074 A 
ATOM     52  C   UNL A   1      38.827  29.760  28.823  1.00  0.00     0.031 C 
ATOM     53  C   UNL A   1      38.762  34.585  33.734  1.00  0.00     0.029 A 
ATOM     54  C   UNL A   1      39.828  33.592  33.823  1.00  0.00     0.049 A 
ATOM     55  H   UNL A   1      40.274  32.085  32.456  1.00  0.00     0.167 HD
ATOM     56  C   UNL A   1      40.811  28.658  29.818  1.00  0.00     0.031 A 
ATOM     57  C   UNL A   1      40.714  33.500  34.833  1.00  0.00     0.031 A 
ATOM     58  C   UNL A   1      41.872  28.549  30.784  1.00  0.00     0.049 A 
ATOM     59  C   UNL A   1      41.747  32.410  34.817  1.00  0.00     0.074 A 
ATOM     60  C   UNL A   1      42.907  27.631  30.828  1.00  0.00     0.029 A 
ATOM     61  N   UNL A   1      42.031  29.385  31.878  1.00  0.00    -0.354 N 
ATOM     62  N   UNL A   1      41.913  31.447  33.944  1.00  0.00    -0.248 NA
ATOM     63  C   UNL A   1      42.717  32.399  35.921  1.00  0.00     0.031 C 
ATOM     64  C   UNL A   1      43.669  27.885  31.975  1.00  0.00     0.029 A 
ATOM     65  C   UNL A   1      43.134  28.990  32.617  1.00  0.00     0.049 A 
ATOM     66  H   UNL A   1      41.447  30.146  32.097  1.00  0.00     0.167 HD
ATOM     67  C   UNL A   1      43.019  30.729  34.378  1.00  0.00     0.074 A 
ATOM     68  C   UNL A   1      43.488  31.372  35.588  1.00  0.00     0.031 C 
ATOM     69  C   UNL A   1      43.594  29.637  33.819  1.00  0.00     0.031 A 
BRANCH  56  70
ATOM     70  C   UNL A   1      40.700  27.600  28.755  1.00  0.00    -0.014 A 
ATOM     71  C   UNL A   1      41.404  27.704  27.544  1.00  0.00     0.009 A 
ATOM     72  C   UNL A   1      39.884  26.480  28.972  1.00  0.00     0.009 A 
ATOM     73  C   UNL A   1      41.251  26.731  26.553  1.00  0.00     0.001 A 
ATOM     74  C   UNL A   1      39.757  25.495  27.992  1.00  0.00     0.001 A 
ATOM     75  C   UNL A   1      40.429  25.628  26.778  1.00  0.00     0.000 A 
ENDBRANCH  56  70
BRANCH  57  76
ATOM     76  C   UNL A   1      40.657  34.480  35.948  1.00  0.00    -0.014 A 
ATOM     77  C   UNL A   1      39.872  34.219  37.081  1.00  0.00     0.009 A 
ATOM     78  C   UNL A   1      41.414  35.660  35.899  1.00  0.00     0.009 A 
ATOM     79  C   UNL A   1      39.838  35.130  38.139  1.00  0.00     0.001 A 
ATOM     80  C   UNL A   1      41.395  36.557  36.969  1.00  0.00     0.001 A 
ATOM     81  C   UNL A   1      40.604  36.294  38.086  1.00  0.00     0.000 A 
ENDBRANCH  57  76
BRANCH  69  82
ATOM     82  C   UNL A   1      44.819  29.083  34.486  1.00  0.00    -0.014 A 
ATOM     83  C   UNL A   1      46.099  29.570  34.181  1.00  0.00     0.009 A 
ATOM     84  C   UNL A   1      44.682  28.101  35.480  1.00  0.00     0.009 A 
ATOM     85  C   UNL A   1      47.220  29.069  34.845  1.00  0.00     0.001 A 
ATOM     86  C   UNL A   1      45.802  27.618  36.159  1.00  0.00     0.001 A 
ATOM     87  C   UNL A   1      47.070  28.099  35.838  1.00  0.00     0.000 A 
ENDBRANCH  69  82
ENDBRANCH  43  44
ENDBRANCH  35  38
ENDBRANCH  33  34
ENDBRANCH  32  33
ENDBRANCH   1  32
TORSDOF 14
ENDMDL
MODEL 3
REMARK VINA RESULT:     -12.6      5.265     12.077
REMARK SMILES C[C@H](C(=O)NCCCCNC(=O)c1ccc(-c2c3nc(c(-c4ccccc4)c4ccc([nH]4)c(-c4ccccc4)c4nc(c(-c5ccccc5)c5ccc2[nH]5)C=C4)C=C3)cc1)c1ccc2c3cc(Cl)ccc3n(C(=O)c3ccc(Cl)cc3)c2c1
REMARK SMILES IDX 7 1 6 2 5 3 3 4 4 5 2 7 1 8 61 9 62 10 83 11 63 12 82 13
REMARK SMILES IDX 64 14 72 15 65 16 71 17 66 18 70 19 67 20 69 21 68 22 73 23
REMARK SMILES IDX 74 24 75 25 76 26 81 27 77 28 80 29 78 30 79 31 8 32 9 33
REMARK SMILES IDX 10 34 11 35 12 37 13 38 14 39 60 40 15 41 59 42 16 43 17 44
REMARK SMILES IDX 18 45 53 46 19 47 58 48 52 49 54 50 20 51 57 52 51 53 50 54
REMARK SMILES IDX 21 56 43 57 28 58 42 59 29 60 32 61 41 62 55 63 30 64 31 65
REMARK SMILES IDX 40 67 56 68 33 69 22 70 23 71 27 72 24 73 26 74 25 75 44 76
REMARK SMILES IDX 45 77 49 78 46 79 48 80 47 81 34 82 35 83 39 84 36 85 38 86
REMARK SMILES IDX 37 87
REMARK H PARENT 5 6 10 36 54 55 32 66
REMARK Flexibility Score: inf
ROOT
ATOM      1  C   UNL A   1      44.025  37.790  38.687  1.00  0.00     0.023 C 
ENDROOT
BRANCH   1   2
ATOM      2  C   UNL A   1      43.243  36.629  38.078  1.00  0.00     0.116 C 
BRANCH   2   3
ATOM      3  N   UNL A   1      41.849  36.910  37.785  1.00  0.00    -0.356 N 
ATOM      4  C   UNL A   1      40.728  36.184  38.076  1.00  0.00     0.227 C 
ATOM      5  O   UNL A   1      39.653  36.793  38.002  1.00  0.00    -0.274 OA
ATOM      6  H   UNL A   1      41.686  37.751  37.304  1.00  0.00     0.163 HD
BRANCH   4   7
ATOM      7  C   UNL A   1      40.727  34.665  38.322  1.00  0.00     0.105 C 
ATOM      8  C   UNL A   1      39.784  34.433  39.513  1.00  0.00     0.023 C 
BRANCH   7   9
ATOM      9  C   UNL A   1      40.465  33.753  37.125  1.00  0.00    -0.034 A 
ATOM     10  C   UNL A   1      41.377  32.760  36.751  1.00  0.00     0.005 A 
ATOM     11  C   UNL A   1      39.289  33.892  36.371  1.00  0.00     0.032 A 
ATOM     12  C   UNL A   1      41.060  31.809  35.775  1.00  0.00     0.011 A 
ATOM     13  C   UNL A   1      38.919  32.872  35.467  1.00  0.00     0.057 A 
ATOM     14  C   UNL A   1      39.786  31.824  35.179  1.00  0.00     0.008 A 
ATOM     15  N   UNL A   1      37.696  32.615  34.828  1.00  0.00    -0.276 N 
ATOM     16  C   UNL A   1      39.123  30.955  34.272  1.00  0.00     0.009 A 
ATOM     17  C   UNL A   1      37.849  31.480  34.024  1.00  0.00     0.057 A 
ATOM     18  C   UNL A   1      39.523  29.757  33.641  1.00  0.00     0.031 A 
ATOM     19  C   UNL A   1      37.002  30.878  33.072  1.00  0.00     0.029 A 
ATOM     20  C   UNL A   1      38.658  29.134  32.746  1.00  0.00     0.041 A 
ATOM     21  C   UNL A   1      37.420  29.692  32.454  1.00  0.00     0.023 A 
ATOM     22  Cl  UNL A   1      39.141  27.668  31.985  1.00  0.00    -0.084 Cl
BRANCH  15  23
ATOM     23  C   UNL A   1      36.528  33.390  35.056  1.00  0.00     0.262 C 
ATOM     24  O   UNL A   1      36.152  33.464  36.226  1.00  0.00    -0.268 OA
BRANCH  23  25
ATOM     25  C   UNL A   1      35.645  34.050  34.044  1.00  0.00     0.040 A 
ATOM     26  C   UNL A   1      34.389  33.455  33.806  1.00  0.00     0.015 A 
ATOM     27  C   UNL A   1      36.033  35.125  33.236  1.00  0.00     0.015 A 
ATOM     28  C   UNL A   1      33.524  33.949  32.826  1.00  0.00     0.021 A 
ATOM     29  C   UNL A   1      35.151  35.643  32.276  1.00  0.00     0.021 A 
ATOM     30  C   UNL A   1      33.901  35.057  32.078  1.00  0.00     0.041 A 
ATOM     31  Cl  UNL A   1      32.819  35.697  30.903  1.00  0.00    -0.084 Cl
ENDBRANCH  23  25
ENDBRANCH  15  23
ENDBRANCH   7   9
ENDBRANCH   4   7
ENDBRANCH   2   3
ENDBRANCH   1   2
BRANCH   1  32
ATOM     32  C   UNL A   1      44.795  38.685  37.715  1.00  0.00     0.023 C 
BRANCH  32  33
ATOM     33  C   UNL A   1      44.791  38.248  36.253  1.00  0.00     0.116 C 
BRANCH  33  34
ATOM     34  N   UNL A   1      43.934  39.070  35.411  1.00  0.00    -0.352 N 
ATOM     35  C   UNL A   1      43.183  38.734  34.308  1.00  0.00     0.251 C 
ATOM     36  H   UNL A   1      43.882  40.018  35.673  1.00  0.00     0.163 HD
ATOM     37  O   UNL A   1      42.670  39.622  33.631  1.00  0.00    -0.269 OA
BRANCH  35  38
ATOM     38  C   UNL A   1      43.029  37.319  33.898  1.00  0.00     0.039 A 
ATOM     39  C   UNL A   1      42.158  36.495  34.622  1.00  0.00     0.014 A 
ATOM     40  C   UNL A   1      43.716  36.801  32.800  1.00  0.00     0.014 A 
ATOM     41  C   UNL A   1      41.883  35.200  34.171  1.00  0.00     0.010 A 
ATOM     42  C   UNL A   1      43.385  35.540  32.308  1.00  0.00     0.010 A 
ATOM     43  C   UNL A   1      42.445  34.736  32.973  1.00  0.00    -0.014 A 
BRANCH  43  44
ATOM     44  C   UNL A   1      42.034  33.448  32.354  1.00  0.00     0.031 A 
ATOM     45  C   UNL A   1      43.017  32.321  32.214  1.00  0.00     0.074 A 
ATOM     46  C   UNL A   1      40.814  33.340  31.790  1.00  0.00     0.049 A 
ATOM     47  N   UNL A   1      42.904  31.202  31.544  1.00  0.00    -0.248 NA
ATOM     48  C   UNL A   1      44.312  32.494  32.889  1.00  0.00     0.031 C 
ATOM     49  C   UNL A   1      39.775  34.372  31.809  1.00  0.00     0.029 A 
ATOM     50  N   UNL A   1      40.254  32.320  31.059  1.00  0.00    -0.354 N 
ATOM     51  C   UNL A   1      44.126  30.557  31.682  1.00  0.00     0.074 A 
ATOM     52  C   UNL A   1      44.973  31.422  32.477  1.00  0.00     0.031 C 
ATOM     53  C   UNL A   1      38.707  33.934  31.123  1.00  0.00     0.029 A 
ATOM     54  C   UNL A   1      39.002  32.613  30.577  1.00  0.00     0.049 A 
ATOM     55  H   UNL A   1      40.707  31.461  30.896  1.00  0.00     0.167 HD
ATOM     56  C   UNL A   1      44.510  29.352  31.196  1.00  0.00     0.031 A 
ATOM     57  C   UNL A   1      38.186  31.915  29.763  1.00  0.00     0.031 A 
ATOM     58  C   UNL A   1      43.665  28.481  30.423  1.00  0.00     0.049 A 
ATOM     59  C   UNL A   1      38.623  30.574  29.248  1.00  0.00     0.074 A 
ATOM     60  C   UNL A   1      43.939  27.208  29.954  1.00  0.00     0.029 A 
ATOM     61  N   UNL A   1      42.383  28.795  30.000  1.00  0.00    -0.354 N 
ATOM     62  N   UNL A   1      39.757  29.948  29.442  1.00  0.00    -0.248 NA
ATOM     63  C   UNL A   1      37.664  29.841  28.408  1.00  0.00     0.031 C 
ATOM     64  C   UNL A   1      42.837  26.768  29.211  1.00  0.00     0.029 A 
ATOM     65  C   UNL A   1      41.860  27.750  29.258  1.00  0.00     0.049 A 
ATOM     66  H   UNL A   1      41.913  29.637  30.200  1.00  0.00     0.167 HD
ATOM     67  C   UNL A   1      39.642  28.738  28.769  1.00  0.00     0.074 A 
ATOM     68  C   UNL A   1      38.324  28.716  28.168  1.00  0.00     0.031 C 
ATOM     69  C   UNL A   1      40.548  27.737  28.665  1.00  0.00     0.031 A 
BRANCH  56  70
ATOM     70  C   UNL A   1      45.923  28.919  31.472  1.00  0.00    -0.014 A 
ATOM     71  C   UNL A   1      46.259  28.222  32.644  1.00  0.00     0.009 A 
ATOM     72  C   UNL A   1      46.932  29.209  30.541  1.00  0.00     0.009 A 
ATOM     73  C   UNL A   1      47.586  27.869  32.899  1.00  0.00     0.001 A 
ATOM     74  C   UNL A   1      48.252  28.828  30.786  1.00  0.00     0.001 A 
ATOM     75  C   UNL A   1      48.580  28.171  31.970  1.00  0.00     0.000 A 
ENDBRANCH  56  70
BRANCH  57  76
ATOM     76  C   UNL A   1      36.867  32.484  29.388  1.00  0.00    -0.014 A 
ATOM     77  C   UNL A   1      36.774  33.460  28.384  1.00  0.00     0.009 A 
ATOM     78  C   UNL A   1      35.692  32.027  30.005  1.00  0.00     0.009 A 
ATOM     79  C   UNL A   1      35.530  33.976  28.015  1.00  0.00     0.001 A 
ATOM     80  C   UNL A   1      34.448  32.528  29.617  1.00  0.00     0.001 A 
ATOM     81  C   UNL A   1      34.369  33.505  28.626  1.00  0.00     0.000 A 
ENDBRANCH  57  76
BRANCH  69  82
ATOM     82  C   UNL A   1      40.138  26.511  27.901  1.00  0.00    -0.014 A 
ATOM     83  C   UNL A   1      40.632  26.256  26.613  1.00  0.00     0.009 A 
ATOM     84  C   UNL A   1      39.292  25.568  28.506  1.00  0.00     0.009 A 
ATOM     85  C   UNL A   1      40.270  25.088  25.938  1.00  0.00     0.001 A 
ATOM     86  C   UNL A   1      38.950  24.391  27.838  1.00  0.00     0.001 A 
ATOM     87  C   UNL A   1      39.436  24.155  26.554  1.00  0.00     0.000 A 
ENDBRANCH  69  82
ENDBRANCH  43  44
ENDBRANCH  35  38
ENDBRANCH  33  34
ENDBRANCH  32  33
ENDBRANCH   1  32
TORSDOF 14
ENDMDL
