MODEL 1
REMARK VINA RESULT:     -10.5      0.000      0.000
REMARK SMILES C[C@@]([NH2+]Cc1ccccc1Br)(C(=O)NCCCCNC(=O)c1ccc(-c2c3nc(c(-c4ccccc4)c4ccc([nH]4)c(-c4ccccc4)c4nc(c(-c5ccccc5)c5ccc2[nH]5)C=C4)C=C3)cc1)C(F)(F)F
REMARK SMILES IDX 16 1 15 2 14 3 12 4 13 5 2 7 1 8 3 9 4 12 5 13 6 14 10 15
REMARK SMILES IDX 7 16 9 17 11 18 8 19 70 20 71 21 72 22 73 23 17 24 18 25
REMARK SMILES IDX 19 26 20 27 21 29 22 30 23 31 69 32 24 33 68 34 25 35 26 36
REMARK SMILES IDX 27 37 62 38 28 39 67 40 61 41 63 42 29 43 66 44 60 45 59 46
REMARK SMILES IDX 30 48 52 49 37 50 51 51 38 52 41 53 50 54 64 55 39 56 40 57
REMARK SMILES IDX 49 59 65 60 42 61 31 62 32 63 36 64 33 65 35 66 34 67 53 68
REMARK SMILES IDX 54 69 58 70 55 71 57 72 56 73 43 74 44 75 48 76 45 77 47 78
REMARK SMILES IDX 46 79
REMARK H PARENT 14 6 3 10 3 11 19 28 63 47 41 58
REMARK Flexibility Score: inf
ROOT
ATOM      1  C   UNL A   1      37.022  21.166  24.563  1.00  0.00     0.023 C 
ENDROOT
BRANCH   1   2
ATOM      2  C   UNL A   1      36.636  22.077  25.727  1.00  0.00     0.116 C 
BRANCH   2   3
ATOM      3  N   UNL A   1      35.558  21.490  26.499  1.00  0.00    -0.350 N 
ATOM      4  C   UNL A   1      34.216  21.758  26.515  1.00  0.00     0.290 C 
ATOM      5  O   UNL A   1      33.559  21.098  27.325  1.00  0.00    -0.267 OA
ATOM      6  H   UNL A   1      35.839  20.778  27.118  1.00  0.00     0.163 HD
BRANCH   4   7
ATOM      7  C   UNL A   1      33.563  22.759  25.535  1.00  0.00     0.268 C 
ATOM      8  C   UNL A   1      32.100  23.054  25.949  1.00  0.00     0.101 C 
BRANCH   7   9
ATOM      9  N   UNL A   1      34.261  24.099  25.565  1.00  0.00    -0.322 N 
ATOM     10  H   UNL A   1      34.788  24.187  24.696  1.00  0.00     0.347 HD
ATOM     11  H   UNL A   1      34.821  24.079  26.418  1.00  0.00     0.347 HD
BRANCH   9  12
ATOM     12  C   UNL A   1      33.430  25.301  25.697  1.00  0.00     0.299 C 
BRANCH  12  13
ATOM     13  C   UNL A   1      33.562  26.288  24.568  1.00  0.00     0.020 A 
ATOM     14  C   UNL A   1      33.584  25.801  23.248  1.00  0.00     0.011 A 
ATOM     15  C   UNL A   1      33.645  27.677  24.762  1.00  0.00     0.026 A 
ATOM     16  C   UNL A   1      33.611  26.673  22.159  1.00  0.00     0.001 A 
ATOM     17  C   UNL A   1      33.690  28.548  23.669  1.00  0.00     0.016 A 
ATOM     18  Br  UNL A   1      33.696  28.459  26.494  1.00  0.00    -0.050 Br
ATOM     19  C   UNL A   1      33.654  28.046  22.369  1.00  0.00     0.001 A 
ENDBRANCH  12  13
ENDBRANCH   9  12
ENDBRANCH   7   9
BRANCH   7  20
ATOM     20  C   UNL A   1      33.431  22.046  24.154  1.00  0.00     0.453 C 
ATOM     21  F   UNL A   1      32.209  22.250  23.600  1.00  0.00    -0.164 F 
ATOM     22  F   UNL A   1      34.335  22.578  23.283  1.00  0.00    -0.164 F 
ATOM     23  F   UNL A   1      33.647  20.721  24.164  1.00  0.00    -0.164 F 
ENDBRANCH   7  20
ENDBRANCH   4   7
ENDBRANCH   2   3
ENDBRANCH   1   2
BRANCH   1  24
ATOM     24  C   UNL A   1      37.920  19.993  24.963  1.00  0.00     0.023 C 
BRANCH  24  25
ATOM     25  C   UNL A   1      39.067  20.354  25.900  1.00  0.00     0.116 C 
BRANCH  25  26
ATOM     26  N   UNL A   1      40.146  19.379  25.882  1.00  0.00    -0.352 N 
ATOM     27  C   UNL A   1      41.485  19.569  26.130  1.00  0.00     0.251 C 
ATOM     28  H   UNL A   1      39.880  18.457  25.662  1.00  0.00     0.163 HD
ATOM     29  O   UNL A   1      42.283  18.660  25.950  1.00  0.00    -0.269 OA
BRANCH  27  30
ATOM     30  C   UNL A   1      41.958  20.894  26.582  1.00  0.00     0.039 A 
ATOM     31  C   UNL A   1      42.348  21.830  25.621  1.00  0.00     0.014 A 
ATOM     32  C   UNL A   1      41.995  21.216  27.940  1.00  0.00     0.014 A 
ATOM     33  C   UNL A   1      42.712  23.117  26.022  1.00  0.00     0.010 A 
ATOM     34  C   UNL A   1      42.291  22.518  28.333  1.00  0.00     0.010 A 
ATOM     35  C   UNL A   1      42.651  23.481  27.377  1.00  0.00    -0.014 A 
BRANCH  35  36
ATOM     36  C   UNL A   1      42.951  24.867  27.815  1.00  0.00     0.031 A 
ATOM     37  C   UNL A   1      44.371  25.291  28.062  1.00  0.00     0.074 A 
ATOM     38  C   UNL A   1      41.938  25.723  28.056  1.00  0.00     0.049 A 
ATOM     39  N   UNL A   1      44.825  26.436  28.506  1.00  0.00    -0.248 NA
ATOM     40  C   UNL A   1      45.419  24.290  27.802  1.00  0.00     0.031 C 
ATOM     41  C   UNL A   1      40.514  25.422  27.893  1.00  0.00     0.029 A 
ATOM     42  N   UNL A   1      41.954  27.022  28.498  1.00  0.00    -0.354 N 
ATOM     43  C   UNL A   1      46.202  26.285  28.597  1.00  0.00     0.074 A 
ATOM     44  C   UNL A   1      46.507  24.927  28.206  1.00  0.00     0.031 C 
ATOM     45  C   UNL A   1      39.797  26.514  28.202  1.00  0.00     0.029 A 
ATOM     46  C   UNL A   1      40.705  27.577  28.623  1.00  0.00     0.049 A 
ATOM     47  H   UNL A   1      42.784  27.511  28.705  1.00  0.00     0.167 HD
ATOM     48  C   UNL A   1      47.133  27.201  28.957  1.00  0.00     0.031 A 
ATOM     49  C   UNL A   1      40.330  28.803  29.034  1.00  0.00     0.031 A 
ATOM     50  C   UNL A   1      46.833  28.558  29.330  1.00  0.00     0.049 A 
ATOM     51  C   UNL A   1      41.383  29.797  29.438  1.00  0.00     0.074 A 
ATOM     52  C   UNL A   1      47.713  29.578  29.647  1.00  0.00     0.029 A 
ATOM     53  N   UNL A   1      45.555  29.082  29.437  1.00  0.00    -0.354 N 
ATOM     54  N   UNL A   1      42.686  29.660  29.449  1.00  0.00    -0.248 NA
ATOM     55  C   UNL A   1      40.910  31.118  29.874  1.00  0.00     0.031 C 
ATOM     56  C   UNL A   1      46.964  30.708  29.993  1.00  0.00     0.029 A 
ATOM     57  C   UNL A   1      45.621  30.405  29.839  1.00  0.00     0.049 A 
ATOM     58  H   UNL A   1      44.724  28.587  29.254  1.00  0.00     0.167 HD
ATOM     59  C   UNL A   1      43.190  30.886  29.865  1.00  0.00     0.074 A 
ATOM     60  C   UNL A   1      42.053  31.756  30.083  1.00  0.00     0.031 C 
ATOM     61  C   UNL A   1      44.480  31.258  30.049  1.00  0.00     0.031 A 
BRANCH  48  62
ATOM     62  C   UNL A   1      48.569  26.759  28.972  1.00  0.00    -0.014 A 
ATOM     63  C   UNL A   1      49.395  26.929  27.849  1.00  0.00     0.009 A 
ATOM     64  C   UNL A   1      49.114  26.195  30.137  1.00  0.00     0.009 A 
ATOM     65  C   UNL A   1      50.728  26.512  27.881  1.00  0.00     0.001 A 
ATOM     66  C   UNL A   1      50.454  25.805  30.175  1.00  0.00     0.001 A 
ATOM     67  C   UNL A   1      51.257  25.955  29.045  1.00  0.00     0.000 A 
ENDBRANCH  48  62
BRANCH  49  68
ATOM     68  C   UNL A   1      38.891  29.171  29.069  1.00  0.00    -0.014 A 
ATOM     69  C   UNL A   1      38.148  29.015  30.250  1.00  0.00     0.009 A 
ATOM     70  C   UNL A   1      38.249  29.667  27.924  1.00  0.00     0.009 A 
ATOM     71  C   UNL A   1      36.786  29.323  30.276  1.00  0.00     0.001 A 
ATOM     72  C   UNL A   1      36.893  29.999  27.961  1.00  0.00     0.001 A 
ATOM     73  C   UNL A   1      36.161  29.818  29.133  1.00  0.00     0.000 A 
ENDBRANCH  49  68
BRANCH  61  74
ATOM     74  C   UNL A   1      44.732  32.677  30.472  1.00  0.00    -0.014 A 
ATOM     75  C   UNL A   1      44.841  33.026  31.827  1.00  0.00     0.009 A 
ATOM     76  C   UNL A   1      44.903  33.671  29.495  1.00  0.00     0.009 A 
ATOM     77  C   UNL A   1      45.083  34.351  32.196  1.00  0.00     0.001 A 
ATOM     78  C   UNL A   1      45.174  34.988  29.866  1.00  0.00     0.001 A 
ATOM     79  C   UNL A   1      45.254  35.329  31.215  1.00  0.00     0.000 A 
ENDBRANCH  61  74
ENDBRANCH  35  36
ENDBRANCH  27  30
ENDBRANCH  25  26
ENDBRANCH  24  25
ENDBRANCH   1  24
TORSDOF 15
ENDMDL
MODEL 2
REMARK VINA RESULT:     -10.4      0.341      6.014
REMARK SMILES C[C@@]([NH2+]Cc1ccccc1Br)(C(=O)NCCCCNC(=O)c1ccc(-c2c3nc(c(-c4ccccc4)c4ccc([nH]4)c(-c4ccccc4)c4nc(c(-c5ccccc5)c5ccc2[nH]5)C=C4)C=C3)cc1)C(F)(F)F
REMARK SMILES IDX 16 1 15 2 14 3 12 4 13 5 2 7 1 8 3 9 4 12 5 13 6 14 10 15
REMARK SMILES IDX 7 16 9 17 11 18 8 19 70 20 71 21 72 22 73 23 17 24 18 25
REMARK SMILES IDX 19 26 20 27 21 29 22 30 23 31 69 32 24 33 68 34 25 35 26 36
REMARK SMILES IDX 27 37 62 38 28 39 67 40 61 41 63 42 29 43 66 44 60 45 59 46
REMARK SMILES IDX 30 48 52 49 37 50 51 51 38 52 41 53 50 54 64 55 39 56 40 57
REMARK SMILES IDX 49 59 65 60 42 61 31 62 32 63 36 64 33 65 35 66 34 67 53 68
REMARK SMILES IDX 54 69 58 70 55 71 57 72 56 73 43 74 44 75 48 76 45 77 47 78
REMARK SMILES IDX 46 79
REMARK H PARENT 14 6 3 10 3 11 19 28 63 47 41 58
REMARK Flexibility Score: inf
ROOT
ATOM      1  C   UNL A   1      36.921  21.626  24.461  1.00  0.00     0.023 C 
ENDROOT
BRANCH   1   2
ATOM      2  C   UNL A   1      36.523  22.470  25.671  1.00  0.00     0.116 C 
BRANCH   2   3
ATOM      3  N   UNL A   1      35.572  21.755  26.501  1.00  0.00    -0.350 N 
ATOM      4  C   UNL A   1      34.214  21.879  26.619  1.00  0.00     0.290 C 
ATOM      5  O   UNL A   1      33.691  21.137  27.454  1.00  0.00    -0.267 OA
ATOM      6  H   UNL A   1      35.970  21.065  27.077  1.00  0.00     0.163 HD
BRANCH   4   7
ATOM      7  C   UNL A   1      33.390  22.826  25.716  1.00  0.00     0.268 C 
ATOM      8  C   UNL A   1      31.941  22.962  26.245  1.00  0.00     0.101 C 
BRANCH   7   9
ATOM      9  N   UNL A   1      33.950  24.229  25.728  1.00  0.00    -0.322 N 
ATOM     10  H   UNL A   1      34.626  24.293  24.966  1.00  0.00     0.347 HD
ATOM     11  H   UNL A   1      34.333  24.346  26.667  1.00  0.00     0.347 HD
BRANCH   9  12
ATOM     12  C   UNL A   1      33.008  25.343  25.572  1.00  0.00     0.299 C 
BRANCH  12  13
ATOM     13  C   UNL A   1      33.334  26.295  24.452  1.00  0.00     0.020 A 
ATOM     14  C   UNL A   1      33.260  25.824  23.128  1.00  0.00     0.011 A 
ATOM     15  C   UNL A   1      33.688  27.638  24.658  1.00  0.00     0.026 A 
ATOM     16  C   UNL A   1      33.459  26.683  22.046  1.00  0.00     0.001 A 
ATOM     17  C   UNL A   1      33.905  28.493  23.572  1.00  0.00     0.016 A 
ATOM     18  Br  UNL A   1      33.890  28.379  26.396  1.00  0.00    -0.050 Br
ATOM     19  C   UNL A   1      33.772  28.019  22.268  1.00  0.00     0.001 A 
ENDBRANCH  12  13
ENDBRANCH   9  12
ENDBRANCH   7   9
BRANCH   7  20
ATOM     20  C   UNL A   1      33.225  22.127  24.331  1.00  0.00     0.453 C 
ATOM     21  F   UNL A   1      31.972  22.287  23.836  1.00  0.00    -0.164 F 
ATOM     22  F   UNL A   1      34.066  22.710  23.429  1.00  0.00    -0.164 F 
ATOM     23  F   UNL A   1      33.497  20.813  24.309  1.00  0.00    -0.164 F 
ENDBRANCH   7  20
ENDBRANCH   4   7
ENDBRANCH   2   3
ENDBRANCH   1   2
BRANCH   1  24
ATOM     24  C   UNL A   1      37.758  20.393  24.812  1.00  0.00     0.023 C 
BRANCH  24  25
ATOM     25  C   UNL A   1      38.911  20.653  25.774  1.00  0.00     0.116 C 
BRANCH  25  26
ATOM     26  N   UNL A   1      39.903  19.589  25.776  1.00  0.00    -0.352 N 
ATOM     27  C   UNL A   1      41.240  19.656  26.087  1.00  0.00     0.251 C 
ATOM     28  H   UNL A   1      39.571  18.699  25.518  1.00  0.00     0.163 HD
ATOM     29  O   UNL A   1      41.966  18.687  25.917  1.00  0.00    -0.269 OA
BRANCH  27  30
ATOM     30  C   UNL A   1      41.803  20.925  26.597  1.00  0.00     0.039 A 
ATOM     31  C   UNL A   1      42.273  21.866  25.679  1.00  0.00     0.014 A 
ATOM     32  C   UNL A   1      41.846  21.190  27.967  1.00  0.00     0.014 A 
ATOM     33  C   UNL A   1      42.725  23.107  26.134  1.00  0.00     0.010 A 
ATOM     34  C   UNL A   1      42.231  22.450  28.415  1.00  0.00     0.010 A 
ATOM     35  C   UNL A   1      42.673  23.421  27.502  1.00  0.00    -0.014 A 
BRANCH  35  36
ATOM     36  C   UNL A   1      43.067  24.763  27.998  1.00  0.00     0.031 A 
ATOM     37  C   UNL A   1      42.019  25.805  28.271  1.00  0.00     0.074 A 
ATOM     38  C   UNL A   1      44.373  25.065  28.135  1.00  0.00     0.049 A 
ATOM     39  N   UNL A   1      42.173  27.050  28.648  1.00  0.00    -0.248 NA
ATOM     40  C   UNL A   1      40.617  25.407  28.072  1.00  0.00     0.031 C 
ATOM     41  C   UNL A   1      45.489  24.155  27.864  1.00  0.00     0.029 A 
ATOM     42  N   UNL A   1      44.982  26.228  28.531  1.00  0.00    -0.354 N 
ATOM     43  C   UNL A   1      40.893  27.585  28.709  1.00  0.00     0.074 A 
ATOM     44  C   UNL A   1      39.979  26.547  28.289  1.00  0.00     0.031 C 
ATOM     45  C   UNL A   1      46.644  24.786  28.129  1.00  0.00     0.029 A 
ATOM     46  C   UNL A   1      46.353  26.154  28.550  1.00  0.00     0.049 A 
ATOM     47  H   UNL A   1      44.484  27.041  28.779  1.00  0.00     0.167 HD
ATOM     48  C   UNL A   1      40.510  28.825  29.096  1.00  0.00     0.031 A 
ATOM     49  C   UNL A   1      47.276  27.082  28.865  1.00  0.00     0.031 A 
ATOM     50  C   UNL A   1      41.418  29.854  29.531  1.00  0.00     0.049 A 
ATOM     51  C   UNL A   1      46.824  28.454  29.283  1.00  0.00     0.074 A 
ATOM     52  C   UNL A   1      41.121  31.120  30.005  1.00  0.00     0.029 A 
ATOM     53  N   UNL A   1      42.798  29.735  29.542  1.00  0.00    -0.354 N 
ATOM     54  N   UNL A   1      45.606  28.921  29.404  1.00  0.00    -0.248 NA
ATOM     55  C   UNL A   1      47.879  29.422  29.618  1.00  0.00     0.031 C 
ATOM     56  C   UNL A   1      42.325  31.784  30.258  1.00  0.00     0.029 A 
ATOM     57  C   UNL A   1      43.369  30.913  29.991  1.00  0.00     0.049 A 
ATOM     58  H   UNL A   1      43.298  28.931  29.270  1.00  0.00     0.167 HD
ATOM     59  C   UNL A   1      45.746  30.227  29.857  1.00  0.00     0.074 A 
ATOM     60  C   UNL A   1      47.166  30.472  30.002  1.00  0.00     0.031 C 
ATOM     61  C   UNL A   1      44.784  31.141  30.131  1.00  0.00     0.031 A 
BRANCH  48  62
ATOM     62  C   UNL A   1      39.041  29.139  29.061  1.00  0.00    -0.014 A 
ATOM     63  C   UNL A   1      38.232  28.967  30.195  1.00  0.00     0.009 A 
ATOM     64  C   UNL A   1      38.465  29.647  27.885  1.00  0.00     0.009 A 
ATOM     65  C   UNL A   1      36.868  29.264  30.143  1.00  0.00     0.001 A 
ATOM     66  C   UNL A   1      37.108  29.970  27.846  1.00  0.00     0.001 A 
ATOM     67  C   UNL A   1      36.309  29.769  28.970  1.00  0.00     0.000 A 
ENDBRANCH  48  62
BRANCH  49  68
ATOM     68  C   UNL A   1      48.722  26.745  28.818  1.00  0.00    -0.014 A 
ATOM     69  C   UNL A   1      49.458  26.945  27.640  1.00  0.00     0.009 A 
ATOM     70  C   UNL A   1      49.371  26.211  29.942  1.00  0.00     0.009 A 
ATOM     71  C   UNL A   1      50.808  26.592  27.580  1.00  0.00     0.001 A 
ATOM     72  C   UNL A   1      50.728  25.884  29.887  1.00  0.00     0.001 A 
ATOM     73  C   UNL A   1      51.442  26.066  28.704  1.00  0.00     0.000 A 
ENDBRANCH  49  68
BRANCH  61  74
ATOM     74  C   UNL A   1      45.233  32.477  30.650  1.00  0.00    -0.014 A 
ATOM     75  C   UNL A   1      45.421  32.701  32.022  1.00  0.00     0.009 A 
ATOM     76  C   UNL A   1      45.511  33.514  29.745  1.00  0.00     0.009 A 
ATOM     77  C   UNL A   1      45.847  33.949  32.481  1.00  0.00     0.001 A 
ATOM     78  C   UNL A   1      45.965  34.750  30.204  1.00  0.00     0.001 A 
ATOM     79  C   UNL A   1      46.123  34.971  31.571  1.00  0.00     0.000 A 
ENDBRANCH  61  74
ENDBRANCH  35  36
ENDBRANCH  27  30
ENDBRANCH  25  26
ENDBRANCH  24  25
ENDBRANCH   1  24
TORSDOF 15
ENDMDL
MODEL 3
REMARK VINA RESULT:     -10.3      4.322      8.979
REMARK SMILES C[C@@]([NH2+]Cc1ccccc1Br)(C(=O)NCCCCNC(=O)c1ccc(-c2c3nc(c(-c4ccccc4)c4ccc([nH]4)c(-c4ccccc4)c4nc(c(-c5ccccc5)c5ccc2[nH]5)C=C4)C=C3)cc1)C(F)(F)F
REMARK SMILES IDX 16 1 15 2 14 3 12 4 13 5 2 7 1 8 3 9 4 12 5 13 6 14 10 15
REMARK SMILES IDX 7 16 9 17 11 18 8 19 70 20 71 21 72 22 73 23 17 24 18 25
REMARK SMILES IDX 19 26 20 27 21 29 22 30 23 31 69 32 24 33 68 34 25 35 26 36
REMARK SMILES IDX 27 37 62 38 28 39 67 40 61 41 63 42 29 43 66 44 60 45 59 46
REMARK SMILES IDX 30 48 52 49 37 50 51 51 38 52 41 53 50 54 64 55 39 56 40 57
REMARK SMILES IDX 49 59 65 60 42 61 31 62 32 63 36 64 33 65 35 66 34 67 53 68
REMARK SMILES IDX 54 69 58 70 55 71 57 72 56 73 43 74 44 75 48 76 45 77 47 78
REMARK SMILES IDX 46 79
REMARK H PARENT 14 6 3 10 3 11 19 28 63 47 41 58
REMARK Flexibility Score: inf
ROOT
ATOM      1  C   UNL A   1      32.035  29.839  26.723  1.00  0.00     0.023 C 
ENDROOT
BRANCH   1   2
ATOM      2  C   UNL A   1      33.327  29.520  25.972  1.00  0.00     0.116 C 
BRANCH   2   3
ATOM      3  N   UNL A   1      33.122  29.619  24.540  1.00  0.00    -0.350 N 
ATOM      4  C   UNL A   1      32.779  28.670  23.615  1.00  0.00     0.290 C 
ATOM      5  O   UNL A   1      32.719  29.072  22.450  1.00  0.00    -0.267 OA
ATOM      6  H   UNL A   1      33.253  30.522  24.169  1.00  0.00     0.163 HD
BRANCH   4   7
ATOM      7  C   UNL A   1      32.418  27.221  24.014  1.00  0.00     0.268 C 
ATOM      8  C   UNL A   1      32.401  26.299  22.771  1.00  0.00     0.101 C 
BRANCH   7   9
ATOM      9  N   UNL A   1      33.458  26.626  24.935  1.00  0.00    -0.322 N 
ATOM     10  H   UNL A   1      33.067  26.630  25.878  1.00  0.00     0.347 HD
ATOM     11  H   UNL A   1      34.286  27.206  24.799  1.00  0.00     0.347 HD
BRANCH   9  12
ATOM     12  C   UNL A   1      33.914  25.259  24.658  1.00  0.00     0.299 C 
BRANCH  12  13
ATOM     13  C   UNL A   1      33.661  24.271  25.765  1.00  0.00     0.020 A 
ATOM     14  C   UNL A   1      32.352  24.142  26.265  1.00  0.00     0.011 A 
ATOM     15  C   UNL A   1      34.662  23.452  26.314  1.00  0.00     0.026 A 
ATOM     16  C   UNL A   1      32.038  23.178  27.223  1.00  0.00     0.001 A 
ATOM     17  C   UNL A   1      34.348  22.498  27.288  1.00  0.00     0.016 A 
ATOM     18  Br  UNL A   1      36.481  23.575  25.777  1.00  0.00    -0.050 Br
ATOM     19  C   UNL A   1      33.034  22.351  27.728  1.00  0.00     0.001 A 
ENDBRANCH  12  13
ENDBRANCH   9  12
ENDBRANCH   7   9
BRANCH   7  20
ATOM     20  C   UNL A   1      30.937  27.225  24.505  1.00  0.00     0.453 C 
ATOM     21  F   UNL A   1      30.329  28.412  24.251  1.00  0.00    -0.164 F 
ATOM     22  F   UNL A   1      30.232  26.284  23.816  1.00  0.00    -0.164 F 
ATOM     23  F   UNL A   1      30.758  26.957  25.808  1.00  0.00    -0.164 F 
ENDBRANCH   7  20
ENDBRANCH   4   7
ENDBRANCH   2   3
ENDBRANCH   1   2
BRANCH   1  24
ATOM     24  C   UNL A   1      31.735  31.336  26.834  1.00  0.00     0.023 C 
BRANCH  24  25
ATOM     25  C   UNL A   1      32.942  32.211  27.152  1.00  0.00     0.116 C 
BRANCH  25  26
ATOM     26  N   UNL A   1      32.577  33.550  27.585  1.00  0.00    -0.352 N 
ATOM     27  C   UNL A   1      33.204  34.363  28.501  1.00  0.00     0.251 C 
ATOM     28  H   UNL A   1      31.770  33.927  27.165  1.00  0.00     0.163 HD
ATOM     29  O   UNL A   1      32.692  35.419  28.844  1.00  0.00    -0.269 OA
BRANCH  27  30
ATOM     30  C   UNL A   1      34.486  33.930  29.096  1.00  0.00     0.039 A 
ATOM     31  C   UNL A   1      34.457  33.116  30.230  1.00  0.00     0.014 A 
ATOM     32  C   UNL A   1      35.703  34.307  28.525  1.00  0.00     0.014 A 
ATOM     33  C   UNL A   1      35.654  32.623  30.754  1.00  0.00     0.010 A 
ATOM     34  C   UNL A   1      36.889  33.760  29.005  1.00  0.00     0.010 A 
ATOM     35  C   UNL A   1      36.876  32.912  30.123  1.00  0.00    -0.014 A 
BRANCH  35  36
ATOM     36  C   UNL A   1      38.150  32.328  30.612  1.00  0.00     0.031 A 
ATOM     37  C   UNL A   1      38.670  31.048  30.022  1.00  0.00     0.074 A 
ATOM     38  C   UNL A   1      38.800  32.914  31.636  1.00  0.00     0.049 A 
ATOM     39  N   UNL A   1      39.728  30.354  30.360  1.00  0.00    -0.248 NA
ATOM     40  C   UNL A   1      37.887  30.455  28.926  1.00  0.00     0.031 C 
ATOM     41  C   UNL A   1      38.379  34.138  32.322  1.00  0.00     0.029 A 
ATOM     42  N   UNL A   1      39.955  32.553  32.282  1.00  0.00    -0.354 N 
ATOM     43  C   UNL A   1      39.725  29.237  29.535  1.00  0.00     0.074 A 
ATOM     44  C   UNL A   1      38.538  29.321  28.712  1.00  0.00     0.031 C 
ATOM     45  C   UNL A   1      39.277  34.439  33.273  1.00  0.00     0.029 A 
ATOM     46  C   UNL A   1      40.315  33.413  33.291  1.00  0.00     0.049 A 
ATOM     47  H   UNL A   1      40.478  31.752  32.046  1.00  0.00     0.167 HD
ATOM     48  C   UNL A   1      40.636  28.239  29.456  1.00  0.00     0.031 A 
ATOM     49  C   UNL A   1      41.360  33.377  34.139  1.00  0.00     0.031 A 
ATOM     50  C   UNL A   1      41.826  28.163  30.262  1.00  0.00     0.049 A 
ATOM     51  C   UNL A   1      42.352  32.253  34.037  1.00  0.00     0.074 A 
ATOM     52  C   UNL A   1      42.843  27.225  30.210  1.00  0.00     0.029 A 
ATOM     53  N   UNL A   1      42.156  29.058  31.267  1.00  0.00    -0.354 N 
ATOM     54  N   UNL A   1      42.372  31.242  33.202  1.00  0.00    -0.248 NA
ATOM     55  C   UNL A   1      43.472  32.273  34.988  1.00  0.00     0.031 C 
ATOM     56  C   UNL A   1      43.766  27.527  31.217  1.00  0.00     0.029 A 
ATOM     57  C   UNL A   1      43.349  28.681  31.860  1.00  0.00     0.049 A 
ATOM     58  H   UNL A   1      41.621  29.845  31.521  1.00  0.00     0.167 HD
ATOM     59  C   UNL A   1      43.520  30.523  33.508  1.00  0.00     0.074 A 
ATOM     60  C   UNL A   1      44.176  31.220  34.596  1.00  0.00     0.031 C 
ATOM     61  C   UNL A   1      43.990  29.387  32.939  1.00  0.00     0.031 A 
BRANCH  48  62
ATOM     62  C   UNL A   1      40.377  27.140  28.464  1.00  0.00    -0.014 A 
ATOM     63  C   UNL A   1      39.559  26.045  28.787  1.00  0.00     0.009 A 
ATOM     64  C   UNL A   1      40.930  27.219  27.176  1.00  0.00     0.009 A 
ATOM     65  C   UNL A   1      39.329  25.034  27.852  1.00  0.00     0.001 A 
ATOM     66  C   UNL A   1      40.675  26.220  26.235  1.00  0.00     0.001 A 
ATOM     67  C   UNL A   1      39.884  25.125  26.575  1.00  0.00     0.000 A 
ENDBRANCH  48  62
BRANCH  49  68
ATOM     68  C   UNL A   1      41.537  34.451  35.151  1.00  0.00    -0.014 A 
ATOM     69  C   UNL A   1      40.999  34.306  36.439  1.00  0.00     0.009 A 
ATOM     70  C   UNL A   1      42.231  35.628  34.834  1.00  0.00     0.009 A 
ATOM     71  C   UNL A   1      41.129  35.330  37.380  1.00  0.00     0.001 A 
ATOM     72  C   UNL A   1      42.383  36.639  35.786  1.00  0.00     0.001 A 
ATOM     73  C   UNL A   1      41.824  36.493  37.054  1.00  0.00     0.000 A 
ENDBRANCH  49  68
BRANCH  61  74
ATOM     74  C   UNL A   1      45.293  28.848  33.455  1.00  0.00    -0.014 A 
ATOM     75  C   UNL A   1      46.520  29.268  32.919  1.00  0.00     0.009 A 
ATOM     76  C   UNL A   1      45.292  27.936  34.523  1.00  0.00     0.009 A 
ATOM     77  C   UNL A   1      47.720  28.759  33.420  1.00  0.00     0.001 A 
ATOM     78  C   UNL A   1      46.493  27.452  35.041  1.00  0.00     0.001 A 
ATOM     79  C   UNL A   1      47.705  27.856  34.483  1.00  0.00     0.000 A 
ENDBRANCH  61  74
ENDBRANCH  35  36
ENDBRANCH  27  30
ENDBRANCH  25  26
ENDBRANCH  24  25
ENDBRANCH   1  24
TORSDOF 15
ENDMDL
