MODEL 1
REMARK VINA RESULT:     -10.8      0.000      0.000
REMARK SMILES CCOc1cc(OCC)cc(-c2ccc([C@@H](C)C(=O)NCCCCNC(=O)c3ccc(-c4c5nc(c(-c6ccccc6)c6ccc([nH]6)c(-c6ccccc6)c6nc(c(-c7ccccc7)c7ccc4[nH]7)C=C6)C=C5)cc3)cc2)c1
REMARK SMILES IDX 21 1 20 2 18 3 19 4 16 6 17 7 15 8 12 9 13 10 77 11 14 12
REMARK SMILES IDX 76 13 11 14 4 15 5 16 78 17 6 18 10 19 3 20 2 21 1 22 7 23
REMARK SMILES IDX 8 24 9 25 22 26 23 27 24 28 25 29 26 30 27 32 28 33 29 34
REMARK SMILES IDX 75 35 30 36 74 37 31 38 32 39 33 40 68 41 34 42 73 43 67 44
REMARK SMILES IDX 69 45 35 46 72 47 66 48 65 49 36 51 58 52 43 53 57 54 44 55
REMARK SMILES IDX 47 56 56 57 70 58 45 59 46 60 55 62 71 63 48 64 37 65 38 66
REMARK SMILES IDX 42 67 39 68 41 69 40 70 59 71 60 72 64 73 61 74 63 75 62 76
REMARK SMILES IDX 49 77 50 78 54 79 51 80 53 81 52 82
REMARK H PARENT 20 5 25 31 69 50 47 61
REMARK Flexibility Score: inf
ROOT
ATOM      1  C   UNL A   1      35.245  20.373  24.806  1.00  0.00     0.116 C 
ENDROOT
BRANCH   1   2
ATOM      2  N   UNL A   1      34.340  19.488  25.508  1.00  0.00    -0.356 N 
ATOM      3  C   UNL A   1      33.046  19.137  25.268  1.00  0.00     0.227 C 
ATOM      4  O   UNL A   1      32.519  18.394  26.105  1.00  0.00    -0.274 OA
ATOM      5  H   UNL A   1      34.731  19.063  26.305  1.00  0.00     0.163 HD
BRANCH   3   6
ATOM      6  C   UNL A   1      32.241  19.598  24.042  1.00  0.00     0.105 C 
ATOM      7  C   UNL A   1      32.581  18.850  22.753  1.00  0.00     0.023 C 
BRANCH   6   8
ATOM      8  C   UNL A   1      32.144  21.108  23.918  1.00  0.00    -0.036 A 
ATOM      9  C   UNL A   1      32.112  23.965  23.806  1.00  0.00    -0.018 A 
ATOM     10  C   UNL A   1      32.490  23.180  22.704  1.00  0.00     0.009 A 
ATOM     11  C   UNL A   1      31.725  23.276  24.965  1.00  0.00     0.009 A 
ATOM     12  C   UNL A   1      32.459  21.785  22.742  1.00  0.00     0.005 A 
ATOM     13  C   UNL A   1      31.763  21.876  25.028  1.00  0.00     0.005 A 
BRANCH   9  14
ATOM     14  C   UNL A   1      32.143  25.446  23.723  1.00  0.00    -0.011 A 
ATOM     15  C   UNL A   1      33.150  27.604  24.234  1.00  0.00     0.123 A 
ATOM     16  C   UNL A   1      32.215  28.254  23.430  1.00  0.00     0.092 A 
ATOM     17  C   UNL A   1      33.109  26.216  24.385  1.00  0.00     0.055 A 
ATOM     18  C   UNL A   1      31.229  27.521  22.775  1.00  0.00     0.123 A 
ATOM     19  C   UNL A   1      31.193  26.136  22.945  1.00  0.00     0.055 A 
BRANCH  15  20
ATOM     20  O   UNL A   1      34.014  28.368  24.968  1.00  0.00    -0.494 OA
BRANCH  20  21
ATOM     21  C   UNL A   1      33.986  28.092  26.373  1.00  0.00     0.226 C 
ATOM     22  C   UNL A   1      34.008  29.368  27.200  1.00  0.00     0.049 C 
ENDBRANCH  20  21
ENDBRANCH  15  20
BRANCH  18  23
ATOM     23  O   UNL A   1      30.372  28.240  21.984  1.00  0.00    -0.494 OA
BRANCH  23  24
ATOM     24  C   UNL A   1      29.695  29.359  22.564  1.00  0.00     0.226 C 
ATOM     25  C   UNL A   1      28.206  29.093  22.742  1.00  0.00     0.049 C 
ENDBRANCH  23  24
ENDBRANCH  18  23
ENDBRANCH   9  14
ENDBRANCH   6   8
ENDBRANCH   3   6
ENDBRANCH   1   2
BRANCH   1  26
ATOM     26  C   UNL A   1      35.503  21.671  25.574  1.00  0.00     0.023 C 
BRANCH  26  27
ATOM     27  C   UNL A   1      35.823  22.886  24.706  1.00  0.00     0.023 C 
BRANCH  27  28
ATOM     28  C   UNL A   1      37.153  23.567  25.007  1.00  0.00     0.116 C 
BRANCH  28  29
ATOM     29  N   UNL A   1      38.220  22.655  25.390  1.00  0.00    -0.352 N 
ATOM     30  C   UNL A   1      39.305  22.911  26.199  1.00  0.00     0.251 C 
ATOM     31  H   UNL A   1      38.159  21.742  25.027  1.00  0.00     0.163 HD
ATOM     32  O   UNL A   1      40.167  22.064  26.382  1.00  0.00    -0.269 OA
BRANCH  30  33
ATOM     33  C   UNL A   1      39.436  24.254  26.806  1.00  0.00     0.039 A 
ATOM     34  C   UNL A   1      38.935  24.464  28.093  1.00  0.00     0.014 A 
ATOM     35  C   UNL A   1      40.117  25.271  26.133  1.00  0.00     0.014 A 
ATOM     36  C   UNL A   1      39.190  25.674  28.739  1.00  0.00     0.010 A 
ATOM     37  C   UNL A   1      40.434  26.443  26.807  1.00  0.00     0.010 A 
ATOM     38  C   UNL A   1      39.978  26.656  28.117  1.00  0.00    -0.014 A 
BRANCH  38  39
ATOM     39  C   UNL A   1      40.340  27.917  28.809  1.00  0.00     0.031 A 
ATOM     40  C   UNL A   1      41.680  28.042  29.481  1.00  0.00     0.074 A 
ATOM     41  C   UNL A   1      39.438  28.912  28.912  1.00  0.00     0.049 A 
ATOM     42  N   UNL A   1      42.144  29.014  30.223  1.00  0.00    -0.248 NA
ATOM     43  C   UNL A   1      42.607  26.910  29.322  1.00  0.00     0.031 C 
ATOM     44  C   UNL A   1      38.087  28.897  28.345  1.00  0.00     0.029 A 
ATOM     45  N   UNL A   1      39.519  30.127  29.543  1.00  0.00    -0.354 N 
ATOM     46  C   UNL A   1      43.400  28.598  30.642  1.00  0.00     0.074 A 
ATOM     47  C   UNL A   1      43.608  27.269  30.111  1.00  0.00     0.031 C 
ATOM     48  C   UNL A   1      37.477  30.059  28.633  1.00  0.00     0.029 A 
ATOM     49  C   UNL A   1      38.376  30.882  29.436  1.00  0.00     0.049 A 
ATOM     50  H   UNL A   1      40.321  30.431  30.027  1.00  0.00     0.167 HD
ATOM     51  C   UNL A   1      44.311  29.268  31.387  1.00  0.00     0.031 A 
ATOM     52  C   UNL A   1      38.084  32.098  29.932  1.00  0.00     0.031 A 
ATOM     53  C   UNL A   1      44.119  30.599  31.894  1.00  0.00     0.049 A 
ATOM     54  C   UNL A   1      39.115  32.828  30.747  1.00  0.00     0.074 A 
ATOM     55  C   UNL A   1      45.005  31.389  32.605  1.00  0.00     0.029 A 
ATOM     56  N   UNL A   1      42.956  31.339  31.740  1.00  0.00    -0.354 N 
ATOM     57  N   UNL A   1      40.323  32.445  31.083  1.00  0.00    -0.248 NA
ATOM     58  C   UNL A   1      38.745  34.161  31.241  1.00  0.00     0.031 C 
ATOM     59  C   UNL A   1      44.366  32.594  32.912  1.00  0.00     0.029 A 
ATOM     60  C   UNL A   1      43.098  32.571  32.354  1.00  0.00     0.049 A 
ATOM     61  H   UNL A   1      42.151  31.034  31.264  1.00  0.00     0.167 HD
ATOM     62  C   UNL A   1      40.866  33.499  31.805  1.00  0.00     0.074 A 
ATOM     63  C   UNL A   1      39.861  34.542  31.847  1.00  0.00     0.031 C 
ATOM     64  C   UNL A   1      42.088  33.596  32.383  1.00  0.00     0.031 A 
BRANCH  51  65
ATOM     65  C   UNL A   1      45.600  28.561  31.697  1.00  0.00    -0.014 A 
ATOM     66  C   UNL A   1      46.700  28.641  30.828  1.00  0.00     0.009 A 
ATOM     67  C   UNL A   1      45.723  27.818  32.881  1.00  0.00     0.009 A 
ATOM     68  C   UNL A   1      47.882  27.959  31.118  1.00  0.00     0.001 A 
ATOM     69  C   UNL A   1      46.916  27.160  33.183  1.00  0.00     0.001 A 
ATOM     70  C   UNL A   1      47.990  27.221  32.297  1.00  0.00     0.000 A 
ENDBRANCH  51  65
BRANCH  52  71
ATOM     71  C   UNL A   1      36.762  32.719  29.656  1.00  0.00    -0.014 A 
ATOM     72  C   UNL A   1      36.542  33.410  28.454  1.00  0.00     0.009 A 
ATOM     73  C   UNL A   1      35.720  32.632  30.591  1.00  0.00     0.009 A 
ATOM     74  C   UNL A   1      35.313  34.023  28.207  1.00  0.00     0.001 A 
ATOM     75  C   UNL A   1      34.483  33.225  30.329  1.00  0.00     0.001 A 
ATOM     76  C   UNL A   1      34.284  33.928  29.141  1.00  0.00     0.000 A 
ENDBRANCH  52  71
BRANCH  64  77
ATOM     77  C   UNL A   1      42.418  34.885  33.078  1.00  0.00    -0.014 A 
ATOM     78  C   UNL A   1      42.024  35.116  34.406  1.00  0.00     0.009 A 
ATOM     79  C   UNL A   1      43.169  35.863  32.408  1.00  0.00     0.009 A 
ATOM     80  C   UNL A   1      42.354  36.315  35.039  1.00  0.00     0.001 A 
ATOM     81  C   UNL A   1      43.519  37.050  33.052  1.00  0.00     0.001 A 
ATOM     82  C   UNL A   1      43.104  37.278  34.363  1.00  0.00     0.000 A 
ENDBRANCH  64  77
ENDBRANCH  38  39
ENDBRANCH  30  33
ENDBRANCH  28  29
ENDBRANCH  27  28
ENDBRANCH  26  27
ENDBRANCH   1  26
TORSDOF 17
ENDMDL
MODEL 2
REMARK VINA RESULT:     -10.7      2.529      8.343
REMARK SMILES CCOc1cc(OCC)cc(-c2ccc([C@@H](C)C(=O)NCCCCNC(=O)c3ccc(-c4c5nc(c(-c6ccccc6)c6ccc([nH]6)c(-c6ccccc6)c6nc(c(-c7ccccc7)c7ccc4[nH]7)C=C6)C=C5)cc3)cc2)c1
REMARK SMILES IDX 21 1 20 2 18 3 19 4 16 6 17 7 15 8 12 9 13 10 77 11 14 12
REMARK SMILES IDX 76 13 11 14 4 15 5 16 78 17 6 18 10 19 3 20 2 21 1 22 7 23
REMARK SMILES IDX 8 24 9 25 22 26 23 27 24 28 25 29 26 30 27 32 28 33 29 34
REMARK SMILES IDX 75 35 30 36 74 37 31 38 32 39 33 40 68 41 34 42 73 43 67 44
REMARK SMILES IDX 69 45 35 46 72 47 66 48 65 49 36 51 58 52 43 53 57 54 44 55
REMARK SMILES IDX 47 56 56 57 70 58 45 59 46 60 55 62 71 63 48 64 37 65 38 66
REMARK SMILES IDX 42 67 39 68 41 69 40 70 59 71 60 72 64 73 61 74 63 75 62 76
REMARK SMILES IDX 49 77 50 78 54 79 51 80 53 81 52 82
REMARK H PARENT 20 5 25 31 69 50 47 61
REMARK Flexibility Score: inf
ROOT
ATOM      1  C   UNL A   1      30.744  29.979  24.817  1.00  0.00     0.116 C 
ENDROOT
BRANCH   1   2
ATOM      2  N   UNL A   1      30.479  30.193  23.410  1.00  0.00    -0.356 N 
ATOM      3  C   UNL A   1      29.902  29.402  22.465  1.00  0.00     0.227 C 
ATOM      4  O   UNL A   1      29.878  29.857  21.314  1.00  0.00    -0.274 OA
ATOM      5  H   UNL A   1      30.771  31.073  23.076  1.00  0.00     0.163 HD
BRANCH   3   6
ATOM      6  C   UNL A   1      29.289  28.022  22.753  1.00  0.00     0.105 C 
ATOM      7  C   UNL A   1      27.959  28.072  23.506  1.00  0.00     0.023 C 
BRANCH   6   8
ATOM      8  C   UNL A   1      30.298  27.011  23.270  1.00  0.00    -0.036 A 
ATOM      9  C   UNL A   1      32.067  24.969  24.205  1.00  0.00    -0.018 A 
ATOM     10  C   UNL A   1      32.316  25.688  23.023  1.00  0.00     0.009 A 
ATOM     11  C   UNL A   1      30.915  25.321  24.923  1.00  0.00     0.009 A 
ATOM     12  C   UNL A   1      31.479  26.718  22.592  1.00  0.00     0.005 A 
ATOM     13  C   UNL A   1      30.034  26.306  24.453  1.00  0.00     0.005 A 
BRANCH   9  14
ATOM     14  C   UNL A   1      32.988  23.891  24.640  1.00  0.00    -0.011 A 
ATOM     15  C   UNL A   1      33.704  21.563  24.675  1.00  0.00     0.123 A 
ATOM     16  C   UNL A   1      34.842  21.902  25.403  1.00  0.00     0.092 A 
ATOM     17  C   UNL A   1      32.783  22.546  24.304  1.00  0.00     0.055 A 
ATOM     18  C   UNL A   1      35.067  23.226  25.772  1.00  0.00     0.123 A 
ATOM     19  C   UNL A   1      34.131  24.195  25.406  1.00  0.00     0.055 A 
BRANCH  15  20
ATOM     20  O   UNL A   1      33.450  20.238  24.451  1.00  0.00    -0.494 OA
BRANCH  20  21
ATOM     21  C   UNL A   1      32.429  19.998  23.475  1.00  0.00     0.226 C 
ATOM     22  C   UNL A   1      32.363  18.532  23.076  1.00  0.00     0.049 C 
ENDBRANCH  20  21
ENDBRANCH  15  20
BRANCH  18  23
ATOM     23  O   UNL A   1      36.224  23.470  26.461  1.00  0.00    -0.494 OA
BRANCH  23  24
ATOM     24  C   UNL A   1      37.433  23.638  25.715  1.00  0.00     0.226 C 
ATOM     25  C   UNL A   1      38.337  22.417  25.816  1.00  0.00     0.049 C 
ENDBRANCH  23  24
ENDBRANCH  18  23
ENDBRANCH   9  14
ENDBRANCH   6   8
ENDBRANCH   3   6
ENDBRANCH   1   2
BRANCH   1  26
ATOM     26  C   UNL A   1      32.205  29.611  25.085  1.00  0.00     0.023 C 
BRANCH  26  27
ATOM     27  C   UNL A   1      32.418  28.526  26.138  1.00  0.00     0.023 C 
BRANCH  27  28
ATOM     28  C   UNL A   1      33.524  28.808  27.148  1.00  0.00     0.116 C 
BRANCH  28  29
ATOM     29  N   UNL A   1      33.526  30.166  27.670  1.00  0.00    -0.352 N 
ATOM     30  C   UNL A   1      34.555  30.830  28.300  1.00  0.00     0.251 C 
ATOM     31  H   UNL A   1      32.689  30.672  27.560  1.00  0.00     0.163 HD
ATOM     32  O   UNL A   1      34.394  31.954  28.753  1.00  0.00    -0.269 OA
BRANCH  30  33
ATOM     33  C   UNL A   1      35.851  30.138  28.465  1.00  0.00     0.039 A 
ATOM     34  C   UNL A   1      36.764  30.153  27.408  1.00  0.00     0.014 A 
ATOM     35  C   UNL A   1      36.186  29.544  29.684  1.00  0.00     0.014 A 
ATOM     36  C   UNL A   1      38.048  29.643  27.602  1.00  0.00     0.010 A 
ATOM     37  C   UNL A   1      37.487  29.108  29.898  1.00  0.00     0.010 A 
ATOM     38  C   UNL A   1      38.433  29.156  28.861  1.00  0.00    -0.014 A 
BRANCH  38  39
ATOM     39  C   UNL A   1      39.815  28.687  29.125  1.00  0.00     0.031 A 
ATOM     40  C   UNL A   1      40.814  29.622  29.748  1.00  0.00     0.074 A 
ATOM     41  C   UNL A   1      40.197  27.458  28.726  1.00  0.00     0.049 A 
ATOM     42  N   UNL A   1      42.092  29.441  29.963  1.00  0.00    -0.248 NA
ATOM     43  C   UNL A   1      40.317  30.946  30.154  1.00  0.00     0.031 C 
ATOM     44  C   UNL A   1      39.337  26.471  28.068  1.00  0.00     0.029 A 
ATOM     45  N   UNL A   1      41.416  26.834  28.806  1.00  0.00    -0.354 N 
ATOM     46  C   UNL A   1      42.555  30.635  30.500  1.00  0.00     0.074 A 
ATOM     47  C   UNL A   1      41.433  31.548  30.535  1.00  0.00     0.031 C 
ATOM     48  C   UNL A   1      40.049  25.358  27.828  1.00  0.00     0.029 A 
ATOM     49  C   UNL A   1      41.422  25.566  28.277  1.00  0.00     0.049 A 
ATOM     50  H   UNL A   1      42.212  27.255  29.204  1.00  0.00     0.167 HD
ATOM     51  C   UNL A   1      43.797  30.941  30.942  1.00  0.00     0.031 A 
ATOM     52  C   UNL A   1      42.423  24.673  28.163  1.00  0.00     0.031 A 
ATOM     53  C   UNL A   1      44.907  30.028  30.933  1.00  0.00     0.049 A 
ATOM     54  C   UNL A   1      43.790  25.031  28.672  1.00  0.00     0.074 A 
ATOM     55  C   UNL A   1      46.188  30.221  31.417  1.00  0.00     0.029 A 
ATOM     56  N   UNL A   1      44.863  28.743  30.413  1.00  0.00    -0.354 N 
ATOM     57  N   UNL A   1      44.197  26.144  29.233  1.00  0.00    -0.248 NA
ATOM     58  C   UNL A   1      44.835  24.006  28.540  1.00  0.00     0.031 C 
ATOM     59  C   UNL A   1      46.931  29.066  31.158  1.00  0.00     0.029 A 
ATOM     60  C   UNL A   1      46.099  28.138  30.553  1.00  0.00     0.049 A 
ATOM     61  H   UNL A   1      44.070  28.324  30.006  1.00  0.00     0.167 HD
ATOM     62  C   UNL A   1      45.534  25.944  29.544  1.00  0.00     0.074 A 
ATOM     63  C   UNL A   1      45.868  24.599  29.122  1.00  0.00     0.031 C 
ATOM     64  C   UNL A   1      46.411  26.798  30.128  1.00  0.00     0.031 A 
BRANCH  51  65
ATOM     65  C   UNL A   1      44.014  32.330  31.472  1.00  0.00    -0.014 A 
ATOM     66  C   UNL A   1      43.927  32.605  32.847  1.00  0.00     0.009 A 
ATOM     67  C   UNL A   1      44.327  33.375  30.590  1.00  0.00     0.009 A 
ATOM     68  C   UNL A   1      44.108  33.905  33.321  1.00  0.00     0.001 A 
ATOM     69  C   UNL A   1      44.535  34.669  31.069  1.00  0.00     0.001 A 
ATOM     70  C   UNL A   1      44.415  34.935  32.433  1.00  0.00     0.000 A 
ENDBRANCH  51  65
BRANCH  52  71
ATOM     71  C   UNL A   1      42.166  23.339  27.561  1.00  0.00    -0.014 A 
ATOM     72  C   UNL A   1      42.428  23.115  26.200  1.00  0.00     0.009 A 
ATOM     73  C   UNL A   1      41.652  22.289  28.335  1.00  0.00     0.009 A 
ATOM     74  C   UNL A   1      42.155  21.874  25.622  1.00  0.00     0.001 A 
ATOM     75  C   UNL A   1      41.404  21.041  27.760  1.00  0.00     0.001 A 
ATOM     76  C   UNL A   1      41.648  20.837  26.402  1.00  0.00     0.000 A 
ENDBRANCH  52  71
BRANCH  64  77
ATOM     77  C   UNL A   1      47.801  26.290  30.376  1.00  0.00    -0.014 A 
ATOM     78  C   UNL A   1      48.196  25.844  31.647  1.00  0.00     0.009 A 
ATOM     79  C   UNL A   1      48.714  26.219  29.313  1.00  0.00     0.009 A 
ATOM     80  C   UNL A   1      49.490  25.361  31.853  1.00  0.00     0.001 A 
ATOM     81  C   UNL A   1      49.999  25.713  29.516  1.00  0.00     0.001 A 
ATOM     82  C   UNL A   1      50.387  25.293  30.786  1.00  0.00     0.000 A 
ENDBRANCH  64  77
ENDBRANCH  38  39
ENDBRANCH  30  33
ENDBRANCH  28  29
ENDBRANCH  27  28
ENDBRANCH  26  27
ENDBRANCH   1  26
TORSDOF 17
ENDMDL
MODEL 3
REMARK VINA RESULT:     -10.7      2.472      8.195
REMARK SMILES CCOc1cc(OCC)cc(-c2ccc([C@@H](C)C(=O)NCCCCNC(=O)c3ccc(-c4c5nc(c(-c6ccccc6)c6ccc([nH]6)c(-c6ccccc6)c6nc(c(-c7ccccc7)c7ccc4[nH]7)C=C6)C=C5)cc3)cc2)c1
REMARK SMILES IDX 21 1 20 2 18 3 19 4 16 6 17 7 15 8 12 9 13 10 77 11 14 12
REMARK SMILES IDX 76 13 11 14 4 15 5 16 78 17 6 18 10 19 3 20 2 21 1 22 7 23
REMARK SMILES IDX 8 24 9 25 22 26 23 27 24 28 25 29 26 30 27 32 28 33 29 34
REMARK SMILES IDX 75 35 30 36 74 37 31 38 32 39 33 40 68 41 34 42 73 43 67 44
REMARK SMILES IDX 69 45 35 46 72 47 66 48 65 49 36 51 58 52 43 53 57 54 44 55
REMARK SMILES IDX 47 56 56 57 70 58 45 59 46 60 55 62 71 63 48 64 37 65 38 66
REMARK SMILES IDX 42 67 39 68 41 69 40 70 59 71 60 72 64 73 61 74 63 75 62 76
REMARK SMILES IDX 49 77 50 78 54 79 51 80 53 81 52 82
REMARK H PARENT 20 5 25 31 69 50 47 61
REMARK Flexibility Score: inf
ROOT
ATOM      1  C   UNL A   1      31.562  29.013  24.940  1.00  0.00     0.116 C 
ENDROOT
BRANCH   1   2
ATOM      2  N   UNL A   1      31.189  29.536  23.642  1.00  0.00    -0.356 N 
ATOM      3  C   UNL A   1      30.401  29.031  22.653  1.00  0.00     0.227 C 
ATOM      4  O   UNL A   1      30.328  29.705  21.618  1.00  0.00    -0.274 OA
ATOM      5  H   UNL A   1      31.575  30.418  23.439  1.00  0.00     0.163 HD
BRANCH   3   6
ATOM      6  C   UNL A   1      29.617  27.713  22.764  1.00  0.00     0.105 C 
ATOM      7  C   UNL A   1      28.310  27.826  23.549  1.00  0.00     0.023 C 
BRANCH   6   8
ATOM      8  C   UNL A   1      30.490  26.520  23.111  1.00  0.00    -0.036 A 
ATOM      9  C   UNL A   1      31.982  24.160  23.725  1.00  0.00    -0.018 A 
ATOM     10  C   UNL A   1      32.262  24.946  22.594  1.00  0.00     0.009 A 
ATOM     11  C   UNL A   1      30.946  24.605  24.559  1.00  0.00     0.009 A 
ATOM     12  C   UNL A   1      31.567  26.124  22.320  1.00  0.00     0.005 A 
ATOM     13  C   UNL A   1      30.198  25.749  24.246  1.00  0.00     0.005 A 
BRANCH   9  14
ATOM     14  C   UNL A   1      32.754  22.922  23.992  1.00  0.00    -0.011 A 
ATOM     15  C   UNL A   1      34.807  21.760  24.599  1.00  0.00     0.123 A 
ATOM     16  C   UNL A   1      34.140  20.537  24.604  1.00  0.00     0.092 A 
ATOM     17  C   UNL A   1      34.124  22.939  24.288  1.00  0.00     0.055 A 
ATOM     18  C   UNL A   1      32.783  20.482  24.294  1.00  0.00     0.123 A 
ATOM     19  C   UNL A   1      32.116  21.666  23.973  1.00  0.00     0.055 A 
BRANCH  15  20
ATOM     20  O   UNL A   1      36.164  21.757  24.772  1.00  0.00    -0.494 OA
BRANCH  20  21
ATOM     21  C   UNL A   1      36.768  23.051  24.658  1.00  0.00     0.226 C 
ATOM     22  C   UNL A   1      37.763  23.311  25.780  1.00  0.00     0.049 C 
ENDBRANCH  20  21
ENDBRANCH  15  20
BRANCH  18  23
ATOM     23  O   UNL A   1      32.203  19.243  24.352  1.00  0.00    -0.494 OA
BRANCH  23  24
ATOM     24  C   UNL A   1      32.408  18.349  23.254  1.00  0.00     0.226 C 
ATOM     25  C   UNL A   1      33.437  17.274  23.581  1.00  0.00     0.049 C 
ENDBRANCH  23  24
ENDBRANCH  18  23
ENDBRANCH   9  14
ENDBRANCH   6   8
ENDBRANCH   3   6
ENDBRANCH   1   2
BRANCH   1  26
ATOM     26  C   UNL A   1      32.897  28.266  24.903  1.00  0.00     0.023 C 
BRANCH  26  27
ATOM     27  C   UNL A   1      33.963  28.795  25.861  1.00  0.00     0.023 C 
BRANCH  27  28
ATOM     28  C   UNL A   1      33.520  28.932  27.313  1.00  0.00     0.116 C 
BRANCH  28  29
ATOM     29  N   UNL A   1      33.551  30.294  27.823  1.00  0.00    -0.352 N 
ATOM     30  C   UNL A   1      34.603  30.951  28.423  1.00  0.00     0.251 C 
ATOM     31  H   UNL A   1      32.719  30.811  27.727  1.00  0.00     0.163 HD
ATOM     32  O   UNL A   1      34.466  32.081  28.869  1.00  0.00    -0.269 OA
BRANCH  30  33
ATOM     33  C   UNL A   1      35.893  30.243  28.566  1.00  0.00     0.039 A 
ATOM     34  C   UNL A   1      36.802  30.276  27.506  1.00  0.00     0.014 A 
ATOM     35  C   UNL A   1      36.227  29.616  29.768  1.00  0.00     0.014 A 
ATOM     36  C   UNL A   1      38.083  29.750  27.683  1.00  0.00     0.010 A 
ATOM     37  C   UNL A   1      37.525  29.163  29.967  1.00  0.00     0.010 A 
ATOM     38  C   UNL A   1      38.467  29.228  28.928  1.00  0.00    -0.014 A 
BRANCH  38  39
ATOM     39  C   UNL A   1      39.846  28.740  29.175  1.00  0.00     0.031 A 
ATOM     40  C   UNL A   1      40.867  29.663  29.780  1.00  0.00     0.074 A 
ATOM     41  C   UNL A   1      40.204  27.504  28.777  1.00  0.00     0.049 A 
ATOM     42  N   UNL A   1      42.145  29.464  29.978  1.00  0.00    -0.248 NA
ATOM     43  C   UNL A   1      40.395  30.997  30.187  1.00  0.00     0.031 C 
ATOM     44  C   UNL A   1      39.321  26.527  28.136  1.00  0.00     0.029 A 
ATOM     45  N   UNL A   1      41.415  26.863  28.843  1.00  0.00    -0.354 N 
ATOM     46  C   UNL A   1      42.632  30.654  30.503  1.00  0.00     0.074 A 
ATOM     47  C   UNL A   1      41.524  31.583  30.549  1.00  0.00     0.031 C 
ATOM     48  C   UNL A   1      40.014  25.402  27.891  1.00  0.00     0.029 A 
ATOM     49  C   UNL A   1      41.395  25.592  28.320  1.00  0.00     0.049 A 
ATOM     50  H   UNL A   1      42.222  27.273  29.228  1.00  0.00     0.167 HD
ATOM     51  C   UNL A   1      43.885  30.944  30.926  1.00  0.00     0.031 A 
ATOM     52  C   UNL A   1      42.381  24.684  28.197  1.00  0.00     0.031 A 
ATOM     53  C   UNL A   1      44.981  30.015  30.906  1.00  0.00     0.049 A 
ATOM     54  C   UNL A   1      43.761  25.025  28.685  1.00  0.00     0.074 A 
ATOM     55  C   UNL A   1      46.271  30.192  31.372  1.00  0.00     0.029 A 
ATOM     56  N   UNL A   1      44.911  28.728  30.393  1.00  0.00    -0.354 N 
ATOM     57  N   UNL A   1      44.191  26.134  29.235  1.00  0.00    -0.248 NA
ATOM     58  C   UNL A   1      44.788  23.984  28.544  1.00  0.00     0.031 C 
ATOM     59  C   UNL A   1      46.994  29.024  31.108  1.00  0.00     0.029 A 
ATOM     60  C   UNL A   1      46.140  28.106  30.519  1.00  0.00     0.049 A 
ATOM     61  H   UNL A   1      44.107  28.319  29.999  1.00  0.00     0.167 HD
ATOM     62  C   UNL A   1      45.530  25.916  29.529  1.00  0.00     0.074 A 
ATOM     63  C   UNL A   1      45.837  24.564  29.108  1.00  0.00     0.031 C 
ATOM     64  C   UNL A   1      46.427  26.759  30.096  1.00  0.00     0.031 A 
BRANCH  51  65
ATOM     65  C   UNL A   1      44.130  32.332  31.447  1.00  0.00    -0.014 A 
ATOM     66  C   UNL A   1      44.537  33.368  30.591  1.00  0.00     0.009 A 
ATOM     67  C   UNL A   1      43.936  32.613  32.808  1.00  0.00     0.009 A 
ATOM     68  C   UNL A   1      44.783  34.646  31.094  1.00  0.00     0.001 A 
ATOM     69  C   UNL A   1      44.155  33.899  33.304  1.00  0.00     0.001 A 
ATOM     70  C   UNL A   1      44.589  34.912  32.449  1.00  0.00     0.000 A 
ENDBRANCH  51  65
BRANCH  52  71
ATOM     71  C   UNL A   1      42.097  23.351  27.604  1.00  0.00    -0.014 A 
ATOM     72  C   UNL A   1      42.372  23.106  26.250  1.00  0.00     0.009 A 
ATOM     73  C   UNL A   1      41.542  22.324  28.382  1.00  0.00     0.009 A 
ATOM     74  C   UNL A   1      42.074  21.866  25.681  1.00  0.00     0.001 A 
ATOM     75  C   UNL A   1      41.269  21.077  27.816  1.00  0.00     0.001 A 
ATOM     76  C   UNL A   1      41.527  20.852  26.464  1.00  0.00     0.000 A 
ENDBRANCH  52  71
BRANCH  64  77
ATOM     77  C   UNL A   1      47.813  26.233  30.327  1.00  0.00    -0.014 A 
ATOM     78  C   UNL A   1      48.771  26.233  29.302  1.00  0.00     0.009 A 
ATOM     79  C   UNL A   1      48.176  25.769  31.601  1.00  0.00     0.009 A 
ATOM     80  C   UNL A   1      50.060  25.753  29.541  1.00  0.00     0.001 A 
ATOM     81  C   UNL A   1      49.472  25.313  31.845  1.00  0.00     0.001 A 
ATOM     82  C   UNL A   1      50.409  25.297  30.813  1.00  0.00     0.000 A 
ENDBRANCH  64  77
ENDBRANCH  38  39
ENDBRANCH  30  33
ENDBRANCH  28  29
ENDBRANCH  27  28
ENDBRANCH  26  27
ENDBRANCH   1  26
TORSDOF 17
ENDMDL
