MODEL 1
REMARK VINA RESULT:     -12.3      0.000      0.000
REMARK SMILES CN(C)C(=O)c1cccc(N2CCC3(CC2)[C@H](C(=O)NCCCCNC(=O)c2ccc(-c4c5nc(c(-c6ccccc6)c6ccc([nH]6)c(-c6ccccc6)c6nc(c(-c7ccccc7)c7ccc4[nH]7)C=C6)C=C5)cc2)CC(=O)N3C)n1
REMARK SMILES IDX 22 1 21 2 20 3 18 4 19 5 17 7 11 8 12 9 16 10 13 11 15 12
REMARK SMILES IDX 14 13 79 14 76 15 77 16 80 17 78 18 10 19 6 20 7 21 81 22
REMARK SMILES IDX 8 23 9 24 4 25 1 26 2 27 3 28 5 29 23 30 24 31 25 32 26 33
REMARK SMILES IDX 27 35 28 36 29 37 75 38 30 39 74 40 31 41 32 42 33 43 68 44
REMARK SMILES IDX 34 45 73 46 67 47 69 48 35 49 72 50 66 51 65 52 36 54 58 55
REMARK SMILES IDX 43 56 57 57 44 58 47 59 56 60 70 61 45 62 46 63 55 65 71 66
REMARK SMILES IDX 48 67 37 68 38 69 42 70 39 71 41 72 40 73 59 74 60 75 64 76
REMARK SMILES IDX 61 77 63 78 62 79 49 80 50 81 54 82 51 83 53 84 52 85
REMARK H PARENT 20 6 25 34 69 53 47 64
REMARK Flexibility Score: inf
ROOT
ATOM      1  C   UNL A   1      35.118  22.270  26.512  1.00  0.00     0.023 C 
ENDROOT
BRANCH   1   2
ATOM      2  C   UNL A   1      33.952  23.267  26.439  1.00  0.00     0.116 C 
BRANCH   2   3
ATOM      3  N   UNL A   1      33.701  23.824  25.117  1.00  0.00    -0.356 N 
ATOM      4  C   UNL A   1      32.866  24.789  24.649  1.00  0.00     0.226 C 
ATOM      5  O   UNL A   1      32.958  25.048  23.443  1.00  0.00    -0.275 OA
ATOM      6  H   UNL A   1      34.254  23.416  24.414  1.00  0.00     0.163 HD
BRANCH   4   7
ATOM      7  C   UNL A   1      31.828  25.546  25.488  1.00  0.00     0.113 C 
ATOM      8  N   UNL A   1      33.397  29.349  26.681  1.00  0.00    -0.356 N 
ATOM      9  C   UNL A   1      33.649  28.995  25.306  1.00  0.00     0.120 C 
ATOM     10  C   UNL A   1      32.085  29.077  27.253  1.00  0.00     0.120 C 
ATOM     11  C   UNL A   1      33.385  27.511  25.217  1.00  0.00     0.051 C 
ATOM     12  C   UNL A   1      31.663  27.614  27.002  1.00  0.00     0.051 C 
ATOM     13  C   UNL A   1      31.941  27.099  25.556  1.00  0.00     0.058 C 
ATOM     14  N   UNL A   1      30.836  27.498  24.662  1.00  0.00    -0.339 N 
ATOM     15  C   UNL A   1      30.405  25.216  25.059  1.00  0.00     0.116 C 
ATOM     16  C   UNL A   1      29.920  26.477  24.418  1.00  0.00     0.223 C 
ATOM     17  C   UNL A   1      30.581  28.820  24.122  1.00  0.00     0.147 C 
ATOM     18  O   UNL A   1      28.896  26.562  23.758  1.00  0.00    -0.275 OA
BRANCH   8  19
ATOM     19  C   UNL A   1      34.340  30.152  27.281  1.00  0.00     0.129 A 
ATOM     20  C   UNL A   1      35.019  32.264  27.985  1.00  0.00     0.130 A 
ATOM     21  C   UNL A   1      36.312  31.830  28.245  1.00  0.00     0.034 A 
ATOM     22  N   UNL A   1      34.045  31.452  27.496  1.00  0.00    -0.226 NA
ATOM     23  C   UNL A   1      36.618  30.503  27.984  1.00  0.00     0.006 A 
ATOM     24  C   UNL A   1      35.618  29.655  27.517  1.00  0.00     0.047 A 
BRANCH  20  25
ATOM     25  C   UNL A   1      34.604  33.661  28.335  1.00  0.00     0.272 C 
ATOM     26  C   UNL A   1      33.574  35.261  29.865  1.00  0.00     0.146 C 
ATOM     27  N   UNL A   1      34.169  33.955  29.636  1.00  0.00    -0.343 N 
ATOM     28  C   UNL A   1      34.405  33.119  30.803  1.00  0.00     0.146 C 
ATOM     29  O   UNL A   1      34.609  34.516  27.448  1.00  0.00    -0.267 OA
ENDBRANCH  20  25
ENDBRANCH   8  19
ENDBRANCH   4   7
ENDBRANCH   2   3
ENDBRANCH   1   2
BRANCH   1  30
ATOM     30  C   UNL A   1      35.718  21.904  25.159  1.00  0.00     0.023 C 
BRANCH  30  31
ATOM     31  C   UNL A   1      37.200  22.225  25.069  1.00  0.00     0.116 C 
BRANCH  31  32
ATOM     32  N   UNL A   1      38.026  21.110  25.521  1.00  0.00    -0.352 N 
ATOM     33  C   UNL A   1      39.263  21.137  26.108  1.00  0.00     0.251 C 
ATOM     34  H   UNL A   1      37.641  20.215  25.386  1.00  0.00     0.163 HD
ATOM     35  O   UNL A   1      39.924  20.113  26.237  1.00  0.00    -0.269 OA
BRANCH  33  36
ATOM     36  C   UNL A   1      39.785  22.430  26.573  1.00  0.00     0.039 A 
ATOM     37  C   UNL A   1      40.901  22.460  27.407  1.00  0.00     0.014 A 
ATOM     38  C   UNL A   1      39.187  23.611  26.124  1.00  0.00     0.014 A 
ATOM     39  C   UNL A   1      41.459  23.690  27.746  1.00  0.00     0.010 A 
ATOM     40  C   UNL A   1      39.803  24.824  26.378  1.00  0.00     0.010 A 
ATOM     41  C   UNL A   1      40.934  24.875  27.205  1.00  0.00    -0.014 A 
BRANCH  41  42
ATOM     42  C   UNL A   1      41.528  26.193  27.510  1.00  0.00     0.031 A 
ATOM     43  C   UNL A   1      42.834  26.580  26.873  1.00  0.00     0.074 A 
ATOM     44  C   UNL A   1      40.939  26.998  28.413  1.00  0.00     0.049 A 
ATOM     45  N   UNL A   1      43.563  27.647  27.070  1.00  0.00    -0.248 NA
ATOM     46  C   UNL A   1      43.417  25.621  25.918  1.00  0.00     0.031 C 
ATOM     47  C   UNL A   1      39.698  26.703  29.135  1.00  0.00     0.029 A 
ATOM     48  N   UNL A   1      41.310  28.230  28.883  1.00  0.00    -0.354 N 
ATOM     49  C   UNL A   1      44.697  27.473  26.288  1.00  0.00     0.074 A 
ATOM     50  C   UNL A   1      44.591  26.175  25.662  1.00  0.00     0.031 C 
ATOM     51  C   UNL A   1      39.396  27.741  29.930  1.00  0.00     0.029 A 
ATOM     52  C   UNL A   1      40.437  28.754  29.804  1.00  0.00     0.049 A 
ATOM     53  H   UNL A   1      42.126  28.696  28.588  1.00  0.00     0.167 HD
ATOM     54  C   UNL A   1      45.725  28.330  26.088  1.00  0.00     0.031 A 
ATOM     55  C   UNL A   1      40.478  29.922  30.471  1.00  0.00     0.031 A 
ATOM     56  C   UNL A   1      45.810  29.631  26.691  1.00  0.00     0.049 A 
ATOM     57  C   UNL A   1      41.621  30.863  30.221  1.00  0.00     0.074 A 
ATOM     58  C   UNL A   1      46.771  30.608  26.504  1.00  0.00     0.029 A 
ATOM     59  N   UNL A   1      44.891  30.137  27.599  1.00  0.00    -0.354 N 
ATOM     60  N   UNL A   1      42.651  30.717  29.422  1.00  0.00    -0.248 NA
ATOM     61  C   UNL A   1      41.600  32.136  30.954  1.00  0.00     0.031 C 
ATOM     62  C   UNL A   1      46.458  31.689  27.334  1.00  0.00     0.029 A 
ATOM     63  C   UNL A   1      45.273  31.405  27.996  1.00  0.00     0.049 A 
ATOM     64  H   UNL A   1      44.088  29.663  27.913  1.00  0.00     0.167 HD
ATOM     65  C   UNL A   1      43.387  31.889  29.536  1.00  0.00     0.074 A 
ATOM     66  C   UNL A   1      42.675  32.742  30.467  1.00  0.00     0.031 C 
ATOM     67  C   UNL A   1      44.547  32.232  28.925  1.00  0.00     0.031 A 
BRANCH  54  68
ATOM     68  C   UNL A   1      46.832  27.879  25.178  1.00  0.00    -0.014 A 
ATOM     69  C   UNL A   1      47.923  27.142  25.667  1.00  0.00     0.009 A 
ATOM     70  C   UNL A   1      46.777  28.181  23.809  1.00  0.00     0.009 A 
ATOM     71  C   UNL A   1      48.956  26.754  24.813  1.00  0.00     0.001 A 
ATOM     72  C   UNL A   1      47.796  27.764  22.950  1.00  0.00     0.001 A 
ATOM     73  C   UNL A   1      48.890  27.061  23.455  1.00  0.00     0.000 A 
ENDBRANCH  54  68
BRANCH  55  74
ATOM     74  C   UNL A   1      39.389  30.276  31.417  1.00  0.00    -0.014 A 
ATOM     75  C   UNL A   1      38.320  31.085  30.998  1.00  0.00     0.009 A 
ATOM     76  C   UNL A   1      39.409  29.811  32.741  1.00  0.00     0.009 A 
ATOM     77  C   UNL A   1      37.309  31.443  31.893  1.00  0.00     0.001 A 
ATOM     78  C   UNL A   1      38.382  30.149  33.626  1.00  0.00     0.001 A 
ATOM     79  C   UNL A   1      37.339  30.972  33.204  1.00  0.00     0.000 A 
ENDBRANCH  55  74
BRANCH  67  80
ATOM     80  C   UNL A   1      45.097  33.598  29.219  1.00  0.00    -0.014 A 
ATOM     81  C   UNL A   1      46.003  33.806  30.271  1.00  0.00     0.009 A 
ATOM     82  C   UNL A   1      44.739  34.680  28.402  1.00  0.00     0.009 A 
ATOM     83  C   UNL A   1      46.514  35.081  30.517  1.00  0.00     0.001 A 
ATOM     84  C   UNL A   1      45.275  35.948  28.632  1.00  0.00     0.001 A 
ATOM     85  C   UNL A   1      46.153  36.149  29.695  1.00  0.00     0.000 A 
ENDBRANCH  67  80
ENDBRANCH  41  42
ENDBRANCH  33  36
ENDBRANCH  31  32
ENDBRANCH  30  31
ENDBRANCH   1  30
TORSDOF 13
ENDMDL
MODEL 2
REMARK VINA RESULT:     -12.3      3.430      9.207
REMARK SMILES CN(C)C(=O)c1cccc(N2CCC3(CC2)[C@H](C(=O)NCCCCNC(=O)c2ccc(-c4c5nc(c(-c6ccccc6)c6ccc([nH]6)c(-c6ccccc6)c6nc(c(-c7ccccc7)c7ccc4[nH]7)C=C6)C=C5)cc2)CC(=O)N3C)n1
REMARK SMILES IDX 22 1 21 2 20 3 18 4 19 5 17 7 11 8 12 9 16 10 13 11 15 12
REMARK SMILES IDX 14 13 79 14 76 15 77 16 80 17 78 18 10 19 6 20 7 21 81 22
REMARK SMILES IDX 8 23 9 24 4 25 1 26 2 27 3 28 5 29 23 30 24 31 25 32 26 33
REMARK SMILES IDX 27 35 28 36 29 37 75 38 30 39 74 40 31 41 32 42 33 43 68 44
REMARK SMILES IDX 34 45 73 46 67 47 69 48 35 49 72 50 66 51 65 52 36 54 58 55
REMARK SMILES IDX 43 56 57 57 44 58 47 59 56 60 70 61 45 62 46 63 55 65 71 66
REMARK SMILES IDX 48 67 37 68 38 69 42 70 39 71 41 72 40 73 59 74 60 75 64 76
REMARK SMILES IDX 61 77 63 78 62 79 49 80 50 81 54 82 51 83 53 84 52 85
REMARK H PARENT 20 6 25 34 69 53 47 64
REMARK Flexibility Score: inf
ROOT
ATOM      1  C   UNL A   1      31.728  30.144  26.776  1.00  0.00     0.023 C 
ENDROOT
BRANCH   1   2
ATOM      2  C   UNL A   1      31.534  29.378  25.459  1.00  0.00     0.116 C 
BRANCH   2   3
ATOM      3  N   UNL A   1      32.619  29.522  24.499  1.00  0.00    -0.356 N 
ATOM      4  C   UNL A   1      32.926  28.900  23.329  1.00  0.00     0.226 C 
ATOM      5  O   UNL A   1      33.923  29.327  22.734  1.00  0.00    -0.275 OA
ATOM      6  H   UNL A   1      33.267  30.218  24.749  1.00  0.00     0.163 HD
BRANCH   4   7
ATOM      7  C   UNL A   1      32.152  27.722  22.723  1.00  0.00     0.113 C 
ATOM      8  N   UNL A   1      33.604  24.027  24.332  1.00  0.00    -0.356 N 
ATOM      9  C   UNL A   1      33.419  25.079  25.302  1.00  0.00     0.120 C 
ATOM     10  C   UNL A   1      32.596  23.834  23.298  1.00  0.00     0.120 C 
ATOM     11  C   UNL A   1      33.304  26.352  24.498  1.00  0.00     0.051 C 
ATOM     12  C   UNL A   1      32.277  25.161  22.578  1.00  0.00     0.051 C 
ATOM     13  C   UNL A   1      32.111  26.388  23.527  1.00  0.00     0.058 C 
ATOM     14  N   UNL A   1      30.734  26.425  24.059  1.00  0.00    -0.339 N 
ATOM     15  C   UNL A   1      30.713  28.099  22.400  1.00  0.00     0.116 C 
ATOM     16  C   UNL A   1      29.906  27.332  23.400  1.00  0.00     0.223 C 
ATOM     17  C   UNL A   1      30.170  25.575  25.090  1.00  0.00     0.147 C 
ATOM     18  O   UNL A   1      28.718  27.517  23.611  1.00  0.00    -0.275 OA
BRANCH   8  19
ATOM     19  C   UNL A   1      34.599  23.118  24.608  1.00  0.00     0.129 A 
ATOM     20  C   UNL A   1      35.259  20.915  24.967  1.00  0.00     0.130 A 
ATOM     21  C   UNL A   1      36.517  21.299  25.412  1.00  0.00     0.034 A 
ATOM     22  N   UNL A   1      34.302  21.801  24.585  1.00  0.00    -0.226 NA
ATOM     23  C   UNL A   1      36.800  22.655  25.471  1.00  0.00     0.006 A 
ATOM     24  C   UNL A   1      35.840  23.569  25.048  1.00  0.00     0.047 A 
BRANCH  20  25
ATOM     25  C   UNL A   1      34.927  19.464  24.791  1.00  0.00     0.272 C 
ATOM     26  C   UNL A   1      33.331  17.618  24.849  1.00  0.00     0.146 C 
ATOM     27  N   UNL A   1      33.588  19.048  24.804  1.00  0.00    -0.343 N 
ATOM     28  C   UNL A   1      32.440  19.922  24.622  1.00  0.00     0.146 C 
ATOM     29  O   UNL A   1      35.853  18.658  24.685  1.00  0.00    -0.267 OA
ENDBRANCH  20  25
ENDBRANCH   8  19
ENDBRANCH   4   7
ENDBRANCH   2   3
ENDBRANCH   1   2
BRANCH   1  30
ATOM     30  C   UNL A   1      31.587  31.656  26.650  1.00  0.00     0.023 C 
BRANCH  30  31
ATOM     31  C   UNL A   1      32.849  32.398  27.056  1.00  0.00     0.116 C 
BRANCH  31  32
ATOM     32  N   UNL A   1      32.552  33.723  27.591  1.00  0.00    -0.352 N 
ATOM     33  C   UNL A   1      33.175  34.404  28.604  1.00  0.00     0.251 C 
ATOM     34  H   UNL A   1      31.799  34.194  27.166  1.00  0.00     0.163 HD
ATOM     35  O   UNL A   1      32.679  35.416  29.084  1.00  0.00    -0.269 OA
BRANCH  33  36
ATOM     36  C   UNL A   1      34.453  33.882  29.108  1.00  0.00     0.039 A 
ATOM     37  C   UNL A   1      34.463  33.069  30.241  1.00  0.00     0.014 A 
ATOM     38  C   UNL A   1      35.631  34.162  28.410  1.00  0.00     0.014 A 
ATOM     39  C   UNL A   1      35.661  32.484  30.642  1.00  0.00     0.010 A 
ATOM     40  C   UNL A   1      36.797  33.498  28.750  1.00  0.00     0.010 A 
ATOM     41  C   UNL A   1      36.826  32.668  29.879  1.00  0.00    -0.014 A 
BRANCH  41  42
ATOM     42  C   UNL A   1      38.104  32.026  30.253  1.00  0.00     0.031 A 
ATOM     43  C   UNL A   1      39.040  32.736  31.189  1.00  0.00     0.074 A 
ATOM     44  C   UNL A   1      38.452  30.854  29.689  1.00  0.00     0.049 A 
ATOM     45  N   UNL A   1      40.240  32.389  31.576  1.00  0.00    -0.248 NA
ATOM     46  C   UNL A   1      38.584  34.027  31.734  1.00  0.00     0.031 C 
ATOM     47  C   UNL A   1      37.646  30.101  28.724  1.00  0.00     0.029 A 
ATOM     48  N   UNL A   1      39.581  30.094  29.844  1.00  0.00    -0.354 N 
ATOM     49  C   UNL A   1      40.688  33.428  32.381  1.00  0.00     0.074 A 
ATOM     50  C   UNL A   1      39.660  34.444  32.380  1.00  0.00     0.031 C 
ATOM     51  C   UNL A   1      38.294  28.970  28.401  1.00  0.00     0.029 A 
ATOM     52  C   UNL A   1      39.572  28.938  29.102  1.00  0.00     0.049 A 
ATOM     53  H   UNL A   1      40.328  30.352  30.432  1.00  0.00     0.167 HD
ATOM     54  C   UNL A   1      41.842  33.517  33.081  1.00  0.00     0.031 A 
ATOM     55  C   UNL A   1      40.495  27.965  29.002  1.00  0.00     0.031 A 
ATOM     56  C   UNL A   1      42.846  32.490  33.100  1.00  0.00     0.049 A 
ATOM     57  C   UNL A   1      41.762  28.080  29.800  1.00  0.00     0.074 A 
ATOM     58  C   UNL A   1      44.021  32.446  33.829  1.00  0.00     0.029 A 
ATOM     59  N   UNL A   1      42.789  31.321  32.356  1.00  0.00    -0.354 N 
ATOM     60  N   UNL A   1      42.141  29.034  30.616  1.00  0.00    -0.248 NA
ATOM     61  C   UNL A   1      42.723  26.975  29.676  1.00  0.00     0.031 C 
ATOM     62  C   UNL A   1      44.697  31.270  33.491  1.00  0.00     0.029 A 
ATOM     63  C   UNL A   1      43.917  30.558  32.593  1.00  0.00     0.049 A 
ATOM     64  H   UNL A   1      42.054  31.074  31.750  1.00  0.00     0.167 HD
ATOM     65  C   UNL A   1      43.371  28.635  31.121  1.00  0.00     0.074 A 
ATOM     66  C   UNL A   1      43.665  27.342  30.534  1.00  0.00     0.031 C 
ATOM     67  C   UNL A   1      44.185  29.275  31.994  1.00  0.00     0.031 A 
BRANCH  54  68
ATOM     68  C   UNL A   1      42.069  34.768  33.880  1.00  0.00    -0.014 A 
ATOM     69  C   UNL A   1      41.646  34.867  35.217  1.00  0.00     0.009 A 
ATOM     70  C   UNL A   1      42.730  35.860  33.296  1.00  0.00     0.009 A 
ATOM     71  C   UNL A   1      41.843  36.046  35.937  1.00  0.00     0.001 A 
ATOM     72  C   UNL A   1      42.954  37.027  34.030  1.00  0.00     0.001 A 
ATOM     73  C   UNL A   1      42.500  37.123  35.345  1.00  0.00     0.000 A 
ENDBRANCH  54  68
BRANCH  55  74
ATOM     74  C   UNL A   1      40.243  26.787  28.133  1.00  0.00    -0.014 A 
ATOM     75  C   UNL A   1      39.477  25.709  28.604  1.00  0.00     0.009 A 
ATOM     76  C   UNL A   1      40.764  26.731  26.831  1.00  0.00     0.009 A 
ATOM     77  C   UNL A   1      39.261  24.588  27.799  1.00  0.00     0.001 A 
ATOM     78  C   UNL A   1      40.524  25.620  26.019  1.00  0.00     0.001 A 
ATOM     79  C   UNL A   1      39.782  24.546  26.508  1.00  0.00     0.000 A 
ENDBRANCH  55  74
BRANCH  67  80
ATOM     80  C   UNL A   1      45.452  28.574  32.390  1.00  0.00    -0.014 A 
ATOM     81  C   UNL A   1      45.484  27.692  33.482  1.00  0.00     0.009 A 
ATOM     82  C   UNL A   1      46.616  28.763  31.630  1.00  0.00     0.009 A 
ATOM     83  C   UNL A   1      46.670  27.039  33.823  1.00  0.00     0.001 A 
ATOM     84  C   UNL A   1      47.791  28.086  31.956  1.00  0.00     0.001 A 
ATOM     85  C   UNL A   1      47.820  27.233  33.057  1.00  0.00     0.000 A 
ENDBRANCH  67  80
ENDBRANCH  41  42
ENDBRANCH  33  36
ENDBRANCH  31  32
ENDBRANCH  30  31
ENDBRANCH   1  30
TORSDOF 13
ENDMDL
MODEL 3
REMARK VINA RESULT:     -11.7      3.814      8.733
REMARK SMILES CN(C)C(=O)c1cccc(N2CCC3(CC2)[C@H](C(=O)NCCCCNC(=O)c2ccc(-c4c5nc(c(-c6ccccc6)c6ccc([nH]6)c(-c6ccccc6)c6nc(c(-c7ccccc7)c7ccc4[nH]7)C=C6)C=C5)cc2)CC(=O)N3C)n1
REMARK SMILES IDX 22 1 21 2 20 3 18 4 19 5 17 7 11 8 12 9 16 10 13 11 15 12
REMARK SMILES IDX 14 13 79 14 76 15 77 16 80 17 78 18 10 19 6 20 7 21 81 22
REMARK SMILES IDX 8 23 9 24 4 25 1 26 2 27 3 28 5 29 23 30 24 31 25 32 26 33
REMARK SMILES IDX 27 35 28 36 29 37 75 38 30 39 74 40 31 41 32 42 33 43 68 44
REMARK SMILES IDX 34 45 73 46 67 47 69 48 35 49 72 50 66 51 65 52 36 54 58 55
REMARK SMILES IDX 43 56 57 57 44 58 47 59 56 60 70 61 45 62 46 63 55 65 71 66
REMARK SMILES IDX 48 67 37 68 38 69 42 70 39 71 41 72 40 73 59 74 60 75 64 76
REMARK SMILES IDX 61 77 63 78 62 79 49 80 50 81 54 82 51 83 53 84 52 85
REMARK H PARENT 20 6 25 34 69 53 47 64
REMARK Flexibility Score: inf
ROOT
ATOM      1  C   UNL A   1      31.466  30.256  26.288  1.00  0.00     0.023 C 
ENDROOT
BRANCH   1   2
ATOM      2  C   UNL A   1      31.334  29.798  24.828  1.00  0.00     0.116 C 
BRANCH   2   3
ATOM      3  N   UNL A   1      32.595  29.616  24.124  1.00  0.00    -0.356 N 
ATOM      4  C   UNL A   1      33.017  28.753  23.162  1.00  0.00     0.226 C 
ATOM      5  O   UNL A   1      34.170  28.924  22.747  1.00  0.00    -0.275 OA
ATOM      6  H   UNL A   1      33.291  30.252  24.406  1.00  0.00     0.163 HD
BRANCH   4   7
ATOM      7  C   UNL A   1      32.189  27.598  22.583  1.00  0.00     0.113 C 
ATOM      8  N   UNL A   1      33.662  23.854  24.054  1.00  0.00    -0.356 N 
ATOM      9  C   UNL A   1      33.551  24.894  25.048  1.00  0.00     0.120 C 
ATOM     10  C   UNL A   1      32.594  23.694  23.077  1.00  0.00     0.120 C 
ATOM     11  C   UNL A   1      33.414  26.181  24.271  1.00  0.00     0.051 C 
ATOM     12  C   UNL A   1      32.259  25.037  22.395  1.00  0.00     0.051 C 
ATOM     13  C   UNL A   1      32.169  26.253  23.370  1.00  0.00     0.058 C 
ATOM     14  N   UNL A   1      30.825  26.305  23.979  1.00  0.00    -0.339 N 
ATOM     15  C   UNL A   1      30.740  28.004  22.349  1.00  0.00     0.116 C 
ATOM     16  C   UNL A   1      29.978  27.236  23.381  1.00  0.00     0.223 C 
ATOM     17  C   UNL A   1      30.305  25.448  25.028  1.00  0.00     0.147 C 
ATOM     18  O   UNL A   1      28.807  27.439  23.662  1.00  0.00    -0.275 OA
BRANCH   8  19
ATOM     19  C   UNL A   1      34.655  22.923  24.260  1.00  0.00     0.129 A 
ATOM     20  C   UNL A   1      35.284  20.722  24.676  1.00  0.00     0.130 A 
ATOM     21  C   UNL A   1      36.600  21.080  24.930  1.00  0.00     0.034 A 
ATOM     22  N   UNL A   1      34.314  21.621  24.361  1.00  0.00    -0.226 NA
ATOM     23  C   UNL A   1      36.933  22.425  24.864  1.00  0.00     0.006 A 
ATOM     24  C   UNL A   1      35.956  23.349  24.508  1.00  0.00     0.047 A 
BRANCH  20  25
ATOM     25  C   UNL A   1      34.885  19.277  24.639  1.00  0.00     0.272 C 
ATOM     26  C   UNL A   1      33.175  17.535  24.648  1.00  0.00     0.146 C 
ATOM     27  N   UNL A   1      33.538  18.929  24.458  1.00  0.00    -0.343 N 
ATOM     28  C   UNL A   1      32.508  19.819  23.947  1.00  0.00     0.146 C 
ATOM     29  O   UNL A   1      35.754  18.422  24.819  1.00  0.00    -0.267 OA
ENDBRANCH  20  25
ENDBRANCH   8  19
ENDBRANCH   4   7
ENDBRANCH   2   3
ENDBRANCH   1   2
BRANCH   1  30
ATOM     30  C   UNL A   1      31.341  31.762  26.488  1.00  0.00     0.023 C 
BRANCH  30  31
ATOM     31  C   UNL A   1      32.654  32.410  26.894  1.00  0.00     0.116 C 
BRANCH  31  32
ATOM     32  N   UNL A   1      32.460  33.771  27.384  1.00  0.00    -0.352 N 
ATOM     33  C   UNL A   1      33.113  34.424  28.395  1.00  0.00     0.251 C 
ATOM     34  H   UNL A   1      31.763  34.292  26.925  1.00  0.00     0.163 HD
ATOM     35  O   UNL A   1      32.695  35.489  28.834  1.00  0.00    -0.269 OA
BRANCH  33  36
ATOM     36  C   UNL A   1      34.327  33.809  28.950  1.00  0.00     0.039 A 
ATOM     37  C   UNL A   1      35.575  34.340  28.627  1.00  0.00     0.014 A 
ATOM     38  C   UNL A   1      34.208  32.736  29.838  1.00  0.00     0.014 A 
ATOM     39  C   UNL A   1      36.710  33.827  29.249  1.00  0.00     0.010 A 
ATOM     40  C   UNL A   1      35.323  32.298  30.530  1.00  0.00     0.010 A 
ATOM     41  C   UNL A   1      36.586  32.828  30.228  1.00  0.00    -0.014 A 
BRANCH  41  42
ATOM     42  C   UNL A   1      37.766  32.291  30.939  1.00  0.00     0.031 A 
ATOM     43  C   UNL A   1      38.506  31.118  30.359  1.00  0.00     0.074 A 
ATOM     44  C   UNL A   1      38.116  32.803  32.133  1.00  0.00     0.049 A 
ATOM     45  N   UNL A   1      39.508  30.446  30.862  1.00  0.00    -0.248 NA
ATOM     46  C   UNL A   1      38.032  30.608  29.061  1.00  0.00     0.031 C 
ATOM     47  C   UNL A   1      37.437  33.906  32.819  1.00  0.00     0.029 A 
ATOM     48  N   UNL A   1      39.131  32.457  32.986  1.00  0.00    -0.354 N 
ATOM     49  C   UNL A   1      39.762  29.422  29.958  1.00  0.00     0.074 A 
ATOM     50  C   UNL A   1      38.774  29.524  28.908  1.00  0.00     0.031 C 
ATOM     51  C   UNL A   1      38.076  34.166  33.970  1.00  0.00     0.029 A 
ATOM     52  C   UNL A   1      39.181  33.227  34.122  1.00  0.00     0.049 A 
ATOM     53  H   UNL A   1      39.763  31.725  32.802  1.00  0.00     0.167 HD
ATOM     54  C   UNL A   1      40.748  28.496  29.985  1.00  0.00     0.031 A 
ATOM     55  C   UNL A   1      40.026  33.175  35.168  1.00  0.00     0.031 A 
ATOM     56  C   UNL A   1      41.745  28.420  31.017  1.00  0.00     0.049 A 
ATOM     57  C   UNL A   1      41.121  32.148  35.168  1.00  0.00     0.074 A 
ATOM     58  C   UNL A   1      42.829  27.566  31.107  1.00  0.00     0.029 A 
ATOM     59  N   UNL A   1      41.778  29.235  32.139  1.00  0.00    -0.354 N 
ATOM     60  N   UNL A   1      41.395  31.233  34.270  1.00  0.00    -0.248 NA
ATOM     61  C   UNL A   1      42.033  32.156  36.320  1.00  0.00     0.031 C 
ATOM     62  C   UNL A   1      43.494  27.835  32.308  1.00  0.00     0.029 A 
ATOM     63  C   UNL A   1      42.853  28.892  32.937  1.00  0.00     0.049 A 
ATOM     64  H   UNL A   1      41.132  29.951  32.335  1.00  0.00     0.167 HD
ATOM     65  C   UNL A   1      42.524  30.572  34.734  1.00  0.00     0.074 A 
ATOM     66  C   UNL A   1      42.894  31.205  35.985  1.00  0.00     0.031 C 
ATOM     67  C   UNL A   1      43.199  29.537  34.177  1.00  0.00     0.031 A 
BRANCH  54  68
ATOM     68  C   UNL A   1      40.789  27.499  28.862  1.00  0.00    -0.014 A 
ATOM     69  C   UNL A   1      41.614  27.695  27.742  1.00  0.00     0.009 A 
ATOM     70  C   UNL A   1      40.004  26.338  28.931  1.00  0.00     0.009 A 
ATOM     71  C   UNL A   1      41.620  26.771  26.696  1.00  0.00     0.001 A 
ATOM     72  C   UNL A   1      40.037  25.399  27.897  1.00  0.00     0.001 A 
ATOM     73  C   UNL A   1      40.836  25.622  26.777  1.00  0.00     0.000 A 
ENDBRANCH  54  68
BRANCH  55  74
ATOM     74  C   UNL A   1      39.885  34.144  36.286  1.00  0.00    -0.014 A 
ATOM     75  C   UNL A   1      40.556  35.377  36.246  1.00  0.00     0.009 A 
ATOM     76  C   UNL A   1      39.083  33.844  37.398  1.00  0.00     0.009 A 
ATOM     77  C   UNL A   1      40.448  36.276  37.308  1.00  0.00     0.001 A 
ATOM     78  C   UNL A   1      38.955  34.758  38.446  1.00  0.00     0.001 A 
ATOM     79  C   UNL A   1      39.646  35.968  38.405  1.00  0.00     0.000 A 
ENDBRANCH  55  74
BRANCH  67  80
ATOM     80  C   UNL A   1      44.421  29.048  34.900  1.00  0.00    -0.014 A 
ATOM     81  C   UNL A   1      44.342  28.013  35.843  1.00  0.00     0.009 A 
ATOM     82  C   UNL A   1      45.673  29.602  34.595  1.00  0.00     0.009 A 
ATOM     83  C   UNL A   1      45.494  27.564  36.492  1.00  0.00     0.001 A 
ATOM     84  C   UNL A   1      46.826  29.131  35.224  1.00  0.00     0.001 A 
ATOM     85  C   UNL A   1      46.734  28.120  36.178  1.00  0.00     0.000 A 
ENDBRANCH  67  80
ENDBRANCH  41  42
ENDBRANCH  33  36
ENDBRANCH  31  32
ENDBRANCH  30  31
ENDBRANCH   1  30
TORSDOF 13
ENDMDL
