MODEL 1
REMARK VINA RESULT:     -12.9      0.000      0.000
REMARK SMILES Cc1nccn1C1(C(=O)NCCCCNC(=O)c2ccc(-c3c4nc(c(-c5ccccc5)c5ccc([nH]5)c(-c5ccccc5)c5nc(c(-c6ccccc6)c6ccc3[nH]6)C=C5)C=C4)cc2)CCN(C(=O)[C@@H]2C[C@H]2c2ccccc2)CC1
REMARK SMILES IDX 12 1 11 2 10 3 8 4 9 5 7 7 66 8 81 9 67 10 80 11 68 12 69 13
REMARK SMILES IDX 70 14 6 15 1 16 2 17 3 18 4 19 5 20 71 21 72 22 73 23 74 24
REMARK SMILES IDX 75 25 79 26 76 27 78 28 77 29 13 30 14 31 15 32 16 33 17 35
REMARK SMILES IDX 18 36 19 37 65 38 20 39 64 40 21 41 22 42 23 43 58 44 24 45
REMARK SMILES IDX 63 46 57 47 59 48 25 49 62 50 56 51 55 52 26 54 48 55 33 56
REMARK SMILES IDX 47 57 34 58 37 59 46 60 60 61 35 62 36 63 45 65 61 66 38 67
REMARK SMILES IDX 27 68 28 69 32 70 29 71 31 72 30 73 49 74 50 75 54 76 51 77
REMARK SMILES IDX 53 78 52 79 39 80 40 81 44 82 41 83 43 84 42 85
REMARK H PARENT 10 6 15 34 59 53 37 64
REMARK Flexibility Score: inf
ROOT
ATOM      1  C   UNL A   1      32.127  29.573  26.902  1.00  0.00     0.023 C 
ENDROOT
BRANCH   1   2
ATOM      2  C   UNL A   1      32.273  28.237  27.647  1.00  0.00     0.116 C 
BRANCH   2   3
ATOM      3  N   UNL A   1      31.277  27.260  27.235  1.00  0.00    -0.354 N 
ATOM      4  C   UNL A   1      31.154  26.380  26.192  1.00  0.00     0.246 C 
ATOM      5  O   UNL A   1      30.055  25.818  26.213  1.00  0.00    -0.272 OA
ATOM      6  H   UNL A   1      30.512  27.220  27.852  1.00  0.00     0.163 HD
BRANCH   4   7
ATOM      7  C   UNL A   1      32.287  26.116  25.097  1.00  0.00     0.127 C 
ATOM      8  C   UNL A   1      33.596  25.885  25.905  1.00  0.00     0.061 C 
ATOM      9  C   UNL A   1      31.790  24.903  24.268  1.00  0.00     0.061 C 
ATOM     10  C   UNL A   1      34.424  24.629  25.609  1.00  0.00     0.122 C 
ATOM     11  C   UNL A   1      32.945  24.098  23.720  1.00  0.00     0.122 C 
ATOM     12  N   UNL A   1      33.758  23.603  24.814  1.00  0.00    -0.342 N 
ATOM     13  C   UNL A   1      34.175  22.283  25.027  1.00  0.00     0.226 C 
ATOM     14  O   UNL A   1      35.174  22.049  25.707  1.00  0.00    -0.275 OA
BRANCH   7  15
ATOM     15  N   UNL A   1      32.495  27.271  24.119  1.00  0.00    -0.320 N 
ATOM     16  C   UNL A   1      30.076  28.074  23.420  1.00  0.00     0.087 C 
ATOM     17  C   UNL A   1      31.561  28.093  23.458  1.00  0.00     0.106 A 
ATOM     18  N   UNL A   1      32.167  29.044  22.769  1.00  0.00    -0.242 NA
ATOM     19  C   UNL A   1      33.491  28.869  22.939  1.00  0.00     0.131 A 
ATOM     20  C   UNL A   1      33.719  27.813  23.778  1.00  0.00     0.108 A 
ENDBRANCH   7  15
BRANCH  13  21
ATOM     21  C   UNL A   1      33.409  21.085  24.564  1.00  0.00     0.087 C 
ATOM     22  C   UNL A   1      31.947  20.930  24.903  1.00  0.00     0.023 C 
ATOM     23  C   UNL A   1      32.948  19.905  25.367  1.00  0.00     0.032 C 
BRANCH  23  24
ATOM     24  C   UNL A   1      32.986  18.491  24.887  1.00  0.00    -0.044 A 
ATOM     25  C   UNL A   1      32.729  17.447  25.788  1.00  0.00     0.004 A 
ATOM     26  C   UNL A   1      33.598  18.178  23.663  1.00  0.00     0.004 A 
ATOM     27  C   UNL A   1      33.164  16.151  25.524  1.00  0.00     0.000 A 
ATOM     28  C   UNL A   1      34.035  16.881  23.395  1.00  0.00     0.000 A 
ATOM     29  C   UNL A   1      33.843  15.875  24.339  1.00  0.00     0.000 A 
ENDBRANCH  23  24
ENDBRANCH  13  21
ENDBRANCH   4   7
ENDBRANCH   2   3
ENDBRANCH   1   2
BRANCH   1  30
ATOM     30  C   UNL A   1      33.425  30.250  26.430  1.00  0.00     0.023 C 
BRANCH  30  31
ATOM     31  C   UNL A   1      34.487  30.428  27.506  1.00  0.00     0.116 C 
BRANCH  31  32
ATOM     32  N   UNL A   1      34.242  31.578  28.372  1.00  0.00    -0.352 N 
ATOM     33  C   UNL A   1      34.858  31.877  29.576  1.00  0.00     0.251 C 
ATOM     34  H   UNL A   1      33.559  32.215  28.063  1.00  0.00     0.163 HD
ATOM     35  O   UNL A   1      34.351  32.649  30.369  1.00  0.00    -0.269 OA
BRANCH  33  36
ATOM     36  C   UNL A   1      36.149  31.232  29.884  1.00  0.00     0.039 A 
ATOM     37  C   UNL A   1      36.193  29.940  30.414  1.00  0.00     0.014 A 
ATOM     38  C   UNL A   1      37.322  31.932  29.609  1.00  0.00     0.014 A 
ATOM     39  C   UNL A   1      37.430  29.320  30.574  1.00  0.00     0.010 A 
ATOM     40  C   UNL A   1      38.533  31.281  29.659  1.00  0.00     0.010 A 
ATOM     41  C   UNL A   1      38.599  29.985  30.168  1.00  0.00    -0.014 A 
BRANCH  41  42
ATOM     42  C   UNL A   1      39.876  29.275  30.132  1.00  0.00     0.031 A 
ATOM     43  C   UNL A   1      40.492  29.021  31.466  1.00  0.00     0.074 A 
ATOM     44  C   UNL A   1      40.371  28.686  29.023  1.00  0.00     0.049 A 
ATOM     45  N   UNL A   1      41.624  29.461  31.905  1.00  0.00    -0.248 NA
ATOM     46  C   UNL A   1      39.715  28.272  32.469  1.00  0.00     0.031 C 
ATOM     47  C   UNL A   1      39.751  28.580  27.697  1.00  0.00     0.029 A 
ATOM     48  N   UNL A   1      41.499  27.933  28.884  1.00  0.00    -0.354 N 
ATOM     49  C   UNL A   1      41.797  28.905  33.170  1.00  0.00     0.074 A 
ATOM     50  C   UNL A   1      40.534  28.305  33.523  1.00  0.00     0.031 C 
ATOM     51  C   UNL A   1      40.376  27.619  26.980  1.00  0.00     0.029 A 
ATOM     52  C   UNL A   1      41.537  27.168  27.725  1.00  0.00     0.049 A 
ATOM     53  H   UNL A   1      42.224  27.933  29.550  1.00  0.00     0.167 HD
ATOM     54  C   UNL A   1      43.032  28.787  33.732  1.00  0.00     0.031 A 
ATOM     55  C   UNL A   1      42.446  26.213  27.405  1.00  0.00     0.031 A 
ATOM     56  C   UNL A   1      44.008  29.601  33.054  1.00  0.00     0.049 A 
ATOM     57  C   UNL A   1      43.643  26.438  28.242  1.00  0.00     0.074 A 
ATOM     58  C   UNL A   1      44.143  30.951  32.799  1.00  0.00     0.029 A 
ATOM     59  N   UNL A   1      44.847  28.966  32.170  1.00  0.00    -0.354 N 
ATOM     60  N   UNL A   1      44.431  27.463  28.097  1.00  0.00    -0.248 NA
ATOM     61  C   UNL A   1      43.730  25.761  29.525  1.00  0.00     0.031 C 
ATOM     62  C   UNL A   1      44.656  31.020  31.469  1.00  0.00     0.029 A 
ATOM     63  C   UNL A   1      44.876  29.716  31.023  1.00  0.00     0.049 A 
ATOM     64  H   UNL A   1      45.338  28.128  32.332  1.00  0.00     0.167 HD
ATOM     65  C   UNL A   1      44.747  27.843  29.391  1.00  0.00     0.074 A 
ATOM     66  C   UNL A   1      44.392  26.691  30.219  1.00  0.00     0.031 C 
ATOM     67  C   UNL A   1      44.992  29.152  29.697  1.00  0.00     0.031 A 
BRANCH  54  68
ATOM     68  C   UNL A   1      43.440  27.636  34.620  1.00  0.00    -0.014 A 
ATOM     69  C   UNL A   1      43.547  26.351  34.057  1.00  0.00     0.009 A 
ATOM     70  C   UNL A   1      43.435  27.711  36.025  1.00  0.00     0.009 A 
ATOM     71  C   UNL A   1      43.564  25.202  34.858  1.00  0.00     0.001 A 
ATOM     72  C   UNL A   1      43.494  26.569  36.828  1.00  0.00     0.001 A 
ATOM     73  C   UNL A   1      43.528  25.313  36.244  1.00  0.00     0.000 A 
ENDBRANCH  54  68
BRANCH  55  74
ATOM     74  C   UNL A   1      42.296  25.001  26.576  1.00  0.00    -0.014 A 
ATOM     75  C   UNL A   1      43.252  24.677  25.599  1.00  0.00     0.009 A 
ATOM     76  C   UNL A   1      41.368  24.010  26.941  1.00  0.00     0.009 A 
ATOM     77  C   UNL A   1      43.308  23.392  25.045  1.00  0.00     0.001 A 
ATOM     78  C   UNL A   1      41.423  22.727  26.387  1.00  0.00     0.001 A 
ATOM     79  C   UNL A   1      42.405  22.413  25.452  1.00  0.00     0.000 A 
ENDBRANCH  55  74
BRANCH  67  80
ATOM     80  C   UNL A   1      45.146  30.125  28.550  1.00  0.00    -0.014 A 
ATOM     81  C   UNL A   1      46.383  30.424  27.949  1.00  0.00     0.009 A 
ATOM     82  C   UNL A   1      43.987  30.671  27.981  1.00  0.00     0.009 A 
ATOM     83  C   UNL A   1      46.460  31.286  26.850  1.00  0.00     0.001 A 
ATOM     84  C   UNL A   1      44.062  31.512  26.868  1.00  0.00     0.001 A 
ATOM     85  C   UNL A   1      45.297  31.829  26.310  1.00  0.00     0.000 A 
ENDBRANCH  67  80
ENDBRANCH  41  42
ENDBRANCH  33  36
ENDBRANCH  31  32
ENDBRANCH  30  31
ENDBRANCH   1  30
TORSDOF 14
ENDMDL
MODEL 2
REMARK VINA RESULT:     -12.5      1.958      5.630
REMARK SMILES Cc1nccn1C1(C(=O)NCCCCNC(=O)c2ccc(-c3c4nc(c(-c5ccccc5)c5ccc([nH]5)c(-c5ccccc5)c5nc(c(-c6ccccc6)c6ccc3[nH]6)C=C5)C=C4)cc2)CCN(C(=O)[C@@H]2C[C@H]2c2ccccc2)CC1
REMARK SMILES IDX 12 1 11 2 10 3 8 4 9 5 7 7 66 8 81 9 67 10 80 11 68 12 69 13
REMARK SMILES IDX 70 14 6 15 1 16 2 17 3 18 4 19 5 20 71 21 72 22 73 23 74 24
REMARK SMILES IDX 75 25 79 26 76 27 78 28 77 29 13 30 14 31 15 32 16 33 17 35
REMARK SMILES IDX 18 36 19 37 65 38 20 39 64 40 21 41 22 42 23 43 58 44 24 45
REMARK SMILES IDX 63 46 57 47 59 48 25 49 62 50 56 51 55 52 26 54 48 55 33 56
REMARK SMILES IDX 47 57 34 58 37 59 46 60 60 61 35 62 36 63 45 65 61 66 38 67
REMARK SMILES IDX 27 68 28 69 32 70 29 71 31 72 30 73 49 74 50 75 54 76 51 77
REMARK SMILES IDX 53 78 52 79 39 80 40 81 44 82 41 83 43 84 42 85
REMARK H PARENT 10 6 15 34 59 53 37 64
REMARK Flexibility Score: inf
ROOT
ATOM      1  C   UNL A   1      33.305  28.904  27.350  1.00  0.00     0.023 C 
ENDROOT
BRANCH   1   2
ATOM      2  C   UNL A   1      31.830  28.928  26.920  1.00  0.00     0.116 C 
BRANCH   2   3
ATOM      3  N   UNL A   1      31.197  27.623  27.034  1.00  0.00    -0.354 N 
ATOM      4  C   UNL A   1      30.957  26.582  26.176  1.00  0.00     0.246 C 
ATOM      5  O   UNL A   1      30.280  25.706  26.720  1.00  0.00    -0.272 OA
ATOM      6  H   UNL A   1      30.863  27.446  27.942  1.00  0.00     0.163 HD
BRANCH   4   7
ATOM      7  C   UNL A   1      31.491  26.513  24.671  1.00  0.00     0.127 C 
ATOM      8  C   UNL A   1      33.041  26.597  24.779  1.00  0.00     0.061 C 
ATOM      9  C   UNL A   1      30.933  25.186  24.092  1.00  0.00     0.061 C 
ATOM     10  C   UNL A   1      33.881  25.531  24.066  1.00  0.00     0.122 C 
ATOM     11  C   UNL A   1      31.847  24.618  23.034  1.00  0.00     0.122 C 
ATOM     12  N   UNL A   1      33.153  24.353  23.605  1.00  0.00    -0.342 N 
ATOM     13  C   UNL A   1      33.883  23.161  23.529  1.00  0.00     0.226 C 
ATOM     14  O   UNL A   1      35.107  23.171  23.664  1.00  0.00    -0.275 OA
BRANCH   7  15
ATOM     15  N   UNL A   1      30.985  27.641  23.775  1.00  0.00    -0.320 N 
ATOM     16  C   UNL A   1      33.120  29.045  23.101  1.00  0.00     0.087 C 
ATOM     17  C   UNL A   1      31.684  28.665  23.105  1.00  0.00     0.106 A 
ATOM     18  N   UNL A   1      30.871  29.382  22.350  1.00  0.00    -0.242 NA
ATOM     19  C   UNL A   1      29.635  28.871  22.509  1.00  0.00     0.131 A 
ATOM     20  C   UNL A   1      29.679  27.795  23.351  1.00  0.00     0.108 A 
ENDBRANCH   7  15
BRANCH  13  21
ATOM     21  C   UNL A   1      33.256  21.810  23.399  1.00  0.00     0.087 C 
ATOM     22  C   UNL A   1      31.877  21.547  23.951  1.00  0.00     0.023 C 
ATOM     23  C   UNL A   1      33.060  20.766  24.457  1.00  0.00     0.032 C 
BRANCH  23  24
ATOM     24  C   UNL A   1      33.254  19.300  24.244  1.00  0.00    -0.044 A 
ATOM     25  C   UNL A   1      34.416  18.678  24.726  1.00  0.00     0.004 A 
ATOM     26  C   UNL A   1      32.479  18.617  23.293  1.00  0.00     0.004 A 
ATOM     27  C   UNL A   1      34.848  17.464  24.199  1.00  0.00     0.000 A 
ATOM     28  C   UNL A   1      32.908  17.401  22.764  1.00  0.00     0.000 A 
ATOM     29  C   UNL A   1      34.108  16.840  23.197  1.00  0.00     0.000 A 
ENDBRANCH  23  24
ENDBRANCH  13  21
ENDBRANCH   4   7
ENDBRANCH   2   3
ENDBRANCH   1   2
BRANCH   1  30
ATOM     30  C   UNL A   1      34.058  30.246  27.326  1.00  0.00     0.023 C 
BRANCH  30  31
ATOM     31  C   UNL A   1      35.484  30.194  27.854  1.00  0.00     0.116 C 
BRANCH  31  32
ATOM     32  N   UNL A   1      35.573  30.414  29.295  1.00  0.00    -0.352 N 
ATOM     33  C   UNL A   1      36.461  29.837  30.186  1.00  0.00     0.251 C 
ATOM     34  H   UNL A   1      34.925  31.049  29.677  1.00  0.00     0.163 HD
ATOM     35  O   UNL A   1      36.233  29.820  31.382  1.00  0.00    -0.269 OA
BRANCH  33  36
ATOM     36  C   UNL A   1      37.697  29.232  29.654  1.00  0.00     0.039 A 
ATOM     37  C   UNL A   1      38.351  29.794  28.555  1.00  0.00     0.014 A 
ATOM     38  C   UNL A   1      38.211  28.105  30.291  1.00  0.00     0.014 A 
ATOM     39  C   UNL A   1      39.579  29.269  28.161  1.00  0.00     0.010 A 
ATOM     40  C   UNL A   1      39.475  27.660  29.977  1.00  0.00     0.010 A 
ATOM     41  C   UNL A   1      40.153  28.217  28.894  1.00  0.00    -0.014 A 
BRANCH  41  42
ATOM     42  C   UNL A   1      41.527  27.796  28.627  1.00  0.00     0.031 A 
ATOM     43  C   UNL A   1      41.659  26.487  27.927  1.00  0.00     0.074 A 
ATOM     44  C   UNL A   1      42.598  28.604  28.783  1.00  0.00     0.049 A 
ATOM     45  N   UNL A   1      42.230  25.415  28.367  1.00  0.00    -0.248 NA
ATOM     46  C   UNL A   1      40.993  26.314  26.624  1.00  0.00     0.031 C 
ATOM     47  C   UNL A   1      42.621  30.018  29.175  1.00  0.00     0.029 A 
ATOM     48  N   UNL A   1      43.906  28.356  28.492  1.00  0.00    -0.354 N 
ATOM     49  C   UNL A   1      42.159  24.482  27.336  1.00  0.00     0.074 A 
ATOM     50  C   UNL A   1      41.265  25.037  26.350  1.00  0.00     0.031 C 
ATOM     51  C   UNL A   1      43.820  30.556  28.862  1.00  0.00     0.029 A 
ATOM     52  C   UNL A   1      44.700  29.493  28.411  1.00  0.00     0.049 A 
ATOM     53  H   UNL A   1      44.258  27.447  28.352  1.00  0.00     0.167 HD
ATOM     54  C   UNL A   1      43.017  23.426  27.272  1.00  0.00     0.031 A 
ATOM     55  C   UNL A   1      45.985  29.565  27.983  1.00  0.00     0.031 A 
ATOM     56  C   UNL A   1      43.700  23.216  28.522  1.00  0.00     0.049 A 
ATOM     57  C   UNL A   1      46.560  28.206  28.067  1.00  0.00     0.074 A 
ATOM     58  C   UNL A   1      43.303  22.942  29.815  1.00  0.00     0.029 A 
ATOM     59  N   UNL A   1      44.991  23.678  28.616  1.00  0.00    -0.354 N 
ATOM     60  N   UNL A   1      46.801  27.604  29.194  1.00  0.00    -0.248 NA
ATOM     61  C   UNL A   1      46.466  27.340  26.904  1.00  0.00     0.031 C 
ATOM     62  C   UNL A   1      44.175  23.718  30.636  1.00  0.00     0.029 A 
ATOM     63  C   UNL A   1      45.098  24.353  29.804  1.00  0.00     0.049 A 
ATOM     64  H   UNL A   1      45.707  23.547  27.953  1.00  0.00     0.167 HD
ATOM     65  C   UNL A   1      46.420  26.290  28.973  1.00  0.00     0.074 A 
ATOM     66  C   UNL A   1      46.341  26.160  27.519  1.00  0.00     0.031 C 
ATOM     67  C   UNL A   1      45.926  25.523  29.991  1.00  0.00     0.031 A 
BRANCH  54  68
ATOM     68  C   UNL A   1      43.541  22.852  25.977  1.00  0.00    -0.014 A 
ATOM     69  C   UNL A   1      43.630  21.453  25.843  1.00  0.00     0.009 A 
ATOM     70  C   UNL A   1      44.219  23.622  25.014  1.00  0.00     0.009 A 
ATOM     71  C   UNL A   1      44.420  20.864  24.848  1.00  0.00     0.001 A 
ATOM     72  C   UNL A   1      44.975  23.036  23.995  1.00  0.00     0.001 A 
ATOM     73  C   UNL A   1      45.099  21.657  23.930  1.00  0.00     0.000 A 
ENDBRANCH  54  68
BRANCH  55  74
ATOM     74  C   UNL A   1      46.704  30.671  27.321  1.00  0.00    -0.014 A 
ATOM     75  C   UNL A   1      45.999  31.723  26.713  1.00  0.00     0.009 A 
ATOM     76  C   UNL A   1      48.083  30.843  27.538  1.00  0.00     0.009 A 
ATOM     77  C   UNL A   1      46.642  32.923  26.381  1.00  0.00     0.001 A 
ATOM     78  C   UNL A   1      48.725  32.040  27.205  1.00  0.00     0.001 A 
ATOM     79  C   UNL A   1      48.000  33.087  26.643  1.00  0.00     0.000 A 
ENDBRANCH  55  74
BRANCH  67  80
ATOM     80  C   UNL A   1      46.036  26.067  31.398  1.00  0.00    -0.014 A 
ATOM     81  C   UNL A   1      47.185  25.919  32.198  1.00  0.00     0.009 A 
ATOM     82  C   UNL A   1      44.987  26.854  31.890  1.00  0.00     0.009 A 
ATOM     83  C   UNL A   1      47.256  26.495  33.471  1.00  0.00     0.001 A 
ATOM     84  C   UNL A   1      45.067  27.450  33.152  1.00  0.00     0.001 A 
ATOM     85  C   UNL A   1      46.195  27.261  33.946  1.00  0.00     0.000 A 
ENDBRANCH  67  80
ENDBRANCH  41  42
ENDBRANCH  33  36
ENDBRANCH  31  32
ENDBRANCH  30  31
ENDBRANCH   1  30
TORSDOF 14
ENDMDL
MODEL 3
REMARK VINA RESULT:     -12.4      2.365      8.602
REMARK SMILES Cc1nccn1C1(C(=O)NCCCCNC(=O)c2ccc(-c3c4nc(c(-c5ccccc5)c5ccc([nH]5)c(-c5ccccc5)c5nc(c(-c6ccccc6)c6ccc3[nH]6)C=C5)C=C4)cc2)CCN(C(=O)[C@@H]2C[C@H]2c2ccccc2)CC1
REMARK SMILES IDX 12 1 11 2 10 3 8 4 9 5 7 7 66 8 81 9 67 10 80 11 68 12 69 13
REMARK SMILES IDX 70 14 6 15 1 16 2 17 3 18 4 19 5 20 71 21 72 22 73 23 74 24
REMARK SMILES IDX 75 25 79 26 76 27 78 28 77 29 13 30 14 31 15 32 16 33 17 35
REMARK SMILES IDX 18 36 19 37 65 38 20 39 64 40 21 41 22 42 23 43 58 44 24 45
REMARK SMILES IDX 63 46 57 47 59 48 25 49 62 50 56 51 55 52 26 54 48 55 33 56
REMARK SMILES IDX 47 57 34 58 37 59 46 60 60 61 35 62 36 63 45 65 61 66 38 67
REMARK SMILES IDX 27 68 28 69 32 70 29 71 31 72 30 73 49 74 50 75 54 76 51 77
REMARK SMILES IDX 53 78 52 79 39 80 40 81 44 82 41 83 43 84 42 85
REMARK H PARENT 10 6 15 34 59 53 37 64
REMARK Flexibility Score: inf
ROOT
ATOM      1  C   UNL A   1      37.620  22.381  25.475  1.00  0.00     0.023 C 
ENDROOT
BRANCH   1   2
ATOM      2  C   UNL A   1      36.419  21.878  24.659  1.00  0.00     0.116 C 
BRANCH   2   3
ATOM      3  N   UNL A   1      35.934  22.871  23.714  1.00  0.00    -0.354 N 
ATOM      4  C   UNL A   1      34.725  23.467  23.467  1.00  0.00     0.246 C 
ATOM      5  O   UNL A   1      34.783  24.192  22.470  1.00  0.00    -0.272 OA
ATOM      6  H   UNL A   1      36.641  23.193  23.111  1.00  0.00     0.163 HD
BRANCH   4   7
ATOM      7  C   UNL A   1      33.416  23.253  24.358  1.00  0.00     0.127 C 
ATOM      8  C   UNL A   1      33.688  24.023  25.682  1.00  0.00     0.061 C 
ATOM      9  C   UNL A   1      32.238  23.790  23.503  1.00  0.00     0.061 C 
ATOM     10  C   UNL A   1      32.638  25.028  26.171  1.00  0.00     0.122 C 
ATOM     11  C   UNL A   1      31.122  24.320  24.371  1.00  0.00     0.122 C 
ATOM     12  N   UNL A   1      31.618  25.404  25.197  1.00  0.00    -0.342 N 
ATOM     13  C   UNL A   1      31.060  26.680  25.343  1.00  0.00     0.226 C 
ATOM     14  O   UNL A   1      31.292  27.349  26.349  1.00  0.00    -0.275 OA
BRANCH   7  15
ATOM     15  N   UNL A   1      33.108  21.791  24.678  1.00  0.00    -0.320 N 
ATOM     16  C   UNL A   1      33.731  21.459  27.224  1.00  0.00     0.087 C 
ATOM     17  C   UNL A   1      33.215  21.073  25.885  1.00  0.00     0.106 A 
ATOM     18  N   UNL A   1      32.751  19.844  25.752  1.00  0.00    -0.242 NA
ATOM     19  C   UNL A   1      32.348  19.714  24.473  1.00  0.00     0.131 A 
ATOM     20  C   UNL A   1      32.529  20.892  23.803  1.00  0.00     0.108 A 
ENDBRANCH   7  15
BRANCH  13  21
ATOM     21  C   UNL A   1      30.259  27.362  24.280  1.00  0.00     0.087 C 
ATOM     22  C   UNL A   1      30.764  27.425  22.860  1.00  0.00     0.023 C 
ATOM     23  C   UNL A   1      30.509  28.691  23.633  1.00  0.00     0.032 C 
BRANCH  23  24
ATOM     24  C   UNL A   1      29.440  29.681  23.297  1.00  0.00    -0.044 A 
ATOM     25  C   UNL A   1      28.651  29.486  22.153  1.00  0.00     0.004 A 
ATOM     26  C   UNL A   1      29.440  30.949  23.898  1.00  0.00     0.004 A 
ATOM     27  C   UNL A   1      27.970  30.549  21.566  1.00  0.00     0.000 A 
ATOM     28  C   UNL A   1      28.758  32.016  23.313  1.00  0.00     0.000 A 
ATOM     29  C   UNL A   1      28.047  31.820  22.131  1.00  0.00     0.000 A 
ENDBRANCH  23  24
ENDBRANCH  13  21
ENDBRANCH   4   7
ENDBRANCH   2   3
ENDBRANCH   1   2
BRANCH   1  30
ATOM     30  C   UNL A   1      38.754  21.375  25.735  1.00  0.00     0.023 C 
BRANCH  30  31
ATOM     31  C   UNL A   1      39.840  21.858  26.687  1.00  0.00     0.116 C 
BRANCH  31  32
ATOM     32  N   UNL A   1      41.154  21.958  26.058  1.00  0.00    -0.352 N 
ATOM     33  C   UNL A   1      41.936  23.090  25.908  1.00  0.00     0.251 C 
ATOM     34  H   UNL A   1      41.528  21.121  25.700  1.00  0.00     0.163 HD
ATOM     35  O   UNL A   1      42.832  23.133  25.084  1.00  0.00    -0.269 OA
BRANCH  33  36
ATOM     36  C   UNL A   1      41.658  24.255  26.768  1.00  0.00     0.039 A 
ATOM     37  C   UNL A   1      42.286  24.393  28.008  1.00  0.00     0.014 A 
ATOM     38  C   UNL A   1      40.776  25.228  26.302  1.00  0.00     0.014 A 
ATOM     39  C   UNL A   1      42.092  25.567  28.734  1.00  0.00     0.010 A 
ATOM     40  C   UNL A   1      40.676  26.432  26.962  1.00  0.00     0.010 A 
ATOM     41  C   UNL A   1      41.307  26.598  28.193  1.00  0.00    -0.014 A 
BRANCH  41  42
ATOM     42  C   UNL A   1      41.265  27.908  28.838  1.00  0.00     0.031 A 
ATOM     43  C   UNL A   1      42.265  28.892  28.333  1.00  0.00     0.074 A 
ATOM     44  C   UNL A   1      40.271  28.301  29.664  1.00  0.00     0.049 A 
ATOM     45  N   UNL A   1      43.223  29.449  28.996  1.00  0.00    -0.248 NA
ATOM     46  C   UNL A   1      42.265  29.222  26.897  1.00  0.00     0.031 C 
ATOM     47  C   UNL A   1      39.053  27.570  30.032  1.00  0.00     0.029 A 
ATOM     48  N   UNL A   1      40.079  29.514  30.257  1.00  0.00    -0.354 N 
ATOM     49  C   UNL A   1      43.841  30.337  28.119  1.00  0.00     0.074 A 
ATOM     50  C   UNL A   1      43.308  30.049  26.811  1.00  0.00     0.031 C 
ATOM     51  C   UNL A   1      38.154  28.426  30.566  1.00  0.00     0.029 A 
ATOM     52  C   UNL A   1      38.791  29.719  30.735  1.00  0.00     0.049 A 
ATOM     53  H   UNL A   1      40.794  30.186  30.338  1.00  0.00     0.167 HD
ATOM     54  C   UNL A   1      44.578  31.389  28.575  1.00  0.00     0.031 A 
ATOM     55  C   UNL A   1      38.273  30.876  31.218  1.00  0.00     0.031 A 
ATOM     56  C   UNL A   1      44.915  31.242  29.967  1.00  0.00     0.049 A 
ATOM     57  C   UNL A   1      39.404  31.747  31.598  1.00  0.00     0.074 A 
ATOM     58  C   UNL A   1      45.610  30.307  30.708  1.00  0.00     0.029 A 
ATOM     59  N   UNL A   1      44.168  31.958  30.871  1.00  0.00    -0.354 N 
ATOM     60  N   UNL A   1      40.192  31.495  32.601  1.00  0.00    -0.248 NA
ATOM     61  C   UNL A   1      39.933  32.670  30.606  1.00  0.00     0.031 C 
ATOM     62  C   UNL A   1      44.870  30.183  31.922  1.00  0.00     0.029 A 
ATOM     63  C   UNL A   1      43.820  31.101  31.883  1.00  0.00     0.049 A 
ATOM     64  H   UNL A   1      43.929  32.911  30.805  1.00  0.00     0.167 HD
ATOM     65  C   UNL A   1      41.455  31.829  32.143  1.00  0.00     0.074 A 
ATOM     66  C   UNL A   1      41.221  32.659  30.962  1.00  0.00     0.031 C 
ATOM     67  C   UNL A   1      42.562  31.165  32.592  1.00  0.00     0.031 A 
BRANCH  54  68
ATOM     68  C   UNL A   1      44.637  32.729  27.883  1.00  0.00    -0.014 A 
ATOM     69  C   UNL A   1      43.601  33.655  28.107  1.00  0.00     0.009 A 
ATOM     70  C   UNL A   1      45.502  33.000  26.805  1.00  0.00     0.009 A 
ATOM     71  C   UNL A   1      43.396  34.744  27.250  1.00  0.00     0.001 A 
ATOM     72  C   UNL A   1      45.325  34.109  25.973  1.00  0.00     0.001 A 
ATOM     73  C   UNL A   1      44.254  34.964  26.178  1.00  0.00     0.000 A 
ENDBRANCH  54  68
BRANCH  55  74
ATOM     74  C   UNL A   1      36.883  31.374  31.198  1.00  0.00    -0.014 A 
ATOM     75  C   UNL A   1      36.284  31.875  32.365  1.00  0.00     0.009 A 
ATOM     76  C   UNL A   1      36.244  31.626  29.971  1.00  0.00     0.009 A 
ATOM     77  C   UNL A   1      35.114  32.643  32.301  1.00  0.00     0.001 A 
ATOM     78  C   UNL A   1      35.075  32.391  29.907  1.00  0.00     0.001 A 
ATOM     79  C   UNL A   1      34.521  32.915  31.071  1.00  0.00     0.000 A 
ENDBRANCH  55  74
BRANCH  67  80
ATOM     80  C   UNL A   1      42.392  30.233  33.771  1.00  0.00    -0.014 A 
ATOM     81  C   UNL A   1      42.555  30.638  35.109  1.00  0.00     0.009 A 
ATOM     82  C   UNL A   1      41.939  28.929  33.527  1.00  0.00     0.009 A 
ATOM     83  C   UNL A   1      42.327  29.749  36.164  1.00  0.00     0.001 A 
ATOM     84  C   UNL A   1      41.686  28.048  34.582  1.00  0.00     0.001 A 
ATOM     85  C   UNL A   1      41.891  28.453  35.898  1.00  0.00     0.000 A 
ENDBRANCH  67  80
ENDBRANCH  41  42
ENDBRANCH  33  36
ENDBRANCH  31  32
ENDBRANCH  30  31
ENDBRANCH   1  30
TORSDOF 14
ENDMDL
