MODEL 1
REMARK VINA RESULT:     -11.5      0.000      0.000
REMARK SMILES Cc1cc2c(c(C)c1Cl)C=C(C(=O)NCCCCNC(=O)c1ccc(-c3c4nc(c(-c5ccccc5)c5ccc([nH]5)c(-c5ccccc5)c5nc(c(-c6ccccc6)c6ccc3[nH]6)C=C5)C=C4)cc1)[C@@H](C(F)(F)F)O2
REMARK SMILES IDX 17 1 16 2 15 3 14 4 12 5 13 6 11 8 1 9 2 10 3 11 8 12 4 13
REMARK SMILES IDX 6 14 9 15 5 16 75 17 7 18 10 19 70 20 71 21 72 22 73 23
REMARK SMILES IDX 74 24 18 25 19 26 20 27 21 29 22 30 23 31 69 32 24 33 68 34
REMARK SMILES IDX 25 35 26 36 27 37 62 38 28 39 67 40 61 41 63 42 29 43 66 44
REMARK SMILES IDX 60 45 59 46 30 48 52 49 37 50 51 51 38 52 41 53 50 54 64 55
REMARK SMILES IDX 39 56 40 57 49 59 65 60 42 61 31 62 32 63 36 64 33 65 35 66
REMARK SMILES IDX 34 67 53 68 54 69 58 70 55 71 57 72 56 73 43 74 44 75 48 76
REMARK SMILES IDX 45 77 47 78 46 79
REMARK H PARENT 14 7 19 28 63 47 41 58
REMARK Flexibility Score: inf
ROOT
ATOM      1  C   UNL A   1      33.771  28.879  25.485  1.00  0.00     0.023 C 
ENDROOT
BRANCH   1   2
ATOM      2  C   UNL A   1      33.894  27.527  24.782  1.00  0.00     0.023 C 
BRANCH   2   3
ATOM      3  C   UNL A   1      32.569  26.968  24.273  1.00  0.00     0.116 C 
BRANCH   3   4
ATOM      4  N   UNL A   1      31.773  26.405  25.348  1.00  0.00    -0.352 N 
ATOM      5  C   UNL A   1      31.639  25.202  25.953  1.00  0.00     0.251 C 
ATOM      6  O   UNL A   1      30.801  25.165  26.860  1.00  0.00    -0.270 OA
ATOM      7  H   UNL A   1      31.171  27.077  25.742  1.00  0.00     0.163 HD
BRANCH   5   8
ATOM      8  C   UNL A   1      32.410  23.970  25.608  1.00  0.00     0.067 C 
ATOM      9  C   UNL A   1      36.772  19.207  24.763  1.00  0.00     0.046 C 
ATOM     10  C   UNL A   1      36.049  20.496  25.042  1.00  0.00    -0.028 A 
ATOM     11  C   UNL A   1      34.657  20.510  24.919  1.00  0.00     0.052 A 
ATOM     12  C   UNL A   1      36.703  21.666  25.478  1.00  0.00     0.047 A 
ATOM     13  C   UNL A   1      33.934  21.665  25.192  1.00  0.00     0.128 A 
ATOM     14  C   UNL A   1      35.978  22.854  25.751  1.00  0.00    -0.021 A 
ATOM     15  Cl  UNL A   1      38.426  21.615  25.704  1.00  0.00    -0.084 Cl
ATOM     16  C   UNL A   1      34.568  22.837  25.612  1.00  0.00     0.022 A 
ATOM     17  O   UNL A   1      32.579  21.548  25.068  1.00  0.00    -0.475 OA
ATOM     18  C   UNL A   1      36.667  24.122  26.200  1.00  0.00     0.047 C 
ATOM     19  C   UNL A   1      33.716  23.987  25.938  1.00  0.00     0.026 C 
ATOM     20  C   UNL A   1      31.831  22.780  24.905  1.00  0.00     0.314 C 
BRANCH  20  21
ATOM     21  C   UNL A   1      31.585  23.032  23.407  1.00  0.00     0.429 C 
ATOM     22  F   UNL A   1      31.768  21.889  22.699  1.00  0.00    -0.167 F 
ATOM     23  F   UNL A   1      30.319  23.440  23.150  1.00  0.00    -0.167 F 
ATOM     24  F   UNL A   1      32.412  23.967  22.891  1.00  0.00    -0.167 F 
ENDBRANCH  20  21
ENDBRANCH   5   8
ENDBRANCH   3   4
ENDBRANCH   2   3
ENDBRANCH   1   2
BRANCH   1  25
ATOM     25  C   UNL A   1      33.784  28.825  27.011  1.00  0.00     0.116 C 
BRANCH  25  26
ATOM     26  N   UNL A   1      33.702  30.134  27.645  1.00  0.00    -0.352 N 
ATOM     27  C   UNL A   1      34.665  30.791  28.367  1.00  0.00     0.251 C 
ATOM     28  H   UNL A   1      32.844  30.607  27.541  1.00  0.00     0.163 HD
ATOM     29  O   UNL A   1      34.423  31.861  28.914  1.00  0.00    -0.269 OA
BRANCH  27  30
ATOM     30  C   UNL A   1      35.993  30.167  28.509  1.00  0.00     0.039 A 
ATOM     31  C   UNL A   1      36.898  30.265  27.451  1.00  0.00     0.014 A 
ATOM     32  C   UNL A   1      36.356  29.547  29.709  1.00  0.00     0.014 A 
ATOM     33  C   UNL A   1      38.199  29.794  27.618  1.00  0.00     0.010 A 
ATOM     34  C   UNL A   1      37.669  29.134  29.894  1.00  0.00     0.010 A 
ATOM     35  C   UNL A   1      38.600  29.255  28.851  1.00  0.00    -0.014 A 
BRANCH  35  36
ATOM     36  C   UNL A   1      39.991  28.794  29.064  1.00  0.00     0.031 A 
ATOM     37  C   UNL A   1      40.990  29.715  29.701  1.00  0.00     0.074 A 
ATOM     38  C   UNL A   1      40.362  27.569  28.645  1.00  0.00     0.049 A 
ATOM     39  N   UNL A   1      42.264  29.519  29.926  1.00  0.00    -0.248 NA
ATOM     40  C   UNL A   1      40.499  31.037  30.122  1.00  0.00     0.031 C 
ATOM     41  C   UNL A   1      39.488  26.594  27.991  1.00  0.00     0.029 A 
ATOM     42  N   UNL A   1      41.578  26.937  28.710  1.00  0.00    -0.354 N 
ATOM     43  C   UNL A   1      42.726  30.694  30.502  1.00  0.00     0.074 A 
ATOM     44  C   UNL A   1      41.611  31.615  30.548  1.00  0.00     0.031 C 
ATOM     45  C   UNL A   1      40.187  25.473  27.747  1.00  0.00     0.029 A 
ATOM     46  C   UNL A   1      41.563  25.664  28.193  1.00  0.00     0.049 A 
ATOM     47  H   UNL A   1      42.383  27.356  29.090  1.00  0.00     0.167 HD
ATOM     48  C   UNL A   1      43.964  30.975  30.973  1.00  0.00     0.031 A 
ATOM     49  C   UNL A   1      42.551  24.754  28.095  1.00  0.00     0.031 A 
ATOM     50  C   UNL A   1      45.068  30.058  30.941  1.00  0.00     0.049 A 
ATOM     51  C   UNL A   1      43.921  25.100  28.603  1.00  0.00     0.074 A 
ATOM     52  C   UNL A   1      46.349  30.235  31.430  1.00  0.00     0.029 A 
ATOM     53  N   UNL A   1      45.017  28.786  30.392  1.00  0.00    -0.354 N 
ATOM     54  N   UNL A   1      44.334  26.203  29.179  1.00  0.00    -0.248 NA
ATOM     55  C   UNL A   1      44.962  24.073  28.449  1.00  0.00     0.031 C 
ATOM     56  C   UNL A   1      47.087  29.082  31.143  1.00  0.00     0.029 A 
ATOM     57  C   UNL A   1      46.251  28.172  30.513  1.00  0.00     0.049 A 
ATOM     58  H   UNL A   1      44.222  28.380  29.978  1.00  0.00     0.167 HD
ATOM     59  C   UNL A   1      45.676  25.998  29.469  1.00  0.00     0.074 A 
ATOM     60  C   UNL A   1      46.004  24.659  29.021  1.00  0.00     0.031 C 
ATOM     61  C   UNL A   1      46.559  26.844  30.053  1.00  0.00     0.031 A 
BRANCH  48  62
ATOM     62  C   UNL A   1      44.177  32.337  31.569  1.00  0.00    -0.014 A 
ATOM     63  C   UNL A   1      43.929  32.573  32.931  1.00  0.00     0.009 A 
ATOM     64  C   UNL A   1      44.656  33.386  30.771  1.00  0.00     0.009 A 
ATOM     65  C   UNL A   1      44.125  33.844  33.473  1.00  0.00     0.001 A 
ATOM     66  C   UNL A   1      44.874  34.650  31.322  1.00  0.00     0.001 A 
ATOM     67  C   UNL A   1      44.601  34.880  32.670  1.00  0.00     0.000 A 
ENDBRANCH  48  62
BRANCH  49  68
ATOM     68  C   UNL A   1      42.270  23.417  27.515  1.00  0.00    -0.014 A 
ATOM     69  C   UNL A   1      41.721  22.404  28.316  1.00  0.00     0.009 A 
ATOM     70  C   UNL A   1      42.538  23.148  26.165  1.00  0.00     0.009 A 
ATOM     71  C   UNL A   1      41.459  21.141  27.779  1.00  0.00     0.001 A 
ATOM     72  C   UNL A   1      42.255  21.891  25.625  1.00  0.00     0.001 A 
ATOM     73  C   UNL A   1      41.723  20.887  26.433  1.00  0.00     0.000 A 
ENDBRANCH  49  68
BRANCH  61  74
ATOM     74  C   UNL A   1      47.960  26.347  30.250  1.00  0.00    -0.014 A 
ATOM     75  C   UNL A   1      48.357  25.774  31.468  1.00  0.00     0.009 A 
ATOM     76  C   UNL A   1      48.875  26.395  29.187  1.00  0.00     0.009 A 
ATOM     77  C   UNL A   1      49.651  25.275  31.623  1.00  0.00     0.001 A 
ATOM     78  C   UNL A   1      50.161  25.875  29.337  1.00  0.00     0.001 A 
ATOM     79  C   UNL A   1      50.549  25.321  30.557  1.00  0.00     0.000 A 
ENDBRANCH  61  74
ENDBRANCH  35  36
ENDBRANCH  27  30
ENDBRANCH  25  26
ENDBRANCH   1  25
TORSDOF 12
ENDMDL
MODEL 2
REMARK VINA RESULT:     -11.3      2.283      7.261
REMARK SMILES Cc1cc2c(c(C)c1Cl)C=C(C(=O)NCCCCNC(=O)c1ccc(-c3c4nc(c(-c5ccccc5)c5ccc([nH]5)c(-c5ccccc5)c5nc(c(-c6ccccc6)c6ccc3[nH]6)C=C5)C=C4)cc1)[C@@H](C(F)(F)F)O2
REMARK SMILES IDX 17 1 16 2 15 3 14 4 12 5 13 6 11 8 1 9 2 10 3 11 8 12 4 13
REMARK SMILES IDX 6 14 9 15 5 16 75 17 7 18 10 19 70 20 71 21 72 22 73 23
REMARK SMILES IDX 74 24 18 25 19 26 20 27 21 29 22 30 23 31 69 32 24 33 68 34
REMARK SMILES IDX 25 35 26 36 27 37 62 38 28 39 67 40 61 41 63 42 29 43 66 44
REMARK SMILES IDX 60 45 59 46 30 48 52 49 37 50 51 51 38 52 41 53 50 54 64 55
REMARK SMILES IDX 39 56 40 57 49 59 65 60 42 61 31 62 32 63 36 64 33 65 35 66
REMARK SMILES IDX 34 67 53 68 54 69 58 70 55 71 57 72 56 73 43 74 44 75 48 76
REMARK SMILES IDX 45 77 47 78 46 79
REMARK H PARENT 14 7 19 28 63 47 41 58
REMARK Flexibility Score: inf
ROOT
ATOM      1  C   UNL A   1      37.383  20.891  24.625  1.00  0.00     0.023 C 
ENDROOT
BRANCH   1   2
ATOM      2  C   UNL A   1      36.750  22.226  24.234  1.00  0.00     0.023 C 
BRANCH   2   3
ATOM      3  C   UNL A   1      36.727  23.257  25.359  1.00  0.00     0.116 C 
BRANCH   3   4
ATOM      4  N   UNL A   1      35.695  22.966  26.336  1.00  0.00    -0.352 N 
ATOM      5  C   UNL A   1      34.406  23.321  26.548  1.00  0.00     0.251 C 
ATOM      6  O   UNL A   1      33.886  22.822  27.551  1.00  0.00    -0.270 OA
ATOM      7  H   UNL A   1      36.017  22.346  27.029  1.00  0.00     0.163 HD
BRANCH   5   8
ATOM      8  C   UNL A   1      33.608  24.238  25.680  1.00  0.00     0.067 C 
ATOM      9  C   UNL A   1      30.571  29.190  22.734  1.00  0.00     0.046 C 
ATOM     10  C   UNL A   1      31.306  28.278  23.678  1.00  0.00    -0.028 A 
ATOM     11  C   UNL A   1      31.603  26.983  23.243  1.00  0.00     0.052 A 
ATOM     12  C   UNL A   1      31.757  28.687  24.949  1.00  0.00     0.047 A 
ATOM     13  C   UNL A   1      32.304  26.105  24.061  1.00  0.00     0.128 A 
ATOM     14  C   UNL A   1      32.466  27.798  25.797  1.00  0.00    -0.021 A 
ATOM     15  Cl  UNL A   1      31.451  30.324  25.447  1.00  0.00    -0.084 Cl
ATOM     16  C   UNL A   1      32.747  26.491  25.329  1.00  0.00     0.022 A 
ATOM     17  O   UNL A   1      32.563  24.881  23.516  1.00  0.00    -0.475 OA
ATOM     18  C   UNL A   1      32.940  28.216  27.170  1.00  0.00     0.047 C 
ATOM     19  C   UNL A   1      33.535  25.517  26.094  1.00  0.00     0.026 C 
ATOM     20  C   UNL A   1      32.880  23.810  24.442  1.00  0.00     0.314 C 
BRANCH  20  21
ATOM     21  C   UNL A   1      31.604  23.005  24.745  1.00  0.00     0.429 C 
ATOM     22  F   UNL A   1      31.876  21.676  24.760  1.00  0.00    -0.167 F 
ATOM     23  F   UNL A   1      31.080  23.299  25.959  1.00  0.00    -0.167 F 
ATOM     24  F   UNL A   1      30.627  23.210  23.835  1.00  0.00    -0.167 F 
ENDBRANCH  20  21
ENDBRANCH   5   8
ENDBRANCH   3   4
ENDBRANCH   2   3
ENDBRANCH   1   2
BRANCH   1  25
ATOM     25  C   UNL A   1      38.496  20.976  25.667  1.00  0.00     0.116 C 
BRANCH  25  26
ATOM     26  N   UNL A   1      39.451  19.879  25.596  1.00  0.00    -0.352 N 
ATOM     27  C   UNL A   1      40.773  19.877  25.963  1.00  0.00     0.251 C 
ATOM     28  H   UNL A   1      39.103  19.031  25.238  1.00  0.00     0.163 HD
ATOM     29  O   UNL A   1      41.480  18.895  25.768  1.00  0.00    -0.269 OA
BRANCH  27  30
ATOM     30  C   UNL A   1      41.344  21.096  26.564  1.00  0.00     0.039 A 
ATOM     31  C   UNL A   1      41.921  22.051  25.725  1.00  0.00     0.014 A 
ATOM     32  C   UNL A   1      41.246  21.315  27.941  1.00  0.00     0.014 A 
ATOM     33  C   UNL A   1      42.348  23.264  26.263  1.00  0.00     0.010 A 
ATOM     34  C   UNL A   1      41.616  22.548  28.465  1.00  0.00     0.010 A 
ATOM     35  C   UNL A   1      42.168  23.531  27.630  1.00  0.00    -0.014 A 
BRANCH  35  36
ATOM     36  C   UNL A   1      42.570  24.832  28.211  1.00  0.00     0.031 A 
ATOM     37  C   UNL A   1      41.543  25.909  28.405  1.00  0.00     0.074 A 
ATOM     38  C   UNL A   1      43.862  25.058  28.520  1.00  0.00     0.049 A 
ATOM     39  N   UNL A   1      41.703  27.129  28.847  1.00  0.00    -0.248 NA
ATOM     40  C   UNL A   1      40.157  25.577  28.034  1.00  0.00     0.031 C 
ATOM     41  C   UNL A   1      44.955  24.098  28.353  1.00  0.00     0.029 A 
ATOM     42  N   UNL A   1      44.471  26.171  29.040  1.00  0.00    -0.354 N 
ATOM     43  C   UNL A   1      40.444  27.713  28.797  1.00  0.00     0.074 A 
ATOM     44  C   UNL A   1      39.541  26.732  28.236  1.00  0.00     0.031 C 
ATOM     45  C   UNL A   1      46.095  24.653  28.797  1.00  0.00     0.029 A 
ATOM     46  C   UNL A   1      45.820  26.014  29.244  1.00  0.00     0.049 A 
ATOM     47  H   UNL A   1      43.987  27.002  29.248  1.00  0.00     0.167 HD
ATOM     48  C   UNL A   1      40.068  28.948  29.202  1.00  0.00     0.031 A 
ATOM     49  C   UNL A   1      46.730  26.874  29.740  1.00  0.00     0.031 A 
ATOM     50  C   UNL A   1      40.960  29.918  29.772  1.00  0.00     0.049 A 
ATOM     51  C   UNL A   1      46.292  28.247  30.160  1.00  0.00     0.074 A 
ATOM     52  C   UNL A   1      40.667  31.182  30.252  1.00  0.00     0.029 A 
ATOM     53  N   UNL A   1      42.322  29.728  29.944  1.00  0.00    -0.354 N 
ATOM     54  N   UNL A   1      45.090  28.772  30.140  1.00  0.00    -0.248 NA
ATOM     55  C   UNL A   1      47.335  29.146  30.674  1.00  0.00     0.031 C 
ATOM     56  C   UNL A   1      41.860  31.772  30.679  1.00  0.00     0.029 A 
ATOM     57  C   UNL A   1      42.888  30.858  30.505  1.00  0.00     0.049 A 
ATOM     58  H   UNL A   1      42.814  28.909  29.702  1.00  0.00     0.167 HD
ATOM     59  C   UNL A   1      45.229  30.055  30.651  1.00  0.00     0.074 A 
ATOM     60  C   UNL A   1      46.629  30.224  30.988  1.00  0.00     0.031 C 
ATOM     61  C   UNL A   1      44.284  31.009  30.824  1.00  0.00     0.031 A 
BRANCH  48  62
ATOM     62  C   UNL A   1      38.619  29.309  29.045  1.00  0.00    -0.014 A 
ATOM     63  C   UNL A   1      37.740  29.252  30.138  1.00  0.00     0.009 A 
ATOM     64  C   UNL A   1      38.133  29.736  27.801  1.00  0.00     0.009 A 
ATOM     65  C   UNL A   1      36.393  29.584  29.979  1.00  0.00     0.001 A 
ATOM     66  C   UNL A   1      36.792  30.091  27.650  1.00  0.00     0.001 A 
ATOM     67  C   UNL A   1      35.921  30.007  28.736  1.00  0.00     0.000 A 
ENDBRANCH  48  62
BRANCH  49  68
ATOM     68  C   UNL A   1      48.144  26.448  29.892  1.00  0.00    -0.014 A 
ATOM     69  C   UNL A   1      48.576  25.852  31.086  1.00  0.00     0.009 A 
ATOM     70  C   UNL A   1      49.064  26.624  28.848  1.00  0.00     0.009 A 
ATOM     71  C   UNL A   1      49.906  25.454  31.238  1.00  0.00     0.001 A 
ATOM     72  C   UNL A   1      50.389  26.206  28.994  1.00  0.00     0.001 A 
ATOM     73  C   UNL A   1      50.811  25.628  30.190  1.00  0.00     0.000 A 
ENDBRANCH  49  68
BRANCH  61  74
ATOM     74  C   UNL A   1      44.725  32.317  31.411  1.00  0.00    -0.014 A 
ATOM     75  C   UNL A   1      45.092  33.391  30.584  1.00  0.00     0.009 A 
ATOM     76  C   UNL A   1      44.713  32.498  32.802  1.00  0.00     0.009 A 
ATOM     77  C   UNL A   1      45.458  34.616  31.142  1.00  0.00     0.001 A 
ATOM     78  C   UNL A   1      45.058  33.731  33.356  1.00  0.00     0.001 A 
ATOM     79  C   UNL A   1      45.434  34.787  32.526  1.00  0.00     0.000 A 
ENDBRANCH  61  74
ENDBRANCH  35  36
ENDBRANCH  27  30
ENDBRANCH  25  26
ENDBRANCH   1  25
TORSDOF 12
ENDMDL
MODEL 3
REMARK VINA RESULT:     -11.3      2.310      7.458
REMARK SMILES Cc1cc2c(c(C)c1Cl)C=C(C(=O)NCCCCNC(=O)c1ccc(-c3c4nc(c(-c5ccccc5)c5ccc([nH]5)c(-c5ccccc5)c5nc(c(-c6ccccc6)c6ccc3[nH]6)C=C5)C=C4)cc1)[C@@H](C(F)(F)F)O2
REMARK SMILES IDX 17 1 16 2 15 3 14 4 12 5 13 6 11 8 1 9 2 10 3 11 8 12 4 13
REMARK SMILES IDX 6 14 9 15 5 16 75 17 7 18 10 19 70 20 71 21 72 22 73 23
REMARK SMILES IDX 74 24 18 25 19 26 20 27 21 29 22 30 23 31 69 32 24 33 68 34
REMARK SMILES IDX 25 35 26 36 27 37 62 38 28 39 67 40 61 41 63 42 29 43 66 44
REMARK SMILES IDX 60 45 59 46 30 48 52 49 37 50 51 51 38 52 41 53 50 54 64 55
REMARK SMILES IDX 39 56 40 57 49 59 65 60 42 61 31 62 32 63 36 64 33 65 35 66
REMARK SMILES IDX 34 67 53 68 54 69 58 70 55 71 57 72 56 73 43 74 44 75 48 76
REMARK SMILES IDX 45 77 47 78 46 79
REMARK H PARENT 14 7 19 28 63 47 41 58
REMARK Flexibility Score: inf
ROOT
ATOM      1  C   UNL A   1      37.569  20.105  24.896  1.00  0.00     0.023 C 
ENDROOT
BRANCH   1   2
ATOM      2  C   UNL A   1      36.619  21.260  24.578  1.00  0.00     0.023 C 
BRANCH   2   3
ATOM      3  C   UNL A   1      36.693  22.418  25.569  1.00  0.00     0.116 C 
BRANCH   3   4
ATOM      4  N   UNL A   1      35.615  22.368  26.539  1.00  0.00    -0.352 N 
ATOM      5  C   UNL A   1      34.383  22.910  26.676  1.00  0.00     0.251 C 
ATOM      6  O   UNL A   1      33.783  22.589  27.707  1.00  0.00    -0.270 OA
ATOM      7  H   UNL A   1      35.839  21.784  27.299  1.00  0.00     0.163 HD
BRANCH   5   8
ATOM      8  C   UNL A   1      33.730  23.832  25.698  1.00  0.00     0.067 C 
ATOM      9  C   UNL A   1      31.117  28.788  22.377  1.00  0.00     0.046 C 
ATOM     10  C   UNL A   1      31.692  27.865  23.416  1.00  0.00    -0.028 A 
ATOM     11  C   UNL A   1      32.123  26.600  23.006  1.00  0.00     0.052 A 
ATOM     12  C   UNL A   1      31.869  28.239  24.764  1.00  0.00     0.047 A 
ATOM     13  C   UNL A   1      32.688  25.716  23.917  1.00  0.00     0.128 A 
ATOM     14  C   UNL A   1      32.436  27.342  25.705  1.00  0.00    -0.021 A 
ATOM     15  Cl  UNL A   1      31.403  29.843  25.245  1.00  0.00    -0.084 Cl
ATOM     16  C   UNL A   1      32.859  26.066  25.260  1.00  0.00     0.022 A 
ATOM     17  O   UNL A   1      33.100  24.524  23.393  1.00  0.00    -0.475 OA
ATOM     18  C   UNL A   1      32.616  27.721  27.157  1.00  0.00     0.047 C 
ATOM     19  C   UNL A   1      33.524  25.090  26.132  1.00  0.00     0.026 C 
ATOM     20  C   UNL A   1      33.276  23.429  24.328  1.00  0.00     0.314 C 
BRANCH  20  21
ATOM     21  C   UNL A   1      32.001  22.567  24.350  1.00  0.00     0.429 C 
ATOM     22  F   UNL A   1      31.086  23.097  25.200  1.00  0.00    -0.167 F 
ATOM     23  F   UNL A   1      31.401  22.498  23.138  1.00  0.00    -0.167 F 
ATOM     24  F   UNL A   1      32.236  21.297  24.745  1.00  0.00    -0.167 F 
ENDBRANCH  20  21
ENDBRANCH   5   8
ENDBRANCH   3   4
ENDBRANCH   2   3
ENDBRANCH   1   2
BRANCH   1  25
ATOM     25  C   UNL A   1      38.786  20.474  25.742  1.00  0.00     0.116 C 
BRANCH  25  26
ATOM     26  N   UNL A   1      39.821  19.451  25.756  1.00  0.00    -0.352 N 
ATOM     27  C   UNL A   1      41.137  19.577  26.128  1.00  0.00     0.251 C 
ATOM     28  H   UNL A   1      39.542  18.555  25.460  1.00  0.00     0.163 HD
ATOM     29  O   UNL A   1      41.918  18.640  26.009  1.00  0.00    -0.269 OA
BRANCH  27  30
ATOM     30  C   UNL A   1      41.607  20.877  26.639  1.00  0.00     0.039 A 
ATOM     31  C   UNL A   1      42.100  21.817  25.733  1.00  0.00     0.014 A 
ATOM     32  C   UNL A   1      41.497  21.180  28.000  1.00  0.00     0.014 A 
ATOM     33  C   UNL A   1      42.427  23.094  26.184  1.00  0.00     0.010 A 
ATOM     34  C   UNL A   1      41.765  22.472  28.436  1.00  0.00     0.010 A 
ATOM     35  C   UNL A   1      42.231  23.438  27.531  1.00  0.00    -0.014 A 
BRANCH  35  36
ATOM     36  C   UNL A   1      42.527  24.804  28.019  1.00  0.00     0.031 A 
ATOM     37  C   UNL A   1      43.939  25.183  28.361  1.00  0.00     0.074 A 
ATOM     38  C   UNL A   1      41.523  25.684  28.199  1.00  0.00     0.049 A 
ATOM     39  N   UNL A   1      44.394  26.307  28.851  1.00  0.00    -0.248 NA
ATOM     40  C   UNL A   1      44.971  24.158  28.141  1.00  0.00     0.031 C 
ATOM     41  C   UNL A   1      40.108  25.424  27.926  1.00  0.00     0.029 A 
ATOM     42  N   UNL A   1      41.543  26.978  28.653  1.00  0.00    -0.354 N 
ATOM     43  C   UNL A   1      45.761  26.119  29.009  1.00  0.00     0.074 A 
ATOM     44  C   UNL A   1      46.053  24.760  28.609  1.00  0.00     0.031 C 
ATOM     45  C   UNL A   1      39.401  26.537  28.185  1.00  0.00     0.029 A 
ATOM     46  C   UNL A   1      40.305  27.572  28.675  1.00  0.00     0.049 A 
ATOM     47  H   UNL A   1      42.366  27.436  28.936  1.00  0.00     0.167 HD
ATOM     48  C   UNL A   1      46.693  27.006  29.427  1.00  0.00     0.031 A 
ATOM     49  C   UNL A   1      39.943  28.815  29.045  1.00  0.00     0.031 A 
ATOM     50  C   UNL A   1      46.406  28.360  29.811  1.00  0.00     0.049 A 
ATOM     51  C   UNL A   1      40.994  29.772  29.530  1.00  0.00     0.074 A 
ATOM     52  C   UNL A   1      47.288  29.348  30.210  1.00  0.00     0.029 A 
ATOM     53  N   UNL A   1      45.137  28.917  29.837  1.00  0.00    -0.354 N 
ATOM     54  N   UNL A   1      42.288  29.592  29.638  1.00  0.00    -0.248 NA
ATOM     55  C   UNL A   1      40.534  31.107  29.939  1.00  0.00     0.031 C 
ATOM     56  C   UNL A   1      46.548  30.494  30.515  1.00  0.00     0.029 A 
ATOM     57  C   UNL A   1      45.209  30.231  30.264  1.00  0.00     0.049 A 
ATOM     58  H   UNL A   1      44.308  28.447  29.589  1.00  0.00     0.167 HD
ATOM     59  C   UNL A   1      42.799  30.791  30.114  1.00  0.00     0.074 A 
ATOM     60  C   UNL A   1      41.677  31.698  30.258  1.00  0.00     0.031 C 
ATOM     61  C   UNL A   1      44.081  31.113  30.408  1.00  0.00     0.031 A 
BRANCH  48  62
ATOM     62  C   UNL A   1      48.116  26.529  29.482  1.00  0.00    -0.014 A 
ATOM     63  C   UNL A   1      48.967  26.675  28.375  1.00  0.00     0.009 A 
ATOM     64  C   UNL A   1      48.618  25.954  30.658  1.00  0.00     0.009 A 
ATOM     65  C   UNL A   1      50.287  26.224  28.436  1.00  0.00     0.001 A 
ATOM     66  C   UNL A   1      49.945  25.525  30.723  1.00  0.00     0.001 A 
ATOM     67  C   UNL A   1      50.776  25.653  29.610  1.00  0.00     0.000 A 
ENDBRANCH  48  62
BRANCH  49  68
ATOM     68  C   UNL A   1      38.522  29.232  28.946  1.00  0.00    -0.014 A 
ATOM     69  C   UNL A   1      38.007  29.693  27.725  1.00  0.00     0.009 A 
ATOM     70  C   UNL A   1      37.673  29.166  30.061  1.00  0.00     0.009 A 
ATOM     71  C   UNL A   1      36.672  30.093  27.626  1.00  0.00     0.001 A 
ATOM     72  C   UNL A   1      36.334  29.547  29.954  1.00  0.00     0.001 A 
ATOM     73  C   UNL A   1      35.836  30.016  28.739  1.00  0.00     0.000 A 
ENDBRANCH  49  68
BRANCH  61  74
ATOM     74  C   UNL A   1      44.345  32.503  30.905  1.00  0.00    -0.014 A 
ATOM     75  C   UNL A   1      44.360  32.786  32.280  1.00  0.00     0.009 A 
ATOM     76  C   UNL A   1      44.645  33.526  29.993  1.00  0.00     0.009 A 
ATOM     77  C   UNL A   1      44.651  34.074  32.730  1.00  0.00     0.001 A 
ATOM     78  C   UNL A   1      44.958  34.808  30.447  1.00  0.00     0.001 A 
ATOM     79  C   UNL A   1      44.955  35.082  31.814  1.00  0.00     0.000 A 
ENDBRANCH  61  74
ENDBRANCH  35  36
ENDBRANCH  27  30
ENDBRANCH  25  26
ENDBRANCH   1  25
TORSDOF 12
ENDMDL
