MODEL 1
REMARK VINA RESULT:     -10.8      0.000      0.000
REMARK SMILES C[C@@H](C(=O)NCCCCNC(=O)c1ccc(-c2c3nc(c(-c4ccccc4)c4ccc([nH]4)c(-c4ccccc4)c4nc(c(-c5ccccc5)c5ccc2[nH]5)C=C4)C=C3)cc1)c1ccc(=O)n(C(F)F)c1
REMARK SMILES IDX 7 1 6 2 5 3 3 4 4 5 2 7 1 8 61 9 62 10 70 11 63 12 66 13
REMARK SMILES IDX 64 14 65 15 67 16 68 17 69 18 8 19 9 20 10 21 11 22 12 24
REMARK SMILES IDX 13 25 14 26 60 27 15 28 59 29 16 30 17 31 18 32 53 33 19 34
REMARK SMILES IDX 58 35 52 36 54 37 20 38 57 39 51 40 50 41 21 43 43 44 28 45
REMARK SMILES IDX 42 46 29 47 32 48 41 49 55 50 30 51 31 52 40 54 56 55 33 56
REMARK SMILES IDX 22 57 23 58 27 59 24 60 26 61 25 62 44 63 45 64 49 65 46 66
REMARK SMILES IDX 48 67 47 68 34 69 35 70 39 71 36 72 38 73 37 74
REMARK H PARENT 5 6 10 23 54 42 32 53
REMARK Flexibility Score: inf
ROOT
ATOM      1  C   UNL A   1      32.026  29.452  26.901  1.00  0.00     0.023 C 
ENDROOT
BRANCH   1   2
ATOM      2  C   UNL A   1      33.276  28.804  26.294  1.00  0.00     0.116 C 
BRANCH   2   3
ATOM      3  N   UNL A   1      33.521  29.288  24.949  1.00  0.00    -0.356 N 
ATOM      4  C   UNL A   1      33.172  28.764  23.737  1.00  0.00     0.227 C 
ATOM      5  O   UNL A   1      33.674  29.304  22.748  1.00  0.00    -0.274 OA
ATOM      6  H   UNL A   1      34.023  30.133  24.901  1.00  0.00     0.163 HD
BRANCH   4   7
ATOM      7  C   UNL A   1      32.173  27.580  23.643  1.00  0.00     0.107 C 
ATOM      8  C   UNL A   1      32.585  26.684  22.466  1.00  0.00     0.023 C 
BRANCH   7   9
ATOM      9  C   UNL A   1      30.707  28.050  23.574  1.00  0.00    -0.019 A 
ATOM     10  C   UNL A   1      29.622  27.080  23.644  1.00  0.00     0.012 A 
ATOM     11  C   UNL A   1      30.357  29.347  23.446  1.00  0.00     0.099 A 
ATOM     12  C   UNL A   1      28.341  27.442  23.501  1.00  0.00     0.072 A 
ATOM     13  N   UNL A   1      29.039  29.751  23.306  1.00  0.00    -0.258 N 
ATOM     14  C   UNL A   1      27.980  28.863  23.290  1.00  0.00     0.254 A 
ATOM     15  O   UNL A   1      26.798  29.149  23.131  1.00  0.00    -0.269 OA
BRANCH  13  16
ATOM     16  C   UNL A   1      28.723  31.138  23.087  1.00  0.00     0.451 C 
ATOM     17  F   UNL A   1      29.173  31.908  24.108  1.00  0.00    -0.185 F 
ATOM     18  F   UNL A   1      29.289  31.594  21.941  1.00  0.00    -0.185 F 
ENDBRANCH  13  16
ENDBRANCH   7   9
ENDBRANCH   4   7
ENDBRANCH   2   3
ENDBRANCH   1   2
BRANCH   1  19
ATOM     19  C   UNL A   1      31.879  30.953  26.641  1.00  0.00     0.023 C 
BRANCH  19  20
ATOM     20  C   UNL A   1      32.971  31.822  27.249  1.00  0.00     0.116 C 
BRANCH  20  21
ATOM     21  N   UNL A   1      32.522  33.176  27.540  1.00  0.00    -0.352 N 
ATOM     22  C   UNL A   1      33.099  34.104  28.374  1.00  0.00     0.251 C 
ATOM     23  H   UNL A   1      31.701  33.464  27.079  1.00  0.00     0.163 HD
ATOM     24  O   UNL A   1      32.540  35.170  28.609  1.00  0.00    -0.269 OA
BRANCH  22  25
ATOM     25  C   UNL A   1      34.388  33.782  29.018  1.00  0.00     0.039 A 
ATOM     26  C   UNL A   1      34.392  32.999  30.176  1.00  0.00     0.014 A 
ATOM     27  C   UNL A   1      35.586  34.203  28.438  1.00  0.00     0.014 A 
ATOM     28  C   UNL A   1      35.609  32.568  30.709  1.00  0.00     0.010 A 
ATOM     29  C   UNL A   1      36.791  33.720  28.932  1.00  0.00     0.010 A 
ATOM     30  C   UNL A   1      36.813  32.890  30.065  1.00  0.00    -0.014 A 
BRANCH  30  31
ATOM     31  C   UNL A   1      38.121  32.375  30.536  1.00  0.00     0.031 A 
ATOM     32  C   UNL A   1      38.688  31.124  29.932  1.00  0.00     0.074 A 
ATOM     33  C   UNL A   1      38.727  32.950  31.592  1.00  0.00     0.049 A 
ATOM     34  N   UNL A   1      39.708  30.404  30.324  1.00  0.00    -0.248 NA
ATOM     35  C   UNL A   1      37.989  30.592  28.752  1.00  0.00     0.031 C 
ATOM     36  C   UNL A   1      38.256  34.145  32.296  1.00  0.00     0.029 A 
ATOM     37  N   UNL A   1      39.857  32.582  32.278  1.00  0.00    -0.354 N 
ATOM     38  C   UNL A   1      39.746  29.313  29.466  1.00  0.00     0.074 A 
ATOM     39  C   UNL A   1      38.631  29.450  28.554  1.00  0.00     0.031 C 
ATOM     40  C   UNL A   1      39.090  34.409  33.315  1.00  0.00     0.029 A 
ATOM     41  C   UNL A   1      40.126  33.381  33.362  1.00  0.00     0.049 A 
ATOM     42  H   UNL A   1      40.422  31.817  32.018  1.00  0.00     0.167 HD
ATOM     43  C   UNL A   1      40.632  28.290  29.437  1.00  0.00     0.031 A 
ATOM     44  C   UNL A   1      41.083  33.285  34.303  1.00  0.00     0.031 A 
ATOM     45  C   UNL A   1      41.755  28.167  30.328  1.00  0.00     0.049 A 
ATOM     46  C   UNL A   1      42.071  32.157  34.240  1.00  0.00     0.074 A 
ATOM     47  C   UNL A   1      42.754  27.210  30.330  1.00  0.00     0.029 A 
ATOM     48  N   UNL A   1      42.023  29.032  31.378  1.00  0.00    -0.354 N 
ATOM     49  N   UNL A   1      42.133  31.163  33.387  1.00  0.00    -0.248 NA
ATOM     50  C   UNL A   1      43.126  32.141  35.263  1.00  0.00     0.031 C 
ATOM     51  C   UNL A   1      43.607  27.474  31.407  1.00  0.00     0.029 A 
ATOM     52  C   UNL A   1      43.164  28.620  32.047  1.00  0.00     0.049 A 
ATOM     53  H   UNL A   1      41.484  29.821  31.613  1.00  0.00     0.167 HD
ATOM     54  C   UNL A   1      43.244  30.417  33.755  1.00  0.00     0.074 A 
ATOM     55  C   UNL A   1      43.832  31.076  34.903  1.00  0.00     0.031 C 
ATOM     56  C   UNL A   1      43.735  29.289  33.187  1.00  0.00     0.031 A 
BRANCH  43  57
ATOM     57  C   UNL A   1      40.401  27.213  28.416  1.00  0.00    -0.014 A 
ATOM     58  C   UNL A   1      39.642  26.070  28.718  1.00  0.00     0.009 A 
ATOM     59  C   UNL A   1      40.954  27.342  27.133  1.00  0.00     0.009 A 
ATOM     60  C   UNL A   1      39.485  25.057  27.770  1.00  0.00     0.001 A 
ATOM     61  C   UNL A   1      40.769  26.340  26.178  1.00  0.00     0.001 A 
ATOM     62  C   UNL A   1      40.046  25.194  26.502  1.00  0.00     0.000 A 
ENDBRANCH  43  57
BRANCH  44  63
ATOM     63  C   UNL A   1      41.149  34.300  35.385  1.00  0.00    -0.014 A 
ATOM     64  C   UNL A   1      41.884  35.481  35.206  1.00  0.00     0.009 A 
ATOM     65  C   UNL A   1      40.448  34.108  36.586  1.00  0.00     0.009 A 
ATOM     66  C   UNL A   1      41.925  36.447  36.214  1.00  0.00     0.001 A 
ATOM     67  C   UNL A   1      40.473  35.087  37.583  1.00  0.00     0.001 A 
ATOM     68  C   UNL A   1      41.215  36.251  37.398  1.00  0.00     0.000 A 
ENDBRANCH  44  63
BRANCH  56  69
ATOM     69  C   UNL A   1      44.990  28.711  33.775  1.00  0.00    -0.014 A 
ATOM     70  C   UNL A   1      44.941  27.727  34.773  1.00  0.00     0.009 A 
ATOM     71  C   UNL A   1      46.239  29.117  33.275  1.00  0.00     0.009 A 
ATOM     72  C   UNL A   1      46.120  27.173  35.273  1.00  0.00     0.001 A 
ATOM     73  C   UNL A   1      47.414  28.544  33.762  1.00  0.00     0.001 A 
ATOM     74  C   UNL A   1      47.354  27.577  34.764  1.00  0.00     0.000 A 
ENDBRANCH  56  69
ENDBRANCH  30  31
ENDBRANCH  22  25
ENDBRANCH  20  21
ENDBRANCH  19  20
ENDBRANCH   1  19
TORSDOF 13
ENDMDL
MODEL 2
REMARK VINA RESULT:     -10.4      4.225      8.222
REMARK SMILES C[C@@H](C(=O)NCCCCNC(=O)c1ccc(-c2c3nc(c(-c4ccccc4)c4ccc([nH]4)c(-c4ccccc4)c4nc(c(-c5ccccc5)c5ccc2[nH]5)C=C4)C=C3)cc1)c1ccc(=O)n(C(F)F)c1
REMARK SMILES IDX 7 1 6 2 5 3 3 4 4 5 2 7 1 8 61 9 62 10 70 11 63 12 66 13
REMARK SMILES IDX 64 14 65 15 67 16 68 17 69 18 8 19 9 20 10 21 11 22 12 24
REMARK SMILES IDX 13 25 14 26 60 27 15 28 59 29 16 30 17 31 18 32 53 33 19 34
REMARK SMILES IDX 58 35 52 36 54 37 20 38 57 39 51 40 50 41 21 43 43 44 28 45
REMARK SMILES IDX 42 46 29 47 32 48 41 49 55 50 30 51 31 52 40 54 56 55 33 56
REMARK SMILES IDX 22 57 23 58 27 59 24 60 26 61 25 62 44 63 45 64 49 65 46 66
REMARK SMILES IDX 48 67 47 68 34 69 35 70 39 71 36 72 38 73 37 74
REMARK H PARENT 5 6 10 23 54 42 32 53
REMARK Flexibility Score: inf
ROOT
ATOM      1  C   UNL A   1      31.765  28.118  26.799  1.00  0.00     0.023 C 
ENDROOT
BRANCH   1   2
ATOM      2  C   UNL A   1      31.067  26.926  26.134  1.00  0.00     0.116 C 
BRANCH   2   3
ATOM      3  N   UNL A   1      31.247  25.711  26.904  1.00  0.00    -0.356 N 
ATOM      4  C   UNL A   1      31.582  24.447  26.509  1.00  0.00     0.227 C 
ATOM      5  O   UNL A   1      31.487  23.567  27.368  1.00  0.00    -0.274 OA
ATOM      6  H   UNL A   1      31.103  25.813  27.873  1.00  0.00     0.163 HD
BRANCH   4   7
ATOM      7  C   UNL A   1      32.082  24.174  25.065  1.00  0.00     0.107 C 
ATOM      8  C   UNL A   1      30.885  23.745  24.206  1.00  0.00     0.023 C 
BRANCH   7   9
ATOM      9  C   UNL A   1      33.257  23.177  25.027  1.00  0.00    -0.019 A 
ATOM     10  C   UNL A   1      33.009  21.762  24.790  1.00  0.00     0.012 A 
ATOM     11  C   UNL A   1      34.541  23.550  25.208  1.00  0.00     0.099 A 
ATOM     12  C   UNL A   1      33.994  20.856  24.835  1.00  0.00     0.072 A 
ATOM     13  N   UNL A   1      35.582  22.635  25.250  1.00  0.00    -0.258 N 
ATOM     14  C   UNL A   1      35.390  21.274  25.106  1.00  0.00     0.254 A 
ATOM     15  O   UNL A   1      36.257  20.409  25.173  1.00  0.00    -0.269 OA
BRANCH  13  16
ATOM     16  C   UNL A   1      36.924  23.072  25.532  1.00  0.00     0.451 C 
ATOM     17  F   UNL A   1      37.442  23.759  24.485  1.00  0.00    -0.185 F 
ATOM     18  F   UNL A   1      36.956  23.883  26.620  1.00  0.00    -0.185 F 
ENDBRANCH  13  16
ENDBRANCH   7   9
ENDBRANCH   4   7
ENDBRANCH   2   3
ENDBRANCH   1   2
BRANCH   1  19
ATOM     19  C   UNL A   1      33.294  28.052  26.813  1.00  0.00     0.023 C 
BRANCH  19  20
ATOM     20  C   UNL A   1      33.998  29.288  26.272  1.00  0.00     0.116 C 
BRANCH  20  21
ATOM     21  N   UNL A   1      33.851  30.449  27.138  1.00  0.00    -0.352 N 
ATOM     22  C   UNL A   1      34.698  30.885  28.128  1.00  0.00     0.251 C 
ATOM     23  H   UNL A   1      33.042  30.991  26.995  1.00  0.00     0.163 HD
ATOM     24  O   UNL A   1      34.384  31.821  28.856  1.00  0.00    -0.269 OA
BRANCH  22  25
ATOM     25  C   UNL A   1      35.982  30.184  28.331  1.00  0.00     0.039 A 
ATOM     26  C   UNL A   1      36.968  30.274  27.345  1.00  0.00     0.014 A 
ATOM     27  C   UNL A   1      36.224  29.495  29.521  1.00  0.00     0.014 A 
ATOM     28  C   UNL A   1      38.235  29.739  27.589  1.00  0.00     0.010 A 
ATOM     29  C   UNL A   1      37.502  29.021  29.787  1.00  0.00     0.010 A 
ATOM     30  C   UNL A   1      38.522  29.146  28.829  1.00  0.00    -0.014 A 
BRANCH  30  31
ATOM     31  C   UNL A   1      39.877  28.653  29.171  1.00  0.00     0.031 A 
ATOM     32  C   UNL A   1      40.878  29.591  29.779  1.00  0.00     0.074 A 
ATOM     33  C   UNL A   1      40.247  27.409  28.814  1.00  0.00     0.049 A 
ATOM     34  N   UNL A   1      42.160  29.420  29.974  1.00  0.00    -0.248 NA
ATOM     35  C   UNL A   1      40.375  30.913  30.183  1.00  0.00     0.031 C 
ATOM     36  C   UNL A   1      39.380  26.413  28.178  1.00  0.00     0.029 A 
ATOM     37  N   UNL A   1      41.464  26.782  28.906  1.00  0.00    -0.354 N 
ATOM     38  C   UNL A   1      42.625  30.625  30.483  1.00  0.00     0.074 A 
ATOM     39  C   UNL A   1      41.495  31.527  30.538  1.00  0.00     0.031 C 
ATOM     40  C   UNL A   1      40.095  25.302  27.937  1.00  0.00     0.029 A 
ATOM     41  C   UNL A   1      41.475  25.522  28.359  1.00  0.00     0.049 A 
ATOM     42  H   UNL A   1      42.254  27.196  29.324  1.00  0.00     0.167 HD
ATOM     43  C   UNL A   1      43.879  30.951  30.875  1.00  0.00     0.031 A 
ATOM     44  C   UNL A   1      42.486  24.650  28.192  1.00  0.00     0.031 A 
ATOM     45  C   UNL A   1      44.997  30.046  30.843  1.00  0.00     0.049 A 
ATOM     46  C   UNL A   1      43.866  25.021  28.655  1.00  0.00     0.074 A 
ATOM     47  C   UNL A   1      46.289  30.257  31.290  1.00  0.00     0.029 A 
ATOM     48  N   UNL A   1      44.951  28.758  30.333  1.00  0.00    -0.354 N 
ATOM     49  N   UNL A   1      44.280  26.144  29.191  1.00  0.00    -0.248 NA
ATOM     50  C   UNL A   1      44.914  24.003  28.498  1.00  0.00     0.031 C 
ATOM     51  C   UNL A   1      47.037  29.106  31.014  1.00  0.00     0.029 A 
ATOM     52  C   UNL A   1      46.199  28.166  30.437  1.00  0.00     0.049 A 
ATOM     53  H   UNL A   1      44.151  28.328  29.953  1.00  0.00     0.167 HD
ATOM     54  C   UNL A   1      45.631  25.961  29.456  1.00  0.00     0.074 A 
ATOM     55  C   UNL A   1      45.964  24.617  29.029  1.00  0.00     0.031 C 
ATOM     56  C   UNL A   1      46.513  26.828  30.009  1.00  0.00     0.031 A 
BRANCH  43  57
ATOM     57  C   UNL A   1      44.103  32.358  31.350  1.00  0.00    -0.014 A 
ATOM     58  C   UNL A   1      43.947  32.708  32.701  1.00  0.00     0.009 A 
ATOM     59  C   UNL A   1      44.475  33.351  30.430  1.00  0.00     0.009 A 
ATOM     60  C   UNL A   1      44.108  34.032  33.111  1.00  0.00     0.001 A 
ATOM     61  C   UNL A   1      44.665  34.669  30.849  1.00  0.00     0.001 A 
ATOM     62  C   UNL A   1      44.469  35.010  32.186  1.00  0.00     0.000 A 
ENDBRANCH  43  57
BRANCH  44  63
ATOM     63  C   UNL A   1      42.221  23.334  27.559  1.00  0.00    -0.014 A 
ATOM     64  C   UNL A   1      42.603  23.095  26.231  1.00  0.00     0.009 A 
ATOM     65  C   UNL A   1      41.617  22.299  28.291  1.00  0.00     0.009 A 
ATOM     66  C   UNL A   1      42.377  21.849  25.643  1.00  0.00     0.001 A 
ATOM     67  C   UNL A   1      41.412  21.047  27.707  1.00  0.00     0.001 A 
ATOM     68  C   UNL A   1      41.787  20.825  26.383  1.00  0.00     0.000 A 
ENDBRANCH  44  63
BRANCH  56  69
ATOM     69  C   UNL A   1      47.918  26.342  30.219  1.00  0.00    -0.014 A 
ATOM     70  C   UNL A   1      48.330  25.816  31.452  1.00  0.00     0.009 A 
ATOM     71  C   UNL A   1      48.822  26.356  29.144  1.00  0.00     0.009 A 
ATOM     72  C   UNL A   1      49.629  25.330  31.610  1.00  0.00     0.001 A 
ATOM     73  C   UNL A   1      50.112  25.849  29.300  1.00  0.00     0.001 A 
ATOM     74  C   UNL A   1      50.516  25.341  30.534  1.00  0.00     0.000 A 
ENDBRANCH  56  69
ENDBRANCH  30  31
ENDBRANCH  22  25
ENDBRANCH  20  21
ENDBRANCH  19  20
ENDBRANCH   1  19
TORSDOF 13
ENDMDL
MODEL 3
REMARK VINA RESULT:     -10.3      3.277      4.117
REMARK SMILES C[C@@H](C(=O)NCCCCNC(=O)c1ccc(-c2c3nc(c(-c4ccccc4)c4ccc([nH]4)c(-c4ccccc4)c4nc(c(-c5ccccc5)c5ccc2[nH]5)C=C4)C=C3)cc1)c1ccc(=O)n(C(F)F)c1
REMARK SMILES IDX 7 1 6 2 5 3 3 4 4 5 2 7 1 8 61 9 62 10 70 11 63 12 66 13
REMARK SMILES IDX 64 14 65 15 67 16 68 17 69 18 8 19 9 20 10 21 11 22 12 24
REMARK SMILES IDX 13 25 14 26 60 27 15 28 59 29 16 30 17 31 18 32 53 33 19 34
REMARK SMILES IDX 58 35 52 36 54 37 20 38 57 39 51 40 50 41 21 43 43 44 28 45
REMARK SMILES IDX 42 46 29 47 32 48 41 49 55 50 30 51 31 52 40 54 56 55 33 56
REMARK SMILES IDX 22 57 23 58 27 59 24 60 26 61 25 62 44 63 45 64 49 65 46 66
REMARK SMILES IDX 48 67 47 68 34 69 35 70 39 71 36 72 38 73 37 74
REMARK H PARENT 5 6 10 23 54 42 32 53
REMARK Flexibility Score: inf
ROOT
ATOM      1  C   UNL A   1      31.781  28.882  27.262  1.00  0.00     0.023 C 
ENDROOT
BRANCH   1   2
ATOM      2  C   UNL A   1      31.877  27.726  26.258  1.00  0.00     0.116 C 
BRANCH   2   3
ATOM      3  N   UNL A   1      31.228  26.532  26.765  1.00  0.00    -0.356 N 
ATOM      4  C   UNL A   1      31.091  25.290  26.213  1.00  0.00     0.227 C 
ATOM      5  O   UNL A   1      30.330  24.517  26.799  1.00  0.00    -0.274 OA
ATOM      6  H   UNL A   1      30.817  26.633  27.654  1.00  0.00     0.163 HD
BRANCH   4   7
ATOM      7  C   UNL A   1      31.888  24.895  24.941  1.00  0.00     0.107 C 
ATOM      8  C   UNL A   1      30.904  24.362  23.892  1.00  0.00     0.023 C 
BRANCH   7   9
ATOM      9  C   UNL A   1      33.046  23.924  25.248  1.00  0.00    -0.019 A 
ATOM     10  C   UNL A   1      34.333  24.436  25.698  1.00  0.00     0.012 A 
ATOM     11  C   UNL A   1      32.934  22.586  25.117  1.00  0.00     0.099 A 
ATOM     12  C   UNL A   1      35.385  23.632  25.890  1.00  0.00     0.072 A 
ATOM     13  N   UNL A   1      34.003  21.728  25.320  1.00  0.00    -0.258 N 
ATOM     14  C   UNL A   1      35.264  22.170  25.674  1.00  0.00     0.254 A 
ATOM     15  O   UNL A   1      36.260  21.472  25.828  1.00  0.00    -0.269 OA
BRANCH  13  16
ATOM     16  C   UNL A   1      33.857  20.315  25.085  1.00  0.00     0.451 C 
ATOM     17  F   UNL A   1      33.121  19.732  26.063  1.00  0.00    -0.185 F 
ATOM     18  F   UNL A   1      33.238  20.077  23.901  1.00  0.00    -0.185 F 
ENDBRANCH  13  16
ENDBRANCH   7   9
ENDBRANCH   4   7
ENDBRANCH   2   3
ENDBRANCH   1   2
BRANCH   1  19
ATOM     19  C   UNL A   1      31.754  30.280  26.642  1.00  0.00     0.023 C 
BRANCH  19  20
ATOM     20  C   UNL A   1      32.873  31.208  27.094  1.00  0.00     0.116 C 
BRANCH  20  21
ATOM     21  N   UNL A   1      32.418  32.570  27.336  1.00  0.00    -0.352 N 
ATOM     22  C   UNL A   1      33.036  33.556  28.066  1.00  0.00     0.251 C 
ATOM     23  H   UNL A   1      31.559  32.815  26.923  1.00  0.00     0.163 HD
ATOM     24  O   UNL A   1      32.475  34.625  28.279  1.00  0.00    -0.269 OA
BRANCH  22  25
ATOM     25  C   UNL A   1      34.377  33.296  28.628  1.00  0.00     0.039 A 
ATOM     26  C   UNL A   1      34.490  32.523  29.787  1.00  0.00     0.014 A 
ATOM     27  C   UNL A   1      35.516  33.764  27.970  1.00  0.00     0.014 A 
ATOM     28  C   UNL A   1      35.756  32.150  30.244  1.00  0.00     0.010 A 
ATOM     29  C   UNL A   1      36.770  33.338  28.388  1.00  0.00     0.010 A 
ATOM     30  C   UNL A   1      36.902  32.520  29.522  1.00  0.00    -0.014 A 
BRANCH  30  31
ATOM     31  C   UNL A   1      38.258  32.065  29.911  1.00  0.00     0.031 A 
ATOM     32  C   UNL A   1      38.780  30.757  29.393  1.00  0.00     0.074 A 
ATOM     33  C   UNL A   1      38.959  32.757  30.829  1.00  0.00     0.049 A 
ATOM     34  N   UNL A   1      39.846  30.090  29.756  1.00  0.00    -0.248 NA
ATOM     35  C   UNL A   1      37.973  30.094  28.357  1.00  0.00     0.031 C 
ATOM     36  C   UNL A   1      38.543  34.021  31.441  1.00  0.00     0.029 A 
ATOM     37  N   UNL A   1      40.158  32.473  31.432  1.00  0.00    -0.354 N 
ATOM     38  C   UNL A   1      39.814  28.910  29.025  1.00  0.00     0.074 A 
ATOM     39  C   UNL A   1      38.610  28.939  28.222  1.00  0.00     0.031 C 
ATOM     40  C   UNL A   1      39.472  34.401  32.333  1.00  0.00     0.029 A 
ATOM     41  C   UNL A   1      40.523  33.389  32.388  1.00  0.00     0.049 A 
ATOM     42  H   UNL A   1      40.705  31.686  31.202  1.00  0.00     0.167 HD
ATOM     43  C   UNL A   1      40.709  27.894  29.018  1.00  0.00     0.031 A 
ATOM     44  C   UNL A   1      41.571  33.403  33.231  1.00  0.00     0.031 A 
ATOM     45  C   UNL A   1      41.917  27.876  29.798  1.00  0.00     0.049 A 
ATOM     46  C   UNL A   1      42.566  32.279  33.192  1.00  0.00     0.074 A 
ATOM     47  C   UNL A   1      42.926  26.929  29.803  1.00  0.00     0.029 A 
ATOM     48  N   UNL A   1      42.277  28.854  30.713  1.00  0.00    -0.354 N 
ATOM     49  N   UNL A   1      42.556  31.196  32.452  1.00  0.00    -0.248 NA
ATOM     50  C   UNL A   1      43.719  32.382  34.097  1.00  0.00     0.031 C 
ATOM     51  C   UNL A   1      43.880  27.315  30.752  1.00  0.00     0.029 A 
ATOM     52  C   UNL A   1      43.486  28.524  31.303  1.00  0.00     0.049 A 
ATOM     53  H   UNL A   1      41.752  29.662  30.914  1.00  0.00     0.167 HD
ATOM     54  C   UNL A   1      43.710  30.500  32.784  1.00  0.00     0.074 A 
ATOM     55  C   UNL A   1      44.401  31.286  33.787  1.00  0.00     0.031 C 
ATOM     56  C   UNL A   1      44.159  29.318  32.298  1.00  0.00     0.031 A 
BRANCH  43  57
ATOM     57  C   UNL A   1      40.392  26.709  28.152  1.00  0.00    -0.014 A 
ATOM     58  C   UNL A   1      39.602  25.648  28.624  1.00  0.00     0.009 A 
ATOM     59  C   UNL A   1      40.895  26.651  26.843  1.00  0.00     0.009 A 
ATOM     60  C   UNL A   1      39.364  24.532  27.820  1.00  0.00     0.001 A 
ATOM     61  C   UNL A   1      40.631  25.546  26.031  1.00  0.00     0.001 A 
ATOM     62  C   UNL A   1      39.877  24.483  26.525  1.00  0.00     0.000 A 
ENDBRANCH  43  57
BRANCH  44  63
ATOM     63  C   UNL A   1      41.731  34.532  34.181  1.00  0.00    -0.014 A 
ATOM     64  C   UNL A   1      42.401  35.700  33.790  1.00  0.00     0.009 A 
ATOM     65  C   UNL A   1      41.182  34.461  35.471  1.00  0.00     0.009 A 
ATOM     66  C   UNL A   1      42.529  36.772  34.675  1.00  0.00     0.001 A 
ATOM     67  C   UNL A   1      41.292  35.544  36.346  1.00  0.00     0.001 A 
ATOM     68  C   UNL A   1      41.969  36.696  35.950  1.00  0.00     0.000 A 
ENDBRANCH  44  63
BRANCH  56  69
ATOM     69  C   UNL A   1      45.476  28.815  32.814  1.00  0.00    -0.014 A 
ATOM     70  C   UNL A   1      46.684  29.172  32.198  1.00  0.00     0.009 A 
ATOM     71  C   UNL A   1      45.508  28.022  33.973  1.00  0.00     0.009 A 
ATOM     72  C   UNL A   1      47.899  28.728  32.722  1.00  0.00     0.001 A 
ATOM     73  C   UNL A   1      46.725  27.599  34.506  1.00  0.00     0.001 A 
ATOM     74  C   UNL A   1      47.920  27.948  33.878  1.00  0.00     0.000 A 
ENDBRANCH  56  69
ENDBRANCH  30  31
ENDBRANCH  22  25
ENDBRANCH  20  21
ENDBRANCH  19  20
ENDBRANCH   1  19
TORSDOF 13
ENDMDL
