MODEL 1
REMARK VINA RESULT:     -11.5      0.000      0.000
REMARK SMILES CCc1ccc(C(=O)NCCCCNC(=O)c2ccc(-c3c4nc(c(-c5ccccc5)c5ccc([nH]5)c(-c5ccccc5)c5nc(c(-c6ccccc6)c6ccc3[nH]6)C=C5)C=C4)cc2)cc1S(=O)(=O)CC[NH+]1CCCC1
REMARK SMILES IDX 10 1 9 2 7 3 8 4 6 6 3 7 4 8 66 9 5 10 65 11 2 12 1 13 67 14
REMARK SMILES IDX 68 15 69 16 70 17 71 18 72 19 73 20 76 21 74 23 75 24 11 25
REMARK SMILES IDX 12 26 13 27 14 28 15 29 16 31 17 32 18 33 64 34 19 35 63 36
REMARK SMILES IDX 20 37 21 38 22 39 57 40 23 41 62 42 56 43 58 44 24 45 61 46
REMARK SMILES IDX 55 47 54 48 25 50 47 51 32 52 46 53 33 54 36 55 45 56 59 57
REMARK SMILES IDX 34 58 35 59 44 61 60 62 37 63 26 64 27 65 31 66 28 67 30 68
REMARK SMILES IDX 29 69 48 70 49 71 53 72 50 73 52 74 51 75 38 76 39 77 43 78
REMARK SMILES IDX 40 79 42 80 41 81
REMARK H PARENT 9 5 72 22 14 30 58 49 36 60
REMARK Flexibility Score: inf
ROOT
ATOM      1  C   UNL A   1      33.470  32.236  27.543  1.00  0.00     0.116 C 
ENDROOT
BRANCH   1   2
ATOM      2  N   UNL A   1      34.478  31.205  27.431  1.00  0.00    -0.352 N 
ATOM      3  C   UNL A   1      34.391  29.858  27.185  1.00  0.00     0.251 C 
ATOM      4  O   UNL A   1      35.428  29.207  27.327  1.00  0.00    -0.269 OA
ATOM      5  H   UNL A   1      35.399  31.530  27.554  1.00  0.00     0.163 HD
BRANCH   3   6
ATOM      6  C   UNL A   1      33.166  29.163  26.678  1.00  0.00     0.041 A 
ATOM      7  C   UNL A   1      31.246  27.195  25.907  1.00  0.00    -0.030 A 
ATOM      8  C   UNL A   1      31.346  27.672  27.242  1.00  0.00     0.006 A 
ATOM      9  C   UNL A   1      31.877  27.991  24.932  1.00  0.00     0.071 A 
ATOM     10  C   UNL A   1      32.336  28.579  27.626  1.00  0.00     0.014 A 
ATOM     11  C   UNL A   1      32.806  28.977  25.349  1.00  0.00     0.034 A 
BRANCH   7  12
ATOM     12  C   UNL A   1      30.498  25.671  25.677  1.00  0.00     0.033 C 
ATOM     13  C   UNL A   1      31.170  23.603  25.361  1.00  0.00     0.009 C 
ENDBRANCH   7  12
BRANCH   9  14
ATOM     14  S   UNL A   1      31.623  28.007  23.163  1.00  0.00     0.184 S 
ATOM     15  O   UNL A   1      30.187  28.103  22.971  1.00  0.00    -0.223 OA
ATOM     16  O   UNL A   1      32.484  29.063  22.642  1.00  0.00    -0.223 OA
BRANCH  14  17
ATOM     17  C   UNL A   1      32.180  26.551  22.384  1.00  0.00     0.203 C 
BRANCH  17  18
ATOM     18  C   UNL A   1      33.648  26.302  22.610  1.00  0.00     0.279 C 
BRANCH  18  19
ATOM     19  N   UNL A   1      33.838  25.160  23.447  1.00  0.00    -0.334 N 
ATOM     20  C   UNL A   1      34.368  25.335  25.267  1.00  0.00     0.262 C 
ATOM     21  C   UNL A   1      33.974  23.349  22.842  1.00  0.00     0.262 C 
ATOM     22  H   UNL A   1      32.877  25.405  23.207  1.00  0.00     0.348 HD
ATOM     23  C   UNL A   1      35.105  23.567  25.879  1.00  0.00     0.067 C 
ATOM     24  C   UNL A   1      34.867  22.284  24.331  1.00  0.00     0.067 C 
ENDBRANCH  18  19
ENDBRANCH  17  18
ENDBRANCH  14  17
ENDBRANCH   9  14
ENDBRANCH   3   6
ENDBRANCH   1   2
BRANCH   1  25
ATOM     25  C   UNL A   1      33.974  33.365  28.444  1.00  0.00     0.023 C 
BRANCH  25  26
ATOM     26  C   UNL A   1      32.970  34.510  28.589  1.00  0.00     0.023 C 
BRANCH  26  27
ATOM     27  C   UNL A   1      33.507  35.707  29.359  1.00  0.00     0.116 C 
BRANCH  27  28
ATOM     28  N   UNL A   1      32.599  36.179  30.395  1.00  0.00    -0.352 N 
ATOM     29  C   UNL A   1      32.657  35.916  31.741  1.00  0.00     0.251 C 
ATOM     30  H   UNL A   1      31.857  36.752  30.095  1.00  0.00     0.163 HD
ATOM     31  O   UNL A   1      31.770  36.282  32.502  1.00  0.00    -0.269 OA
BRANCH  29  32
ATOM     32  C   UNL A   1      33.803  35.141  32.245  1.00  0.00     0.039 A 
ATOM     33  C   UNL A   1      33.603  33.815  32.628  1.00  0.00     0.014 A 
ATOM     34  C   UNL A   1      35.079  35.711  32.252  1.00  0.00     0.014 A 
ATOM     35  C   UNL A   1      34.705  33.033  32.974  1.00  0.00     0.010 A 
ATOM     36  C   UNL A   1      36.178  34.910  32.519  1.00  0.00     0.010 A 
ATOM     37  C   UNL A   1      36.001  33.568  32.892  1.00  0.00    -0.014 A 
BRANCH  37  38
ATOM     38  C   UNL A   1      37.194  32.758  33.226  1.00  0.00     0.031 A 
ATOM     39  C   UNL A   1      37.914  33.009  34.521  1.00  0.00     0.074 A 
ATOM     40  C   UNL A   1      37.673  31.864  32.340  1.00  0.00     0.049 A 
ATOM     41  N   UNL A   1      39.037  32.498  34.955  1.00  0.00    -0.248 NA
ATOM     42  C   UNL A   1      37.307  33.993  35.434  1.00  0.00     0.031 C 
ATOM     43  C   UNL A   1      37.078  31.554  31.038  1.00  0.00     0.029 A 
ATOM     44  N   UNL A   1      38.781  31.058  32.401  1.00  0.00    -0.354 N 
ATOM     45  C   UNL A   1      39.281  33.115  36.175  1.00  0.00     0.074 A 
ATOM     46  C   UNL A   1      38.222  34.074  36.388  1.00  0.00     0.031 C 
ATOM     47  C   UNL A   1      37.818  30.609  30.432  1.00  0.00     0.029 A 
ATOM     48  C   UNL A   1      38.959  30.281  31.282  1.00  0.00     0.049 A 
ATOM     49  H   UNL A   1      39.392  31.039  33.172  1.00  0.00     0.167 HD
ATOM     50  C   UNL A   1      40.288  32.888  37.049  1.00  0.00     0.031 A 
ATOM     51  C   UNL A   1      39.938  29.410  30.973  1.00  0.00     0.031 A 
ATOM     52  C   UNL A   1      41.329  31.919  36.843  1.00  0.00     0.049 A 
ATOM     53  C   UNL A   1      41.053  29.184  31.957  1.00  0.00     0.074 A 
ATOM     54  C   UNL A   1      42.367  31.574  37.690  1.00  0.00     0.029 A 
ATOM     55  N   UNL A   1      41.460  31.137  35.706  1.00  0.00    -0.354 N 
ATOM     56  N   UNL A   1      41.242  29.734  33.132  1.00  0.00    -0.248 NA
ATOM     57  C   UNL A   1      42.083  28.208  31.577  1.00  0.00     0.031 C 
ATOM     58  C   UNL A   1      43.153  30.616  37.045  1.00  0.00     0.029 A 
ATOM     59  C   UNL A   1      42.570  30.322  35.823  1.00  0.00     0.049 A 
ATOM     60  H   UNL A   1      40.852  31.158  34.931  1.00  0.00     0.167 HD
ATOM     61  C   UNL A   1      42.387  29.143  33.648  1.00  0.00     0.074 A 
ATOM     62  C   UNL A   1      42.848  28.189  32.660  1.00  0.00     0.031 C 
ATOM     63  C   UNL A   1      43.001  29.365  34.836  1.00  0.00     0.031 A 
BRANCH  50  64
ATOM     64  C   UNL A   1      40.311  33.713  38.306  1.00  0.00    -0.014 A 
ATOM     65  C   UNL A   1      40.938  34.969  38.343  1.00  0.00     0.009 A 
ATOM     66  C   UNL A   1      39.674  33.238  39.463  1.00  0.00     0.009 A 
ATOM     67  C   UNL A   1      40.962  35.715  39.523  1.00  0.00     0.001 A 
ATOM     68  C   UNL A   1      39.672  34.000  40.633  1.00  0.00     0.001 A 
ATOM     69  C   UNL A   1      40.325  35.231  40.665  1.00  0.00     0.000 A 
ENDBRANCH  50  64
BRANCH  51  70
ATOM     70  C   UNL A   1      39.904  28.673  29.683  1.00  0.00    -0.014 A 
ATOM     71  C   UNL A   1      39.287  27.415  29.599  1.00  0.00     0.009 A 
ATOM     72  C   UNL A   1      40.493  29.216  28.530  1.00  0.00     0.009 A 
ATOM     73  C   UNL A   1      39.290  26.703  28.397  1.00  0.00     0.001 A 
ATOM     74  C   UNL A   1      40.467  28.516  27.323  1.00  0.00     0.001 A 
ATOM     75  C   UNL A   1      39.876  27.255  27.260  1.00  0.00     0.000 A 
ENDBRANCH  51  70
BRANCH  63  76
ATOM     76  C   UNL A   1      44.200  28.524  35.165  1.00  0.00    -0.014 A 
ATOM     77  C   UNL A   1      45.501  28.942  34.847  1.00  0.00     0.009 A 
ATOM     78  C   UNL A   1      44.023  27.320  35.869  1.00  0.00     0.009 A 
ATOM     79  C   UNL A   1      46.599  28.159  35.206  1.00  0.00     0.001 A 
ATOM     80  C   UNL A   1      45.124  26.555  36.252  1.00  0.00     0.001 A 
ATOM     81  C   UNL A   1      46.411  26.971  35.914  1.00  0.00     0.000 A 
ENDBRANCH  63  76
ENDBRANCH  37  38
ENDBRANCH  29  32
ENDBRANCH  27  28
ENDBRANCH  26  27
ENDBRANCH  25  26
ENDBRANCH   1  25
TORSDOF 16
ENDMDL
MODEL 2
REMARK VINA RESULT:     -10.6      5.693     10.443
REMARK SMILES CCc1ccc(C(=O)NCCCCNC(=O)c2ccc(-c3c4nc(c(-c5ccccc5)c5ccc([nH]5)c(-c5ccccc5)c5nc(c(-c6ccccc6)c6ccc3[nH]6)C=C5)C=C4)cc2)cc1S(=O)(=O)CC[NH+]1CCCC1
REMARK SMILES IDX 10 1 9 2 7 3 8 4 6 6 3 7 4 8 66 9 5 10 65 11 2 12 1 13 67 14
REMARK SMILES IDX 68 15 69 16 70 17 71 18 72 19 73 20 76 21 74 23 75 24 11 25
REMARK SMILES IDX 12 26 13 27 14 28 15 29 16 31 17 32 18 33 64 34 19 35 63 36
REMARK SMILES IDX 20 37 21 38 22 39 57 40 23 41 62 42 56 43 58 44 24 45 61 46
REMARK SMILES IDX 55 47 54 48 25 50 47 51 32 52 46 53 33 54 36 55 45 56 59 57
REMARK SMILES IDX 34 58 35 59 44 61 60 62 37 63 26 64 27 65 31 66 28 67 30 68
REMARK SMILES IDX 29 69 48 70 49 71 53 72 50 73 52 74 51 75 38 76 39 77 43 78
REMARK SMILES IDX 40 79 42 80 41 81
REMARK H PARENT 9 5 72 22 14 30 58 49 36 60
REMARK Flexibility Score: inf
ROOT
ATOM      1  C   UNL A   1      39.239  22.920  26.313  1.00  0.00     0.116 C 
ENDROOT
BRANCH   1   2
ATOM      2  N   UNL A   1      38.768  21.836  25.479  1.00  0.00    -0.352 N 
ATOM      3  C   UNL A   1      37.526  21.532  24.983  1.00  0.00     0.251 C 
ATOM      4  O   UNL A   1      37.407  20.431  24.441  1.00  0.00    -0.269 OA
ATOM      5  H   UNL A   1      39.471  21.198  25.218  1.00  0.00     0.163 HD
BRANCH   3   6
ATOM      6  C   UNL A   1      36.359  22.469  24.977  1.00  0.00     0.041 A 
ATOM      7  C   UNL A   1      33.848  23.732  25.483  1.00  0.00    -0.030 A 
ATOM      8  C   UNL A   1      34.981  23.943  26.313  1.00  0.00     0.006 A 
ATOM      9  C   UNL A   1      34.120  23.175  24.218  1.00  0.00     0.071 A 
ATOM     10  C   UNL A   1      36.184  23.264  26.103  1.00  0.00     0.014 A 
ATOM     11  C   UNL A   1      35.386  22.578  23.991  1.00  0.00     0.034 A 
BRANCH   7  12
ATOM     12  C   UNL A   1      32.310  24.053  26.166  1.00  0.00     0.033 C 
ATOM     13  C   UNL A   1      30.869  25.711  26.125  1.00  0.00     0.009 C 
ENDBRANCH   7  12
BRANCH   9  14
ATOM     14  S   UNL A   1      33.096  23.167  22.754  1.00  0.00     0.184 S 
ATOM     15  O   UNL A   1      32.065  24.161  22.988  1.00  0.00    -0.223 OA
ATOM     16  O   UNL A   1      34.005  23.335  21.626  1.00  0.00    -0.223 OA
BRANCH  14  17
ATOM     17  C   UNL A   1      32.319  21.632  22.478  1.00  0.00     0.203 C 
BRANCH  17  18
ATOM     18  C   UNL A   1      31.910  20.954  23.759  1.00  0.00     0.279 C 
BRANCH  18  19
ATOM     19  N   UNL A   1      32.546  19.680  23.874  1.00  0.00    -0.334 N 
ATOM     20  C   UNL A   1      34.030  19.406  25.035  1.00  0.00     0.262 C 
ATOM     21  C   UNL A   1      32.303  18.205  22.678  1.00  0.00     0.262 C 
ATOM     22  H   UNL A   1      31.623  19.778  24.299  1.00  0.00     0.348 HD
ATOM     23  C   UNL A   1      34.980  17.732  24.454  1.00  0.00     0.067 C 
ATOM     24  C   UNL A   1      33.889  16.953  22.938  1.00  0.00     0.067 C 
ENDBRANCH  18  19
ENDBRANCH  17  18
ENDBRANCH  14  17
ENDBRANCH   9  14
ENDBRANCH   3   6
ENDBRANCH   1   2
BRANCH   1  25
ATOM     25  C   UNL A   1      40.346  22.422  27.244  1.00  0.00     0.023 C 
BRANCH  25  26
ATOM     26  C   UNL A   1      40.645  20.932  27.077  1.00  0.00     0.023 C 
BRANCH  26  27
ATOM     27  C   UNL A   1      42.083  20.551  27.399  1.00  0.00     0.116 C 
BRANCH  27  28
ATOM     28  N   UNL A   1      42.857  20.182  26.221  1.00  0.00    -0.352 N 
ATOM     29  C   UNL A   1      43.631  21.000  25.439  1.00  0.00     0.251 C 
ATOM     30  H   UNL A   1      42.818  19.234  25.956  1.00  0.00     0.163 HD
ATOM     31  O   UNL A   1      44.151  20.593  24.407  1.00  0.00    -0.269 OA
BRANCH  29  32
ATOM     32  C   UNL A   1      43.792  22.404  25.853  1.00  0.00     0.039 A 
ATOM     33  C   UNL A   1      43.342  23.414  25.002  1.00  0.00     0.014 A 
ATOM     34  C   UNL A   1      44.307  22.701  27.118  1.00  0.00     0.014 A 
ATOM     35  C   UNL A   1      43.362  24.735  25.445  1.00  0.00     0.010 A 
ATOM     36  C   UNL A   1      44.252  24.005  27.584  1.00  0.00     0.010 A 
ATOM     37  C   UNL A   1      43.789  25.035  26.749  1.00  0.00    -0.014 A 
BRANCH  37  38
ATOM     38  C   UNL A   1      43.798  26.424  27.261  1.00  0.00     0.031 A 
ATOM     39  C   UNL A   1      45.108  27.142  27.415  1.00  0.00     0.074 A 
ATOM     40  C   UNL A   1      42.650  27.004  27.658  1.00  0.00     0.049 A 
ATOM     41  N   UNL A   1      45.352  28.312  27.946  1.00  0.00    -0.248 NA
ATOM     42  C   UNL A   1      46.309  26.435  26.937  1.00  0.00     0.031 C 
ATOM     43  C   UNL A   1      41.319  26.396  27.585  1.00  0.00     0.029 A 
ATOM     44  N   UNL A   1      42.422  28.237  28.214  1.00  0.00    -0.354 N 
ATOM     45  C   UNL A   1      46.731  28.467  27.890  1.00  0.00     0.074 A 
ATOM     46  C   UNL A   1      47.275  27.255  27.322  1.00  0.00     0.031 C 
ATOM     47  C   UNL A   1      40.412  27.268  28.060  1.00  0.00     0.029 A 
ATOM     48  C   UNL A   1      41.102  28.474  28.509  1.00  0.00     0.049 A 
ATOM     49  H   UNL A   1      43.138  28.891  28.387  1.00  0.00     0.167 HD
ATOM     50  C   UNL A   1      47.477  29.534  28.261  1.00  0.00     0.031 A 
ATOM     51  C   UNL A   1      40.516  29.539  29.087  1.00  0.00     0.031 A 
ATOM     52  C   UNL A   1      46.930  30.746  28.806  1.00  0.00     0.049 A 
ATOM     53  C   UNL A   1      41.368  30.708  29.500  1.00  0.00     0.074 A 
ATOM     54  C   UNL A   1      47.593  31.905  29.165  1.00  0.00     0.029 A 
ATOM     55  N   UNL A   1      45.585  30.953  29.068  1.00  0.00    -0.354 N 
ATOM     56  N   UNL A   1      42.665  30.865  29.389  1.00  0.00    -0.248 NA
ATOM     57  C   UNL A   1      40.673  31.852  30.106  1.00  0.00     0.031 C 
ATOM     58  C   UNL A   1      46.654  32.798  29.688  1.00  0.00     0.029 A 
ATOM     59  C   UNL A   1      45.400  32.216  29.599  1.00  0.00     0.049 A 
ATOM     60  H   UNL A   1      44.868  30.298  28.900  1.00  0.00     0.167 HD
ATOM     61  C   UNL A   1      42.936  32.137  29.874  1.00  0.00     0.074 A 
ATOM     62  C   UNL A   1      41.668  32.712  30.275  1.00  0.00     0.031 C 
ATOM     63  C   UNL A   1      44.127  32.776  29.974  1.00  0.00     0.031 A 
BRANCH  50  64
ATOM     64  C   UNL A   1      48.966  29.428  28.091  1.00  0.00    -0.014 A 
ATOM     65  C   UNL A   1      49.782  28.918  29.115  1.00  0.00     0.009 A 
ATOM     66  C   UNL A   1      49.561  29.819  26.882  1.00  0.00     0.009 A 
ATOM     67  C   UNL A   1      51.166  28.840  28.945  1.00  0.00     0.001 A 
ATOM     68  C   UNL A   1      50.941  29.710  26.704  1.00  0.00     0.001 A 
ATOM     69  C   UNL A   1      51.743  29.232  27.738  1.00  0.00     0.000 A 
ENDBRANCH  50  64
BRANCH  51  70
ATOM     70  C   UNL A   1      39.044  29.562  29.295  1.00  0.00    -0.014 A 
ATOM     71  C   UNL A   1      38.494  29.150  30.519  1.00  0.00     0.009 A 
ATOM     72  C   UNL A   1      38.181  29.985  28.274  1.00  0.00     0.009 A 
ATOM     73  C   UNL A   1      37.109  29.131  30.704  1.00  0.00     0.001 A 
ATOM     74  C   UNL A   1      36.798  29.995  28.471  1.00  0.00     0.001 A 
ATOM     75  C   UNL A   1      36.263  29.557  29.681  1.00  0.00     0.000 A 
ENDBRANCH  51  70
BRANCH  63  76
ATOM     76  C   UNL A   1      44.115  34.190  30.480  1.00  0.00    -0.014 A 
ATOM     77  C   UNL A   1      43.972  35.280  29.609  1.00  0.00     0.009 A 
ATOM     78  C   UNL A   1      44.181  34.425  31.864  1.00  0.00     0.009 A 
ATOM     79  C   UNL A   1      43.920  36.581  30.113  1.00  0.00     0.001 A 
ATOM     80  C   UNL A   1      44.098  35.723  32.366  1.00  0.00     0.001 A 
ATOM     81  C   UNL A   1      43.975  36.801  31.490  1.00  0.00     0.000 A 
ENDBRANCH  63  76
ENDBRANCH  37  38
ENDBRANCH  29  32
ENDBRANCH  27  28
ENDBRANCH  26  27
ENDBRANCH  25  26
ENDBRANCH   1  25
TORSDOF 16
ENDMDL
MODEL 3
REMARK VINA RESULT:     -10.4      2.264      6.628
REMARK SMILES CCc1ccc(C(=O)NCCCCNC(=O)c2ccc(-c3c4nc(c(-c5ccccc5)c5ccc([nH]5)c(-c5ccccc5)c5nc(c(-c6ccccc6)c6ccc3[nH]6)C=C5)C=C4)cc2)cc1S(=O)(=O)CC[NH+]1CCCC1
REMARK SMILES IDX 10 1 9 2 7 3 8 4 6 6 3 7 4 8 66 9 5 10 65 11 2 12 1 13 67 14
REMARK SMILES IDX 68 15 69 16 70 17 71 18 72 19 73 20 76 21 74 23 75 24 11 25
REMARK SMILES IDX 12 26 13 27 14 28 15 29 16 31 17 32 18 33 64 34 19 35 63 36
REMARK SMILES IDX 20 37 21 38 22 39 57 40 23 41 62 42 56 43 58 44 24 45 61 46
REMARK SMILES IDX 55 47 54 48 25 50 47 51 32 52 46 53 33 54 36 55 45 56 59 57
REMARK SMILES IDX 34 58 35 59 44 61 60 62 37 63 26 64 27 65 31 66 28 67 30 68
REMARK SMILES IDX 29 69 48 70 49 71 53 72 50 73 52 74 51 75 38 76 39 77 43 78
REMARK SMILES IDX 40 79 42 80 41 81
REMARK H PARENT 9 5 72 22 14 30 58 49 36 60
REMARK Flexibility Score: inf
ROOT
ATOM      1  C   UNL A   1      33.350  29.451  26.523  1.00  0.00     0.116 C 
ENDROOT
BRANCH   1   2
ATOM      2  N   UNL A   1      33.730  29.678  25.145  1.00  0.00    -0.352 N 
ATOM      3  C   UNL A   1      33.403  29.026  23.984  1.00  0.00     0.251 C 
ATOM      4  O   UNL A   1      34.034  29.353  22.976  1.00  0.00    -0.269 OA
ATOM      5  H   UNL A   1      34.335  30.444  25.018  1.00  0.00     0.163 HD
BRANCH   3   6
ATOM      6  C   UNL A   1      32.292  28.032  23.849  1.00  0.00     0.041 A 
ATOM      7  C   UNL A   1      29.737  26.757  23.811  1.00  0.00    -0.030 A 
ATOM      8  C   UNL A   1      30.233  27.491  22.700  1.00  0.00     0.006 A 
ATOM      9  C   UNL A   1      30.700  26.388  24.770  1.00  0.00     0.071 A 
ATOM     10  C   UNL A   1      31.450  28.173  22.754  1.00  0.00     0.014 A 
ATOM     11  C   UNL A   1      31.969  27.022  24.746  1.00  0.00     0.034 A 
BRANCH   7  12
ATOM     12  C   UNL A   1      28.041  26.535  23.905  1.00  0.00     0.033 C 
ATOM     13  C   UNL A   1      26.265  27.829  23.866  1.00  0.00     0.009 C 
ENDBRANCH   7  12
BRANCH   9  14
ATOM     14  S   UNL A   1      30.598  25.128  26.033  1.00  0.00     0.184 S 
ATOM     15  O   UNL A   1      31.622  25.460  27.007  1.00  0.00    -0.223 OA
ATOM     16  O   UNL A   1      29.201  25.091  26.452  1.00  0.00    -0.223 OA
BRANCH  14  17
ATOM     17  C   UNL A   1      30.925  23.528  25.424  1.00  0.00     0.203 C 
BRANCH  17  18
ATOM     18  C   UNL A   1      32.031  22.839  26.179  1.00  0.00     0.279 C 
BRANCH  18  19
ATOM     19  N   UNL A   1      33.275  22.998  25.496  1.00  0.00    -0.334 N 
ATOM     20  C   UNL A   1      34.061  21.571  24.510  1.00  0.00     0.262 C 
ATOM     21  C   UNL A   1      34.504  24.444  25.748  1.00  0.00     0.262 C 
ATOM     22  H   UNL A   1      32.462  23.462  25.092  1.00  0.00     0.348 HD
ATOM     23  C   UNL A   1      36.011  21.988  24.250  1.00  0.00     0.067 C 
ATOM     24  C   UNL A   1      36.313  23.824  25.046  1.00  0.00     0.067 C 
ENDBRANCH  18  19
ENDBRANCH  17  18
ENDBRANCH  14  17
ENDBRANCH   9  14
ENDBRANCH   3   6
ENDBRANCH   1   2
BRANCH   1  25
ATOM     25  C   UNL A   1      33.751  30.652  27.381  1.00  0.00     0.023 C 
BRANCH  25  26
ATOM     26  C   UNL A   1      32.613  31.653  27.582  1.00  0.00     0.023 C 
BRANCH  26  27
ATOM     27  C   UNL A   1      32.875  33.018  26.962  1.00  0.00     0.116 C 
BRANCH  27  28
ATOM     28  N   UNL A   1      32.538  34.125  27.845  1.00  0.00    -0.352 N 
ATOM     29  C   UNL A   1      33.221  34.545  28.958  1.00  0.00     0.251 C 
ATOM     30  H   UNL A   1      31.724  34.630  27.618  1.00  0.00     0.163 HD
ATOM     31  O   UNL A   1      32.778  35.425  29.686  1.00  0.00    -0.269 OA
BRANCH  29  32
ATOM     32  C   UNL A   1      34.493  33.878  29.281  1.00  0.00     0.039 A 
ATOM     33  C   UNL A   1      35.645  34.247  28.586  1.00  0.00     0.014 A 
ATOM     34  C   UNL A   1      34.547  32.955  30.329  1.00  0.00     0.014 A 
ATOM     35  C   UNL A   1      36.875  33.722  28.980  1.00  0.00     0.010 A 
ATOM     36  C   UNL A   1      35.779  32.497  30.768  1.00  0.00     0.010 A 
ATOM     37  C   UNL A   1      36.953  32.868  30.091  1.00  0.00    -0.014 A 
BRANCH  37  38
ATOM     38  C   UNL A   1      38.246  32.315  30.553  1.00  0.00     0.031 A 
ATOM     39  C   UNL A   1      38.746  31.026  29.964  1.00  0.00     0.074 A 
ATOM     40  C   UNL A   1      38.923  32.920  31.546  1.00  0.00     0.049 A 
ATOM     41  N   UNL A   1      39.788  30.312  30.303  1.00  0.00    -0.248 NA
ATOM     42  C   UNL A   1      37.948  30.446  28.870  1.00  0.00     0.031 C 
ATOM     43  C   UNL A   1      38.524  34.160  32.217  1.00  0.00     0.029 A 
ATOM     44  N   UNL A   1      40.090  32.565  32.173  1.00  0.00    -0.354 N 
ATOM     45  C   UNL A   1      39.754  29.191  29.484  1.00  0.00     0.074 A 
ATOM     46  C   UNL A   1      38.564  29.291  28.670  1.00  0.00     0.031 C 
ATOM     47  C   UNL A   1      39.442  34.471  33.148  1.00  0.00     0.029 A 
ATOM     48  C   UNL A   1      40.468  33.432  33.168  1.00  0.00     0.049 A 
ATOM     49  H   UNL A   1      40.608  31.762  31.933  1.00  0.00     0.167 HD
ATOM     50  C   UNL A   1      40.646  28.177  29.404  1.00  0.00     0.031 A 
ATOM     51  C   UNL A   1      41.519  33.389  34.009  1.00  0.00     0.031 A 
ATOM     52  C   UNL A   1      41.839  28.090  30.201  1.00  0.00     0.049 A 
ATOM     53  C   UNL A   1      42.490  32.245  33.907  1.00  0.00     0.074 A 
ATOM     54  C   UNL A   1      42.835  27.132  30.160  1.00  0.00     0.029 A 
ATOM     55  N   UNL A   1      42.196  29.002  31.181  1.00  0.00    -0.354 N 
ATOM     56  N   UNL A   1      42.477  31.220  33.090  1.00  0.00    -0.248 NA
ATOM     57  C   UNL A   1      43.629  32.259  34.836  1.00  0.00     0.031 C 
ATOM     58  C   UNL A   1      43.773  27.438  31.150  1.00  0.00     0.029 A 
ATOM     59  C   UNL A   1      43.390  28.620  31.765  1.00  0.00     0.049 A 
ATOM     60  H   UNL A   1      41.677  29.803  31.426  1.00  0.00     0.167 HD
ATOM     61  C   UNL A   1      43.622  30.490  33.378  1.00  0.00     0.074 A 
ATOM     62  C   UNL A   1      44.310  31.192  34.442  1.00  0.00     0.031 C 
ATOM     63  C   UNL A   1      44.068  29.343  32.809  1.00  0.00     0.031 A 
BRANCH  50  64
ATOM     64  C   UNL A   1      40.355  27.077  28.421  1.00  0.00    -0.014 A 
ATOM     65  C   UNL A   1      39.567  25.970  28.777  1.00  0.00     0.009 A 
ATOM     66  C   UNL A   1      40.855  27.161  27.112  1.00  0.00     0.009 A 
ATOM     67  C   UNL A   1      39.320  24.951  27.855  1.00  0.00     0.001 A 
ATOM     68  C   UNL A   1      40.579  26.156  26.183  1.00  0.00     0.001 A 
ATOM     69  C   UNL A   1      39.822  25.048  26.558  1.00  0.00     0.000 A 
ENDBRANCH  50  64
BRANCH  51  70
ATOM     70  C   UNL A   1      41.719  34.468  35.012  1.00  0.00    -0.014 A 
ATOM     71  C   UNL A   1      41.157  34.360  36.293  1.00  0.00     0.009 A 
ATOM     72  C   UNL A   1      42.465  35.613  34.694  1.00  0.00     0.009 A 
ATOM     73  C   UNL A   1      41.310  35.392  37.224  1.00  0.00     0.001 A 
ATOM     74  C   UNL A   1      42.642  36.629  35.635  1.00  0.00     0.001 A 
ATOM     75  C   UNL A   1      42.055  36.523  36.895  1.00  0.00     0.000 A 
ENDBRANCH  51  70
BRANCH  63  76
ATOM     76  C   UNL A   1      45.389  28.805  33.278  1.00  0.00    -0.014 A 
ATOM     77  C   UNL A   1      45.472  27.867  34.318  1.00  0.00     0.009 A 
ATOM     78  C   UNL A   1      46.565  29.197  32.616  1.00  0.00     0.009 A 
ATOM     79  C   UNL A   1      46.712  27.351  34.702  1.00  0.00     0.001 A 
ATOM     80  C   UNL A   1      47.797  28.658  32.982  1.00  0.00     0.001 A 
ATOM     81  C   UNL A   1      47.871  27.740  34.029  1.00  0.00     0.000 A 
ENDBRANCH  63  76
ENDBRANCH  37  38
ENDBRANCH  29  32
ENDBRANCH  27  28
ENDBRANCH  26  27
ENDBRANCH  25  26
ENDBRANCH   1  25
TORSDOF 16
ENDMDL
