MODEL 1
REMARK VINA RESULT:     -12.0      0.000      0.000
REMARK SMILES Cc1ccccc1NC(=O)NC[C@@H]1CC[C@@H](C(=O)NCCCCNC(=O)c2ccc(-c3c4nc(c(-c5ccccc5)c5ccc([nH]5)c(-c5ccccc5)c5nc(c(-c6ccccc6)c6ccc3[nH]6)C=C5)C=C4)cc2)O1
REMARK SMILES IDX 21 1 20 2 19 3 17 4 18 5 16 7 13 8 14 9 75 10 15 11 12 12
REMARK SMILES IDX 11 13 8 14 9 15 10 17 7 19 1 20 2 21 3 22 4 23 6 24 5 25
REMARK SMILES IDX 22 26 23 27 24 28 25 29 26 31 27 32 28 33 74 34 29 35 73 36
REMARK SMILES IDX 30 37 31 38 32 39 67 40 33 41 72 42 66 43 68 44 34 45 71 46
REMARK SMILES IDX 65 47 64 48 35 50 57 51 42 52 56 53 43 54 46 55 55 56 69 57
REMARK SMILES IDX 44 58 45 59 54 61 70 62 47 63 36 64 37 65 41 66 38 67 40 68
REMARK SMILES IDX 39 69 58 70 59 71 63 72 60 73 62 74 61 75 48 76 49 77 53 78
REMARK SMILES IDX 50 79 52 80 51 81
REMARK H PARENT 19 6 8 16 11 18 24 30 68 49 46 60
REMARK Flexibility Score: inf
ROOT
ATOM      1  C   UNL A   1      34.125  28.609  26.873  1.00  0.00     0.023 C 
ENDROOT
BRANCH   1   2
ATOM      2  C   UNL A   1      33.218  27.880  25.863  1.00  0.00     0.116 C 
BRANCH   2   3
ATOM      3  N   UNL A   1      32.274  26.976  26.502  1.00  0.00    -0.354 N 
ATOM      4  C   UNL A   1      31.530  25.927  26.040  1.00  0.00     0.249 C 
ATOM      5  O   UNL A   1      30.800  25.380  26.874  1.00  0.00    -0.272 OA
ATOM      6  H   UNL A   1      32.146  27.155  27.461  1.00  0.00     0.163 HD
BRANCH   4   7
ATOM      7  C   UNL A   1      31.640  25.394  24.590  1.00  0.00     0.207 C 
ATOM      8  C   UNL A   1      31.760  23.127  23.984  1.00  0.00     0.138 C 
ATOM      9  C   UNL A   1      30.757  23.802  23.076  1.00  0.00     0.037 C 
ATOM     10  O   UNL A   1      32.528  24.240  24.492  1.00  0.00    -0.363 OA
ATOM     11  C   UNL A   1      30.337  24.948  23.951  1.00  0.00     0.045 C 
BRANCH   8  12
ATOM     12  C   UNL A   1      32.608  22.058  23.269  1.00  0.00     0.149 C 
BRANCH  12  13
ATOM     13  N   UNL A   1      32.452  20.748  23.900  1.00  0.00    -0.335 N 
ATOM     14  N   UNL A   1      34.017  20.434  25.704  1.00  0.00    -0.308 N 
ATOM     15  C   UNL A   1      32.949  20.108  24.961  1.00  0.00     0.319 C 
ATOM     16  H   UNL A   1      33.992  19.960  26.567  1.00  0.00     0.171 HD
ATOM     17  O   UNL A   1      32.314  19.113  25.336  1.00  0.00    -0.249 OA
ATOM     18  H   UNL A   1      31.808  20.187  23.411  1.00  0.00     0.165 HD
BRANCH  14  19
ATOM     19  C   UNL A   1      35.162  21.248  25.625  1.00  0.00     0.045 A 
ATOM     20  C   UNL A   1      34.127  23.005  27.210  1.00  0.00     0.046 C 
ATOM     21  C   UNL A   1      35.185  22.513  26.257  1.00  0.00    -0.027 A 
ATOM     22  C   UNL A   1      36.313  23.350  26.102  1.00  0.00     0.005 A 
ATOM     23  C   UNL A   1      37.414  22.944  25.357  1.00  0.00     0.000 A 
ATOM     24  C   UNL A   1      36.328  20.822  25.007  1.00  0.00     0.026 A 
ATOM     25  C   UNL A   1      37.432  21.664  24.834  1.00  0.00     0.002 A 
ENDBRANCH  14  19
ENDBRANCH  12  13
ENDBRANCH   8  12
ENDBRANCH   4   7
ENDBRANCH   2   3
ENDBRANCH   1   2
BRANCH   1  26
ATOM     26  C   UNL A   1      33.456  29.751  27.649  1.00  0.00     0.023 C 
BRANCH  26  27
ATOM     27  C   UNL A   1      34.013  31.126  27.313  1.00  0.00     0.116 C 
BRANCH  27  28
ATOM     28  N   UNL A   1      34.629  31.832  28.434  1.00  0.00    -0.352 N 
ATOM     29  C   UNL A   1      35.677  31.428  29.245  1.00  0.00     0.251 C 
ATOM     30  H   UNL A   1      34.247  32.715  28.643  1.00  0.00     0.163 HD
ATOM     31  O   UNL A   1      36.035  32.119  30.193  1.00  0.00    -0.269 OA
BRANCH  29  32
ATOM     32  C   UNL A   1      36.464  30.229  28.864  1.00  0.00     0.039 A 
ATOM     33  C   UNL A   1      36.633  29.240  29.837  1.00  0.00     0.014 A 
ATOM     34  C   UNL A   1      37.251  30.233  27.715  1.00  0.00     0.014 A 
ATOM     35  C   UNL A   1      37.779  28.453  29.804  1.00  0.00     0.010 A 
ATOM     36  C   UNL A   1      38.440  29.530  27.738  1.00  0.00     0.010 A 
ATOM     37  C   UNL A   1      38.741  28.712  28.832  1.00  0.00    -0.014 A 
BRANCH  37  38
ATOM     38  C   UNL A   1      40.139  28.318  28.979  1.00  0.00     0.031 A 
ATOM     39  C   UNL A   1      40.610  27.015  28.479  1.00  0.00     0.074 A 
ATOM     40  C   UNL A   1      41.023  29.182  29.533  1.00  0.00     0.049 A 
ATOM     41  N   UNL A   1      41.729  26.478  28.828  1.00  0.00    -0.248 NA
ATOM     42  C   UNL A   1      39.807  26.157  27.611  1.00  0.00     0.031 C 
ATOM     43  C   UNL A   1      42.482  29.110  29.514  1.00  0.00     0.029 A 
ATOM     44  N   UNL A   1      40.741  30.186  30.461  1.00  0.00    -0.354 N 
ATOM     45  C   UNL A   1      41.930  25.386  28.026  1.00  0.00     0.074 A 
ATOM     46  C   UNL A   1      40.659  25.151  27.388  1.00  0.00     0.031 C 
ATOM     47  C   UNL A   1      42.963  29.817  30.549  1.00  0.00     0.029 A 
ATOM     48  C   UNL A   1      41.831  30.240  31.352  1.00  0.00     0.049 A 
ATOM     49  H   UNL A   1      39.934  30.748  30.488  1.00  0.00     0.167 HD
ATOM     50  C   UNL A   1      43.189  24.885  27.902  1.00  0.00     0.031 A 
ATOM     51  C   UNL A   1      41.655  29.943  32.675  1.00  0.00     0.031 A 
ATOM     52  C   UNL A   1      44.090  25.411  28.932  1.00  0.00     0.049 A 
ATOM     53  C   UNL A   1      42.404  28.711  33.151  1.00  0.00     0.074 A 
ATOM     54  C   UNL A   1      45.183  26.260  28.949  1.00  0.00     0.029 A 
ATOM     55  N   UNL A   1      43.734  25.224  30.260  1.00  0.00    -0.354 N 
ATOM     56  N   UNL A   1      43.151  27.956  32.392  1.00  0.00    -0.248 NA
ATOM     57  C   UNL A   1      42.284  28.179  34.510  1.00  0.00     0.031 C 
ATOM     58  C   UNL A   1      45.458  26.600  30.311  1.00  0.00     0.029 A 
ATOM     59  C   UNL A   1      44.552  25.935  31.114  1.00  0.00     0.049 A 
ATOM     60  H   UNL A   1      42.989  24.654  30.557  1.00  0.00     0.167 HD
ATOM     61  C   UNL A   1      43.560  26.856  33.100  1.00  0.00     0.074 A 
ATOM     62  C   UNL A   1      42.995  27.041  34.424  1.00  0.00     0.031 C 
ATOM     63  C   UNL A   1      44.293  25.849  32.542  1.00  0.00     0.031 A 
BRANCH  50  64
ATOM     64  C   UNL A   1      43.648  24.024  26.747  1.00  0.00    -0.014 A 
ATOM     65  C   UNL A   1      43.456  22.632  26.799  1.00  0.00     0.009 A 
ATOM     66  C   UNL A   1      44.368  24.497  25.634  1.00  0.00     0.009 A 
ATOM     67  C   UNL A   1      43.966  21.773  25.813  1.00  0.00     0.001 A 
ATOM     68  C   UNL A   1      44.857  23.650  24.629  1.00  0.00     0.001 A 
ATOM     69  C   UNL A   1      44.664  22.283  24.724  1.00  0.00     0.000 A 
ENDBRANCH  50  64
BRANCH  51  70
ATOM     70  C   UNL A   1      40.342  30.411  33.204  1.00  0.00    -0.014 A 
ATOM     71  C   UNL A   1      40.123  31.802  33.297  1.00  0.00     0.009 A 
ATOM     72  C   UNL A   1      39.234  29.555  33.263  1.00  0.00     0.009 A 
ATOM     73  C   UNL A   1      38.827  32.324  33.315  1.00  0.00     0.001 A 
ATOM     74  C   UNL A   1      37.938  30.083  33.298  1.00  0.00     0.001 A 
ATOM     75  C   UNL A   1      37.734  31.463  33.285  1.00  0.00     0.000 A 
ENDBRANCH  51  70
BRANCH  63  76
ATOM     76  C   UNL A   1      44.788  24.648  33.304  1.00  0.00    -0.014 A 
ATOM     77  C   UNL A   1      46.126  24.495  33.694  1.00  0.00     0.009 A 
ATOM     78  C   UNL A   1      43.924  23.559  33.544  1.00  0.00     0.009 A 
ATOM     79  C   UNL A   1      46.563  23.335  34.349  1.00  0.00     0.001 A 
ATOM     80  C   UNL A   1      44.360  22.392  34.175  1.00  0.00     0.001 A 
ATOM     81  C   UNL A   1      45.680  22.285  34.590  1.00  0.00     0.000 A 
ENDBRANCH  63  76
ENDBRANCH  37  38
ENDBRANCH  29  32
ENDBRANCH  27  28
ENDBRANCH  26  27
ENDBRANCH   1  26
TORSDOF 14
ENDMDL
MODEL 2
REMARK VINA RESULT:     -11.9      2.953      8.255
REMARK SMILES Cc1ccccc1NC(=O)NC[C@@H]1CC[C@@H](C(=O)NCCCCNC(=O)c2ccc(-c3c4nc(c(-c5ccccc5)c5ccc([nH]5)c(-c5ccccc5)c5nc(c(-c6ccccc6)c6ccc3[nH]6)C=C5)C=C4)cc2)O1
REMARK SMILES IDX 21 1 20 2 19 3 17 4 18 5 16 7 13 8 14 9 75 10 15 11 12 12
REMARK SMILES IDX 11 13 8 14 9 15 10 17 7 19 1 20 2 21 3 22 4 23 6 24 5 25
REMARK SMILES IDX 22 26 23 27 24 28 25 29 26 31 27 32 28 33 74 34 29 35 73 36
REMARK SMILES IDX 30 37 31 38 32 39 67 40 33 41 72 42 66 43 68 44 34 45 71 46
REMARK SMILES IDX 65 47 64 48 35 50 57 51 42 52 56 53 43 54 46 55 55 56 69 57
REMARK SMILES IDX 44 58 45 59 54 61 70 62 47 63 36 64 37 65 41 66 38 67 40 68
REMARK SMILES IDX 39 69 58 70 59 71 63 72 60 73 62 74 61 75 48 76 49 77 53 78
REMARK SMILES IDX 50 79 52 80 51 81
REMARK H PARENT 19 6 8 16 11 18 24 30 68 49 46 60
REMARK Flexibility Score: inf
ROOT
ATOM      1  C   UNL A   1      37.806  23.597  26.114  1.00  0.00     0.023 C 
ENDROOT
BRANCH   1   2
ATOM      2  C   UNL A   1      36.372  23.765  25.576  1.00  0.00     0.116 C 
BRANCH   2   3
ATOM      3  N   UNL A   1      35.531  22.609  25.842  1.00  0.00    -0.354 N 
ATOM      4  C   UNL A   1      34.208  22.471  26.155  1.00  0.00     0.249 C 
ATOM      5  O   UNL A   1      33.818  21.313  26.338  1.00  0.00    -0.272 OA
ATOM      6  H   UNL A   1      36.011  21.752  25.783  1.00  0.00     0.163 HD
BRANCH   4   7
ATOM      7  C   UNL A   1      33.228  23.670  26.204  1.00  0.00     0.207 C 
ATOM      8  C   UNL A   1      31.444  24.025  24.716  1.00  0.00     0.138 C 
ATOM      9  C   UNL A   1      30.936  24.258  26.121  1.00  0.00     0.037 C 
ATOM     10  O   UNL A   1      32.874  24.149  24.871  1.00  0.00    -0.363 OA
ATOM     11  C   UNL A   1      31.902  23.410  26.896  1.00  0.00     0.045 C 
BRANCH   8  12
ATOM     12  C   UNL A   1      30.841  24.992  23.679  1.00  0.00     0.149 C 
BRANCH  12  13
ATOM     13  N   UNL A   1      31.829  25.373  22.672  1.00  0.00    -0.335 N 
ATOM     14  N   UNL A   1      33.416  26.967  23.533  1.00  0.00    -0.308 N 
ATOM     15  C   UNL A   1      32.948  26.100  22.623  1.00  0.00     0.319 C 
ATOM     16  H   UNL A   1      34.372  27.145  23.377  1.00  0.00     0.171 HD
ATOM     17  O   UNL A   1      33.671  25.911  21.635  1.00  0.00    -0.249 OA
ATOM     18  H   UNL A   1      31.611  24.992  21.791  1.00  0.00     0.165 HD
BRANCH  14  19
ATOM     19  C   UNL A   1      32.955  27.700  24.642  1.00  0.00     0.045 A 
ATOM     20  C   UNL A   1      31.243  28.980  23.192  1.00  0.00     0.046 C 
ATOM     21  C   UNL A   1      31.994  28.723  24.473  1.00  0.00    -0.027 A 
ATOM     22  C   UNL A   1      31.600  29.502  25.584  1.00  0.00     0.005 A 
ATOM     23  C   UNL A   1      32.123  29.265  26.850  1.00  0.00     0.000 A 
ATOM     24  C   UNL A   1      33.350  27.404  25.938  1.00  0.00     0.026 A 
ATOM     25  C   UNL A   1      32.978  28.193  27.032  1.00  0.00     0.002 A 
ENDBRANCH  14  19
ENDBRANCH  12  13
ENDBRANCH   8  12
ENDBRANCH   4   7
ENDBRANCH   2   3
ENDBRANCH   1   2
BRANCH   1  26
ATOM     26  C   UNL A   1      38.464  22.244  25.813  1.00  0.00     0.023 C 
BRANCH  26  27
ATOM     27  C   UNL A   1      39.769  22.019  26.561  1.00  0.00     0.116 C 
BRANCH  27  28
ATOM     28  N   UNL A   1      40.581  20.910  26.066  1.00  0.00    -0.352 N 
ATOM     29  C   UNL A   1      41.956  20.751  26.111  1.00  0.00     0.251 C 
ATOM     30  H   UNL A   1      40.082  20.174  25.642  1.00  0.00     0.163 HD
ATOM     31  O   UNL A   1      42.489  19.779  25.587  1.00  0.00    -0.269 OA
BRANCH  29  32
ATOM     32  C   UNL A   1      42.764  21.686  26.932  1.00  0.00     0.039 A 
ATOM     33  C   UNL A   1      42.538  21.685  28.312  1.00  0.00     0.014 A 
ATOM     34  C   UNL A   1      43.476  22.722  26.332  1.00  0.00     0.014 A 
ATOM     35  C   UNL A   1      42.753  22.857  29.029  1.00  0.00     0.010 A 
ATOM     36  C   UNL A   1      43.588  23.917  27.017  1.00  0.00     0.010 A 
ATOM     37  C   UNL A   1      43.137  24.004  28.339  1.00  0.00    -0.014 A 
BRANCH  37  38
ATOM     38  C   UNL A   1      42.925  25.349  28.862  1.00  0.00     0.031 A 
ATOM     39  C   UNL A   1      41.790  26.165  28.400  1.00  0.00     0.074 A 
ATOM     40  C   UNL A   1      43.749  25.832  29.822  1.00  0.00     0.049 A 
ATOM     41  N   UNL A   1      41.705  27.439  28.581  1.00  0.00    -0.248 NA
ATOM     42  C   UNL A   1      40.691  25.625  27.602  1.00  0.00     0.031 C 
ATOM     43  C   UNL A   1      43.552  27.005  30.670  1.00  0.00     0.029 A 
ATOM     44  N   UNL A   1      45.081  25.473  30.039  1.00  0.00    -0.354 N 
ATOM     45  C   UNL A   1      40.444  27.826  28.208  1.00  0.00     0.074 A 
ATOM     46  C   UNL A   1      39.906  26.700  27.487  1.00  0.00     0.031 C 
ATOM     47  C   UNL A   1      44.748  27.431  31.105  1.00  0.00     0.029 A 
ATOM     48  C   UNL A   1      45.763  26.641  30.433  1.00  0.00     0.049 A 
ATOM     49  H   UNL A   1      45.469  24.574  29.936  1.00  0.00     0.167 HD
ATOM     50  C   UNL A   1      39.960  29.013  28.665  1.00  0.00     0.031 A 
ATOM     51  C   UNL A   1      46.762  27.151  29.653  1.00  0.00     0.031 A 
ATOM     52  C   UNL A   1      41.019  29.854  29.230  1.00  0.00     0.049 A 
ATOM     53  C   UNL A   1      46.472  28.522  29.069  1.00  0.00     0.074 A 
ATOM     54  C   UNL A   1      41.355  30.304  30.495  1.00  0.00     0.029 A 
ATOM     55  N   UNL A   1      42.096  30.172  28.416  1.00  0.00    -0.354 N 
ATOM     56  N   UNL A   1      45.364  29.189  29.255  1.00  0.00    -0.248 NA
ATOM     57  C   UNL A   1      47.377  29.205  28.143  1.00  0.00     0.031 C 
ATOM     58  C   UNL A   1      42.666  30.872  30.429  1.00  0.00     0.029 A 
ATOM     59  C   UNL A   1      43.107  30.791  29.122  1.00  0.00     0.049 A 
ATOM     60  H   UNL A   1      42.136  29.978  27.451  1.00  0.00     0.167 HD
ATOM     61  C   UNL A   1      45.373  30.317  28.476  1.00  0.00     0.074 A 
ATOM     62  C   UNL A   1      46.657  30.287  27.800  1.00  0.00     0.031 C 
ATOM     63  C   UNL A   1      44.313  31.172  28.404  1.00  0.00     0.031 A 
BRANCH  50  64
ATOM     64  C   UNL A   1      38.488  29.354  28.738  1.00  0.00    -0.014 A 
ATOM     65  C   UNL A   1      37.813  29.256  29.968  1.00  0.00     0.009 A 
ATOM     66  C   UNL A   1      37.684  29.672  27.628  1.00  0.00     0.009 A 
ATOM     67  C   UNL A   1      36.426  29.445  30.072  1.00  0.00     0.001 A 
ATOM     68  C   UNL A   1      36.304  29.890  27.727  1.00  0.00     0.001 A 
ATOM     69  C   UNL A   1      35.671  29.767  28.951  1.00  0.00     0.000 A 
ENDBRANCH  50  64
BRANCH  51  70
ATOM     70  C   UNL A   1      47.583  26.093  28.997  1.00  0.00    -0.014 A 
ATOM     71  C   UNL A   1      47.284  25.757  27.660  1.00  0.00     0.009 A 
ATOM     72  C   UNL A   1      48.821  25.702  29.523  1.00  0.00     0.009 A 
ATOM     73  C   UNL A   1      48.246  25.164  26.837  1.00  0.00     0.001 A 
ATOM     74  C   UNL A   1      49.776  25.093  28.699  1.00  0.00     0.001 A 
ATOM     75  C   UNL A   1      49.503  24.860  27.351  1.00  0.00     0.000 A 
ENDBRANCH  51  70
BRANCH  63  76
ATOM     76  C   UNL A   1      44.307  32.438  27.588  1.00  0.00    -0.014 A 
ATOM     77  C   UNL A   1      44.100  33.705  28.152  1.00  0.00     0.009 A 
ATOM     78  C   UNL A   1      44.389  32.371  26.182  1.00  0.00     0.009 A 
ATOM     79  C   UNL A   1      44.041  34.854  27.353  1.00  0.00     0.001 A 
ATOM     80  C   UNL A   1      44.307  33.512  25.379  1.00  0.00     0.001 A 
ATOM     81  C   UNL A   1      44.145  34.758  25.968  1.00  0.00     0.000 A 
ENDBRANCH  63  76
ENDBRANCH  37  38
ENDBRANCH  29  32
ENDBRANCH  27  28
ENDBRANCH  26  27
ENDBRANCH   1  26
TORSDOF 14
ENDMDL
MODEL 3
REMARK VINA RESULT:     -11.8      1.482      1.951
REMARK SMILES Cc1ccccc1NC(=O)NC[C@@H]1CC[C@@H](C(=O)NCCCCNC(=O)c2ccc(-c3c4nc(c(-c5ccccc5)c5ccc([nH]5)c(-c5ccccc5)c5nc(c(-c6ccccc6)c6ccc3[nH]6)C=C5)C=C4)cc2)O1
REMARK SMILES IDX 21 1 20 2 19 3 17 4 18 5 16 7 13 8 14 9 75 10 15 11 12 12
REMARK SMILES IDX 11 13 8 14 9 15 10 17 7 19 1 20 2 21 3 22 4 23 6 24 5 25
REMARK SMILES IDX 22 26 23 27 24 28 25 29 26 31 27 32 28 33 74 34 29 35 73 36
REMARK SMILES IDX 30 37 31 38 32 39 67 40 33 41 72 42 66 43 68 44 34 45 71 46
REMARK SMILES IDX 65 47 64 48 35 50 57 51 42 52 56 53 43 54 46 55 55 56 69 57
REMARK SMILES IDX 44 58 45 59 54 61 70 62 47 63 36 64 37 65 41 66 38 67 40 68
REMARK SMILES IDX 39 69 58 70 59 71 63 72 60 73 62 74 61 75 48 76 49 77 53 78
REMARK SMILES IDX 50 79 52 80 51 81
REMARK H PARENT 19 6 8 16 11 18 24 30 68 49 46 60
REMARK Flexibility Score: inf
ROOT
ATOM      1  C   UNL A   1      31.811  30.615  26.101  1.00  0.00     0.023 C 
ENDROOT
BRANCH   1   2
ATOM      2  C   UNL A   1      32.489  29.267  25.788  1.00  0.00     0.116 C 
BRANCH   2   3
ATOM      3  N   UNL A   1      33.325  29.318  24.599  1.00  0.00    -0.354 N 
ATOM      4  C   UNL A   1      33.196  28.790  23.346  1.00  0.00     0.249 C 
ATOM      5  O   UNL A   1      34.129  29.019  22.569  1.00  0.00    -0.272 OA
ATOM      6  H   UNL A   1      34.150  29.839  24.722  1.00  0.00     0.163 HD
BRANCH   4   7
ATOM      7  C   UNL A   1      31.934  28.017  22.886  1.00  0.00     0.207 C 
ATOM      8  C   UNL A   1      30.999  26.168  23.994  1.00  0.00     0.138 C 
ATOM      9  C   UNL A   1      29.877  27.117  23.638  1.00  0.00     0.037 C 
ATOM     10  O   UNL A   1      32.058  26.579  23.103  1.00  0.00    -0.363 OA
ATOM     11  C   UNL A   1      30.636  28.410  23.569  1.00  0.00     0.045 C 
BRANCH   8  12
ATOM     12  C   UNL A   1      30.610  24.683  23.859  1.00  0.00     0.149 C 
BRANCH  12  13
ATOM     13  N   UNL A   1      30.260  24.106  25.155  1.00  0.00    -0.335 N 
ATOM     14  N   UNL A   1      32.218  23.511  26.427  1.00  0.00    -0.308 N 
ATOM     15  C   UNL A   1      30.903  23.717  26.259  1.00  0.00     0.319 C 
ATOM     16  H   UNL A   1      32.443  23.502  27.386  1.00  0.00     0.171 HD
ATOM     17  O   UNL A   1      30.201  23.574  27.270  1.00  0.00    -0.249 OA
ATOM     18  H   UNL A   1      29.289  23.967  25.238  1.00  0.00     0.165 HD
BRANCH  14  19
ATOM     19  C   UNL A   1      33.371  23.305  25.649  1.00  0.00     0.045 A 
ATOM     20  C   UNL A   1      34.035  25.796  25.820  1.00  0.00     0.046 C 
ATOM     21  C   UNL A   1      34.186  24.399  25.276  1.00  0.00    -0.027 A 
ATOM     22  C   UNL A   1      35.297  24.184  24.429  1.00  0.00     0.005 A 
ATOM     23  C   UNL A   1      35.621  22.911  23.974  1.00  0.00     0.000 A 
ATOM     24  C   UNL A   1      33.802  22.037  25.290  1.00  0.00     0.026 A 
ATOM     25  C   UNL A   1      34.887  21.831  24.431  1.00  0.00     0.002 A 
ENDBRANCH  14  19
ENDBRANCH  12  13
ENDBRANCH   8  12
ENDBRANCH   4   7
ENDBRANCH   2   3
ENDBRANCH   1   2
BRANCH   1  26
ATOM     26  C   UNL A   1      32.496  31.457  27.185  1.00  0.00     0.023 C 
BRANCH  26  27
ATOM     27  C   UNL A   1      33.859  30.924  27.601  1.00  0.00     0.116 C 
BRANCH  27  28
ATOM     28  N   UNL A   1      34.607  31.788  28.511  1.00  0.00    -0.352 N 
ATOM     29  C   UNL A   1      35.774  31.515  29.206  1.00  0.00     0.251 C 
ATOM     30  H   UNL A   1      34.230  32.687  28.651  1.00  0.00     0.163 HD
ATOM     31  O   UNL A   1      36.241  32.337  29.988  1.00  0.00    -0.269 OA
BRANCH  29  32
ATOM     32  C   UNL A   1      36.536  30.285  28.881  1.00  0.00     0.039 A 
ATOM     33  C   UNL A   1      36.682  29.335  29.897  1.00  0.00     0.014 A 
ATOM     34  C   UNL A   1      37.327  30.222  27.736  1.00  0.00     0.014 A 
ATOM     35  C   UNL A   1      37.811  28.524  29.903  1.00  0.00     0.010 A 
ATOM     36  C   UNL A   1      38.501  29.496  27.795  1.00  0.00     0.010 A 
ATOM     37  C   UNL A   1      38.782  28.721  28.925  1.00  0.00    -0.014 A 
BRANCH  37  38
ATOM     38  C   UNL A   1      40.170  28.305  29.095  1.00  0.00     0.031 A 
ATOM     39  C   UNL A   1      40.627  26.992  28.607  1.00  0.00     0.074 A 
ATOM     40  C   UNL A   1      41.060  29.157  29.658  1.00  0.00     0.049 A 
ATOM     41  N   UNL A   1      41.732  26.439  28.975  1.00  0.00    -0.248 NA
ATOM     42  C   UNL A   1      39.823  26.143  27.731  1.00  0.00     0.031 C 
ATOM     43  C   UNL A   1      42.517  29.061  29.661  1.00  0.00     0.029 A 
ATOM     44  N   UNL A   1      40.781  30.169  30.577  1.00  0.00    -0.354 N 
ATOM     45  C   UNL A   1      41.928  25.340  28.181  1.00  0.00     0.074 A 
ATOM     46  C   UNL A   1      40.662  25.123  27.525  1.00  0.00     0.031 C 
ATOM     47  C   UNL A   1      42.995  29.764  30.700  1.00  0.00     0.029 A 
ATOM     48  C   UNL A   1      41.858  30.210  31.484  1.00  0.00     0.049 A 
ATOM     49  H   UNL A   1      39.983  30.745  30.590  1.00  0.00     0.167 HD
ATOM     50  C   UNL A   1      43.180  24.818  28.078  1.00  0.00     0.031 A 
ATOM     51  C   UNL A   1      41.657  29.922  32.805  1.00  0.00     0.031 A 
ATOM     52  C   UNL A   1      44.074  25.334  29.119  1.00  0.00     0.049 A 
ATOM     53  C   UNL A   1      42.379  28.680  33.298  1.00  0.00     0.074 A 
ATOM     54  C   UNL A   1      45.180  26.165  29.149  1.00  0.00     0.029 A 
ATOM     55  N   UNL A   1      43.695  25.159  30.443  1.00  0.00    -0.354 N 
ATOM     56  N   UNL A   1      43.124  27.909  32.553  1.00  0.00    -0.248 NA
ATOM     57  C   UNL A   1      42.230  28.156  34.657  1.00  0.00     0.031 C 
ATOM     58  C   UNL A   1      45.441  26.507  30.514  1.00  0.00     0.029 A 
ATOM     59  C   UNL A   1      44.511  25.860  31.306  1.00  0.00     0.049 A 
ATOM     60  H   UNL A   1      42.936  24.602  30.730  1.00  0.00     0.167 HD
ATOM     61  C   UNL A   1      43.505  26.806  33.272  1.00  0.00     0.074 A 
ATOM     62  C   UNL A   1      42.924  27.007  34.587  1.00  0.00     0.031 C 
ATOM     63  C   UNL A   1      44.229  25.785  32.730  1.00  0.00     0.031 A 
BRANCH  50  64
ATOM     64  C   UNL A   1      43.642  23.944  26.934  1.00  0.00    -0.014 A 
ATOM     65  C   UNL A   1      44.782  23.136  27.094  1.00  0.00     0.009 A 
ATOM     66  C   UNL A   1      43.076  23.948  25.645  1.00  0.00     0.009 A 
ATOM     67  C   UNL A   1      45.325  22.397  26.031  1.00  0.00     0.001 A 
ATOM     68  C   UNL A   1      43.594  23.191  24.585  1.00  0.00     0.001 A 
ATOM     69  C   UNL A   1      44.728  22.421  24.776  1.00  0.00     0.000 A 
ENDBRANCH  50  64
BRANCH  51  70
ATOM     70  C   UNL A   1      40.344  30.413  33.313  1.00  0.00    -0.014 A 
ATOM     71  C   UNL A   1      40.193  31.800  33.522  1.00  0.00     0.009 A 
ATOM     72  C   UNL A   1      39.192  29.619  33.240  1.00  0.00     0.009 A 
ATOM     73  C   UNL A   1      38.926  32.391  33.527  1.00  0.00     0.001 A 
ATOM     74  C   UNL A   1      37.925  30.214  33.263  1.00  0.00     0.001 A 
ATOM     75  C   UNL A   1      37.793  31.599  33.367  1.00  0.00     0.000 A 
ENDBRANCH  51  70
BRANCH  63  76
ATOM     76  C   UNL A   1      44.694  24.580  33.504  1.00  0.00    -0.014 A 
ATOM     77  C   UNL A   1      46.040  24.353  33.821  1.00  0.00     0.009 A 
ATOM     78  C   UNL A   1      43.779  23.558  33.834  1.00  0.00     0.009 A 
ATOM     79  C   UNL A   1      46.442  23.189  34.490  1.00  0.00     0.001 A 
ATOM     80  C   UNL A   1      44.179  22.385  34.480  1.00  0.00     0.001 A 
ATOM     81  C   UNL A   1      45.512  22.207  34.820  1.00  0.00     0.000 A 
ENDBRANCH  63  76
ENDBRANCH  37  38
ENDBRANCH  29  32
ENDBRANCH  27  28
ENDBRANCH  26  27
ENDBRANCH   1  26
TORSDOF 14
ENDMDL
