MODEL 1
REMARK VINA RESULT:     -11.8      0.000      0.000
REMARK SMILES C[C@H](C(=O)NCCCCNC(=O)c1ccc(-c2c3nc(c(-c4ccccc4)c4ccc([nH]4)c(-c4ccccc4)c4nc(c(-c5ccccc5)c5ccc2[nH]5)C=C4)C=C3)cc1)c1ccc2c(c1)[nH]c1ccc(Cl)cc12
REMARK SMILES IDX 8 1 7 2 6 3 5 4 3 5 4 6 2 8 1 9 61 10 62 11 66 12 63 13
REMARK SMILES IDX 65 14 64 15 67 16 74 17 68 18 73 20 69 21 71 22 70 23 72 24
REMARK SMILES IDX 9 25 10 26 11 27 12 29 13 30 14 31 60 32 15 33 59 34 16 35
REMARK SMILES IDX 17 36 18 37 53 38 19 39 58 40 52 41 54 42 20 43 57 44 51 45
REMARK SMILES IDX 50 46 21 48 43 49 28 50 42 51 29 52 32 53 41 54 55 55 30 56
REMARK SMILES IDX 31 57 40 59 56 60 33 61 22 62 23 63 27 64 24 65 26 66 25 67
REMARK SMILES IDX 44 68 45 69 49 70 46 71 48 72 47 73 34 74 35 75 39 76 36 77
REMARK SMILES IDX 38 78 37 79
REMARK H PARENT 5 7 67 19 10 28 54 47 32 58
REMARK Flexibility Score: inf
ROOT
ATOM      1  C   UNL A   1      33.334  28.354  25.934  1.00  0.00     0.023 C 
ENDROOT
BRANCH   1   2
ATOM      2  C   UNL A   1      32.971  29.550  25.056  1.00  0.00     0.023 C 
BRANCH   2   3
ATOM      3  C   UNL A   1      31.479  29.816  24.866  1.00  0.00     0.116 C 
BRANCH   3   4
ATOM      4  N   UNL A   1      30.993  29.514  23.528  1.00  0.00    -0.356 N 
ATOM      5  C   UNL A   1      29.990  28.677  23.129  1.00  0.00     0.227 C 
ATOM      6  O   UNL A   1      29.619  28.772  21.955  1.00  0.00    -0.274 OA
ATOM      7  H   UNL A   1      31.459  29.984  22.800  1.00  0.00     0.163 HD
BRANCH   5   8
ATOM      8  C   UNL A   1      29.397  27.602  24.049  1.00  0.00     0.105 C 
ATOM      9  C   UNL A   1      27.985  27.296  23.527  1.00  0.00     0.023 C 
BRANCH   8  10
ATOM     10  C   UNL A   1      30.283  26.381  24.300  1.00  0.00    -0.034 A 
ATOM     11  C   UNL A   1      31.067  25.827  23.276  1.00  0.00     0.005 A 
ATOM     12  C   UNL A   1      30.319  25.786  25.576  1.00  0.00     0.031 A 
ATOM     13  C   UNL A   1      31.965  24.779  23.520  1.00  0.00     0.011 A 
ATOM     14  C   UNL A   1      31.263  24.781  25.817  1.00  0.00     0.047 A 
ATOM     15  C   UNL A   1      32.096  24.272  24.826  1.00  0.00     0.007 A 
ATOM     16  N   UNL A   1      31.583  24.135  26.987  1.00  0.00    -0.355 N 
ATOM     17  C   UNL A   1      32.938  23.288  25.436  1.00  0.00     0.009 A 
ATOM     18  C   UNL A   1      32.604  23.236  26.789  1.00  0.00     0.047 A 
ATOM     19  H   UNL A   1      31.139  24.293  27.851  1.00  0.00     0.167 HD
ATOM     20  C   UNL A   1      33.964  22.447  24.961  1.00  0.00     0.031 A 
ATOM     21  C   UNL A   1      33.246  22.390  27.700  1.00  0.00     0.028 A 
ATOM     22  C   UNL A   1      34.608  21.590  25.858  1.00  0.00     0.041 A 
ATOM     23  C   UNL A   1      34.258  21.561  27.206  1.00  0.00     0.022 A 
ATOM     24  Cl  UNL A   1      35.857  20.551  25.286  1.00  0.00    -0.084 Cl
ENDBRANCH   8  10
ENDBRANCH   5   8
ENDBRANCH   3   4
ENDBRANCH   2   3
ENDBRANCH   1   2
BRANCH   1  25
ATOM     25  C   UNL A   1      33.513  28.653  27.419  1.00  0.00     0.116 C 
BRANCH  25  26
ATOM     26  N   UNL A   1      33.654  30.073  27.705  1.00  0.00    -0.352 N 
ATOM     27  C   UNL A   1      34.730  30.774  28.209  1.00  0.00     0.251 C 
ATOM     28  H   UNL A   1      32.858  30.617  27.510  1.00  0.00     0.163 HD
ATOM     29  O   UNL A   1      34.610  31.955  28.503  1.00  0.00    -0.269 OA
BRANCH  27  30
ATOM     30  C   UNL A   1      36.025  30.092  28.429  1.00  0.00     0.039 A 
ATOM     31  C   UNL A   1      36.949  30.040  27.380  1.00  0.00     0.014 A 
ATOM     32  C   UNL A   1      36.335  29.516  29.662  1.00  0.00     0.014 A 
ATOM     33  C   UNL A   1      38.224  29.505  27.601  1.00  0.00     0.010 A 
ATOM     34  C   UNL A   1      37.626  29.054  29.902  1.00  0.00     0.010 A 
ATOM     35  C   UNL A   1      38.589  29.058  28.880  1.00  0.00    -0.014 A 
BRANCH  35  36
ATOM     36  C   UNL A   1      39.974  28.622  29.200  1.00  0.00     0.031 A 
ATOM     37  C   UNL A   1      40.960  29.600  29.774  1.00  0.00     0.074 A 
ATOM     38  C   UNL A   1      40.384  27.387  28.848  1.00  0.00     0.049 A 
ATOM     39  N   UNL A   1      42.251  29.468  29.946  1.00  0.00    -0.248 NA
ATOM     40  C   UNL A   1      40.426  30.910  30.175  1.00  0.00     0.031 C 
ATOM     41  C   UNL A   1      39.542  26.352  28.246  1.00  0.00     0.029 A 
ATOM     42  N   UNL A   1      41.628  26.807  28.916  1.00  0.00    -0.354 N 
ATOM     43  C   UNL A   1      42.690  30.691  30.437  1.00  0.00     0.074 A 
ATOM     44  C   UNL A   1      41.533  31.559  30.505  1.00  0.00     0.031 C 
ATOM     45  C   UNL A   1      40.292  25.267  27.996  1.00  0.00     0.029 A 
ATOM     46  C   UNL A   1      41.675  25.545  28.375  1.00  0.00     0.049 A 
ATOM     47  H   UNL A   1      42.410  27.253  29.315  1.00  0.00     0.167 HD
ATOM     48  C   UNL A   1      43.942  31.059  30.804  1.00  0.00     0.031 A 
ATOM     49  C   UNL A   1      42.714  24.713  28.176  1.00  0.00     0.031 A 
ATOM     50  C   UNL A   1      45.088  30.192  30.751  1.00  0.00     0.049 A 
ATOM     51  C   UNL A   1      44.094  25.136  28.591  1.00  0.00     0.074 A 
ATOM     52  C   UNL A   1      46.382  30.448  31.174  1.00  0.00     0.029 A 
ATOM     53  N   UNL A   1      45.082  28.904  30.239  1.00  0.00    -0.354 N 
ATOM     54  N   UNL A   1      44.483  26.272  29.118  1.00  0.00    -0.248 NA
ATOM     55  C   UNL A   1      45.176  24.161  28.392  1.00  0.00     0.031 C 
ATOM     56  C   UNL A   1      47.169  29.334  30.869  1.00  0.00     0.029 A 
ATOM     57  C   UNL A   1      46.354  28.362  30.309  1.00  0.00     0.049 A 
ATOM     58  H   UNL A   1      44.290  28.444  29.879  1.00  0.00     0.167 HD
ATOM     59  C   UNL A   1      45.848  26.140  29.337  1.00  0.00     0.074 A 
ATOM     60  C   UNL A   1      46.218  24.812  28.894  1.00  0.00     0.031 C 
ATOM     61  C   UNL A   1      46.713  27.040  29.864  1.00  0.00     0.031 A 
BRANCH  48  62
ATOM     62  C   UNL A   1      44.132  32.475  31.269  1.00  0.00    -0.014 A 
ATOM     63  C   UNL A   1      44.446  33.508  30.371  1.00  0.00     0.009 A 
ATOM     64  C   UNL A   1      43.986  32.784  32.631  1.00  0.00     0.009 A 
ATOM     65  C   UNL A   1      44.661  34.808  30.834  1.00  0.00     0.001 A 
ATOM     66  C   UNL A   1      44.169  34.090  33.086  1.00  0.00     0.001 A 
ATOM     67  C   UNL A   1      44.520  35.098  32.190  1.00  0.00     0.000 A 
ENDBRANCH  48  62
BRANCH  49  68
ATOM     68  C   UNL A   1      42.480  23.390  27.542  1.00  0.00    -0.014 A 
ATOM     69  C   UNL A   1      42.002  22.311  28.301  1.00  0.00     0.009 A 
ATOM     70  C   UNL A   1      42.700  23.208  26.167  1.00  0.00     0.009 A 
ATOM     71  C   UNL A   1      41.761  21.074  27.698  1.00  0.00     0.001 A 
ATOM     72  C   UNL A   1      42.434  21.978  25.562  1.00  0.00     0.001 A 
ATOM     73  C   UNL A   1      41.970  20.911  26.330  1.00  0.00     0.000 A 
ENDBRANCH  49  68
BRANCH  61  74
ATOM     74  C   UNL A   1      48.144  26.612  30.030  1.00  0.00    -0.014 A 
ATOM     75  C   UNL A   1      49.112  26.913  29.061  1.00  0.00     0.009 A 
ATOM     76  C   UNL A   1      48.539  25.959  31.209  1.00  0.00     0.009 A 
ATOM     77  C   UNL A   1      50.446  26.549  29.261  1.00  0.00     0.001 A 
ATOM     78  C   UNL A   1      49.877  25.619  31.417  1.00  0.00     0.001 A 
ATOM     79  C   UNL A   1      50.828  25.911  30.441  1.00  0.00     0.000 A 
ENDBRANCH  61  74
ENDBRANCH  35  36
ENDBRANCH  27  30
ENDBRANCH  25  26
ENDBRANCH   1  25
TORSDOF 12
ENDMDL
MODEL 2
REMARK VINA RESULT:     -11.7      3.320      8.098
REMARK SMILES C[C@H](C(=O)NCCCCNC(=O)c1ccc(-c2c3nc(c(-c4ccccc4)c4ccc([nH]4)c(-c4ccccc4)c4nc(c(-c5ccccc5)c5ccc2[nH]5)C=C4)C=C3)cc1)c1ccc2c(c1)[nH]c1ccc(Cl)cc12
REMARK SMILES IDX 8 1 7 2 6 3 5 4 3 5 4 6 2 8 1 9 61 10 62 11 66 12 63 13
REMARK SMILES IDX 65 14 64 15 67 16 74 17 68 18 73 20 69 21 71 22 70 23 72 24
REMARK SMILES IDX 9 25 10 26 11 27 12 29 13 30 14 31 60 32 15 33 59 34 16 35
REMARK SMILES IDX 17 36 18 37 53 38 19 39 58 40 52 41 54 42 20 43 57 44 51 45
REMARK SMILES IDX 50 46 21 48 43 49 28 50 42 51 29 52 32 53 41 54 55 55 30 56
REMARK SMILES IDX 31 57 40 59 56 60 33 61 22 62 23 63 27 64 24 65 26 66 25 67
REMARK SMILES IDX 44 68 45 69 49 70 46 71 48 72 47 73 34 74 35 75 39 76 36 77
REMARK SMILES IDX 38 78 37 79
REMARK H PARENT 5 7 67 19 10 28 54 47 32 58
REMARK Flexibility Score: inf
ROOT
ATOM      1  C   UNL A   1      36.040  22.994  25.628  1.00  0.00     0.023 C 
ENDROOT
BRANCH   1   2
ATOM      2  C   UNL A   1      35.923  21.556  26.131  1.00  0.00     0.023 C 
BRANCH   2   3
ATOM      3  C   UNL A   1      35.526  20.510  25.091  1.00  0.00     0.116 C 
BRANCH   3   4
ATOM      4  N   UNL A   1      34.182  19.984  25.269  1.00  0.00    -0.356 N 
ATOM      5  C   UNL A   1      33.078  20.113  24.475  1.00  0.00     0.227 C 
ATOM      6  O   UNL A   1      32.119  19.378  24.729  1.00  0.00    -0.274 OA
ATOM      7  H   UNL A   1      34.047  19.454  26.088  1.00  0.00     0.163 HD
BRANCH   5   8
ATOM      8  C   UNL A   1      32.975  21.172  23.370  1.00  0.00     0.105 C 
ATOM      9  C   UNL A   1      31.935  20.666  22.360  1.00  0.00     0.023 C 
BRANCH   8  10
ATOM     10  C   UNL A   1      32.782  22.612  23.848  1.00  0.00    -0.034 A 
ATOM     11  C   UNL A   1      32.180  22.895  25.084  1.00  0.00     0.005 A 
ATOM     12  C   UNL A   1      33.205  23.685  23.040  1.00  0.00     0.031 A 
ATOM     13  C   UNL A   1      32.097  24.203  25.580  1.00  0.00     0.011 A 
ATOM     14  C   UNL A   1      33.170  24.978  23.576  1.00  0.00     0.047 A 
ATOM     15  C   UNL A   1      32.639  25.263  24.830  1.00  0.00     0.007 A 
ATOM     16  N   UNL A   1      33.630  26.162  23.052  1.00  0.00    -0.355 N 
ATOM     17  C   UNL A   1      32.794  26.668  25.053  1.00  0.00     0.009 A 
ATOM     18  C   UNL A   1      33.430  27.200  23.932  1.00  0.00     0.047 A 
ATOM     19  H   UNL A   1      34.047  26.256  22.166  1.00  0.00     0.167 HD
ATOM     20  C   UNL A   1      32.462  27.533  26.116  1.00  0.00     0.031 A 
ATOM     21  C   UNL A   1      33.759  28.555  23.814  1.00  0.00     0.028 A 
ATOM     22  C   UNL A   1      32.778  28.891  26.008  1.00  0.00     0.041 A 
ATOM     23  C   UNL A   1      33.417  29.396  24.877  1.00  0.00     0.022 A 
ATOM     24  Cl  UNL A   1      32.368  29.958  27.296  1.00  0.00    -0.084 Cl
ENDBRANCH   8  10
ENDBRANCH   5   8
ENDBRANCH   3   4
ENDBRANCH   2   3
ENDBRANCH   1   2
BRANCH   1  25
ATOM     25  C   UNL A   1      37.373  23.364  24.985  1.00  0.00     0.116 C 
BRANCH  25  26
ATOM     26  N   UNL A   1      38.482  22.548  25.455  1.00  0.00    -0.352 N 
ATOM     27  C   UNL A   1      39.573  22.892  26.226  1.00  0.00     0.251 C 
ATOM     28  H   UNL A   1      38.450  21.604  25.179  1.00  0.00     0.163 HD
ATOM     29  O   UNL A   1      40.474  22.086  26.411  1.00  0.00    -0.269 OA
BRANCH  27  30
ATOM     30  C   UNL A   1      39.675  24.251  26.805  1.00  0.00     0.039 A 
ATOM     31  C   UNL A   1      39.113  24.495  28.063  1.00  0.00     0.014 A 
ATOM     32  C   UNL A   1      40.328  25.278  26.121  1.00  0.00     0.014 A 
ATOM     33  C   UNL A   1      39.301  25.737  28.680  1.00  0.00     0.010 A 
ATOM     34  C   UNL A   1      40.578  26.486  26.767  1.00  0.00     0.010 A 
ATOM     35  C   UNL A   1      40.081  26.723  28.059  1.00  0.00    -0.014 A 
BRANCH  35  36
ATOM     36  C   UNL A   1      40.432  27.999  28.737  1.00  0.00     0.031 A 
ATOM     37  C   UNL A   1      41.719  28.117  29.503  1.00  0.00     0.074 A 
ATOM     38  C   UNL A   1      39.534  29.003  28.778  1.00  0.00     0.049 A 
ATOM     39  N   UNL A   1      42.117  29.069  30.309  1.00  0.00    -0.248 NA
ATOM     40  C   UNL A   1      42.666  27.000  29.370  1.00  0.00     0.031 C 
ATOM     41  C   UNL A   1      38.230  29.004  28.113  1.00  0.00     0.029 A 
ATOM     42  N   UNL A   1      39.571  30.205  29.441  1.00  0.00    -0.354 N 
ATOM     43  C   UNL A   1      43.342  28.647  30.811  1.00  0.00     0.074 A 
ATOM     44  C   UNL A   1      43.604  27.342  30.242  1.00  0.00     0.031 C 
ATOM     45  C   UNL A   1      37.591  30.148  28.404  1.00  0.00     0.029 A 
ATOM     46  C   UNL A   1      38.415  30.938  29.312  1.00  0.00     0.049 A 
ATOM     47  H   UNL A   1      40.349  30.513  29.959  1.00  0.00     0.167 HD
ATOM     48  C   UNL A   1      44.177  29.289  31.663  1.00  0.00     0.031 A 
ATOM     49  C   UNL A   1      38.045  32.101  29.882  1.00  0.00     0.031 A 
ATOM     50  C   UNL A   1      43.924  30.592  32.216  1.00  0.00     0.049 A 
ATOM     51  C   UNL A   1      38.984  32.800  30.821  1.00  0.00     0.074 A 
ATOM     52  C   UNL A   1      44.745  31.359  33.026  1.00  0.00     0.029 A 
ATOM     53  N   UNL A   1      42.760  31.321  32.022  1.00  0.00    -0.354 N 
ATOM     54  N   UNL A   1      40.170  32.421  31.233  1.00  0.00    -0.248 NA
ATOM     55  C   UNL A   1      38.539  34.089  31.369  1.00  0.00     0.031 C 
ATOM     56  C   UNL A   1      44.056  32.528  33.364  1.00  0.00     0.029 A 
ATOM     57  C   UNL A   1      42.830  32.515  32.719  1.00  0.00     0.049 A 
ATOM     58  H   UNL A   1      41.999  31.032  31.470  1.00  0.00     0.167 HD
ATOM     59  C   UNL A   1      40.623  33.435  32.067  1.00  0.00     0.074 A 
ATOM     60  C   UNL A   1      39.589  34.449  32.096  1.00  0.00     0.031 C 
ATOM     61  C   UNL A   1      41.795  33.517  32.742  1.00  0.00     0.031 A 
BRANCH  48  62
ATOM     62  C   UNL A   1      45.432  28.568  32.068  1.00  0.00    -0.014 A 
ATOM     63  C   UNL A   1      46.624  28.704  31.339  1.00  0.00     0.009 A 
ATOM     64  C   UNL A   1      45.424  27.746  33.206  1.00  0.00     0.009 A 
ATOM     65  C   UNL A   1      47.766  27.990  31.709  1.00  0.00     0.001 A 
ATOM     66  C   UNL A   1      46.576  27.059  33.593  1.00  0.00     0.001 A 
ATOM     67  C   UNL A   1      47.741  27.170  32.837  1.00  0.00     0.000 A 
ENDBRANCH  48  62
BRANCH  49  68
ATOM     68  C   UNL A   1      36.707  32.671  29.574  1.00  0.00    -0.014 A 
ATOM     69  C   UNL A   1      35.645  32.524  30.479  1.00  0.00     0.009 A 
ATOM     70  C   UNL A   1      36.496  33.394  28.389  1.00  0.00     0.009 A 
ATOM     71  C   UNL A   1      34.395  33.081  30.197  1.00  0.00     0.001 A 
ATOM     72  C   UNL A   1      35.252  33.971  28.123  1.00  0.00     0.001 A 
ATOM     73  C   UNL A   1      34.202  33.809  29.025  1.00  0.00     0.000 A 
ENDBRANCH  49  68
BRANCH  61  74
ATOM     74  C   UNL A   1      42.047  34.762  33.544  1.00  0.00    -0.014 A 
ATOM     75  C   UNL A   1      41.656  34.856  34.888  1.00  0.00     0.009 A 
ATOM     76  C   UNL A   1      42.751  35.830  32.963  1.00  0.00     0.009 A 
ATOM     77  C   UNL A   1      41.947  36.005  35.628  1.00  0.00     0.001 A 
ATOM     78  C   UNL A   1      43.062  36.966  33.712  1.00  0.00     0.001 A 
ATOM     79  C   UNL A   1      42.656  37.054  35.043  1.00  0.00     0.000 A 
ENDBRANCH  61  74
ENDBRANCH  35  36
ENDBRANCH  27  30
ENDBRANCH  25  26
ENDBRANCH   1  25
TORSDOF 12
ENDMDL
MODEL 3
REMARK VINA RESULT:     -11.6      3.342      7.644
REMARK SMILES C[C@H](C(=O)NCCCCNC(=O)c1ccc(-c2c3nc(c(-c4ccccc4)c4ccc([nH]4)c(-c4ccccc4)c4nc(c(-c5ccccc5)c5ccc2[nH]5)C=C4)C=C3)cc1)c1ccc2c(c1)[nH]c1ccc(Cl)cc12
REMARK SMILES IDX 8 1 7 2 6 3 5 4 3 5 4 6 2 8 1 9 61 10 62 11 66 12 63 13
REMARK SMILES IDX 65 14 64 15 67 16 74 17 68 18 73 20 69 21 71 22 70 23 72 24
REMARK SMILES IDX 9 25 10 26 11 27 12 29 13 30 14 31 60 32 15 33 59 34 16 35
REMARK SMILES IDX 17 36 18 37 53 38 19 39 58 40 52 41 54 42 20 43 57 44 51 45
REMARK SMILES IDX 50 46 21 48 43 49 28 50 42 51 29 52 32 53 41 54 55 55 30 56
REMARK SMILES IDX 31 57 40 59 56 60 33 61 22 62 23 63 27 64 24 65 26 66 25 67
REMARK SMILES IDX 44 68 45 69 49 70 46 71 48 72 47 73 34 74 35 75 39 76 36 77
REMARK SMILES IDX 38 78 37 79
REMARK H PARENT 5 7 67 19 10 28 54 47 32 58
REMARK Flexibility Score: inf
ROOT
ATOM      1  C   UNL A   1      37.778  20.349  24.989  1.00  0.00     0.023 C 
ENDROOT
BRANCH   1   2
ATOM      2  C   UNL A   1      37.084  21.630  24.528  1.00  0.00     0.023 C 
BRANCH   2   3
ATOM      3  C   UNL A   1      36.608  22.571  25.632  1.00  0.00     0.116 C 
BRANCH   3   4
ATOM      4  N   UNL A   1      35.497  22.049  26.412  1.00  0.00    -0.356 N 
ATOM      5  C   UNL A   1      34.306  21.523  25.997  1.00  0.00     0.227 C 
ATOM      6  O   UNL A   1      33.628  20.938  26.848  1.00  0.00    -0.274 OA
ATOM      7  H   UNL A   1      35.622  22.080  27.388  1.00  0.00     0.163 HD
BRANCH   5   8
ATOM      8  C   UNL A   1      33.771  21.714  24.572  1.00  0.00     0.105 C 
ATOM      9  C   UNL A   1      32.898  20.491  24.254  1.00  0.00     0.023 C 
BRANCH   8  10
ATOM     10  C   UNL A   1      33.132  23.072  24.280  1.00  0.00    -0.034 A 
ATOM     11  C   UNL A   1      33.816  24.059  23.552  1.00  0.00     0.005 A 
ATOM     12  C   UNL A   1      31.835  23.356  24.751  1.00  0.00     0.031 A 
ATOM     13  C   UNL A   1      33.200  25.263  23.186  1.00  0.00     0.011 A 
ATOM     14  C   UNL A   1      31.215  24.537  24.325  1.00  0.00     0.047 A 
ATOM     15  C   UNL A   1      31.859  25.491  23.544  1.00  0.00     0.007 A 
ATOM     16  N   UNL A   1      29.932  24.984  24.535  1.00  0.00    -0.355 N 
ATOM     17  C   UNL A   1      30.920  26.539  23.284  1.00  0.00     0.009 A 
ATOM     18  C   UNL A   1      29.721  26.187  23.904  1.00  0.00     0.047 A 
ATOM     19  H   UNL A   1      29.255  24.508  25.067  1.00  0.00     0.167 HD
ATOM     20  C   UNL A   1      30.978  27.750  22.565  1.00  0.00     0.031 A 
ATOM     21  C   UNL A   1      28.569  26.979  23.840  1.00  0.00     0.028 A 
ATOM     22  C   UNL A   1      29.837  28.556  22.501  1.00  0.00     0.041 A 
ATOM     23  C   UNL A   1      28.651  28.178  23.126  1.00  0.00     0.022 A 
ATOM     24  Cl  UNL A   1      29.901  30.042  21.633  1.00  0.00    -0.084 Cl
ENDBRANCH   8  10
ENDBRANCH   5   8
ENDBRANCH   3   4
ENDBRANCH   2   3
ENDBRANCH   1   2
BRANCH   1  25
ATOM     25  C   UNL A   1      39.015  20.543  25.860  1.00  0.00     0.116 C 
BRANCH  25  26
ATOM     26  N   UNL A   1      39.941  19.422  25.799  1.00  0.00    -0.352 N 
ATOM     27  C   UNL A   1      41.310  19.392  25.970  1.00  0.00     0.251 C 
ATOM     28  H   UNL A   1      39.527  18.551  25.604  1.00  0.00     0.163 HD
ATOM     29  O   UNL A   1      41.934  18.363  25.751  1.00  0.00    -0.269 OA
BRANCH  27  30
ATOM     30  C   UNL A   1      42.034  20.614  26.387  1.00  0.00     0.039 A 
ATOM     31  C   UNL A   1      42.531  21.476  25.404  1.00  0.00     0.014 A 
ATOM     32  C   UNL A   1      42.215  20.918  27.738  1.00  0.00     0.014 A 
ATOM     33  C   UNL A   1      43.113  22.693  25.774  1.00  0.00     0.010 A 
ATOM     34  C   UNL A   1      42.726  22.160  28.102  1.00  0.00     0.010 A 
ATOM     35  C   UNL A   1      43.165  23.068  27.125  1.00  0.00    -0.014 A 
BRANCH  35  36
ATOM     36  C   UNL A   1      43.637  24.410  27.556  1.00  0.00     0.031 A 
ATOM     37  C   UNL A   1      42.646  25.472  27.939  1.00  0.00     0.074 A 
ATOM     38  C   UNL A   1      44.947  24.717  27.472  1.00  0.00     0.049 A 
ATOM     39  N   UNL A   1      42.843  26.747  28.161  1.00  0.00    -0.248 NA
ATOM     40  C   UNL A   1      41.242  25.047  28.053  1.00  0.00     0.031 C 
ATOM     41  C   UNL A   1      46.012  23.795  27.076  1.00  0.00     0.029 A 
ATOM     42  N   UNL A   1      45.599  25.908  27.683  1.00  0.00    -0.354 N 
ATOM     43  C   UNL A   1      41.585  27.285  28.401  1.00  0.00     0.074 A 
ATOM     44  C   UNL A   1      40.631  26.203  28.266  1.00  0.00     0.031 C 
ATOM     45  C   UNL A   1      47.182  24.453  27.068  1.00  0.00     0.029 A 
ATOM     46  C   UNL A   1      46.945  25.852  27.411  1.00  0.00     0.049 A 
ATOM     47  H   UNL A   1      45.146  26.723  27.998  1.00  0.00     0.167 HD
ATOM     48  C   UNL A   1      41.252  28.561  28.711  1.00  0.00     0.031 A 
ATOM     49  C   UNL A   1      47.881  26.819  27.407  1.00  0.00     0.031 A 
ATOM     50  C   UNL A   1      42.201  29.632  28.860  1.00  0.00     0.049 A 
ATOM     51  C   UNL A   1      47.495  28.227  27.756  1.00  0.00     0.074 A 
ATOM     52  C   UNL A   1      41.969  30.940  29.248  1.00  0.00     0.029 A 
ATOM     53  N   UNL A   1      43.562  29.520  28.621  1.00  0.00    -0.354 N 
ATOM     54  N   UNL A   1      46.311  28.708  28.049  1.00  0.00    -0.248 NA
ATOM     55  C   UNL A   1      48.574  29.226  27.783  1.00  0.00     0.031 C 
ATOM     56  C   UNL A   1      43.182  31.633  29.194  1.00  0.00     0.029 A 
ATOM     57  C   UNL A   1      44.179  30.743  28.826  1.00  0.00     0.049 A 
ATOM     58  H   UNL A   1      44.021  28.694  28.346  1.00  0.00     0.167 HD
ATOM     59  C   UNL A   1      46.505  30.056  28.318  1.00  0.00     0.074 A 
ATOM     60  C   UNL A   1      47.921  30.316  28.163  1.00  0.00     0.031 C 
ATOM     61  C   UNL A   1      45.589  30.991  28.669  1.00  0.00     0.031 A 
BRANCH  48  62
ATOM     62  C   UNL A   1      39.790  28.867  28.882  1.00  0.00    -0.014 A 
ATOM     63  C   UNL A   1      39.007  29.330  27.812  1.00  0.00     0.009 A 
ATOM     64  C   UNL A   1      39.184  28.680  30.134  1.00  0.00     0.009 A 
ATOM     65  C   UNL A   1      37.661  29.650  28.007  1.00  0.00     0.001 A 
ATOM     66  C   UNL A   1      37.831  28.968  30.317  1.00  0.00     0.001 A 
ATOM     67  C   UNL A   1      37.074  29.466  29.258  1.00  0.00     0.000 A 
ENDBRANCH  48  62
BRANCH  49  68
ATOM     68  C   UNL A   1      49.283  26.477  27.052  1.00  0.00    -0.014 A 
ATOM     69  C   UNL A   1      50.195  26.086  28.044  1.00  0.00     0.009 A 
ATOM     70  C   UNL A   1      49.708  26.509  25.714  1.00  0.00     0.009 A 
ATOM     71  C   UNL A   1      51.505  25.743  27.704  1.00  0.00     0.001 A 
ATOM     72  C   UNL A   1      51.012  26.141  25.374  1.00  0.00     0.001 A 
ATOM     73  C   UNL A   1      51.910  25.764  26.371  1.00  0.00     0.000 A 
ENDBRANCH  49  68
BRANCH  61  74
ATOM     74  C   UNL A   1      46.087  32.381  28.948  1.00  0.00    -0.014 A 
ATOM     75  C   UNL A   1      46.572  32.741  30.214  1.00  0.00     0.009 A 
ATOM     76  C   UNL A   1      46.137  33.321  27.906  1.00  0.00     0.009 A 
ATOM     77  C   UNL A   1      47.078  34.024  30.436  1.00  0.00     0.001 A 
ATOM     78  C   UNL A   1      46.666  34.594  28.124  1.00  0.00     0.001 A 
ATOM     79  C   UNL A   1      47.132  34.946  29.390  1.00  0.00     0.000 A 
ENDBRANCH  61  74
ENDBRANCH  35  36
ENDBRANCH  27  30
ENDBRANCH  25  26
ENDBRANCH   1  25
TORSDOF 12
ENDMDL
