MODEL 1
REMARK VINA RESULT:     -11.4      0.000      0.000
REMARK SMILES CCn1cc(C)c(C(=O)NCCCCNC(=O)c2ccc(-c3c4nc(c(-c5ccccc5)c5ccc([nH]5)c(-c5ccccc5)c5nc(c(-c6ccccc6)c6ccc3[nH]6)C=C5)C=C4)cc2)c1CC(=O)NCc1cccc(C)c1
REMARK SMILES IDX 11 1 10 2 8 3 9 4 7 6 3 7 4 8 66 9 5 10 6 11 2 12 1 13 67 14
REMARK SMILES IDX 68 15 69 16 70 17 71 19 72 20 73 21 78 22 74 23 76 24 75 25
REMARK SMILES IDX 77 26 12 27 13 28 14 29 15 30 16 31 17 33 18 34 19 35 65 36
REMARK SMILES IDX 20 37 64 38 21 39 22 40 23 41 58 42 24 43 63 44 57 45 59 46
REMARK SMILES IDX 25 47 62 48 56 49 55 50 26 52 48 53 33 54 47 55 34 56 37 57
REMARK SMILES IDX 46 58 60 59 35 60 36 61 45 63 61 64 38 65 27 66 28 67 32 68
REMARK SMILES IDX 29 69 31 70 30 71 49 72 50 73 54 74 51 75 53 76 52 77 39 78
REMARK SMILES IDX 40 79 44 80 41 81 43 82 42 83
REMARK H PARENT 10 5 70 18 15 32 59 51 37 62
REMARK Flexibility Score: inf
ROOT
ATOM      1  C   UNL A   1      32.018  30.155  25.966  1.00  0.00     0.116 C 
ENDROOT
BRANCH   1   2
ATOM      2  N   UNL A   1      32.648  29.724  24.735  1.00  0.00    -0.352 N 
ATOM      3  C   UNL A   1      32.559  28.628  23.905  1.00  0.00     0.253 C 
ATOM      4  O   UNL A   1      33.115  28.801  22.813  1.00  0.00    -0.269 OA
ATOM      5  H   UNL A   1      33.304  30.380  24.408  1.00  0.00     0.163 HD
BRANCH   3   6
ATOM      6  C   UNL A   1      31.819  27.365  24.174  1.00  0.00     0.064 A 
ATOM      7  N   UNL A   1      31.129  25.269  24.701  1.00  0.00    -0.350 N 
ATOM      8  C   UNL A   1      30.022  25.952  24.269  1.00  0.00     0.090 A 
ATOM      9  C   UNL A   1      32.250  26.060  24.484  1.00  0.00     0.040 A 
ATOM     10  C   UNL A   1      30.411  27.204  23.855  1.00  0.00    -0.020 A 
ATOM     11  C   UNL A   1      29.525  28.158  23.125  1.00  0.00     0.047 C 
BRANCH   7  12
ATOM     12  C   UNL A   1      31.014  23.849  25.029  1.00  0.00     0.118 C 
ATOM     13  C   UNL A   1      30.891  23.451  26.491  1.00  0.00     0.027 C 
ENDBRANCH   7  12
BRANCH   9  14
ATOM     14  C   UNL A   1      33.622  25.475  24.444  1.00  0.00     0.154 C 
BRANCH  14  15
ATOM     15  C   UNL A   1      33.879  24.757  23.121  1.00  0.00     0.226 C 
ATOM     16  O   UNL A   1      33.402  25.083  22.036  1.00  0.00    -0.275 OA
ATOM     17  N   UNL A   1      34.756  23.708  23.138  1.00  0.00    -0.352 N 
ATOM     18  H   UNL A   1      35.575  23.748  22.594  1.00  0.00     0.163 HD
BRANCH  17  19
ATOM     19  C   UNL A   1      34.491  22.539  23.947  1.00  0.00     0.151 C 
BRANCH  19  20
ATOM     20  C   UNL A   1      35.761  22.208  24.691  1.00  0.00    -0.029 A 
ATOM     21  C   UNL A   1      36.341  20.936  24.581  1.00  0.00     0.005 A 
ATOM     22  C   UNL A   1      36.478  23.227  25.330  1.00  0.00     0.009 A 
ATOM     23  C   UNL A   1      37.609  20.686  25.096  1.00  0.00     0.001 A 
ATOM     24  C   UNL A   1      37.758  22.987  25.842  1.00  0.00    -0.051 A 
ATOM     25  C   UNL A   1      38.314  21.707  25.728  1.00  0.00     0.003 A 
ATOM     26  C   UNL A   1      38.532  24.086  26.504  1.00  0.00     0.044 C 
ENDBRANCH  19  20
ENDBRANCH  17  19
ENDBRANCH  14  15
ENDBRANCH   9  14
ENDBRANCH   3   6
ENDBRANCH   1   2
BRANCH   1  27
ATOM     27  C   UNL A   1      32.557  29.436  27.215  1.00  0.00     0.023 C 
BRANCH  27  28
ATOM     28  C   UNL A   1      33.964  28.837  27.153  1.00  0.00     0.023 C 
BRANCH  28  29
ATOM     29  C   UNL A   1      35.087  29.858  27.270  1.00  0.00     0.116 C 
BRANCH  29  30
ATOM     30  N   UNL A   1      34.657  31.100  27.909  1.00  0.00    -0.352 N 
ATOM     31  C   UNL A   1      35.098  31.643  29.101  1.00  0.00     0.251 C 
ATOM     32  H   UNL A   1      33.967  31.615  27.431  1.00  0.00     0.163 HD
ATOM     33  O   UNL A   1      34.508  32.540  29.665  1.00  0.00    -0.269 OA
BRANCH  31  34
ATOM     34  C   UNL A   1      36.323  31.064  29.676  1.00  0.00     0.039 A 
ATOM     35  C   UNL A   1      36.253  29.858  30.365  1.00  0.00     0.014 A 
ATOM     36  C   UNL A   1      37.546  31.645  29.336  1.00  0.00     0.014 A 
ATOM     37  C   UNL A   1      37.434  29.167  30.617  1.00  0.00     0.010 A 
ATOM     38  C   UNL A   1      38.708  30.913  29.514  1.00  0.00     0.010 A 
ATOM     39  C   UNL A   1      38.663  29.667  30.146  1.00  0.00    -0.014 A 
BRANCH  39  40
ATOM     40  C   UNL A   1      39.842  28.791  30.195  1.00  0.00     0.031 A 
ATOM     41  C   UNL A   1      40.476  28.604  31.538  1.00  0.00     0.074 A 
ATOM     42  C   UNL A   1      40.289  28.007  29.192  1.00  0.00     0.049 A 
ATOM     43  N   UNL A   1      41.669  28.946  31.907  1.00  0.00    -0.248 NA
ATOM     44  C   UNL A   1      39.672  27.994  32.609  1.00  0.00     0.031 C 
ATOM     45  C   UNL A   1      39.674  27.741  27.890  1.00  0.00     0.029 A 
ATOM     46  N   UNL A   1      41.383  27.189  29.188  1.00  0.00    -0.354 N 
ATOM     47  C   UNL A   1      41.833  28.467  33.204  1.00  0.00     0.074 A 
ATOM     48  C   UNL A   1      40.541  27.976  33.622  1.00  0.00     0.031 C 
ATOM     49  C   UNL A   1      40.268  26.667  27.324  1.00  0.00     0.029 A 
ATOM     50  C   UNL A   1      41.415  26.295  28.132  1.00  0.00     0.049 A 
ATOM     51  H   UNL A   1      42.087  27.231  29.876  1.00  0.00     0.167 HD
ATOM     52  C   UNL A   1      43.058  28.341  33.788  1.00  0.00     0.031 A 
ATOM     53  C   UNL A   1      42.318  25.313  27.916  1.00  0.00     0.031 A 
ATOM     54  C   UNL A   1      44.079  29.067  33.082  1.00  0.00     0.049 A 
ATOM     55  C   UNL A   1      43.541  25.638  28.674  1.00  0.00     0.074 A 
ATOM     56  C   UNL A   1      44.310  30.388  32.762  1.00  0.00     0.029 A 
ATOM     57  N   UNL A   1      44.926  28.335  32.288  1.00  0.00    -0.354 N 
ATOM     58  N   UNL A   1      44.329  26.631  28.380  1.00  0.00    -0.248 NA
ATOM     59  C   UNL A   1      43.759  25.038  29.980  1.00  0.00     0.031 C 
ATOM     60  C   UNL A   1      44.933  30.356  31.478  1.00  0.00     0.029 A 
ATOM     61  C   UNL A   1      45.072  29.017  31.107  1.00  0.00     0.049 A 
ATOM     62  H   UNL A   1      45.350  27.478  32.523  1.00  0.00     0.167 HD
ATOM     63  C   UNL A   1      44.828  27.058  29.598  1.00  0.00     0.074 A 
ATOM     64  C   UNL A   1      44.583  25.946  30.509  1.00  0.00     0.031 C 
ATOM     65  C   UNL A   1      45.128  28.374  29.810  1.00  0.00     0.031 A 
BRANCH  52  66
ATOM     66  C   UNL A   1      43.407  27.269  34.792  1.00  0.00    -0.014 A 
ATOM     67  C   UNL A   1      43.261  25.915  34.433  1.00  0.00     0.009 A 
ATOM     68  C   UNL A   1      43.603  27.543  36.159  1.00  0.00     0.009 A 
ATOM     69  C   UNL A   1      43.264  24.899  35.398  1.00  0.00     0.001 A 
ATOM     70  C   UNL A   1      43.648  26.527  37.120  1.00  0.00     0.001 A 
ATOM     71  C   UNL A   1      43.455  25.206  36.741  1.00  0.00     0.000 A 
ENDBRANCH  52  66
BRANCH  53  72
ATOM     72  C   UNL A   1      42.154  24.040  27.195  1.00  0.00    -0.014 A 
ATOM     73  C   UNL A   1      42.733  23.849  25.933  1.00  0.00     0.009 A 
ATOM     74  C   UNL A   1      41.641  22.916  27.868  1.00  0.00     0.009 A 
ATOM     75  C   UNL A   1      42.837  22.567  25.381  1.00  0.00     0.001 A 
ATOM     76  C   UNL A   1      41.741  21.636  27.315  1.00  0.00     0.001 A 
ATOM     77  C   UNL A   1      42.355  21.461  26.079  1.00  0.00     0.000 A 
ENDBRANCH  53  72
BRANCH  65  78
ATOM     78  C   UNL A   1      45.230  29.273  28.601  1.00  0.00    -0.014 A 
ATOM     79  C   UNL A   1      44.108  29.838  27.968  1.00  0.00     0.009 A 
ATOM     80  C   UNL A   1      46.503  29.643  28.143  1.00  0.00     0.009 A 
ATOM     81  C   UNL A   1      44.255  30.699  26.875  1.00  0.00     0.001 A 
ATOM     82  C   UNL A   1      46.651  30.525  27.068  1.00  0.00     0.001 A 
ATOM     83  C   UNL A   1      45.527  31.042  26.427  1.00  0.00     0.000 A 
ENDBRANCH  65  78
ENDBRANCH  39  40
ENDBRANCH  31  34
ENDBRANCH  29  30
ENDBRANCH  28  29
ENDBRANCH  27  28
ENDBRANCH   1  27
TORSDOF 16
ENDMDL
MODEL 2
REMARK VINA RESULT:     -11.3      1.681      5.805
REMARK SMILES CCn1cc(C)c(C(=O)NCCCCNC(=O)c2ccc(-c3c4nc(c(-c5ccccc5)c5ccc([nH]5)c(-c5ccccc5)c5nc(c(-c6ccccc6)c6ccc3[nH]6)C=C5)C=C4)cc2)c1CC(=O)NCc1cccc(C)c1
REMARK SMILES IDX 11 1 10 2 8 3 9 4 7 6 3 7 4 8 66 9 5 10 6 11 2 12 1 13 67 14
REMARK SMILES IDX 68 15 69 16 70 17 71 19 72 20 73 21 78 22 74 23 76 24 75 25
REMARK SMILES IDX 77 26 12 27 13 28 14 29 15 30 16 31 17 33 18 34 19 35 65 36
REMARK SMILES IDX 20 37 64 38 21 39 22 40 23 41 58 42 24 43 63 44 57 45 59 46
REMARK SMILES IDX 25 47 62 48 56 49 55 50 26 52 48 53 33 54 47 55 34 56 37 57
REMARK SMILES IDX 46 58 60 59 35 60 36 61 45 63 61 64 38 65 27 66 28 67 32 68
REMARK SMILES IDX 29 69 31 70 30 71 49 72 50 73 54 74 51 75 53 76 52 77 39 78
REMARK SMILES IDX 40 79 44 80 41 81 43 82 42 83
REMARK H PARENT 10 5 70 18 15 32 59 51 37 62
REMARK Flexibility Score: inf
ROOT
ATOM      1  C   UNL A   1      31.593  30.267  25.699  1.00  0.00     0.116 C 
ENDROOT
BRANCH   1   2
ATOM      2  N   UNL A   1      31.955  29.726  24.405  1.00  0.00    -0.352 N 
ATOM      3  C   UNL A   1      31.886  28.496  23.789  1.00  0.00     0.253 C 
ATOM      4  O   UNL A   1      32.087  28.553  22.569  1.00  0.00    -0.269 OA
ATOM      5  H   UNL A   1      32.349  30.410  23.817  1.00  0.00     0.163 HD
BRANCH   3   6
ATOM      6  C   UNL A   1      31.528  27.200  24.425  1.00  0.00     0.064 A 
ATOM      7  N   UNL A   1      31.457  25.186  25.469  1.00  0.00    -0.350 N 
ATOM      8  C   UNL A   1      30.171  25.487  25.104  1.00  0.00     0.090 A 
ATOM      9  C   UNL A   1      32.308  26.132  24.912  1.00  0.00     0.040 A 
ATOM     10  C   UNL A   1      30.179  26.661  24.389  1.00  0.00    -0.020 A 
ATOM     11  C   UNL A   1      29.000  27.197  23.645  1.00  0.00     0.047 C 
BRANCH   7  12
ATOM     12  C   UNL A   1      31.745  23.894  26.088  1.00  0.00     0.118 C 
ATOM     13  C   UNL A   1      30.616  22.884  26.217  1.00  0.00     0.027 C 
ENDBRANCH   7  12
BRANCH   9  14
ATOM     14  C   UNL A   1      33.769  25.873  24.756  1.00  0.00     0.154 C 
BRANCH  14  15
ATOM     15  C   UNL A   1      34.069  25.180  23.429  1.00  0.00     0.226 C 
ATOM     16  O   UNL A   1      33.586  25.492  22.343  1.00  0.00    -0.275 OA
ATOM     17  N   UNL A   1      34.995  24.173  23.444  1.00  0.00    -0.352 N 
ATOM     18  H   UNL A   1      35.815  24.257  22.906  1.00  0.00     0.163 HD
BRANCH  17  19
ATOM     19  C   UNL A   1      34.780  22.985  24.240  1.00  0.00     0.151 C 
BRANCH  19  20
ATOM     20  C   UNL A   1      36.068  22.690  24.968  1.00  0.00    -0.029 A 
ATOM     21  C   UNL A   1      36.788  21.517  24.696  1.00  0.00     0.005 A 
ATOM     22  C   UNL A   1      36.659  23.679  25.765  1.00  0.00     0.009 A 
ATOM     23  C   UNL A   1      38.069  21.335  25.207  1.00  0.00     0.001 A 
ATOM     24  C   UNL A   1      37.950  23.507  26.275  1.00  0.00    -0.051 A 
ATOM     25  C   UNL A   1      38.647  22.325  25.998  1.00  0.00     0.003 A 
ATOM     26  C   UNL A   1      38.588  24.576  27.109  1.00  0.00     0.044 C 
ENDBRANCH  19  20
ENDBRANCH  17  19
ENDBRANCH  14  15
ENDBRANCH   9  14
ENDBRANCH   3   6
ENDBRANCH   1   2
BRANCH   1  27
ATOM     27  C   UNL A   1      32.593  29.913  26.813  1.00  0.00     0.023 C 
BRANCH  27  28
ATOM     28  C   UNL A   1      34.075  29.799  26.446  1.00  0.00     0.023 C 
BRANCH  28  29
ATOM     29  C   UNL A   1      34.944  29.175  27.527  1.00  0.00     0.116 C 
BRANCH  29  30
ATOM     30  N   UNL A   1      35.242  30.103  28.618  1.00  0.00    -0.352 N 
ATOM     31  C   UNL A   1      36.369  30.147  29.416  1.00  0.00     0.251 C 
ATOM     32  H   UNL A   1      34.554  30.781  28.807  1.00  0.00     0.163 HD
ATOM     33  O   UNL A   1      36.414  30.787  30.445  1.00  0.00    -0.269 OA
BRANCH  31  34
ATOM     34  C   UNL A   1      37.527  29.355  28.967  1.00  0.00     0.039 A 
ATOM     35  C   UNL A   1      38.250  29.771  27.853  1.00  0.00     0.014 A 
ATOM     36  C   UNL A   1      37.981  28.327  29.794  1.00  0.00     0.014 A 
ATOM     37  C   UNL A   1      39.507  29.217  27.633  1.00  0.00     0.010 A 
ATOM     38  C   UNL A   1      39.266  27.843  29.618  1.00  0.00     0.010 A 
ATOM     39  C   UNL A   1      40.043  28.287  28.545  1.00  0.00    -0.014 A 
BRANCH  39  40
ATOM     40  C   UNL A   1      41.463  27.929  28.428  1.00  0.00     0.031 A 
ATOM     41  C   UNL A   1      41.773  26.672  27.677  1.00  0.00     0.074 A 
ATOM     42  C   UNL A   1      42.509  28.711  28.771  1.00  0.00     0.049 A 
ATOM     43  N   UNL A   1      42.330  25.594  28.129  1.00  0.00    -0.248 NA
ATOM     44  C   UNL A   1      41.381  26.593  26.261  1.00  0.00     0.031 C 
ATOM     45  C   UNL A   1      42.505  30.107  29.214  1.00  0.00     0.029 A 
ATOM     46  N   UNL A   1      43.840  28.416  28.691  1.00  0.00    -0.354 N 
ATOM     47  C   UNL A   1      42.503  24.751  27.034  1.00  0.00     0.074 A 
ATOM     48  C   UNL A   1      41.815  25.374  25.929  1.00  0.00     0.031 C 
ATOM     49  C   UNL A   1      43.760  30.602  29.142  1.00  0.00     0.029 A 
ATOM     50  C   UNL A   1      44.670  29.515  28.833  1.00  0.00     0.049 A 
ATOM     51  H   UNL A   1      44.180  27.503  28.546  1.00  0.00     0.167 HD
ATOM     52  C   UNL A   1      43.350  23.684  27.060  1.00  0.00     0.031 A 
ATOM     53  C   UNL A   1      46.015  29.546  28.712  1.00  0.00     0.031 A 
ATOM     54  C   UNL A   1      43.747  23.331  28.396  1.00  0.00     0.049 A 
ATOM     55  C   UNL A   1      46.527  28.176  28.909  1.00  0.00     0.074 A 
ATOM     56  C   UNL A   1      43.101  22.910  29.540  1.00  0.00     0.029 A 
ATOM     57  N   UNL A   1      45.003  23.714  28.794  1.00  0.00    -0.354 N 
ATOM     58  N   UNL A   1      46.495  27.552  30.050  1.00  0.00    -0.248 NA
ATOM     59  C   UNL A   1      46.818  27.344  27.753  1.00  0.00     0.031 C 
ATOM     60  C   UNL A   1      43.831  23.500  30.616  1.00  0.00     0.029 A 
ATOM     61  C   UNL A   1      44.895  24.217  30.065  1.00  0.00     0.049 A 
ATOM     62  H   UNL A   1      45.830  23.641  28.265  1.00  0.00     0.167 HD
ATOM     63  C   UNL A   1      46.324  26.220  29.718  1.00  0.00     0.074 A 
ATOM     64  C   UNL A   1      46.702  26.137  28.312  1.00  0.00     0.031 C 
ATOM     65  C   UNL A   1      45.624  25.377  30.534  1.00  0.00     0.031 A 
BRANCH  52  66
ATOM     66  C   UNL A   1      44.110  23.182  25.856  1.00  0.00    -0.014 A 
ATOM     67  C   UNL A   1      44.004  21.826  25.491  1.00  0.00     0.009 A 
ATOM     68  C   UNL A   1      45.138  23.923  25.242  1.00  0.00     0.009 A 
ATOM     69  C   UNL A   1      44.908  21.237  24.597  1.00  0.00     0.001 A 
ATOM     70  C   UNL A   1      46.016  23.348  24.318  1.00  0.00     0.001 A 
ATOM     71  C   UNL A   1      45.915  21.998  24.012  1.00  0.00     0.000 A 
ENDBRANCH  52  66
BRANCH  53  72
ATOM     72  C   UNL A   1      46.888  30.662  28.313  1.00  0.00    -0.014 A 
ATOM     73  C   UNL A   1      46.767  31.253  27.048  1.00  0.00     0.009 A 
ATOM     74  C   UNL A   1      47.670  31.319  29.280  1.00  0.00     0.009 A 
ATOM     75  C   UNL A   1      47.372  32.484  26.773  1.00  0.00     0.001 A 
ATOM     76  C   UNL A   1      48.278  32.548  29.004  1.00  0.00     0.001 A 
ATOM     77  C   UNL A   1      48.114  33.138  27.756  1.00  0.00     0.000 A 
ENDBRANCH  53  72
BRANCH  65  78
ATOM     78  C   UNL A   1      45.345  25.841  31.945  1.00  0.00    -0.014 A 
ATOM     79  C   UNL A   1      46.193  25.554  33.030  1.00  0.00     0.009 A 
ATOM     80  C   UNL A   1      44.242  26.677  32.173  1.00  0.00     0.009 A 
ATOM     81  C   UNL A   1      45.915  26.039  34.311  1.00  0.00     0.001 A 
ATOM     82  C   UNL A   1      43.978  27.185  33.448  1.00  0.00     0.001 A 
ATOM     83  C   UNL A   1      44.807  26.856  34.519  1.00  0.00     0.000 A 
ENDBRANCH  65  78
ENDBRANCH  39  40
ENDBRANCH  31  34
ENDBRANCH  29  30
ENDBRANCH  28  29
ENDBRANCH  27  28
ENDBRANCH   1  27
TORSDOF 16
ENDMDL
MODEL 3
REMARK VINA RESULT:     -11.3      1.478      4.116
REMARK SMILES CCn1cc(C)c(C(=O)NCCCCNC(=O)c2ccc(-c3c4nc(c(-c5ccccc5)c5ccc([nH]5)c(-c5ccccc5)c5nc(c(-c6ccccc6)c6ccc3[nH]6)C=C5)C=C4)cc2)c1CC(=O)NCc1cccc(C)c1
REMARK SMILES IDX 11 1 10 2 8 3 9 4 7 6 3 7 4 8 66 9 5 10 6 11 2 12 1 13 67 14
REMARK SMILES IDX 68 15 69 16 70 17 71 19 72 20 73 21 78 22 74 23 76 24 75 25
REMARK SMILES IDX 77 26 12 27 13 28 14 29 15 30 16 31 17 33 18 34 19 35 65 36
REMARK SMILES IDX 20 37 64 38 21 39 22 40 23 41 58 42 24 43 63 44 57 45 59 46
REMARK SMILES IDX 25 47 62 48 56 49 55 50 26 52 48 53 33 54 47 55 34 56 37 57
REMARK SMILES IDX 46 58 60 59 35 60 36 61 45 63 61 64 38 65 27 66 28 67 32 68
REMARK SMILES IDX 29 69 31 70 30 71 49 72 50 73 54 74 51 75 53 76 52 77 39 78
REMARK SMILES IDX 40 79 44 80 41 81 43 82 42 83
REMARK H PARENT 10 5 70 18 15 32 59 51 37 62
REMARK Flexibility Score: inf
ROOT
ATOM      1  C   UNL A   1      32.236  27.734  26.893  1.00  0.00     0.116 C 
ENDROOT
BRANCH   1   2
ATOM      2  N   UNL A   1      31.135  26.844  26.582  1.00  0.00    -0.352 N 
ATOM      3  C   UNL A   1      30.999  25.586  26.041  1.00  0.00     0.253 C 
ATOM      4  O   UNL A   1      29.865  25.112  26.194  1.00  0.00    -0.269 OA
ATOM      5  H   UNL A   1      30.265  27.240  26.817  1.00  0.00     0.163 HD
BRANCH   3   6
ATOM      6  C   UNL A   1      32.067  24.770  25.402  1.00  0.00     0.064 A 
ATOM      7  N   UNL A   1      33.571  23.768  24.029  1.00  0.00    -0.350 N 
ATOM      8  C   UNL A   1      33.708  23.181  25.260  1.00  0.00     0.090 A 
ATOM      9  C   UNL A   1      32.465  24.608  24.060  1.00  0.00     0.040 A 
ATOM     10  C   UNL A   1      32.753  23.698  26.103  1.00  0.00    -0.020 A 
ATOM     11  C   UNL A   1      32.451  23.154  27.460  1.00  0.00     0.047 C 
BRANCH   7  12
ATOM     12  C   UNL A   1      34.352  23.264  22.902  1.00  0.00     0.118 C 
ATOM     13  C   UNL A   1      35.823  22.952  23.122  1.00  0.00     0.027 C 
ENDBRANCH   7  12
BRANCH   9  14
ATOM     14  C   UNL A   1      31.794  25.062  22.807  1.00  0.00     0.154 C 
BRANCH  14  15
ATOM     15  C   UNL A   1      32.540  26.234  22.173  1.00  0.00     0.226 C 
ATOM     16  O   UNL A   1      33.656  26.168  21.661  1.00  0.00    -0.275 OA
ATOM     17  N   UNL A   1      31.890  27.436  22.119  1.00  0.00    -0.352 N 
ATOM     18  H   UNL A   1      31.704  27.851  21.246  1.00  0.00     0.163 HD
BRANCH  17  19
ATOM     19  C   UNL A   1      31.472  28.103  23.332  1.00  0.00     0.151 C 
BRANCH  19  20
ATOM     20  C   UNL A   1      30.000  28.407  23.195  1.00  0.00    -0.029 A 
ATOM     21  C   UNL A   1      29.042  27.409  23.425  1.00  0.00     0.005 A 
ATOM     22  C   UNL A   1      29.575  29.733  23.042  1.00  0.00     0.009 A 
ATOM     23  C   UNL A   1      27.689  27.727  23.501  1.00  0.00     0.001 A 
ATOM     24  C   UNL A   1      28.218  30.062  23.126  1.00  0.00    -0.051 A 
ATOM     25  C   UNL A   1      27.278  29.048  23.348  1.00  0.00     0.003 A 
ATOM     26  C   UNL A   1      27.769  31.484  22.984  1.00  0.00     0.044 C 
ENDBRANCH  19  20
ENDBRANCH  17  19
ENDBRANCH  14  15
ENDBRANCH   9  14
ENDBRANCH   3   6
ENDBRANCH   1   2
BRANCH   1  27
ATOM     27  C   UNL A   1      31.789  29.076  27.494  1.00  0.00     0.023 C 
BRANCH  27  28
ATOM     28  C   UNL A   1      32.267  30.366  26.821  1.00  0.00     0.023 C 
BRANCH  28  29
ATOM     29  C   UNL A   1      33.700  30.754  27.154  1.00  0.00     0.116 C 
BRANCH  29  30
ATOM     30  N   UNL A   1      33.789  31.664  28.294  1.00  0.00    -0.352 N 
ATOM     31  C   UNL A   1      34.801  31.763  29.231  1.00  0.00     0.251 C 
ATOM     32  H   UNL A   1      33.033  32.285  28.410  1.00  0.00     0.163 HD
ATOM     33  O   UNL A   1      34.667  32.371  30.271  1.00  0.00    -0.269 OA
BRANCH  31  34
ATOM     34  C   UNL A   1      36.062  31.072  28.915  1.00  0.00     0.039 A 
ATOM     35  C   UNL A   1      37.270  31.741  29.082  1.00  0.00     0.014 A 
ATOM     36  C   UNL A   1      36.012  29.703  28.650  1.00  0.00     0.014 A 
ATOM     37  C   UNL A   1      38.445  30.996  29.095  1.00  0.00     0.010 A 
ATOM     38  C   UNL A   1      37.175  28.958  28.749  1.00  0.00     0.010 A 
ATOM     39  C   UNL A   1      38.398  29.593  28.981  1.00  0.00    -0.014 A 
BRANCH  39  40
ATOM     40  C   UNL A   1      39.618  28.826  29.264  1.00  0.00     0.031 A 
ATOM     41  C   UNL A   1      39.997  28.685  30.706  1.00  0.00     0.074 A 
ATOM     42  C   UNL A   1      40.318  28.092  28.373  1.00  0.00     0.049 A 
ATOM     43  N   UNL A   1      41.061  29.129  31.294  1.00  0.00    -0.248 NA
ATOM     44  C   UNL A   1      39.058  27.998  31.607  1.00  0.00     0.031 C 
ATOM     45  C   UNL A   1      39.991  27.783  26.980  1.00  0.00     0.029 A 
ATOM     46  N   UNL A   1      41.461  27.374  28.588  1.00  0.00    -0.354 N 
ATOM     47  C   UNL A   1      41.014  28.656  32.603  1.00  0.00     0.074 A 
ATOM     48  C   UNL A   1      39.715  28.049  32.769  1.00  0.00     0.031 C 
ATOM     49  C   UNL A   1      40.776  26.770  26.549  1.00  0.00     0.029 A 
ATOM     50  C   UNL A   1      41.775  26.496  27.566  1.00  0.00     0.049 A 
ATOM     51  H   UNL A   1      42.012  27.474  29.398  1.00  0.00     0.167 HD
ATOM     52  C   UNL A   1      42.110  28.636  33.412  1.00  0.00     0.031 A 
ATOM     53  C   UNL A   1      42.786  25.600  27.538  1.00  0.00     0.031 A 
ATOM     54  C   UNL A   1      43.179  29.455  32.910  1.00  0.00     0.049 A 
ATOM     55  C   UNL A   1      43.807  26.027  28.514  1.00  0.00     0.074 A 
ATOM     56  C   UNL A   1      43.349  30.795  32.628  1.00  0.00     0.029 A 
ATOM     57  N   UNL A   1      44.224  28.808  32.300  1.00  0.00    -0.354 N 
ATOM     58  N   UNL A   1      44.545  27.088  28.367  1.00  0.00    -0.248 NA
ATOM     59  C   UNL A   1      43.821  25.438  29.843  1.00  0.00     0.031 C 
ATOM     60  C   UNL A   1      44.208  30.827  31.487  1.00  0.00     0.029 A 
ATOM     61  C   UNL A   1      44.534  29.509  31.163  1.00  0.00     0.049 A 
ATOM     62  H   UNL A   1      44.670  27.991  32.620  1.00  0.00     0.167 HD
ATOM     63  C   UNL A   1      44.760  27.548  29.654  1.00  0.00     0.074 A 
ATOM     64  C   UNL A   1      44.445  26.411  30.512  1.00  0.00     0.031 C 
ATOM     65  C   UNL A   1      44.895  28.884  29.908  1.00  0.00     0.031 A 
BRANCH  52  66
ATOM     66  C   UNL A   1      42.353  27.592  34.476  1.00  0.00    -0.014 A 
ATOM     67  C   UNL A   1      42.764  26.301  34.091  1.00  0.00     0.009 A 
ATOM     68  C   UNL A   1      41.923  27.748  35.807  1.00  0.00     0.009 A 
ATOM     69  C   UNL A   1      42.703  25.219  34.980  1.00  0.00     0.001 A 
ATOM     70  C   UNL A   1      41.900  26.679  36.709  1.00  0.00     0.001 A 
ATOM     71  C   UNL A   1      42.269  25.409  36.288  1.00  0.00     0.000 A 
ENDBRANCH  52  66
BRANCH  53  72
ATOM     72  C   UNL A   1      42.877  24.323  26.811  1.00  0.00    -0.014 A 
ATOM     73  C   UNL A   1      43.787  24.159  25.757  1.00  0.00     0.009 A 
ATOM     74  C   UNL A   1      42.247  23.177  27.327  1.00  0.00     0.009 A 
ATOM     75  C   UNL A   1      44.090  22.884  25.266  1.00  0.00     0.001 A 
ATOM     76  C   UNL A   1      42.546  21.904  26.835  1.00  0.00     0.001 A 
ATOM     77  C   UNL A   1      43.481  21.757  25.815  1.00  0.00     0.000 A 
ENDBRANCH  53  72
BRANCH  65  78
ATOM     78  C   UNL A   1      45.148  29.798  28.732  1.00  0.00    -0.014 A 
ATOM     79  C   UNL A   1      44.116  30.331  27.938  1.00  0.00     0.009 A 
ATOM     80  C   UNL A   1      46.462  30.216  28.473  1.00  0.00     0.009 A 
ATOM     81  C   UNL A   1      44.396  31.207  26.885  1.00  0.00     0.001 A 
ATOM     82  C   UNL A   1      46.740  31.112  27.438  1.00  0.00     0.001 A 
ATOM     83  C   UNL A   1      45.709  31.597  26.636  1.00  0.00     0.000 A 
ENDBRANCH  65  78
ENDBRANCH  39  40
ENDBRANCH  31  34
ENDBRANCH  29  30
ENDBRANCH  28  29
ENDBRANCH  27  28
ENDBRANCH   1  27
TORSDOF 16
ENDMDL
