MODEL 1
REMARK VINA RESULT:     -11.6      0.000      0.000
REMARK SMILES COc1c(C(=O)NCCCCNC(=O)c2ccc(-c3c4nc(c(-c5ccccc5)c5ccc([nH]5)c(-c5ccccc5)c5nc(c(-c6ccccc6)c6ccc3[nH]6)C=C5)C=C4)cc2)cccc1-c1ccc2ccccc2c1
REMARK SMILES IDX 10 1 9 2 8 3 7 4 5 5 6 6 4 8 3 9 66 10 63 11 65 12 64 13
REMARK SMILES IDX 2 14 1 15 67 16 68 17 76 18 69 19 75 20 70 21 74 22 71 23
REMARK SMILES IDX 73 24 72 25 11 26 12 27 13 28 14 30 15 31 16 32 62 33 17 34
REMARK SMILES IDX 61 35 18 36 19 37 20 38 55 39 21 40 60 41 54 42 56 43 22 44
REMARK SMILES IDX 59 45 53 46 52 47 23 49 45 50 30 51 44 52 31 53 34 54 43 55
REMARK SMILES IDX 57 56 32 57 33 58 42 60 58 61 35 62 24 63 25 64 29 65 26 66
REMARK SMILES IDX 28 67 27 68 46 69 47 70 51 71 48 72 50 73 49 74 36 75 37 76
REMARK SMILES IDX 41 77 38 78 40 79 39 80
REMARK H PARENT 7 7 12 29 56 48 34 59
REMARK Flexibility Score: inf
ROOT
ATOM      1  C   UNL A   1      36.619  22.241  24.238  1.00  0.00     0.023 C 
ENDROOT
BRANCH   1   2
ATOM      2  C   UNL A   1      36.068  20.938  24.802  1.00  0.00     0.023 C 
BRANCH   2   3
ATOM      3  C   UNL A   1      35.192  21.039  26.037  1.00  0.00     0.116 C 
BRANCH   3   4
ATOM      4  N   UNL A   1      33.813  20.652  25.942  1.00  0.00    -0.352 N 
ATOM      5  C   UNL A   1      32.858  21.171  25.085  1.00  0.00     0.255 C 
ATOM      6  O   UNL A   1      31.777  20.582  25.021  1.00  0.00    -0.269 OA
ATOM      7  H   UNL A   1      33.513  19.942  26.554  1.00  0.00     0.163 HD
BRANCH   5   8
ATOM      8  C   UNL A   1      33.015  22.476  24.356  1.00  0.00     0.082 A 
ATOM      9  C   UNL A   1      33.089  23.777  24.915  1.00  0.00     0.139 A 
ATOM     10  C   UNL A   1      33.103  24.913  24.052  1.00  0.00     0.025 A 
ATOM     11  C   UNL A   1      33.068  22.330  22.954  1.00  0.00     0.018 A 
ATOM     12  C   UNL A   1      33.165  24.710  22.657  1.00  0.00     0.012 A 
ATOM     13  C   UNL A   1      33.165  23.433  22.112  1.00  0.00     0.002 A 
BRANCH   9  14
ATOM     14  O   UNL A   1      33.280  23.873  26.277  1.00  0.00    -0.495 OA
ATOM     15  C   UNL A   1      32.120  23.898  27.116  1.00  0.00     0.278 C 
ENDBRANCH   9  14
BRANCH  10  16
ATOM     16  C   UNL A   1      32.893  26.292  24.518  1.00  0.00    -0.014 A 
ATOM     17  C   UNL A   1      31.605  26.841  24.378  1.00  0.00     0.009 A 
ATOM     18  C   UNL A   1      33.869  27.033  25.198  1.00  0.00     0.017 A 
ATOM     19  C   UNL A   1      31.264  28.039  24.999  1.00  0.00     0.009 A 
ATOM     20  C   UNL A   1      33.534  28.241  25.845  1.00  0.00    -0.018 A 
ATOM     21  C   UNL A   1      32.207  28.730  25.762  1.00  0.00    -0.018 A 
ATOM     22  C   UNL A   1      34.467  28.952  26.617  1.00  0.00     0.009 A 
ATOM     23  C   UNL A   1      31.844  29.885  26.468  1.00  0.00     0.009 A 
ATOM     24  C   UNL A   1      34.091  30.106  27.311  1.00  0.00     0.001 A 
ATOM     25  C   UNL A   1      32.779  30.567  27.244  1.00  0.00     0.001 A 
ENDBRANCH  10  16
ENDBRANCH   5   8
ENDBRANCH   3   4
ENDBRANCH   2   3
ENDBRANCH   1   2
BRANCH   1  26
ATOM     26  C   UNL A   1      37.532  23.058  25.147  1.00  0.00     0.116 C 
BRANCH  26  27
ATOM     27  N   UNL A   1      38.776  22.395  25.523  1.00  0.00    -0.352 N 
ATOM     28  C   UNL A   1      39.838  22.841  26.277  1.00  0.00     0.251 C 
ATOM     29  H   UNL A   1      38.872  21.476  25.179  1.00  0.00     0.163 HD
ATOM     30  O   UNL A   1      40.826  22.127  26.434  1.00  0.00    -0.269 OA
BRANCH  28  31
ATOM     31  C   UNL A   1      39.821  24.202  26.855  1.00  0.00     0.039 A 
ATOM     32  C   UNL A   1      39.253  24.397  28.117  1.00  0.00     0.014 A 
ATOM     33  C   UNL A   1      40.410  25.274  26.185  1.00  0.00     0.014 A 
ATOM     34  C   UNL A   1      39.390  25.632  28.756  1.00  0.00     0.010 A 
ATOM     35  C   UNL A   1      40.644  26.464  26.864  1.00  0.00     0.010 A 
ATOM     36  C   UNL A   1      40.148  26.655  28.163  1.00  0.00    -0.014 A 
BRANCH  36  37
ATOM     37  C   UNL A   1      40.453  27.920  28.881  1.00  0.00     0.031 A 
ATOM     38  C   UNL A   1      41.764  28.086  29.601  1.00  0.00     0.074 A 
ATOM     39  C   UNL A   1      39.515  28.887  28.966  1.00  0.00     0.049 A 
ATOM     40  N   UNL A   1      42.177  29.078  30.350  1.00  0.00    -0.248 NA
ATOM     41  C   UNL A   1      42.725  26.975  29.496  1.00  0.00     0.031 C 
ATOM     42  C   UNL A   1      38.182  28.837  28.361  1.00  0.00     0.029 A 
ATOM     43  N   UNL A   1      39.541  30.103  29.604  1.00  0.00    -0.354 N 
ATOM     44  C   UNL A   1      43.425  28.696  30.827  1.00  0.00     0.074 A 
ATOM     45  C   UNL A   1      43.679  27.363  30.329  1.00  0.00     0.031 C 
ATOM     46  C   UNL A   1      37.536  29.985  28.620  1.00  0.00     0.029 A 
ATOM     47  C   UNL A   1      38.386  30.833  29.448  1.00  0.00     0.049 A 
ATOM     48  H   UNL A   1      40.313  30.422  30.125  1.00  0.00     0.167 HD
ATOM     49  C   UNL A   1      44.292  29.397  31.595  1.00  0.00     0.031 A 
ATOM     50  C   UNL A   1      38.048  32.048  29.920  1.00  0.00     0.031 A 
ATOM     51  C   UNL A   1      44.054  30.733  32.069  1.00  0.00     0.049 A 
ATOM     52  C   UNL A   1      39.028  32.806  30.772  1.00  0.00     0.074 A 
ATOM     53  C   UNL A   1      44.906  31.558  32.783  1.00  0.00     0.029 A 
ATOM     54  N   UNL A   1      42.877  31.438  31.880  1.00  0.00    -0.354 N 
ATOM     55  N   UNL A   1      40.237  32.463  31.144  1.00  0.00    -0.248 NA
ATOM     56  C   UNL A   1      38.597  34.123  31.261  1.00  0.00     0.031 C 
ATOM     57  C   UNL A   1      44.223  32.743  33.073  1.00  0.00     0.029 A 
ATOM     58  C   UNL A   1      42.968  32.678  32.490  1.00  0.00     0.049 A 
ATOM     59  H   UNL A   1      42.092  31.107  31.388  1.00  0.00     0.167 HD
ATOM     60  C   UNL A   1      40.724  33.535  31.882  1.00  0.00     0.074 A 
ATOM     61  C   UNL A   1      39.683  34.543  31.894  1.00  0.00     0.031 C 
ATOM     62  C   UNL A   1      41.925  33.672  32.493  1.00  0.00     0.031 A 
BRANCH  49  63
ATOM     63  C   UNL A   1      45.581  28.720  31.975  1.00  0.00    -0.014 A 
ATOM     64  C   UNL A   1      45.681  27.939  33.138  1.00  0.00     0.009 A 
ATOM     65  C   UNL A   1      46.706  28.849  31.146  1.00  0.00     0.009 A 
ATOM     66  C   UNL A   1      46.893  27.338  33.485  1.00  0.00     0.001 A 
ATOM     67  C   UNL A   1      47.907  28.221  31.479  1.00  0.00     0.001 A 
ATOM     68  C   UNL A   1      48.003  27.476  32.654  1.00  0.00     0.000 A 
ENDBRANCH  49  63
BRANCH  50  69
ATOM     69  C   UNL A   1      36.730  32.645  29.575  1.00  0.00    -0.014 A 
ATOM     70  C   UNL A   1      35.659  32.560  30.479  1.00  0.00     0.009 A 
ATOM     71  C   UNL A   1      36.528  33.287  28.344  1.00  0.00     0.009 A 
ATOM     72  C   UNL A   1      34.407  33.083  30.146  1.00  0.00     0.001 A 
ATOM     73  C   UNL A   1      35.284  33.835  28.026  1.00  0.00     0.001 A 
ATOM     74  C   UNL A   1      34.222  33.724  28.923  1.00  0.00     0.000 A 
ENDBRANCH  50  69
BRANCH  62  75
ATOM     75  C   UNL A   1      42.198  34.974  33.191  1.00  0.00    -0.014 A 
ATOM     76  C   UNL A   1      41.688  35.237  34.472  1.00  0.00     0.009 A 
ATOM     77  C   UNL A   1      43.015  35.934  32.573  1.00  0.00     0.009 A 
ATOM     78  C   UNL A   1      41.965  36.451  35.105  1.00  0.00     0.001 A 
ATOM     79  C   UNL A   1      43.315  37.133  33.221  1.00  0.00     0.001 A 
ATOM     80  C   UNL A   1      42.781  37.394  34.481  1.00  0.00     0.000 A 
ENDBRANCH  62  75
ENDBRANCH  36  37
ENDBRANCH  28  31
ENDBRANCH  26  27
ENDBRANCH   1  26
TORSDOF 13
ENDMDL
MODEL 2
REMARK VINA RESULT:     -11.5      2.668      7.982
REMARK SMILES COc1c(C(=O)NCCCCNC(=O)c2ccc(-c3c4nc(c(-c5ccccc5)c5ccc([nH]5)c(-c5ccccc5)c5nc(c(-c6ccccc6)c6ccc3[nH]6)C=C5)C=C4)cc2)cccc1-c1ccc2ccccc2c1
REMARK SMILES IDX 10 1 9 2 8 3 7 4 5 5 6 6 4 8 3 9 66 10 63 11 65 12 64 13
REMARK SMILES IDX 2 14 1 15 67 16 68 17 76 18 69 19 75 20 70 21 74 22 71 23
REMARK SMILES IDX 73 24 72 25 11 26 12 27 13 28 14 30 15 31 16 32 62 33 17 34
REMARK SMILES IDX 61 35 18 36 19 37 20 38 55 39 21 40 60 41 54 42 56 43 22 44
REMARK SMILES IDX 59 45 53 46 52 47 23 49 45 50 30 51 44 52 31 53 34 54 43 55
REMARK SMILES IDX 57 56 32 57 33 58 42 60 58 61 35 62 24 63 25 64 29 65 26 66
REMARK SMILES IDX 28 67 27 68 46 69 47 70 51 71 48 72 50 73 49 74 36 75 37 76
REMARK SMILES IDX 41 77 38 78 40 79 39 80
REMARK H PARENT 7 7 12 29 56 48 34 59
REMARK Flexibility Score: inf
ROOT
ATOM      1  C   UNL A   1      32.006  28.970  26.661  1.00  0.00     0.023 C 
ENDROOT
BRANCH   1   2
ATOM      2  C   UNL A   1      31.640  29.834  25.462  1.00  0.00     0.023 C 
BRANCH   2   3
ATOM      3  C   UNL A   1      31.369  29.116  24.153  1.00  0.00     0.116 C 
BRANCH   3   4
ATOM      4  N   UNL A   1      30.134  28.401  23.997  1.00  0.00    -0.352 N 
ATOM      5  C   UNL A   1      29.978  27.054  23.723  1.00  0.00     0.255 C 
ATOM      6  O   UNL A   1      28.840  26.588  23.811  1.00  0.00    -0.269 OA
ATOM      7  H   UNL A   1      29.307  28.927  24.093  1.00  0.00     0.163 HD
BRANCH   5   8
ATOM      8  C   UNL A   1      31.078  26.182  23.186  1.00  0.00     0.082 A 
ATOM      9  C   UNL A   1      31.792  25.167  23.872  1.00  0.00     0.139 A 
ATOM     10  C   UNL A   1      32.899  24.533  23.234  1.00  0.00     0.025 A 
ATOM     11  C   UNL A   1      31.412  26.464  21.845  1.00  0.00     0.018 A 
ATOM     12  C   UNL A   1      33.183  24.846  21.889  1.00  0.00     0.012 A 
ATOM     13  C   UNL A   1      32.438  25.788  21.193  1.00  0.00     0.002 A 
BRANCH   9  14
ATOM     14  O   UNL A   1      31.290  24.747  25.085  1.00  0.00    -0.495 OA
ATOM     15  C   UNL A   1      31.823  25.343  26.273  1.00  0.00     0.278 C 
ENDBRANCH   9  14
BRANCH  10  16
ATOM     16  C   UNL A   1      33.872  23.686  23.943  1.00  0.00    -0.014 A 
ATOM     17  C   UNL A   1      33.687  22.293  23.889  1.00  0.00     0.009 A 
ATOM     18  C   UNL A   1      35.026  24.187  24.559  1.00  0.00     0.017 A 
ATOM     19  C   UNL A   1      34.678  21.419  24.328  1.00  0.00     0.009 A 
ATOM     20  C   UNL A   1      36.046  23.316  24.994  1.00  0.00    -0.018 A 
ATOM     21  C   UNL A   1      35.875  21.917  24.850  1.00  0.00    -0.018 A 
ATOM     22  C   UNL A   1      37.257  23.794  25.521  1.00  0.00     0.009 A 
ATOM     23  C   UNL A   1      36.914  21.046  25.203  1.00  0.00     0.009 A 
ATOM     24  C   UNL A   1      38.282  22.912  25.875  1.00  0.00     0.001 A 
ATOM     25  C   UNL A   1      38.114  21.541  25.708  1.00  0.00     0.001 A 
ENDBRANCH  10  16
ENDBRANCH   5   8
ENDBRANCH   3   4
ENDBRANCH   2   3
ENDBRANCH   1   2
BRANCH   1  26
ATOM     26  C   UNL A   1      33.386  29.184  27.274  1.00  0.00     0.116 C 
BRANCH  26  27
ATOM     27  N   UNL A   1      33.590  30.494  27.882  1.00  0.00    -0.352 N 
ATOM     28  C   UNL A   1      34.704  31.044  28.476  1.00  0.00     0.251 C 
ATOM     29  H   UNL A   1      32.800  31.083  27.865  1.00  0.00     0.163 HD
ATOM     30  O   UNL A   1      34.646  32.165  28.976  1.00  0.00    -0.269 OA
BRANCH  28  31
ATOM     31  C   UNL A   1      35.960  30.268  28.566  1.00  0.00     0.039 A 
ATOM     32  C   UNL A   1      36.843  30.278  27.483  1.00  0.00     0.014 A 
ATOM     33  C   UNL A   1      36.294  29.577  29.729  1.00  0.00     0.014 A 
ATOM     34  C   UNL A   1      38.111  29.705  27.617  1.00  0.00     0.010 A 
ATOM     35  C   UNL A   1      37.592  29.107  29.901  1.00  0.00     0.010 A 
ATOM     36  C   UNL A   1      38.521  29.176  28.852  1.00  0.00    -0.014 A 
BRANCH  36  37
ATOM     37  C   UNL A   1      39.913  28.708  29.079  1.00  0.00     0.031 A 
ATOM     38  C   UNL A   1      40.937  29.636  29.676  1.00  0.00     0.074 A 
ATOM     39  C   UNL A   1      40.284  27.479  28.663  1.00  0.00     0.049 A 
ATOM     40  N   UNL A   1      42.217  29.439  29.873  1.00  0.00    -0.248 NA
ATOM     41  C   UNL A   1      40.469  30.975  30.071  1.00  0.00     0.031 C 
ATOM     42  C   UNL A   1      39.409  26.495  28.021  1.00  0.00     0.029 A 
ATOM     43  N   UNL A   1      41.504  26.849  28.715  1.00  0.00    -0.354 N 
ATOM     44  C   UNL A   1      42.708  30.635  30.382  1.00  0.00     0.074 A 
ATOM     45  C   UNL A   1      41.603  31.566  30.414  1.00  0.00     0.031 C 
ATOM     46  C   UNL A   1      40.107  25.374  27.779  1.00  0.00     0.029 A 
ATOM     47  C   UNL A   1      41.488  25.573  28.202  1.00  0.00     0.049 A 
ATOM     48  H   UNL A   1      42.313  27.271  29.084  1.00  0.00     0.167 HD
ATOM     49  C   UNL A   1      43.960  30.928  30.804  1.00  0.00     0.031 A 
ATOM     50  C   UNL A   1      42.476  24.665  28.084  1.00  0.00     0.031 A 
ATOM     51  C   UNL A   1      45.054  29.994  30.799  1.00  0.00     0.049 A 
ATOM     52  C   UNL A   1      43.859  25.015  28.559  1.00  0.00     0.074 A 
ATOM     53  C   UNL A   1      46.339  30.171  31.283  1.00  0.00     0.029 A 
ATOM     54  N   UNL A   1      44.993  28.711  30.280  1.00  0.00    -0.354 N 
ATOM     55  N   UNL A   1      44.286  26.122  29.115  1.00  0.00    -0.248 NA
ATOM     56  C   UNL A   1      44.893  23.983  28.397  1.00  0.00     0.031 C 
ATOM     57  C   UNL A   1      47.071  29.012  31.008  1.00  0.00     0.029 A 
ATOM     58  C   UNL A   1      46.226  28.094  30.405  1.00  0.00     0.049 A 
ATOM     59  H   UNL A   1      44.193  28.300  29.881  1.00  0.00     0.167 HD
ATOM     60  C   UNL A   1      45.629  25.910  29.399  1.00  0.00     0.074 A 
ATOM     61  C   UNL A   1      45.941  24.563  28.965  1.00  0.00     0.031 C 
ATOM     62  C   UNL A   1      46.522  26.753  29.970  1.00  0.00     0.031 A 
BRANCH  49  63
ATOM     63  C   UNL A   1      44.213  32.325  31.301  1.00  0.00    -0.014 A 
ATOM     64  C   UNL A   1      44.006  32.672  32.646  1.00  0.00     0.009 A 
ATOM     65  C   UNL A   1      44.686  33.305  30.414  1.00  0.00     0.009 A 
ATOM     66  C   UNL A   1      44.225  33.980  33.082  1.00  0.00     0.001 A 
ATOM     67  C   UNL A   1      44.934  34.604  30.859  1.00  0.00     0.001 A 
ATOM     68  C   UNL A   1      44.692  34.944  32.189  1.00  0.00     0.000 A 
ENDBRANCH  49  63
BRANCH  50  69
ATOM     69  C   UNL A   1      42.191  23.319  27.518  1.00  0.00    -0.014 A 
ATOM     70  C   UNL A   1      42.492  23.041  26.175  1.00  0.00     0.009 A 
ATOM     71  C   UNL A   1      41.609  22.313  28.304  1.00  0.00     0.009 A 
ATOM     72  C   UNL A   1      42.192  21.793  25.625  1.00  0.00     0.001 A 
ATOM     73  C   UNL A   1      41.337  21.056  27.759  1.00  0.00     0.001 A 
ATOM     74  C   UNL A   1      41.619  20.800  26.418  1.00  0.00     0.000 A 
ENDBRANCH  50  69
BRANCH  62  75
ATOM     75  C   UNL A   1      47.913  26.232  30.198  1.00  0.00    -0.014 A 
ATOM     76  C   UNL A   1      48.876  26.252  29.178  1.00  0.00     0.009 A 
ATOM     77  C   UNL A   1      48.275  25.754  31.467  1.00  0.00     0.009 A 
ATOM     78  C   UNL A   1      50.166  25.772  29.417  1.00  0.00     0.001 A 
ATOM     79  C   UNL A   1      49.573  25.304  31.712  1.00  0.00     0.001 A 
ATOM     80  C   UNL A   1      50.514  25.304  30.684  1.00  0.00     0.000 A 
ENDBRANCH  62  75
ENDBRANCH  36  37
ENDBRANCH  28  31
ENDBRANCH  26  27
ENDBRANCH   1  26
TORSDOF 13
ENDMDL
MODEL 3
REMARK VINA RESULT:     -11.4      0.275      5.887
REMARK SMILES COc1c(C(=O)NCCCCNC(=O)c2ccc(-c3c4nc(c(-c5ccccc5)c5ccc([nH]5)c(-c5ccccc5)c5nc(c(-c6ccccc6)c6ccc3[nH]6)C=C5)C=C4)cc2)cccc1-c1ccc2ccccc2c1
REMARK SMILES IDX 10 1 9 2 8 3 7 4 5 5 6 6 4 8 3 9 66 10 63 11 65 12 64 13
REMARK SMILES IDX 2 14 1 15 67 16 68 17 76 18 69 19 75 20 70 21 74 22 71 23
REMARK SMILES IDX 73 24 72 25 11 26 12 27 13 28 14 30 15 31 16 32 62 33 17 34
REMARK SMILES IDX 61 35 18 36 19 37 20 38 55 39 21 40 60 41 54 42 56 43 22 44
REMARK SMILES IDX 59 45 53 46 52 47 23 49 45 50 30 51 44 52 31 53 34 54 43 55
REMARK SMILES IDX 57 56 32 57 33 58 42 60 58 61 35 62 24 63 25 64 29 65 26 66
REMARK SMILES IDX 28 67 27 68 46 69 47 70 51 71 48 72 50 73 49 74 36 75 37 76
REMARK SMILES IDX 41 77 38 78 40 79 39 80
REMARK H PARENT 7 7 12 29 56 48 34 59
REMARK Flexibility Score: inf
ROOT
ATOM      1  C   UNL A   1      36.493  22.440  24.250  1.00  0.00     0.023 C 
ENDROOT
BRANCH   1   2
ATOM      2  C   UNL A   1      36.005  21.068  24.693  1.00  0.00     0.023 C 
BRANCH   2   3
ATOM      3  C   UNL A   1      35.176  21.009  25.963  1.00  0.00     0.116 C 
BRANCH   3   4
ATOM      4  N   UNL A   1      33.801  20.606  25.876  1.00  0.00    -0.352 N 
ATOM      5  C   UNL A   1      32.836  21.112  25.023  1.00  0.00     0.255 C 
ATOM      6  O   UNL A   1      31.762  20.510  24.966  1.00  0.00    -0.269 OA
ATOM      7  H   UNL A   1      33.513  19.894  26.491  1.00  0.00     0.163 HD
BRANCH   5   8
ATOM      8  C   UNL A   1      32.974  22.417  24.290  1.00  0.00     0.082 A 
ATOM      9  C   UNL A   1      33.060  23.718  24.846  1.00  0.00     0.139 A 
ATOM     10  C   UNL A   1      33.053  24.853  23.982  1.00  0.00     0.025 A 
ATOM     11  C   UNL A   1      32.994  22.270  22.887  1.00  0.00     0.018 A 
ATOM     12  C   UNL A   1      33.082  24.650  22.587  1.00  0.00     0.012 A 
ATOM     13  C   UNL A   1      33.071  23.373  22.042  1.00  0.00     0.002 A 
BRANCH   9  14
ATOM     14  O   UNL A   1      33.283  23.815  26.203  1.00  0.00    -0.495 OA
ATOM     15  C   UNL A   1      32.146  23.801  27.072  1.00  0.00     0.278 C 
ENDBRANCH   9  14
BRANCH  10  16
ATOM     16  C   UNL A   1      32.852  26.233  24.453  1.00  0.00    -0.014 A 
ATOM     17  C   UNL A   1      31.573  26.797  24.297  1.00  0.00     0.009 A 
ATOM     18  C   UNL A   1      33.827  26.959  25.151  1.00  0.00     0.017 A 
ATOM     19  C   UNL A   1      31.237  27.996  24.919  1.00  0.00     0.009 A 
ATOM     20  C   UNL A   1      33.497  28.167  25.799  1.00  0.00    -0.018 A 
ATOM     21  C   UNL A   1      32.178  28.673  25.700  1.00  0.00    -0.018 A 
ATOM     22  C   UNL A   1      34.426  28.863  26.589  1.00  0.00     0.009 A 
ATOM     23  C   UNL A   1      31.817  29.828  26.406  1.00  0.00     0.009 A 
ATOM     24  C   UNL A   1      34.054  30.018  27.283  1.00  0.00     0.001 A 
ATOM     25  C   UNL A   1      32.749  30.495  27.199  1.00  0.00     0.001 A 
ENDBRANCH  10  16
ENDBRANCH   5   8
ENDBRANCH   3   4
ENDBRANCH   2   3
ENDBRANCH   1   2
BRANCH   1  26
ATOM     26  C   UNL A   1      37.420  23.187  25.203  1.00  0.00     0.116 C 
BRANCH  26  27
ATOM     27  N   UNL A   1      38.682  22.512  25.486  1.00  0.00    -0.352 N 
ATOM     28  C   UNL A   1      39.781  22.929  26.203  1.00  0.00     0.251 C 
ATOM     29  H   UNL A   1      38.761  21.610  25.098  1.00  0.00     0.163 HD
ATOM     30  O   UNL A   1      40.776  22.211  26.278  1.00  0.00    -0.269 OA
BRANCH  28  31
ATOM     31  C   UNL A   1      39.793  24.263  26.840  1.00  0.00     0.039 A 
ATOM     32  C   UNL A   1      39.215  24.417  28.104  1.00  0.00     0.014 A 
ATOM     33  C   UNL A   1      40.416  25.347  26.223  1.00  0.00     0.014 A 
ATOM     34  C   UNL A   1      39.378  25.620  28.798  1.00  0.00     0.010 A 
ATOM     35  C   UNL A   1      40.673  26.500  26.956  1.00  0.00     0.010 A 
ATOM     36  C   UNL A   1      40.168  26.648  28.257  1.00  0.00    -0.014 A 
BRANCH  36  37
ATOM     37  C   UNL A   1      40.498  27.872  29.034  1.00  0.00     0.031 A 
ATOM     38  C   UNL A   1      39.498  28.991  29.146  1.00  0.00     0.074 A 
ATOM     39  C   UNL A   1      41.731  28.019  29.562  1.00  0.00     0.049 A 
ATOM     40  N   UNL A   1      39.632  30.166  29.708  1.00  0.00    -0.248 NA
ATOM     41  C   UNL A   1      38.186  28.776  28.513  1.00  0.00     0.031 C 
ATOM     42  C   UNL A   1      42.815  27.037  29.484  1.00  0.00     0.029 A 
ATOM     43  N   UNL A   1      42.282  29.061  30.267  1.00  0.00    -0.354 N 
ATOM     44  C   UNL A   1      38.439  30.837  29.467  1.00  0.00     0.074 A 
ATOM     45  C   UNL A   1      37.615  29.961  28.666  1.00  0.00     0.031 C 
ATOM     46  C   UNL A   1      43.883  27.503  30.150  1.00  0.00     0.029 A 
ATOM     47  C   UNL A   1      43.580  28.835  30.662  1.00  0.00     0.049 A 
ATOM     48  H   UNL A   1      41.794  29.892  30.470  1.00  0.00     0.167 HD
ATOM     49  C   UNL A   1      38.054  32.064  29.890  1.00  0.00     0.031 A 
ATOM     50  C   UNL A   1      44.431  29.613  31.357  1.00  0.00     0.031 A 
ATOM     51  C   UNL A   1      38.861  32.926  30.710  1.00  0.00     0.049 A 
ATOM     52  C   UNL A   1      43.980  30.972  31.815  1.00  0.00     0.074 A 
ATOM     53  C   UNL A   1      38.527  34.152  31.260  1.00  0.00     0.029 A 
ATOM     54  N   UNL A   1      40.164  32.655  31.095  1.00  0.00    -0.354 N 
ATOM     55  N   UNL A   1      42.819  31.556  31.650  1.00  0.00    -0.248 NA
ATOM     56  C   UNL A   1      44.958  31.775  32.564  1.00  0.00     0.031 C 
ATOM     57  C   UNL A   1      39.648  34.648  31.932  1.00  0.00     0.029 A 
ATOM     58  C   UNL A   1      40.660  33.705  31.851  1.00  0.00     0.049 A 
ATOM     59  H   UNL A   1      40.663  31.839  30.865  1.00  0.00     0.167 HD
ATOM     60  C   UNL A   1      42.914  32.780  32.300  1.00  0.00     0.074 A 
ATOM     61  C   UNL A   1      44.243  32.848  32.873  1.00  0.00     0.031 C 
ATOM     62  C   UNL A   1      41.984  33.758  32.416  1.00  0.00     0.031 A 
BRANCH  49  63
ATOM     63  C   UNL A   1      36.695  32.548  29.462  1.00  0.00    -0.014 A 
ATOM     64  C   UNL A   1      36.513  33.240  28.254  1.00  0.00     0.009 A 
ATOM     65  C   UNL A   1      35.577  32.287  30.270  1.00  0.00     0.009 A 
ATOM     66  C   UNL A   1      35.247  33.700  27.887  1.00  0.00     0.001 A 
ATOM     67  C   UNL A   1      34.308  32.720  29.884  1.00  0.00     0.001 A 
ATOM     68  C   UNL A   1      34.145  33.437  28.700  1.00  0.00     0.000 A 
ENDBRANCH  49  63
BRANCH  50  69
ATOM     69  C   UNL A   1      45.793  29.118  31.693  1.00  0.00    -0.014 A 
ATOM     70  C   UNL A   1      46.863  29.345  30.815  1.00  0.00     0.009 A 
ATOM     71  C   UNL A   1      46.030  28.408  32.881  1.00  0.00     0.009 A 
ATOM     72  C   UNL A   1      48.137  28.849  31.104  1.00  0.00     0.001 A 
ATOM     73  C   UNL A   1      47.310  27.939  33.182  1.00  0.00     0.001 A 
ATOM     74  C   UNL A   1      48.360  28.151  32.289  1.00  0.00     0.000 A 
ENDBRANCH  50  69
BRANCH  62  75
ATOM     75  C   UNL A   1      42.354  34.969  33.225  1.00  0.00    -0.014 A 
ATOM     76  C   UNL A   1      42.042  35.058  34.590  1.00  0.00     0.009 A 
ATOM     77  C   UNL A   1      43.063  36.017  32.618  1.00  0.00     0.009 A 
ATOM     78  C   UNL A   1      42.406  36.190  35.323  1.00  0.00     0.001 A 
ATOM     79  C   UNL A   1      43.453  37.133  33.360  1.00  0.00     0.001 A 
ATOM     80  C   UNL A   1      43.115  37.223  34.709  1.00  0.00     0.000 A 
ENDBRANCH  62  75
ENDBRANCH  36  37
ENDBRANCH  28  31
ENDBRANCH  26  27
ENDBRANCH   1  26
TORSDOF 13
ENDMDL
