MODEL 1
REMARK VINA RESULT:     -10.5      0.000      0.000
REMARK SMILES CC[C@](C)([NH3+])C(=O)N1CC[NH+]([C@H](C)C(=O)NCCCCNC(=O)c2ccc(-c3c4nc(c(-c5ccccc5)c5ccc([nH]5)c(-c5ccccc5)c5nc(c(-c6ccccc6)c6ccc3[nH]6)C=C5)C=C4)cc2)CC1
REMARK SMILES IDX 18 1 17 2 16 3 14 4 15 5 12 7 13 8 11 9 6 10 7 11 8 12 9 13
REMARK SMILES IDX 73 14 10 15 72 16 3 18 4 19 2 20 1 21 5 22 19 26 20 27 21 28
REMARK SMILES IDX 22 29 23 31 24 32 25 33 71 34 26 35 70 36 27 37 28 38 29 39
REMARK SMILES IDX 64 40 30 41 69 42 63 43 65 44 31 45 68 46 62 47 61 48 32 50
REMARK SMILES IDX 54 51 39 52 53 53 40 54 43 55 52 56 66 57 41 58 42 59 51 61
REMARK SMILES IDX 67 62 44 63 33 64 34 65 38 66 35 67 37 68 36 69 55 70 56 71
REMARK SMILES IDX 60 72 57 73 59 74 58 75 45 76 46 77 50 78 47 79 49 80 48 81
REMARK H PARENT 16 6 11 17 5 23 5 24 5 25 21 30 65 49 43 60
REMARK Flexibility Score: inf
ROOT
ATOM      1  C   UNL A   1      36.305  19.826  24.950  1.00  0.00     0.023 C 
ENDROOT
BRANCH   1   2
ATOM      2  C   UNL A   1      34.911  20.434  25.007  1.00  0.00     0.116 C 
BRANCH   2   3
ATOM      3  N   UNL A   1      34.519  20.890  26.325  1.00  0.00    -0.351 N 
ATOM      4  C   UNL A   1      34.118  22.127  26.749  1.00  0.00     0.278 C 
ATOM      5  O   UNL A   1      33.606  22.182  27.873  1.00  0.00    -0.268 OA
ATOM      6  H   UNL A   1      34.545  20.200  27.026  1.00  0.00     0.163 HD
BRANCH   4   7
ATOM      7  C   UNL A   1      34.304  23.410  25.897  1.00  0.00     0.271 C 
ATOM      8  C   UNL A   1      35.775  23.810  25.731  1.00  0.00     0.086 C 
BRANCH   7   9
ATOM      9  N   UNL A   1      33.421  23.482  24.695  1.00  0.00    -0.322 N 
ATOM     10  C   UNL A   1      31.008  26.110  22.785  1.00  0.00     0.283 C 
ATOM     11  O   UNL A   1      31.499  26.802  21.878  1.00  0.00    -0.268 OA
ATOM     12  N   UNL A   1      31.511  24.836  22.990  1.00  0.00    -0.326 N 
ATOM     13  C   UNL A   1      32.843  24.536  22.469  1.00  0.00     0.181 C 
ATOM     14  C   UNL A   1      31.037  23.758  23.851  1.00  0.00     0.181 C 
ATOM     15  C   UNL A   1      33.808  24.470  23.671  1.00  0.00     0.284 C 
ATOM     16  C   UNL A   1      31.985  23.580  25.055  1.00  0.00     0.284 C 
ATOM     17  H   UNL A   1      33.571  22.584  24.233  1.00  0.00     0.348 HD
BRANCH  10  18
ATOM     18  C   UNL A   1      30.024  26.818  23.788  1.00  0.00     0.171 C 
ATOM     19  C   UNL A   1      29.550  28.126  23.117  1.00  0.00     0.090 C 
BRANCH  18  20
ATOM     20  C   UNL A   1      30.827  27.109  25.086  1.00  0.00     0.075 C 
ATOM     21  C   UNL A   1      31.522  28.465  25.149  1.00  0.00     0.011 C 
ENDBRANCH  18  20
BRANCH  18  22
ATOM     22  N   UNL A   1      28.806  26.039  24.096  1.00  0.00    -0.345 N 
ATOM     23  H   UNL A   1      28.031  26.677  24.278  1.00  0.00     0.345 HD
ATOM     24  H   UNL A   1      28.971  25.461  24.920  1.00  0.00     0.345 HD
ATOM     25  H   UNL A   1      28.575  25.442  23.303  1.00  0.00     0.345 HD
ENDBRANCH  18  22
ENDBRANCH  10  18
ENDBRANCH   7   9
ENDBRANCH   4   7
ENDBRANCH   2   3
ENDBRANCH   1   2
BRANCH   1  26
ATOM     26  C   UNL A   1      37.426  20.798  24.593  1.00  0.00     0.023 C 
BRANCH  26  27
ATOM     27  C   UNL A   1      38.528  20.954  25.636  1.00  0.00     0.116 C 
BRANCH  27  28
ATOM     28  N   UNL A   1      39.508  19.877  25.617  1.00  0.00    -0.352 N 
ATOM     29  C   UNL A   1      40.833  19.889  25.991  1.00  0.00     0.251 C 
ATOM     30  H   UNL A   1      39.173  19.011  25.290  1.00  0.00     0.163 HD
ATOM     31  O   UNL A   1      41.537  18.904  25.809  1.00  0.00    -0.269 OA
BRANCH  29  32
ATOM     32  C   UNL A   1      41.415  21.119  26.566  1.00  0.00     0.039 A 
ATOM     33  C   UNL A   1      41.979  22.063  25.704  1.00  0.00     0.014 A 
ATOM     34  C   UNL A   1      41.358  21.362  27.940  1.00  0.00     0.014 A 
ATOM     35  C   UNL A   1      42.396  23.295  26.209  1.00  0.00     0.010 A 
ATOM     36  C   UNL A   1      41.695  22.620  28.428  1.00  0.00     0.010 A 
ATOM     37  C   UNL A   1      42.207  23.602  27.568  1.00  0.00    -0.014 A 
BRANCH  37  38
ATOM     38  C   UNL A   1      42.522  24.950  28.106  1.00  0.00     0.031 A 
ATOM     39  C   UNL A   1      43.918  25.277  28.555  1.00  0.00     0.074 A 
ATOM     40  C   UNL A   1      41.533  25.852  28.267  1.00  0.00     0.049 A 
ATOM     41  N   UNL A   1      44.368  26.364  29.129  1.00  0.00    -0.248 NA
ATOM     42  C   UNL A   1      44.937  24.232  28.363  1.00  0.00     0.031 C 
ATOM     43  C   UNL A   1      40.126  25.646  27.917  1.00  0.00     0.029 A 
ATOM     44  N   UNL A   1      41.563  27.125  28.779  1.00  0.00    -0.354 N 
ATOM     45  C   UNL A   1      45.710  26.124  29.387  1.00  0.00     0.074 A 
ATOM     46  C   UNL A   1      45.993  24.774  28.951  1.00  0.00     0.031 C 
ATOM     47  C   UNL A   1      39.434  26.762  28.198  1.00  0.00     0.029 A 
ATOM     48  C   UNL A   1      40.337  27.747  28.785  1.00  0.00     0.049 A 
ATOM     49  H   UNL A   1      42.385  27.553  29.112  1.00  0.00     0.167 HD
ATOM     50  C   UNL A   1      46.634  26.959  29.920  1.00  0.00     0.031 A 
ATOM     51  C   UNL A   1      39.979  28.969  29.219  1.00  0.00     0.031 A 
ATOM     52  C   UNL A   1      46.362  28.308  30.335  1.00  0.00     0.049 A 
ATOM     53  C   UNL A   1      41.022  29.879  29.803  1.00  0.00     0.074 A 
ATOM     54  C   UNL A   1      47.245  29.253  30.828  1.00  0.00     0.029 A 
ATOM     55  N   UNL A   1      45.112  28.905  30.304  1.00  0.00    -0.354 N 
ATOM     56  N   UNL A   1      42.302  29.661  29.977  1.00  0.00    -0.248 NA
ATOM     57  C   UNL A   1      40.571  31.208  30.240  1.00  0.00     0.031 C 
ATOM     58  C   UNL A   1      46.521  30.409  31.134  1.00  0.00     0.029 A 
ATOM     59  C   UNL A   1      45.196  30.201  30.785  1.00  0.00     0.049 A 
ATOM     60  H   UNL A   1      44.287  28.473  29.985  1.00  0.00     0.167 HD
ATOM     61  C   UNL A   1      42.815  30.833  30.518  1.00  0.00     0.074 A 
ATOM     62  C   UNL A   1      41.711  31.762  30.629  1.00  0.00     0.031 C 
ATOM     63  C   UNL A   1      44.088  31.114  30.887  1.00  0.00     0.031 A 
BRANCH  50  64
ATOM     64  C   UNL A   1      48.030  26.426  30.086  1.00  0.00    -0.014 A 
ATOM     65  C   UNL A   1      48.431  25.799  31.276  1.00  0.00     0.009 A 
ATOM     66  C   UNL A   1      48.947  26.532  29.029  1.00  0.00     0.009 A 
ATOM     67  C   UNL A   1      49.736  25.324  31.419  1.00  0.00     0.001 A 
ATOM     68  C   UNL A   1      50.243  26.028  29.165  1.00  0.00     0.001 A 
ATOM     69  C   UNL A   1      50.639  25.436  30.363  1.00  0.00     0.000 A 
ENDBRANCH  50  64
BRANCH  51  70
ATOM     70  C   UNL A   1      38.566  29.417  29.099  1.00  0.00    -0.014 A 
ATOM     71  C   UNL A   1      38.108  30.002  27.909  1.00  0.00     0.009 A 
ATOM     72  C   UNL A   1      37.674  29.273  30.173  1.00  0.00     0.009 A 
ATOM     73  C   UNL A   1      36.791  30.456  27.805  1.00  0.00     0.001 A 
ATOM     74  C   UNL A   1      36.351  29.704  30.056  1.00  0.00     0.001 A 
ATOM     75  C   UNL A   1      35.913  30.303  28.877  1.00  0.00     0.000 A 
ENDBRANCH  51  70
BRANCH  63  76
ATOM     76  C   UNL A   1      44.362  32.494  31.412  1.00  0.00    -0.014 A 
ATOM     77  C   UNL A   1      44.301  32.777  32.784  1.00  0.00     0.009 A 
ATOM     78  C   UNL A   1      44.730  33.514  30.519  1.00  0.00     0.009 A 
ATOM     79  C   UNL A   1      44.574  34.064  33.250  1.00  0.00     0.001 A 
ATOM     80  C   UNL A   1      45.027  34.793  30.992  1.00  0.00     0.001 A 
ATOM     81  C   UNL A   1      44.942  35.069  32.356  1.00  0.00     0.000 A 
ENDBRANCH  63  76
ENDBRANCH  37  38
ENDBRANCH  29  32
ENDBRANCH  27  28
ENDBRANCH  26  27
ENDBRANCH   1  26
TORSDOF 15
ENDMDL
MODEL 2
REMARK VINA RESULT:     -10.4      1.152      1.507
REMARK SMILES CC[C@](C)([NH3+])C(=O)N1CC[NH+]([C@H](C)C(=O)NCCCCNC(=O)c2ccc(-c3c4nc(c(-c5ccccc5)c5ccc([nH]5)c(-c5ccccc5)c5nc(c(-c6ccccc6)c6ccc3[nH]6)C=C5)C=C4)cc2)CC1
REMARK SMILES IDX 18 1 17 2 16 3 14 4 15 5 12 7 13 8 11 9 6 10 7 11 8 12 9 13
REMARK SMILES IDX 73 14 10 15 72 16 3 18 4 19 2 20 1 21 5 22 19 26 20 27 21 28
REMARK SMILES IDX 22 29 23 31 24 32 25 33 71 34 26 35 70 36 27 37 28 38 29 39
REMARK SMILES IDX 64 40 30 41 69 42 63 43 65 44 31 45 68 46 62 47 61 48 32 50
REMARK SMILES IDX 54 51 39 52 53 53 40 54 43 55 52 56 66 57 41 58 42 59 51 61
REMARK SMILES IDX 67 62 44 63 33 64 34 65 38 66 35 67 37 68 36 69 55 70 56 71
REMARK SMILES IDX 60 72 57 73 59 74 58 75 45 76 46 77 50 78 47 79 49 80 48 81
REMARK H PARENT 16 6 11 17 5 23 5 24 5 25 21 30 65 49 43 60
REMARK Flexibility Score: inf
ROOT
ATOM      1  C   UNL A   1      36.603  21.312  24.738  1.00  0.00     0.023 C 
ENDROOT
BRANCH   1   2
ATOM      2  C   UNL A   1      35.504  21.451  25.782  1.00  0.00     0.116 C 
BRANCH   2   3
ATOM      3  N   UNL A   1      34.492  20.416  25.717  1.00  0.00    -0.351 N 
ATOM      4  C   UNL A   1      33.134  20.514  25.590  1.00  0.00     0.278 C 
ATOM      5  O   UNL A   1      32.532  19.471  25.313  1.00  0.00    -0.268 OA
ATOM      6  H   UNL A   1      34.838  19.496  25.773  1.00  0.00     0.163 HD
BRANCH   4   7
ATOM      7  C   UNL A   1      32.364  21.844  25.799  1.00  0.00     0.271 C 
ATOM      8  C   UNL A   1      32.897  22.665  26.979  1.00  0.00     0.086 C 
BRANCH   7   9
ATOM      9  N   UNL A   1      32.038  22.570  24.535  1.00  0.00    -0.322 N 
ATOM     10  C   UNL A   1      32.973  26.008  22.616  1.00  0.00     0.283 C 
ATOM     11  O   UNL A   1      33.911  25.987  21.803  1.00  0.00    -0.268 OA
ATOM     12  N   UNL A   1      32.210  24.863  22.774  1.00  0.00    -0.326 N 
ATOM     13  C   UNL A   1      32.789  23.592  22.347  1.00  0.00     0.181 C 
ATOM     14  C   UNL A   1      30.973  24.645  23.517  1.00  0.00     0.181 C 
ATOM     15  C   UNL A   1      33.168  22.802  23.617  1.00  0.00     0.284 C 
ATOM     16  C   UNL A   1      31.251  23.804  24.780  1.00  0.00     0.284 C 
ATOM     17  H   UNL A   1      31.444  21.913  24.027  1.00  0.00     0.348 HD
BRANCH  10  18
ATOM     18  C   UNL A   1      32.873  27.247  23.581  1.00  0.00     0.171 C 
ATOM     19  C   UNL A   1      33.735  28.374  22.967  1.00  0.00     0.090 C 
BRANCH  18  20
ATOM     20  C   UNL A   1      33.432  26.799  24.960  1.00  0.00     0.075 C 
ATOM     21  C   UNL A   1      33.928  27.915  25.872  1.00  0.00     0.011 C 
ENDBRANCH  18  20
BRANCH  18  22
ATOM     22  N   UNL A   1      31.508  27.795  23.727  1.00  0.00    -0.345 N 
ATOM     23  H   UNL A   1      31.265  27.842  24.717  1.00  0.00     0.345 HD
ATOM     24  H   UNL A   1      30.845  27.191  23.243  1.00  0.00     0.345 HD
ATOM     25  H   UNL A   1      31.473  28.731  23.325  1.00  0.00     0.345 HD
ENDBRANCH  18  22
ENDBRANCH  10  18
ENDBRANCH   7   9
ENDBRANCH   4   7
ENDBRANCH   2   3
ENDBRANCH   1   2
BRANCH   1  26
ATOM     26  C   UNL A   1      37.603  20.187  24.989  1.00  0.00     0.023 C 
BRANCH  26  27
ATOM     27  C   UNL A   1      38.876  20.582  25.731  1.00  0.00     0.116 C 
BRANCH  27  28
ATOM     28  N   UNL A   1      39.894  19.540  25.741  1.00  0.00    -0.352 N 
ATOM     29  C   UNL A   1      41.221  19.613  26.099  1.00  0.00     0.251 C 
ATOM     30  H   UNL A   1      39.587  18.651  25.451  1.00  0.00     0.163 HD
ATOM     31  O   UNL A   1      41.958  18.647  25.947  1.00  0.00    -0.269 OA
BRANCH  29  32
ATOM     32  C   UNL A   1      41.765  20.884  26.621  1.00  0.00     0.039 A 
ATOM     33  C   UNL A   1      42.267  21.822  25.715  1.00  0.00     0.014 A 
ATOM     34  C   UNL A   1      41.732  21.168  27.987  1.00  0.00     0.014 A 
ATOM     35  C   UNL A   1      42.644  23.086  26.171  1.00  0.00     0.010 A 
ATOM     36  C   UNL A   1      42.027  22.454  28.427  1.00  0.00     0.010 A 
ATOM     37  C   UNL A   1      42.477  23.429  27.524  1.00  0.00    -0.014 A 
BRANCH  37  38
ATOM     38  C   UNL A   1      42.747  24.804  28.011  1.00  0.00     0.031 A 
ATOM     39  C   UNL A   1      44.137  25.199  28.426  1.00  0.00     0.074 A 
ATOM     40  C   UNL A   1      41.727  25.673  28.159  1.00  0.00     0.049 A 
ATOM     41  N   UNL A   1      44.553  26.322  28.956  1.00  0.00    -0.248 NA
ATOM     42  C   UNL A   1      45.192  24.188  28.251  1.00  0.00     0.031 C 
ATOM     43  C   UNL A   1      40.323  25.402  27.840  1.00  0.00     0.029 A 
ATOM     44  N   UNL A   1      41.716  26.964  28.628  1.00  0.00    -0.354 N 
ATOM     45  C   UNL A   1      45.908  26.142  29.199  1.00  0.00     0.074 A 
ATOM     46  C   UNL A   1      46.235  24.789  28.804  1.00  0.00     0.031 C 
ATOM     47  C   UNL A   1      39.594  26.500  28.096  1.00  0.00     0.029 A 
ATOM     48  C   UNL A   1      40.467  27.538  28.634  1.00  0.00     0.049 A 
ATOM     49  H   UNL A   1      42.526  27.433  28.933  1.00  0.00     0.167 HD
ATOM     50  C   UNL A   1      46.806  27.028  29.689  1.00  0.00     0.031 A 
ATOM     51  C   UNL A   1      40.069  28.760  29.033  1.00  0.00     0.031 A 
ATOM     52  C   UNL A   1      46.490  28.380  30.063  1.00  0.00     0.049 A 
ATOM     53  C   UNL A   1      41.086  29.728  29.569  1.00  0.00     0.074 A 
ATOM     54  C   UNL A   1      47.343  29.373  30.510  1.00  0.00     0.029 A 
ATOM     55  N   UNL A   1      45.217  28.927  30.033  1.00  0.00    -0.354 N 
ATOM     56  N   UNL A   1      42.375  29.564  29.729  1.00  0.00    -0.248 NA
ATOM     57  C   UNL A   1      40.590  31.052  29.969  1.00  0.00     0.031 C 
ATOM     58  C   UNL A   1      46.579  30.511  30.789  1.00  0.00     0.029 A 
ATOM     59  C   UNL A   1      45.259  30.241  30.469  1.00  0.00     0.049 A 
ATOM     60  H   UNL A   1      44.404  28.453  29.742  1.00  0.00     0.167 HD
ATOM     61  C   UNL A   1      42.851  30.772  30.221  1.00  0.00     0.074 A 
ATOM     62  C   UNL A   1      41.714  31.662  30.320  1.00  0.00     0.031 C 
ATOM     63  C   UNL A   1      44.118  31.114  30.560  1.00  0.00     0.031 A 
BRANCH  50  64
ATOM     64  C   UNL A   1      48.224  26.555  29.848  1.00  0.00    -0.014 A 
ATOM     65  C   UNL A   1      48.646  25.909  31.021  1.00  0.00     0.009 A 
ATOM     66  C   UNL A   1      49.143  26.736  28.803  1.00  0.00     0.009 A 
ATOM     67  C   UNL A   1      49.971  25.490  31.160  1.00  0.00     0.001 A 
ATOM     68  C   UNL A   1      50.459  26.289  28.933  1.00  0.00     0.001 A 
ATOM     69  C   UNL A   1      50.874  25.676  30.114  1.00  0.00     0.000 A 
ENDBRANCH  50  64
BRANCH  51  70
ATOM     70  C   UNL A   1      38.639  29.150  28.922  1.00  0.00    -0.014 A 
ATOM     71  C   UNL A   1      37.782  29.023  30.027  1.00  0.00     0.009 A 
ATOM     72  C   UNL A   1      38.120  29.640  27.714  1.00  0.00     0.009 A 
ATOM     73  C   UNL A   1      36.431  29.355  29.917  1.00  0.00     0.001 A 
ATOM     74  C   UNL A   1      36.774  29.997  27.615  1.00  0.00     0.001 A 
ATOM     75  C   UNL A   1      35.928  29.846  28.712  1.00  0.00     0.000 A 
ENDBRANCH  51  70
BRANCH  63  76
ATOM     76  C   UNL A   1      44.347  32.520  31.034  1.00  0.00    -0.014 A 
ATOM     77  C   UNL A   1      44.633  33.555  30.131  1.00  0.00     0.009 A 
ATOM     78  C   UNL A   1      44.231  32.818  32.401  1.00  0.00     0.009 A 
ATOM     79  C   UNL A   1      44.828  34.858  30.593  1.00  0.00     0.001 A 
ATOM     80  C   UNL A   1      44.401  34.127  32.855  1.00  0.00     0.001 A 
ATOM     81  C   UNL A   1      44.706  35.144  31.953  1.00  0.00     0.000 A 
ENDBRANCH  63  76
ENDBRANCH  37  38
ENDBRANCH  29  32
ENDBRANCH  27  28
ENDBRANCH  26  27
ENDBRANCH   1  26
TORSDOF 15
ENDMDL
MODEL 3
REMARK VINA RESULT:     -10.4      1.181      6.211
REMARK SMILES CC[C@](C)([NH3+])C(=O)N1CC[NH+]([C@H](C)C(=O)NCCCCNC(=O)c2ccc(-c3c4nc(c(-c5ccccc5)c5ccc([nH]5)c(-c5ccccc5)c5nc(c(-c6ccccc6)c6ccc3[nH]6)C=C5)C=C4)cc2)CC1
REMARK SMILES IDX 18 1 17 2 16 3 14 4 15 5 12 7 13 8 11 9 6 10 7 11 8 12 9 13
REMARK SMILES IDX 73 14 10 15 72 16 3 18 4 19 2 20 1 21 5 22 19 26 20 27 21 28
REMARK SMILES IDX 22 29 23 31 24 32 25 33 71 34 26 35 70 36 27 37 28 38 29 39
REMARK SMILES IDX 64 40 30 41 69 42 63 43 65 44 31 45 68 46 62 47 61 48 32 50
REMARK SMILES IDX 54 51 39 52 53 53 40 54 43 55 52 56 66 57 41 58 42 59 51 61
REMARK SMILES IDX 67 62 44 63 33 64 34 65 38 66 35 67 37 68 36 69 55 70 56 71
REMARK SMILES IDX 60 72 57 73 59 74 58 75 45 76 46 77 50 78 47 79 49 80 48 81
REMARK H PARENT 16 6 11 17 5 23 5 24 5 25 21 30 65 49 43 60
REMARK Flexibility Score: inf
ROOT
ATOM      1  C   UNL A   1      36.174  20.406  25.009  1.00  0.00     0.023 C 
ENDROOT
BRANCH   1   2
ATOM      2  C   UNL A   1      35.251  21.338  25.780  1.00  0.00     0.116 C 
BRANCH   2   3
ATOM      3  N   UNL A   1      33.863  20.925  25.785  1.00  0.00    -0.351 N 
ATOM      4  C   UNL A   1      32.799  21.392  25.064  1.00  0.00     0.278 C 
ATOM      5  O   UNL A   1      31.776  20.698  25.083  1.00  0.00    -0.268 OA
ATOM      6  H   UNL A   1      33.652  20.191  26.406  1.00  0.00     0.163 HD
BRANCH   4   7
ATOM      7  C   UNL A   1      32.838  22.727  24.275  1.00  0.00     0.271 C 
ATOM      8  C   UNL A   1      33.206  22.539  22.799  1.00  0.00     0.086 C 
BRANCH   7   9
ATOM      9  N   UNL A   1      31.725  23.667  24.603  1.00  0.00    -0.322 N 
ATOM     10  C   UNL A   1      31.091  27.619  25.197  1.00  0.00     0.283 C 
ATOM     11  O   UNL A   1      30.752  28.310  24.222  1.00  0.00    -0.268 OA
ATOM     12  N   UNL A   1      30.688  26.295  25.240  1.00  0.00    -0.326 N 
ATOM     13  C   UNL A   1      30.295  25.660  23.985  1.00  0.00     0.181 C 
ATOM     14  C   UNL A   1      30.792  25.308  26.309  1.00  0.00     0.181 C 
ATOM     15  C   UNL A   1      31.423  24.687  23.582  1.00  0.00     0.284 C 
ATOM     16  C   UNL A   1      31.863  24.253  25.959  1.00  0.00     0.284 C 
ATOM     17  H   UNL A   1      30.898  23.069  24.600  1.00  0.00     0.348 HD
BRANCH  10  18
ATOM     18  C   UNL A   1      32.153  28.227  26.186  1.00  0.00     0.171 C 
ATOM     19  C   UNL A   1      31.540  28.172  27.604  1.00  0.00     0.090 C 
BRANCH  18  20
ATOM     20  C   UNL A   1      32.407  29.694  25.739  1.00  0.00     0.075 C 
ATOM     21  C   UNL A   1      32.871  30.652  26.831  1.00  0.00     0.011 C 
ENDBRANCH  18  20
BRANCH  18  22
ATOM     22  N   UNL A   1      33.424  27.476  26.250  1.00  0.00    -0.345 N 
ATOM     23  H   UNL A   1      33.480  26.977  27.138  1.00  0.00     0.345 HD
ATOM     24  H   UNL A   1      34.207  28.126  26.176  1.00  0.00     0.345 HD
ATOM     25  H   UNL A   1      33.463  26.808  25.481  1.00  0.00     0.345 HD
ENDBRANCH  18  22
ENDBRANCH  10  18
ENDBRANCH   7   9
ENDBRANCH   4   7
ENDBRANCH   2   3
ENDBRANCH   1   2
BRANCH   1  26
ATOM     26  C   UNL A   1      37.526  20.998  24.623  1.00  0.00     0.023 C 
BRANCH  26  27
ATOM     27  C   UNL A   1      38.581  21.021  25.724  1.00  0.00     0.116 C 
BRANCH  27  28
ATOM     28  N   UNL A   1      39.522  19.911  25.654  1.00  0.00    -0.352 N 
ATOM     29  C   UNL A   1      40.855  19.868  25.996  1.00  0.00     0.251 C 
ATOM     30  H   UNL A   1      39.150  19.066  25.314  1.00  0.00     0.163 HD
ATOM     31  O   UNL A   1      41.520  18.865  25.773  1.00  0.00    -0.269 OA
BRANCH  29  32
ATOM     32  C   UNL A   1      41.494  21.062  26.588  1.00  0.00     0.039 A 
ATOM     33  C   UNL A   1      42.071  22.007  25.736  1.00  0.00     0.014 A 
ATOM     34  C   UNL A   1      41.476  21.272  27.968  1.00  0.00     0.014 A 
ATOM     35  C   UNL A   1      42.542  23.211  26.262  1.00  0.00     0.010 A 
ATOM     36  C   UNL A   1      41.869  22.504  28.479  1.00  0.00     0.010 A 
ATOM     37  C   UNL A   1      42.396  23.490  27.631  1.00  0.00    -0.014 A 
BRANCH  37  38
ATOM     38  C   UNL A   1      42.770  24.811  28.195  1.00  0.00     0.031 A 
ATOM     39  C   UNL A   1      41.721  25.868  28.403  1.00  0.00     0.074 A 
ATOM     40  C   UNL A   1      44.065  25.090  28.443  1.00  0.00     0.049 A 
ATOM     41  N   UNL A   1      41.864  27.106  28.802  1.00  0.00    -0.248 NA
ATOM     42  C   UNL A   1      40.332  25.492  28.091  1.00  0.00     0.031 C 
ATOM     43  C   UNL A   1      45.188  24.171  28.240  1.00  0.00     0.029 A 
ATOM     44  N   UNL A   1      44.657  26.236  28.913  1.00  0.00    -0.354 N 
ATOM     45  C   UNL A   1      40.593  27.662  28.765  1.00  0.00     0.074 A 
ATOM     46  C   UNL A   1      39.698  26.643  28.262  1.00  0.00     0.031 C 
ATOM     47  C   UNL A   1      46.326  24.779  28.609  1.00  0.00     0.029 A 
ATOM     48  C   UNL A   1      46.022  26.142  29.035  1.00  0.00     0.049 A 
ATOM     49  H   UNL A   1      44.151  27.050  29.140  1.00  0.00     0.167 HD
ATOM     50  C   UNL A   1      40.198  28.902  29.136  1.00  0.00     0.031 A 
ATOM     51  C   UNL A   1      46.928  27.051  29.440  1.00  0.00     0.031 A 
ATOM     52  C   UNL A   1      41.080  29.911  29.657  1.00  0.00     0.049 A 
ATOM     53  C   UNL A   1      46.466  28.420  29.851  1.00  0.00     0.074 A 
ATOM     54  C   UNL A   1      40.765  31.176  30.120  1.00  0.00     0.029 A 
ATOM     55  N   UNL A   1      42.453  29.767  29.785  1.00  0.00    -0.354 N 
ATOM     56  N   UNL A   1      45.250  28.907  29.874  1.00  0.00    -0.248 NA
ATOM     57  C   UNL A   1      47.502  29.360  30.302  1.00  0.00     0.031 C 
ATOM     58  C   UNL A   1      41.954  31.814  30.490  1.00  0.00     0.029 A 
ATOM     59  C   UNL A   1      43.002  30.927  30.304  1.00  0.00     0.049 A 
ATOM     60  H   UNL A   1      42.961  28.959  29.545  1.00  0.00     0.167 HD
ATOM     61  C   UNL A   1      45.370  30.199  30.367  1.00  0.00     0.074 A 
ATOM     62  C   UNL A   1      46.775  30.415  30.643  1.00  0.00     0.031 C 
ATOM     63  C   UNL A   1      44.402  31.125  30.574  1.00  0.00     0.031 A 
BRANCH  50  64
ATOM     64  C   UNL A   1      38.739  29.235  28.987  1.00  0.00    -0.014 A 
ATOM     65  C   UNL A   1      38.221  29.694  27.766  1.00  0.00     0.009 A 
ATOM     66  C   UNL A   1      37.869  29.064  30.074  1.00  0.00     0.009 A 
ATOM     67  C   UNL A   1      36.867  30.014  27.648  1.00  0.00     0.001 A 
ATOM     68  C   UNL A   1      36.510  29.356  29.945  1.00  0.00     0.001 A 
ATOM     69  C   UNL A   1      36.013  29.841  28.736  1.00  0.00     0.000 A 
ENDBRANCH  50  64
BRANCH  51  70
ATOM     70  C   UNL A   1      48.370  26.691  29.498  1.00  0.00    -0.014 A 
ATOM     71  C   UNL A   1      48.906  26.095  30.650  1.00  0.00     0.009 A 
ATOM     72  C   UNL A   1      49.218  26.948  28.409  1.00  0.00     0.009 A 
ATOM     73  C   UNL A   1      50.266  25.788  30.721  1.00  0.00     0.001 A 
ATOM     74  C   UNL A   1      50.572  26.615  28.473  1.00  0.00     0.001 A 
ATOM     75  C   UNL A   1      51.097  26.044  29.631  1.00  0.00     0.000 A 
ENDBRANCH  51  70
BRANCH  63  76
ATOM     76  C   UNL A   1      44.824  32.441  31.160  1.00  0.00    -0.014 A 
ATOM     77  C   UNL A   1      44.884  32.635  32.548  1.00  0.00     0.009 A 
ATOM     78  C   UNL A   1      45.209  33.488  30.307  1.00  0.00     0.009 A 
ATOM     79  C   UNL A   1      45.293  33.864  33.071  1.00  0.00     0.001 A 
ATOM     80  C   UNL A   1      45.642  34.706  30.834  1.00  0.00     0.001 A 
ATOM     81  C   UNL A   1      45.677  34.895  32.214  1.00  0.00     0.000 A 
ENDBRANCH  63  76
ENDBRANCH  37  38
ENDBRANCH  29  32
ENDBRANCH  27  28
ENDBRANCH  26  27
ENDBRANCH   1  26
TORSDOF 15
ENDMDL
