MODEL 1
REMARK VINA RESULT:     -13.8      0.000      0.000
REMARK SMILES NC(=O)c1cc(NC(=O)/C=C\C(=O)NCCCCNC(=O)c2ccc(-c3c4nc(c(-c5ccccc5)c5ccc([nH]5)c(-c5ccccc5)c5nc(c(-c6ccccc6)c6ccc3[nH]6)C=C5)C=C4)cc2)ccc1N1CCOCC1
REMARK SMILES IDX 16 1 15 2 14 3 12 4 13 5 11 7 10 8 8 9 7 10 9 12 6 13 4 14
REMARK SMILES IDX 5 15 72 16 71 17 70 18 2 19 1 20 3 23 73 24 74 25 78 26
REMARK SMILES IDX 75 27 77 28 76 29 17 30 18 31 19 32 20 33 21 35 22 36 23 37
REMARK SMILES IDX 69 38 24 39 68 40 25 41 26 42 27 43 62 44 28 45 67 46 61 47
REMARK SMILES IDX 63 48 29 49 66 50 60 51 59 52 30 54 52 55 37 56 51 57 38 58
REMARK SMILES IDX 41 59 50 60 64 61 39 62 40 63 49 65 65 66 42 67 31 68 32 69
REMARK SMILES IDX 36 70 33 71 35 72 34 73 53 74 54 75 58 76 55 77 57 78 56 79
REMARK SMILES IDX 43 80 44 81 48 82 45 83 47 84 46 85
REMARK H PARENT 14 6 7 11 1 21 1 22 19 34 63 53 41 64
REMARK Flexibility Score: inf
ROOT
ATOM      1  C   UNL A   1      31.797  30.653  26.871  1.00  0.00     0.023 C 
ENDROOT
BRANCH   1   2
ATOM      2  C   UNL A   1      32.315  29.915  25.592  1.00  0.00     0.116 C 
BRANCH   2   3
ATOM      3  N   UNL A   1      31.300  29.606  24.250  1.00  0.00    -0.353 N 
ATOM      4  C   UNL A   1      30.581  28.140  23.140  1.00  0.00     0.244 C 
ATOM      5  O   UNL A   1      29.904  28.165  22.074  1.00  0.00    -0.270 OA
ATOM      6  H   UNL A   1      30.952  30.461  23.911  1.00  0.00     0.163 HD
BRANCH   4   7
ATOM      7  C   UNL A   1      30.584  26.416  23.468  1.00  0.00     0.077 C 
ATOM      8  C   UNL A   1      31.176  25.293  22.998  1.00  0.00     0.077 C 
BRANCH   8   9
ATOM      9  C   UNL A   1      32.044  25.194  21.789  1.00  0.00     0.248 C 
ATOM     10  N   UNL A   1      33.038  24.282  21.918  1.00  0.00    -0.322 N 
ATOM     11  H   UNL A   1      33.894  24.393  21.447  1.00  0.00     0.170 HD
ATOM     12  O   UNL A   1      31.944  25.962  20.846  1.00  0.00    -0.270 OA
BRANCH  10  13
ATOM     13  C   UNL A   1      32.805  23.191  22.732  1.00  0.00     0.042 A 
ATOM     14  C   UNL A   1      33.864  21.443  25.163  1.00  0.00     0.064 A 
ATOM     15  C   UNL A   1      33.674  23.085  24.384  1.00  0.00     0.042 A 
ATOM     16  C   UNL A   1      33.130  19.954  24.405  1.00  0.00     0.050 A 
ATOM     17  C   UNL A   1      32.184  20.118  22.839  1.00  0.00     0.029 A 
ATOM     18  C   UNL A   1      32.058  21.710  21.987  1.00  0.00     0.028 A 
BRANCH  14  19
ATOM     19  C   UNL A   1      35.185  21.331  25.818  1.00  0.00     0.250 C 
ATOM     20  N   UNL A   1      35.117  21.452  27.178  1.00  0.00    -0.366 N 
ATOM     21  H   UNL A   1      35.938  21.394  27.717  1.00  0.00     0.159 HD
ATOM     22  H   UNL A   1      34.248  21.598  27.617  1.00  0.00     0.159 HD
ATOM     23  O   UNL A   1      36.193  21.005  25.217  1.00  0.00    -0.269 OA
ENDBRANCH  14  19
BRANCH  16  24
ATOM     24  N   UNL A   1      33.479  18.653  24.805  1.00  0.00    -0.366 N 
ATOM     25  C   UNL A   1      34.573  17.822  24.254  1.00  0.00     0.145 C 
ATOM     26  C   UNL A   1      32.626  17.921  25.761  1.00  0.00     0.145 C 
ATOM     27  C   UNL A   1      34.052  16.437  23.781  1.00  0.00     0.181 C 
ATOM     28  C   UNL A   1      32.151  16.595  25.150  1.00  0.00     0.181 C 
ATOM     29  O   UNL A   1      33.267  15.773  24.786  1.00  0.00    -0.378 OA
ENDBRANCH  16  24
ENDBRANCH  10  13
ENDBRANCH   8   9
ENDBRANCH   4   7
ENDBRANCH   2   3
ENDBRANCH   1   2
BRANCH   1  30
ATOM     30  C   UNL A   1      31.616  32.164  26.767  1.00  0.00     0.023 C 
BRANCH  30  31
ATOM     31  C   UNL A   1      32.843  32.864  27.286  1.00  0.00     0.116 C 
BRANCH  31  32
ATOM     32  N   UNL A   1      32.530  34.243  27.641  1.00  0.00    -0.352 N 
ATOM     33  C   UNL A   1      33.040  34.957  28.691  1.00  0.00     0.251 C 
ATOM     34  H   UNL A   1      31.885  34.711  27.063  1.00  0.00     0.163 HD
ATOM     35  O   UNL A   1      32.528  36.002  29.070  1.00  0.00    -0.269 OA
BRANCH  33  36
ATOM     36  C   UNL A   1      34.211  34.385  29.367  1.00  0.00     0.039 A 
ATOM     37  C   UNL A   1      34.022  33.527  30.445  1.00  0.00     0.014 A 
ATOM     38  C   UNL A   1      35.479  34.612  28.823  1.00  0.00     0.014 A 
ATOM     39  C   UNL A   1      35.128  32.872  30.971  1.00  0.00     0.010 A 
ATOM     40  C   UNL A   1      36.543  33.845  29.248  1.00  0.00     0.010 A 
ATOM     41  C   UNL A   1      36.386  33.010  30.359  1.00  0.00    -0.014 A 
BRANCH  41  42
ATOM     42  C   UNL A   1      37.577  32.338  30.908  1.00  0.00     0.031 A 
ATOM     43  C   UNL A   1      38.191  32.864  32.175  1.00  0.00     0.074 A 
ATOM     44  C   UNL A   1      38.108  31.292  30.252  1.00  0.00     0.049 A 
ATOM     45  N   UNL A   1      39.245  32.433  32.816  1.00  0.00    -0.248 NA
ATOM     46  C   UNL A   1      37.561  34.049  32.789  1.00  0.00     0.031 C 
ATOM     47  C   UNL A   1      37.608  30.735  28.992  1.00  0.00     0.029 A 
ATOM     48  N   UNL A   1      39.181  30.501  30.563  1.00  0.00    -0.354 N 
ATOM     49  C   UNL A   1      39.404  33.297  33.891  1.00  0.00     0.074 A 
ATOM     50  C   UNL A   1      38.395  34.321  33.779  1.00  0.00     0.031 C 
ATOM     51  C   UNL A   1      38.341  29.660  28.666  1.00  0.00     0.029 A 
ATOM     52  C   UNL A   1      39.396  29.491  29.659  1.00  0.00     0.049 A 
ATOM     53  H   UNL A   1      39.745  30.645  31.357  1.00  0.00     0.167 HD
ATOM     54  C   UNL A   1      40.298  33.222  34.903  1.00  0.00     0.031 A 
ATOM     55  C   UNL A   1      40.346  28.539  29.638  1.00  0.00     0.031 A 
ATOM     56  C   UNL A   1      41.293  32.193  35.004  1.00  0.00     0.049 A 
ATOM     57  C   UNL A   1      41.354  28.507  30.755  1.00  0.00     0.074 A 
ATOM     58  C   UNL A   1      42.221  31.991  36.007  1.00  0.00     0.029 A 
ATOM     59  N   UNL A   1      41.493  31.197  34.060  1.00  0.00    -0.354 N 
ATOM     60  N   UNL A   1      41.449  29.286  31.807  1.00  0.00    -0.248 NA
ATOM     61  C   UNL A   1      42.377  27.457  30.687  1.00  0.00     0.031 C 
ATOM     62  C   UNL A   1      43.036  30.921  35.632  1.00  0.00     0.029 A 
ATOM     63  C   UNL A   1      42.557  30.399  34.441  1.00  0.00     0.049 A 
ATOM     64  H   UNL A   1      40.958  31.076  33.243  1.00  0.00     0.167 HD
ATOM     65  C   UNL A   1      42.518  28.796  32.544  1.00  0.00     0.074 A 
ATOM     66  C   UNL A   1      43.025  27.643  31.827  1.00  0.00     0.031 C 
ATOM     67  C   UNL A   1      43.037  29.256  33.710  1.00  0.00     0.031 A 
BRANCH  54  68
ATOM     68  C   UNL A   1      40.245  34.288  35.962  1.00  0.00    -0.014 A 
ATOM     69  C   UNL A   1      41.003  35.465  35.857  1.00  0.00     0.009 A 
ATOM     70  C   UNL A   1      39.390  34.128  37.063  1.00  0.00     0.009 A 
ATOM     71  C   UNL A   1      40.930  36.445  36.850  1.00  0.00     0.001 A 
ATOM     72  C   UNL A   1      39.291  35.125  38.034  1.00  0.00     0.001 A 
ATOM     73  C   UNL A   1      40.067  36.278  37.931  1.00  0.00     0.000 A 
ENDBRANCH  54  68
BRANCH  55  74
ATOM     74  C   UNL A   1      40.396  27.552  28.529  1.00  0.00    -0.014 A 
ATOM     75  C   UNL A   1      39.794  26.291  28.660  1.00  0.00     0.009 A 
ATOM     76  C   UNL A   1      41.071  27.857  27.336  1.00  0.00     0.009 A 
ATOM     77  C   UNL A   1      39.909  25.341  27.641  1.00  0.00     0.001 A 
ATOM     78  C   UNL A   1      41.149  26.921  26.302  1.00  0.00     0.001 A 
ATOM     79  C   UNL A   1      40.583  25.659  26.463  1.00  0.00     0.000 A 
ENDBRANCH  55  74
BRANCH  67  80
ATOM     80  C   UNL A   1      44.176  28.478  34.310  1.00  0.00    -0.014 A 
ATOM     81  C   UNL A   1      45.514  28.800  34.035  1.00  0.00     0.009 A 
ATOM     82  C   UNL A   1      43.896  27.434  35.206  1.00  0.00     0.009 A 
ATOM     83  C   UNL A   1      46.548  28.061  34.614  1.00  0.00     0.001 A 
ATOM     84  C   UNL A   1      44.931  26.728  35.817  1.00  0.00     0.001 A 
ATOM     85  C   UNL A   1      46.255  27.033  35.510  1.00  0.00     0.000 A 
ENDBRANCH  67  80
ENDBRANCH  41  42
ENDBRANCH  33  36
ENDBRANCH  31  32
ENDBRANCH  30  31
ENDBRANCH   1  30
TORSDOF 15
ENDMDL
MODEL 2
REMARK VINA RESULT:     -13.7      0.384      5.822
REMARK SMILES NC(=O)c1cc(NC(=O)/C=C\C(=O)NCCCCNC(=O)c2ccc(-c3c4nc(c(-c5ccccc5)c5ccc([nH]5)c(-c5ccccc5)c5nc(c(-c6ccccc6)c6ccc3[nH]6)C=C5)C=C4)cc2)ccc1N1CCOCC1
REMARK SMILES IDX 16 1 15 2 14 3 12 4 13 5 11 7 10 8 8 9 7 10 9 12 6 13 4 14
REMARK SMILES IDX 5 15 72 16 71 17 70 18 2 19 1 20 3 23 73 24 74 25 78 26
REMARK SMILES IDX 75 27 77 28 76 29 17 30 18 31 19 32 20 33 21 35 22 36 23 37
REMARK SMILES IDX 69 38 24 39 68 40 25 41 26 42 27 43 62 44 28 45 67 46 61 47
REMARK SMILES IDX 63 48 29 49 66 50 60 51 59 52 30 54 52 55 37 56 51 57 38 58
REMARK SMILES IDX 41 59 50 60 64 61 39 62 40 63 49 65 65 66 42 67 31 68 32 69
REMARK SMILES IDX 36 70 33 71 35 72 34 73 53 74 54 75 58 76 55 77 57 78 56 79
REMARK SMILES IDX 43 80 44 81 48 82 45 83 47 84 46 85
REMARK H PARENT 14 6 7 11 1 21 1 22 19 34 63 53 41 64
REMARK Flexibility Score: inf
ROOT
ATOM      1  C   UNL A   1      31.858  30.495  26.886  1.00  0.00     0.023 C 
ENDROOT
BRANCH   1   2
ATOM      2  C   UNL A   1      32.354  29.812  25.568  1.00  0.00     0.116 C 
BRANCH   2   3
ATOM      3  N   UNL A   1      31.313  29.543  24.237  1.00  0.00    -0.353 N 
ATOM      4  C   UNL A   1      30.553  28.109  23.113  1.00  0.00     0.244 C 
ATOM      5  O   UNL A   1      29.859  28.165  22.059  1.00  0.00    -0.270 OA
ATOM      6  H   UNL A   1      30.973  30.410  23.920  1.00  0.00     0.163 HD
BRANCH   4   7
ATOM      7  C   UNL A   1      30.535  26.380  23.409  1.00  0.00     0.077 C 
ATOM      8  C   UNL A   1      31.144  25.263  22.946  1.00  0.00     0.077 C 
BRANCH   8   9
ATOM      9  C   UNL A   1      32.065  25.182  21.776  1.00  0.00     0.248 C 
ATOM     10  N   UNL A   1      33.074  24.295  21.951  1.00  0.00    -0.322 N 
ATOM     11  H   UNL A   1      33.947  24.425  21.517  1.00  0.00     0.170 HD
ATOM     12  O   UNL A   1      31.987  25.945  20.827  1.00  0.00    -0.270 OA
BRANCH  10  13
ATOM     13  C   UNL A   1      32.833  23.201  22.758  1.00  0.00     0.042 A 
ATOM     14  C   UNL A   1      33.827  21.485  25.240  1.00  0.00     0.064 A 
ATOM     15  C   UNL A   1      33.632  23.120  24.446  1.00  0.00     0.042 A 
ATOM     16  C   UNL A   1      33.164  19.977  24.455  1.00  0.00     0.050 A 
ATOM     17  C   UNL A   1      32.282  20.114  22.849  1.00  0.00     0.029 A 
ATOM     18  C   UNL A   1      32.155  21.700  21.987  1.00  0.00     0.028 A 
BRANCH  14  19
ATOM     19  C   UNL A   1      35.121  21.408  25.951  1.00  0.00     0.250 C 
ATOM     20  N   UNL A   1      34.993  21.548  27.304  1.00  0.00    -0.366 N 
ATOM     21  H   UNL A   1      35.792  21.513  27.879  1.00  0.00     0.159 HD
ATOM     22  H   UNL A   1      34.104  21.685  27.704  1.00  0.00     0.159 HD
ATOM     23  O   UNL A   1      36.160  21.090  25.399  1.00  0.00    -0.269 OA
ENDBRANCH  14  19
BRANCH  16  24
ATOM     24  N   UNL A   1      33.526  18.686  24.875  1.00  0.00    -0.366 N 
ATOM     25  C   UNL A   1      34.638  17.865  24.347  1.00  0.00     0.145 C 
ATOM     26  C   UNL A   1      32.672  17.953  25.830  1.00  0.00     0.145 C 
ATOM     27  C   UNL A   1      34.142  16.466  23.885  1.00  0.00     0.181 C 
ATOM     28  C   UNL A   1      32.223  16.614  25.229  1.00  0.00     0.181 C 
ATOM     29  O   UNL A   1      33.356  15.803  24.888  1.00  0.00    -0.378 OA
ENDBRANCH  16  24
ENDBRANCH  10  13
ENDBRANCH   8   9
ENDBRANCH   4   7
ENDBRANCH   2   3
ENDBRANCH   1   2
BRANCH   1  30
ATOM     30  C   UNL A   1      31.629  32.003  26.834  1.00  0.00     0.023 C 
BRANCH  30  31
ATOM     31  C   UNL A   1      32.830  32.722  27.387  1.00  0.00     0.116 C 
BRANCH  31  32
ATOM     32  N   UNL A   1      32.537  34.139  27.565  1.00  0.00    -0.352 N 
ATOM     33  C   UNL A   1      33.043  34.967  28.529  1.00  0.00     0.251 C 
ATOM     34  H   UNL A   1      31.910  34.543  26.922  1.00  0.00     0.163 HD
ATOM     35  O   UNL A   1      32.545  36.059  28.768  1.00  0.00    -0.269 OA
BRANCH  33  36
ATOM     36  C   UNL A   1      34.192  34.463  29.292  1.00  0.00     0.039 A 
ATOM     37  C   UNL A   1      33.970  33.667  30.410  1.00  0.00     0.014 A 
ATOM     38  C   UNL A   1      35.480  34.686  28.793  1.00  0.00     0.014 A 
ATOM     39  C   UNL A   1      35.063  33.070  31.024  1.00  0.00     0.010 A 
ATOM     40  C   UNL A   1      36.538  33.971  29.311  1.00  0.00     0.010 A 
ATOM     41  C   UNL A   1      36.346  33.199  30.462  1.00  0.00    -0.014 A 
BRANCH  41  42
ATOM     42  C   UNL A   1      37.523  32.589  31.105  1.00  0.00     0.031 A 
ATOM     43  C   UNL A   1      38.158  31.385  30.469  1.00  0.00     0.074 A 
ATOM     44  C   UNL A   1      37.985  33.100  32.259  1.00  0.00     0.049 A 
ATOM     45  N   UNL A   1      39.185  30.688  30.878  1.00  0.00    -0.248 NA
ATOM     46  C   UNL A   1      37.542  30.871  29.230  1.00  0.00     0.031 C 
ATOM     47  C   UNL A   1      37.409  34.242  32.975  1.00  0.00     0.029 A 
ATOM     48  N   UNL A   1      39.055  32.731  33.028  1.00  0.00    -0.354 N 
ATOM     49  C   UNL A   1      39.326  29.660  29.956  1.00  0.00     0.074 A 
ATOM     50  C   UNL A   1      38.240  29.769  29.014  1.00  0.00     0.031 C 
ATOM     51  C   UNL A   1      38.165  34.511  34.050  1.00  0.00     0.029 A 
ATOM     52  C   UNL A   1      39.239  33.528  34.130  1.00  0.00     0.049 A 
ATOM     53  H   UNL A   1      39.636  31.966  32.812  1.00  0.00     0.167 HD
ATOM     54  C   UNL A   1      40.298  28.723  29.885  1.00  0.00     0.031 A 
ATOM     55  C   UNL A   1      40.170  33.462  35.098  1.00  0.00     0.031 A 
ATOM     56  C   UNL A   1      41.377  28.630  30.827  1.00  0.00     0.049 A 
ATOM     57  C   UNL A   1      41.214  32.382  35.016  1.00  0.00     0.074 A 
ATOM     58  C   UNL A   1      42.443  27.751  30.829  1.00  0.00     0.029 A 
ATOM     59  N   UNL A   1      41.520  29.443  31.942  1.00  0.00    -0.354 N 
ATOM     60  N   UNL A   1      41.380  31.459  34.097  1.00  0.00    -0.248 NA
ATOM     61  C   UNL A   1      42.205  32.342  36.097  1.00  0.00     0.031 C 
ATOM     62  C   UNL A   1      43.187  27.979  31.988  1.00  0.00     0.029 A 
ATOM     63  C   UNL A   1      42.638  29.060  32.660  1.00  0.00     0.049 A 
ATOM     64  H   UNL A   1      40.916  30.182  32.184  1.00  0.00     0.167 HD
ATOM     65  C   UNL A   1      42.517  30.755  34.472  1.00  0.00     0.074 A 
ATOM     66  C   UNL A   1      43.006  31.370  35.688  1.00  0.00     0.031 C 
ATOM     67  C   UNL A   1      43.104  29.693  33.866  1.00  0.00     0.031 A 
BRANCH  54  68
ATOM     68  C   UNL A   1      40.225  27.723  28.765  1.00  0.00    -0.014 A 
ATOM     69  C   UNL A   1      40.832  27.968  27.522  1.00  0.00     0.009 A 
ATOM     70  C   UNL A   1      39.573  26.499  28.971  1.00  0.00     0.009 A 
ATOM     71  C   UNL A   1      40.758  27.019  26.499  1.00  0.00     0.001 A 
ATOM     72  C   UNL A   1      39.532  25.538  27.960  1.00  0.00     0.001 A 
ATOM     73  C   UNL A   1      40.117  25.802  26.723  1.00  0.00     0.000 A 
ENDBRANCH  54  68
BRANCH  55  74
ATOM     74  C   UNL A   1      40.155  34.433  36.223  1.00  0.00    -0.014 A 
ATOM     75  C   UNL A   1      40.892  35.625  36.154  1.00  0.00     0.009 A 
ATOM     76  C   UNL A   1      39.420  34.160  37.387  1.00  0.00     0.009 A 
ATOM     77  C   UNL A   1      40.932  36.498  37.245  1.00  0.00     0.001 A 
ATOM     78  C   UNL A   1      39.428  35.053  38.460  1.00  0.00     0.001 A 
ATOM     79  C   UNL A   1      40.197  36.212  38.394  1.00  0.00     0.000 A 
ENDBRANCH  55  74
BRANCH  67  80
ATOM     80  C   UNL A   1      44.373  29.168  34.478  1.00  0.00    -0.014 A 
ATOM     81  C   UNL A   1      45.628  29.701  34.145  1.00  0.00     0.009 A 
ATOM     82  C   UNL A   1      44.299  28.151  35.444  1.00  0.00     0.009 A 
ATOM     83  C   UNL A   1      46.787  29.194  34.737  1.00  0.00     0.001 A 
ATOM     84  C   UNL A   1      45.454  27.679  36.065  1.00  0.00     0.001 A 
ATOM     85  C   UNL A   1      46.697  28.191  35.701  1.00  0.00     0.000 A 
ENDBRANCH  67  80
ENDBRANCH  41  42
ENDBRANCH  33  36
ENDBRANCH  31  32
ENDBRANCH  30  31
ENDBRANCH   1  30
TORSDOF 15
ENDMDL
MODEL 3
REMARK VINA RESULT:     -12.9      2.150      3.426
REMARK SMILES NC(=O)c1cc(NC(=O)/C=C\C(=O)NCCCCNC(=O)c2ccc(-c3c4nc(c(-c5ccccc5)c5ccc([nH]5)c(-c5ccccc5)c5nc(c(-c6ccccc6)c6ccc3[nH]6)C=C5)C=C4)cc2)ccc1N1CCOCC1
REMARK SMILES IDX 16 1 15 2 14 3 12 4 13 5 11 7 10 8 8 9 7 10 9 12 6 13 4 14
REMARK SMILES IDX 5 15 72 16 71 17 70 18 2 19 1 20 3 23 73 24 74 25 78 26
REMARK SMILES IDX 75 27 77 28 76 29 17 30 18 31 19 32 20 33 21 35 22 36 23 37
REMARK SMILES IDX 69 38 24 39 68 40 25 41 26 42 27 43 62 44 28 45 67 46 61 47
REMARK SMILES IDX 63 48 29 49 66 50 60 51 59 52 30 54 52 55 37 56 51 57 38 58
REMARK SMILES IDX 41 59 50 60 64 61 39 62 40 63 49 65 65 66 42 67 31 68 32 69
REMARK SMILES IDX 36 70 33 71 35 72 34 73 53 74 54 75 58 76 55 77 57 78 56 79
REMARK SMILES IDX 43 80 44 81 48 82 45 83 47 84 46 85
REMARK H PARENT 14 6 7 11 1 21 1 22 19 34 63 53 41 64
REMARK Flexibility Score: inf
ROOT
ATOM      1  C   UNL A   1      33.509  28.244  25.480  1.00  0.00     0.023 C 
ENDROOT
BRANCH   1   2
ATOM      2  C   UNL A   1      32.763  29.279  24.574  1.00  0.00     0.116 C 
BRANCH   2   3
ATOM      3  N   UNL A   1      31.108  29.107  24.173  1.00  0.00    -0.353 N 
ATOM      4  C   UNL A   1      29.757  27.763  23.659  1.00  0.00     0.244 C 
ATOM      5  O   UNL A   1      28.559  27.897  23.282  1.00  0.00    -0.270 OA
ATOM      6  H   UNL A   1      30.679  29.991  24.214  1.00  0.00     0.163 HD
BRANCH   4   7
ATOM      7  C   UNL A   1      29.861  26.014  23.754  1.00  0.00     0.077 C 
ATOM      8  C   UNL A   1      30.620  25.011  23.251  1.00  0.00     0.077 C 
BRANCH   8   9
ATOM      9  C   UNL A   1      31.679  25.145  22.210  1.00  0.00     0.248 C 
ATOM     10  N   UNL A   1      32.769  24.380  22.455  1.00  0.00    -0.322 N 
ATOM     11  H   UNL A   1      33.663  24.654  22.149  1.00  0.00     0.170 HD
ATOM     12  O   UNL A   1      31.615  25.970  21.312  1.00  0.00    -0.270 OA
BRANCH  10  13
ATOM     13  C   UNL A   1      32.582  23.200  23.147  1.00  0.00     0.042 A 
ATOM     14  C   UNL A   1      33.597  21.343  25.516  1.00  0.00     0.064 A 
ATOM     15  C   UNL A   1      33.306  23.025  24.862  1.00  0.00     0.042 A 
ATOM     16  C   UNL A   1      33.097  19.868  24.566  1.00  0.00     0.050 A 
ATOM     17  C   UNL A   1      32.283  20.085  22.934  1.00  0.00     0.029 A 
ATOM     18  C   UNL A   1      32.066  21.730  22.210  1.00  0.00     0.028 A 
BRANCH  14  19
ATOM     19  C   UNL A   1      34.859  21.301  26.286  1.00  0.00     0.250 C 
ATOM     20  N   UNL A   1      34.666  21.442  27.631  1.00  0.00    -0.366 N 
ATOM     21  H   UNL A   1      35.438  21.430  28.242  1.00  0.00     0.159 HD
ATOM     22  H   UNL A   1      33.756  21.558  27.989  1.00  0.00     0.159 HD
ATOM     23  O   UNL A   1      35.929  21.007  25.783  1.00  0.00    -0.269 OA
ENDBRANCH  14  19
BRANCH  16  24
ATOM     24  N   UNL A   1      33.544  18.575  24.888  1.00  0.00    -0.366 N 
ATOM     25  C   UNL A   1      34.683  17.856  24.274  1.00  0.00     0.145 C 
ATOM     26  C   UNL A   1      32.765  17.734  25.816  1.00  0.00     0.145 C 
ATOM     27  C   UNL A   1      34.251  16.464  23.734  1.00  0.00     0.181 C 
ATOM     28  C   UNL A   1      32.371  16.413  25.140  1.00  0.00     0.181 C 
ATOM     29  O   UNL A   1      33.536  15.693  24.714  1.00  0.00    -0.378 OA
ENDBRANCH  16  24
ENDBRANCH  10  13
ENDBRANCH   8   9
ENDBRANCH   4   7
ENDBRANCH   2   3
ENDBRANCH   1   2
BRANCH   1  30
ATOM     30  C   UNL A   1      33.837  28.688  26.903  1.00  0.00     0.023 C 
BRANCH  30  31
ATOM     31  C   UNL A   1      34.948  29.704  26.879  1.00  0.00     0.116 C 
BRANCH  31  32
ATOM     32  N   UNL A   1      34.496  30.965  27.455  1.00  0.00    -0.352 N 
ATOM     33  C   UNL A   1      34.945  31.547  28.609  1.00  0.00     0.251 C 
ATOM     34  H   UNL A   1      33.795  31.449  26.961  1.00  0.00     0.163 HD
ATOM     35  O   UNL A   1      34.331  32.455  29.154  1.00  0.00    -0.269 OA
BRANCH  33  36
ATOM     36  C   UNL A   1      36.181  31.002  29.183  1.00  0.00     0.039 A 
ATOM     37  C   UNL A   1      36.110  29.896  30.023  1.00  0.00     0.014 A 
ATOM     38  C   UNL A   1      37.407  31.526  28.761  1.00  0.00     0.014 A 
ATOM     39  C   UNL A   1      37.295  29.297  30.430  1.00  0.00     0.010 A 
ATOM     40  C   UNL A   1      38.568  30.838  29.042  1.00  0.00     0.010 A 
ATOM     41  C   UNL A   1      38.525  29.750  29.920  1.00  0.00    -0.014 A 
BRANCH  41  42
ATOM     42  C   UNL A   1      39.797  29.141  30.349  1.00  0.00     0.031 A 
ATOM     43  C   UNL A   1      40.486  29.677  31.572  1.00  0.00     0.074 A 
ATOM     44  C   UNL A   1      40.329  28.143  29.623  1.00  0.00     0.049 A 
ATOM     45  N   UNL A   1      41.615  29.299  32.109  1.00  0.00    -0.248 NA
ATOM     46  C   UNL A   1      39.842  30.809  32.268  1.00  0.00     0.031 C 
ATOM     47  C   UNL A   1      39.756  27.582  28.397  1.00  0.00     0.029 A 
ATOM     48  N   UNL A   1      41.470  27.413  29.821  1.00  0.00    -0.354 N 
ATOM     49  C   UNL A   1      41.815  30.148  33.189  1.00  0.00     0.074 A 
ATOM     50  C   UNL A   1      40.742  31.111  33.189  1.00  0.00     0.031 C 
ATOM     51  C   UNL A   1      40.521  26.561  27.982  1.00  0.00     0.029 A 
ATOM     52  C   UNL A   1      41.665  26.436  28.877  1.00  0.00     0.049 A 
ATOM     53  H   UNL A   1      42.091  27.575  30.568  1.00  0.00     0.167 HD
ATOM     54  C   UNL A   1      42.796  30.108  34.119  1.00  0.00     0.031 A 
ATOM     55  C   UNL A   1      42.665  25.545  28.751  1.00  0.00     0.031 A 
ATOM     56  C   UNL A   1      43.855  29.139  34.108  1.00  0.00     0.049 A 
ATOM     57  C   UNL A   1      43.765  25.551  29.776  1.00  0.00     0.074 A 
ATOM     58  C   UNL A   1      44.876  28.974  35.024  1.00  0.00     0.029 A 
ATOM     59  N   UNL A   1      44.031  28.176  33.126  1.00  0.00    -0.354 N 
ATOM     60  N   UNL A   1      43.905  26.313  30.836  1.00  0.00    -0.248 NA
ATOM     61  C   UNL A   1      44.839  24.568  29.595  1.00  0.00     0.031 C 
ATOM     62  C   UNL A   1      45.717  27.963  34.553  1.00  0.00     0.029 A 
ATOM     63  C   UNL A   1      45.169  27.438  33.394  1.00  0.00     0.049 A 
ATOM     64  H   UNL A   1      43.435  28.040  32.354  1.00  0.00     0.167 HD
ATOM     65  C   UNL A   1      45.061  25.874  31.467  1.00  0.00     0.074 A 
ATOM     66  C   UNL A   1      45.570  24.769  30.680  1.00  0.00     0.031 C 
ATOM     67  C   UNL A   1      45.651  26.341  32.595  1.00  0.00     0.031 A 
BRANCH  54  68
ATOM     68  C   UNL A   1      42.772  31.146  35.205  1.00  0.00    -0.014 A 
ATOM     69  C   UNL A   1      42.090  30.928  36.413  1.00  0.00     0.009 A 
ATOM     70  C   UNL A   1      43.478  32.346  35.033  1.00  0.00     0.009 A 
ATOM     71  C   UNL A   1      42.090  31.905  37.413  1.00  0.00     0.001 A 
ATOM     72  C   UNL A   1      43.507  33.304  36.047  1.00  0.00     0.001 A 
ATOM     73  C   UNL A   1      42.806  33.086  37.231  1.00  0.00     0.000 A 
ENDBRANCH  54  68
BRANCH  55  74
ATOM     74  C   UNL A   1      42.677  24.585  27.616  1.00  0.00    -0.014 A 
ATOM     75  C   UNL A   1      43.280  24.923  26.394  1.00  0.00     0.009 A 
ATOM     76  C   UNL A   1      42.061  23.330  27.741  1.00  0.00     0.009 A 
ATOM     77  C   UNL A   1      43.222  24.044  25.309  1.00  0.00     0.001 A 
ATOM     78  C   UNL A   1      42.042  22.436  26.668  1.00  0.00     0.001 A 
ATOM     79  C   UNL A   1      42.606  22.801  25.449  1.00  0.00     0.000 A 
ENDBRANCH  55  74
BRANCH  67  80
ATOM     80  C   UNL A   1      46.881  25.622  33.076  1.00  0.00    -0.014 A 
ATOM     81  C   UNL A   1      48.171  26.060  32.738  1.00  0.00     0.009 A 
ATOM     82  C   UNL A   1      46.739  24.513  33.926  1.00  0.00     0.009 A 
ATOM     83  C   UNL A   1      49.292  25.373  33.207  1.00  0.00     0.001 A 
ATOM     84  C   UNL A   1      47.861  23.857  34.429  1.00  0.00     0.001 A 
ATOM     85  C   UNL A   1      49.136  24.279  34.057  1.00  0.00     0.000 A 
ENDBRANCH  67  80
ENDBRANCH  41  42
ENDBRANCH  33  36
ENDBRANCH  31  32
ENDBRANCH  30  31
ENDBRANCH   1  30
TORSDOF 15
ENDMDL
