MODEL 1
REMARK VINA RESULT:     -12.2      0.000      0.000
REMARK SMILES CCCC(=O)N(c1cc2sc(=O)oc2c2ccccc12)S(=O)(=O)c1ccc(C(=O)NCCCCNC(=O)c2ccc(-c3c4nc(c(-c5ccccc5)c5ccc([nH]5)c(-c5ccccc5)c5nc(c(-c6ccccc6)c6ccc3[nH]6)C=C5)C=C4)cc2)cc1
REMARK SMILES IDX 31 1 30 2 28 3 29 4 27 6 24 7 25 8 87 9 26 10 86 11 21 12
REMARK SMILES IDX 22 13 23 14 6 15 4 16 5 17 3 18 2 19 1 20 7 21 8 22 20 23
REMARK SMILES IDX 9 24 15 25 19 26 10 27 14 28 16 29 18 30 11 31 13 32 17 33
REMARK SMILES IDX 12 34 32 35 33 36 34 37 35 38 36 39 37 41 38 42 39 43 85 44
REMARK SMILES IDX 40 45 84 46 41 47 42 48 43 49 78 50 44 51 83 52 77 53 79 54
REMARK SMILES IDX 45 55 82 56 76 57 75 58 46 60 68 61 53 62 67 63 54 64 57 65
REMARK SMILES IDX 66 66 80 67 55 68 56 69 65 71 81 72 58 73 47 74 48 75 52 76
REMARK SMILES IDX 49 77 51 78 50 79 69 80 70 81 74 82 71 83 73 84 72 85 59 86
REMARK SMILES IDX 60 87 64 88 61 89 63 90 62 91
REMARK H PARENT 30 5 35 40 79 59 57 70
REMARK Flexibility Score: inf
ROOT
ATOM      1  C   UNL A   1      38.360  24.494  26.659  1.00  0.00     0.116 C 
ENDROOT
BRANCH   1   2
ATOM      2  N   UNL A   1      38.263  23.045  26.593  1.00  0.00    -0.352 N 
ATOM      3  C   UNL A   1      37.447  22.237  25.834  1.00  0.00     0.251 C 
ATOM      4  O   UNL A   1      37.567  21.017  25.949  1.00  0.00    -0.269 OA
ATOM      5  H   UNL A   1      38.880  22.563  27.187  1.00  0.00     0.163 HD
BRANCH   3   6
ATOM      6  C   UNL A   1      36.379  22.782  24.947  1.00  0.00     0.039 A 
ATOM      7  C   UNL A   1      34.515  24.174  23.388  1.00  0.00     0.088 A 
ATOM      8  C   UNL A   1      34.351  24.114  24.774  1.00  0.00     0.023 A 
ATOM      9  C   UNL A   1      35.501  23.403  22.771  1.00  0.00     0.023 A 
ATOM     10  C   UNL A   1      35.311  23.461  25.552  1.00  0.00     0.015 A 
ATOM     11  C   UNL A   1      36.389  22.664  23.554  1.00  0.00     0.015 A 
BRANCH   7  12
ATOM     12  S   UNL A   1      33.410  25.165  22.389  1.00  0.00     0.270 S 
ATOM     13  O   UNL A   1      32.974  24.293  21.326  1.00  0.00    -0.201 OA
ATOM     14  O   UNL A   1      34.137  26.397  22.118  1.00  0.00    -0.201 OA
BRANCH  12  15
ATOM     15  N   UNL A   1      32.082  25.613  23.357  1.00  0.00    -0.202 N 
BRANCH  15  16
ATOM     16  C   UNL A   1      31.180  24.584  23.787  1.00  0.00     0.241 C 
ATOM     17  O   UNL A   1      30.606  23.855  22.982  1.00  0.00    -0.273 OA
BRANCH  16  18
ATOM     18  C   UNL A   1      30.851  24.439  25.268  1.00  0.00     0.101 C 
BRANCH  18  19
ATOM     19  C   UNL A   1      30.745  22.994  25.755  1.00  0.00     0.006 C 
ATOM     20  C   UNL A   1      30.450  22.912  27.247  1.00  0.00     0.004 C 
ENDBRANCH  18  19
ENDBRANCH  16  18
ENDBRANCH  15  16
BRANCH  15  21
ATOM     21  C   UNL A   1      32.064  26.886  24.022  1.00  0.00     0.070 A 
ATOM     22  C   UNL A   1      33.097  27.126  24.941  1.00  0.00     0.051 A 
ATOM     23  C   UNL A   1      31.042  27.866  23.791  1.00  0.00     0.010 A 
ATOM     24  C   UNL A   1      33.114  28.322  25.634  1.00  0.00     0.080 A 
ATOM     25  C   UNL A   1      31.155  29.132  24.429  1.00  0.00     0.028 A 
ATOM     26  C   UNL A   1      29.932  27.668  22.938  1.00  0.00     0.011 A 
ATOM     27  S   UNL A   1      34.229  28.820  26.890  1.00  0.00    -0.052 S 
ATOM     28  C   UNL A   1      32.176  29.311  25.372  1.00  0.00     0.157 A 
ATOM     29  C   UNL A   1      30.270  30.174  24.088  1.00  0.00     0.013 A 
ATOM     30  C   UNL A   1      29.070  28.716  22.602  1.00  0.00     0.001 A 
ATOM     31  C   UNL A   1      33.355  30.355  26.995  1.00  0.00     0.396 A 
ATOM     32  O   UNL A   1      32.292  30.497  26.108  1.00  0.00    -0.413 OA
ATOM     33  C   UNL A   1      29.258  29.976  23.153  1.00  0.00     0.001 A 
ATOM     34  O   UNL A   1      33.676  31.228  27.788  1.00  0.00    -0.233 OA
ENDBRANCH  15  21
ENDBRANCH  12  15
ENDBRANCH   7  12
ENDBRANCH   3   6
ENDBRANCH   1   2
BRANCH   1  35
ATOM     35  C   UNL A   1      39.733  25.036  27.045  1.00  0.00     0.023 C 
BRANCH  35  36
ATOM     36  C   UNL A   1      40.841  24.847  26.014  1.00  0.00     0.023 C 
BRANCH  36  37
ATOM     37  C   UNL A   1      42.105  25.661  26.288  1.00  0.00     0.116 C 
BRANCH  37  38
ATOM     38  N   UNL A   1      42.266  26.820  25.420  1.00  0.00    -0.352 N 
ATOM     39  C   UNL A   1      41.959  28.142  25.659  1.00  0.00     0.251 C 
ATOM     40  H   UNL A   1      42.651  26.632  24.534  1.00  0.00     0.163 HD
ATOM     41  O   UNL A   1      42.137  28.999  24.801  1.00  0.00    -0.269 OA
BRANCH  39  42
ATOM     42  C   UNL A   1      41.328  28.495  26.942  1.00  0.00     0.039 A 
ATOM     43  C   UNL A   1      39.939  28.586  27.036  1.00  0.00     0.014 A 
ATOM     44  C   UNL A   1      42.148  28.858  28.013  1.00  0.00     0.014 A 
ATOM     45  C   UNL A   1      39.376  29.244  28.113  1.00  0.00     0.010 A 
ATOM     46  C   UNL A   1      41.575  29.453  29.131  1.00  0.00     0.010 A 
ATOM     47  C   UNL A   1      40.195  29.694  29.151  1.00  0.00    -0.014 A 
BRANCH  47  48
ATOM     48  C   UNL A   1      39.490  30.257  30.304  1.00  0.00     0.031 A 
ATOM     49  C   UNL A   1      39.766  29.483  31.551  1.00  0.00     0.074 A 
ATOM     50  C   UNL A   1      39.166  31.565  30.368  1.00  0.00     0.049 A 
ATOM     51  N   UNL A   1      40.859  29.637  32.239  1.00  0.00    -0.248 NA
ATOM     52  C   UNL A   1      39.015  28.276  31.896  1.00  0.00     0.031 C 
ATOM     53  C   UNL A   1      40.010  32.657  29.865  1.00  0.00     0.029 A 
ATOM     54  N   UNL A   1      38.169  32.203  31.067  1.00  0.00    -0.354 N 
ATOM     55  C   UNL A   1      40.969  28.547  33.084  1.00  0.00     0.074 A 
ATOM     56  C   UNL A   1      39.801  27.730  32.836  1.00  0.00     0.031 C 
ATOM     57  C   UNL A   1      39.613  33.808  30.446  1.00  0.00     0.029 A 
ATOM     58  C   UNL A   1      38.416  33.563  31.247  1.00  0.00     0.049 A 
ATOM     59  H   UNL A   1      37.366  31.748  31.406  1.00  0.00     0.167 HD
ATOM     60  C   UNL A   1      42.012  28.388  33.943  1.00  0.00     0.031 A 
ATOM     61  C   UNL A   1      38.066  34.240  32.376  1.00  0.00     0.031 A 
ATOM     62  C   UNL A   1      42.984  29.440  33.924  1.00  0.00     0.049 A 
ATOM     63  C   UNL A   1      39.148  33.766  33.323  1.00  0.00     0.074 A 
ATOM     64  C   UNL A   1      44.241  29.665  33.409  1.00  0.00     0.029 A 
ATOM     65  N   UNL A   1      42.651  30.619  34.541  1.00  0.00    -0.354 N 
ATOM     66  N   UNL A   1      40.395  34.163  33.344  1.00  0.00    -0.248 NA
ATOM     67  C   UNL A   1      38.904  32.504  34.025  1.00  0.00     0.031 C 
ATOM     68  C   UNL A   1      44.375  31.089  33.350  1.00  0.00     0.029 A 
ATOM     69  C   UNL A   1      43.169  31.639  33.789  1.00  0.00     0.049 A 
ATOM     70  H   UNL A   1      42.133  30.715  35.372  1.00  0.00     0.167 HD
ATOM     71  C   UNL A   1      41.133  33.060  33.784  1.00  0.00     0.074 A 
ATOM     72  C   UNL A   1      40.147  32.084  34.207  1.00  0.00     0.031 C 
ATOM     73  C   UNL A   1      42.481  32.903  33.609  1.00  0.00     0.031 A 
BRANCH  60  74
ATOM     74  C   UNL A   1      42.078  27.354  34.996  1.00  0.00    -0.014 A 
ATOM     75  C   UNL A   1      41.523  27.515  36.269  1.00  0.00     0.009 A 
ATOM     76  C   UNL A   1      42.570  26.091  34.621  1.00  0.00     0.009 A 
ATOM     77  C   UNL A   1      41.439  26.417  37.134  1.00  0.00     0.001 A 
ATOM     78  C   UNL A   1      42.474  24.999  35.477  1.00  0.00     0.001 A 
ATOM     79  C   UNL A   1      41.902  25.161  36.734  1.00  0.00     0.000 A 
ENDBRANCH  60  74
BRANCH  61  80
ATOM     80  C   UNL A   1      36.595  34.198  32.680  1.00  0.00    -0.014 A 
ATOM     81  C   UNL A   1      35.899  35.092  33.507  1.00  0.00     0.009 A 
ATOM     82  C   UNL A   1      35.854  33.132  32.127  1.00  0.00     0.009 A 
ATOM     83  C   UNL A   1      34.578  34.832  33.901  1.00  0.00     0.001 A 
ATOM     84  C   UNL A   1      34.527  32.888  32.492  1.00  0.00     0.001 A 
ATOM     85  C   UNL A   1      33.900  33.720  33.413  1.00  0.00     0.000 A 
ENDBRANCH  61  80
BRANCH  73  86
ATOM     86  C   UNL A   1      43.238  34.050  33.015  1.00  0.00    -0.014 A 
ATOM     87  C   UNL A   1      43.815  35.031  33.842  1.00  0.00     0.009 A 
ATOM     88  C   UNL A   1      43.277  34.232  31.629  1.00  0.00     0.009 A 
ATOM     89  C   UNL A   1      44.340  36.205  33.298  1.00  0.00     0.001 A 
ATOM     90  C   UNL A   1      43.825  35.395  31.084  1.00  0.00     0.001 A 
ATOM     91  C   UNL A   1      44.334  36.391  31.919  1.00  0.00     0.000 A 
ENDBRANCH  73  86
ENDBRANCH  47  48
ENDBRANCH  39  42
ENDBRANCH  37  38
ENDBRANCH  36  37
ENDBRANCH  35  36
ENDBRANCH   1  35
TORSDOF 17
ENDMDL
MODEL 2
REMARK VINA RESULT:     -12.1      2.941      7.701
REMARK SMILES CCCC(=O)N(c1cc2sc(=O)oc2c2ccccc12)S(=O)(=O)c1ccc(C(=O)NCCCCNC(=O)c2ccc(-c3c4nc(c(-c5ccccc5)c5ccc([nH]5)c(-c5ccccc5)c5nc(c(-c6ccccc6)c6ccc3[nH]6)C=C5)C=C4)cc2)cc1
REMARK SMILES IDX 31 1 30 2 28 3 29 4 27 6 24 7 25 8 87 9 26 10 86 11 21 12
REMARK SMILES IDX 22 13 23 14 6 15 4 16 5 17 3 18 2 19 1 20 7 21 8 22 20 23
REMARK SMILES IDX 9 24 15 25 19 26 10 27 14 28 16 29 18 30 11 31 13 32 17 33
REMARK SMILES IDX 12 34 32 35 33 36 34 37 35 38 36 39 37 41 38 42 39 43 85 44
REMARK SMILES IDX 40 45 84 46 41 47 42 48 43 49 78 50 44 51 83 52 77 53 79 54
REMARK SMILES IDX 45 55 82 56 76 57 75 58 46 60 68 61 53 62 67 63 54 64 57 65
REMARK SMILES IDX 66 66 80 67 55 68 56 69 65 71 81 72 58 73 47 74 48 75 52 76
REMARK SMILES IDX 49 77 51 78 50 79 69 80 70 81 74 82 71 83 73 84 72 85 59 86
REMARK SMILES IDX 60 87 64 88 61 89 63 90 62 91
REMARK H PARENT 30 5 35 40 79 59 57 70
REMARK Flexibility Score: inf
ROOT
ATOM      1  C   UNL A   1      34.128  29.774  27.444  1.00  0.00     0.116 C 
ENDROOT
BRANCH   1   2
ATOM      2  N   UNL A   1      33.691  29.884  26.062  1.00  0.00    -0.352 N 
ATOM      3  C   UNL A   1      33.124  28.949  25.225  1.00  0.00     0.251 C 
ATOM      4  O   UNL A   1      32.825  29.296  24.083  1.00  0.00    -0.269 OA
ATOM      5  H   UNL A   1      33.822  30.771  25.658  1.00  0.00     0.163 HD
BRANCH   3   6
ATOM      6  C   UNL A   1      32.937  27.524  25.625  1.00  0.00     0.039 A 
ATOM      7  C   UNL A   1      32.411  24.801  26.008  1.00  0.00     0.088 A 
ATOM      8  C   UNL A   1      31.370  25.727  26.103  1.00  0.00     0.023 A 
ATOM      9  C   UNL A   1      33.728  25.246  25.896  1.00  0.00     0.023 A 
ATOM     10  C   UNL A   1      31.628  27.079  25.862  1.00  0.00     0.015 A 
ATOM     11  C   UNL A   1      33.986  26.612  25.766  1.00  0.00     0.015 A 
BRANCH   7  12
ATOM     12  S   UNL A   1      32.073  23.047  26.122  1.00  0.00     0.270 S 
ATOM     13  O   UNL A   1      30.637  22.942  26.203  1.00  0.00    -0.201 OA
ATOM     14  O   UNL A   1      32.937  22.558  27.186  1.00  0.00    -0.201 OA
BRANCH  12  15
ATOM     15  N   UNL A   1      32.632  22.308  24.693  1.00  0.00    -0.202 N 
BRANCH  15  16
ATOM     16  C   UNL A   1      32.235  22.876  23.437  1.00  0.00     0.241 C 
ATOM     17  O   UNL A   1      31.052  22.975  23.121  1.00  0.00    -0.273 OA
BRANCH  16  18
ATOM     18  C   UNL A   1      33.298  23.290  22.426  1.00  0.00     0.101 C 
BRANCH  18  19
ATOM     19  C   UNL A   1      33.730  24.753  22.522  1.00  0.00     0.006 C 
ATOM     20  C   UNL A   1      32.707  25.695  21.902  1.00  0.00     0.004 C 
ENDBRANCH  18  19
ENDBRANCH  16  18
ENDBRANCH  15  16
BRANCH  15  21
ATOM     21  C   UNL A   1      33.739  21.394  24.732  1.00  0.00     0.070 A 
ATOM     22  C   UNL A   1      34.988  21.940  25.069  1.00  0.00     0.051 A 
ATOM     23  C   UNL A   1      33.604  20.000  24.426  1.00  0.00     0.010 A 
ATOM     24  C   UNL A   1      36.096  21.114  25.093  1.00  0.00     0.080 A 
ATOM     25  C   UNL A   1      34.739  19.155  24.576  1.00  0.00     0.028 A 
ATOM     26  C   UNL A   1      32.397  19.393  24.009  1.00  0.00     0.011 A 
ATOM     27  S   UNL A   1      37.764  21.562  25.387  1.00  0.00    -0.052 S 
ATOM     28  C   UNL A   1      35.973  19.749  24.870  1.00  0.00     0.157 A 
ATOM     29  C   UNL A   1      34.598  17.759  24.457  1.00  0.00     0.013 A 
ATOM     30  C   UNL A   1      32.273  18.004  23.904  1.00  0.00     0.001 A 
ATOM     31  C   UNL A   1      38.209  19.862  25.190  1.00  0.00     0.396 A 
ATOM     32  O   UNL A   1      37.150  18.993  24.941  1.00  0.00    -0.413 OA
ATOM     33  C   UNL A   1      33.364  17.186  24.159  1.00  0.00     0.001 A 
ATOM     34  O   UNL A   1      39.368  19.483  25.276  1.00  0.00    -0.233 OA
ENDBRANCH  15  21
ENDBRANCH  12  15
ENDBRANCH   7  12
ENDBRANCH   3   6
ENDBRANCH   1   2
BRANCH   1  35
ATOM     35  C   UNL A   1      34.867  30.991  27.991  1.00  0.00     0.023 C 
BRANCH  35  36
ATOM     36  C   UNL A   1      34.089  32.304  27.988  1.00  0.00     0.023 C 
BRANCH  36  37
ATOM     37  C   UNL A   1      34.759  33.437  28.762  1.00  0.00     0.116 C 
BRANCH  37  38
ATOM     38  N   UNL A   1      34.169  33.696  30.069  1.00  0.00    -0.352 N 
ATOM     39  C   UNL A   1      34.646  33.382  31.323  1.00  0.00     0.251 C 
ATOM     40  H   UNL A   1      33.303  34.163  30.054  1.00  0.00     0.163 HD
ATOM     41  O   UNL A   1      34.004  33.652  32.331  1.00  0.00    -0.269 OA
BRANCH  39  42
ATOM     42  C   UNL A   1      35.909  32.631  31.425  1.00  0.00     0.039 A 
ATOM     43  C   UNL A   1      35.887  31.249  31.618  1.00  0.00     0.014 A 
ATOM     44  C   UNL A   1      37.110  33.344  31.455  1.00  0.00     0.014 A 
ATOM     45  C   UNL A   1      37.031  30.610  32.057  1.00  0.00     0.010 A 
ATOM     46  C   UNL A   1      38.277  32.686  31.824  1.00  0.00     0.010 A 
ATOM     47  C   UNL A   1      38.221  31.332  32.179  1.00  0.00    -0.014 A 
BRANCH  47  48
ATOM     48  C   UNL A   1      39.402  30.537  32.522  1.00  0.00     0.031 A 
ATOM     49  C   UNL A   1      40.513  30.752  31.547  1.00  0.00     0.074 A 
ATOM     50  C   UNL A   1      39.667  30.172  33.793  1.00  0.00     0.049 A 
ATOM     51  N   UNL A   1      41.292  31.793  31.597  1.00  0.00    -0.248 NA
ATOM     52  C   UNL A   1      40.592  30.014  30.287  1.00  0.00     0.031 C 
ATOM     53  C   UNL A   1      39.419  31.017  34.969  1.00  0.00     0.029 A 
ATOM     54  N   UNL A   1      40.394  29.115  34.284  1.00  0.00    -0.354 N 
ATOM     55  C   UNL A   1      41.943  31.878  30.379  1.00  0.00     0.074 A 
ATOM     56  C   UNL A   1      41.477  30.752  29.599  1.00  0.00     0.031 C 
ATOM     57  C   UNL A   1      40.160  30.551  35.996  1.00  0.00     0.029 A 
ATOM     58  C   UNL A   1      40.822  29.311  35.596  1.00  0.00     0.049 A 
ATOM     59  H   UNL A   1      40.593  28.304  33.763  1.00  0.00     0.167 HD
ATOM     60  C   UNL A   1      42.831  32.866  30.091  1.00  0.00     0.031 A 
ATOM     61  C   UNL A   1      42.024  28.868  36.061  1.00  0.00     0.031 A 
ATOM     62  C   UNL A   1      43.061  33.808  31.146  1.00  0.00     0.049 A 
ATOM     63  C   UNL A   1      42.948  29.898  35.447  1.00  0.00     0.074 A 
ATOM     64  C   UNL A   1      42.681  35.088  31.478  1.00  0.00     0.029 A 
ATOM     65  N   UNL A   1      43.847  33.401  32.195  1.00  0.00    -0.354 N 
ATOM     66  N   UNL A   1      43.123  31.130  35.855  1.00  0.00    -0.248 NA
ATOM     67  C   UNL A   1      43.404  29.645  34.079  1.00  0.00     0.031 C 
ATOM     68  C   UNL A   1      42.878  35.186  32.892  1.00  0.00     0.029 A 
ATOM     69  C   UNL A   1      43.319  33.939  33.338  1.00  0.00     0.049 A 
ATOM     70  H   UNL A   1      44.645  32.827  32.137  1.00  0.00     0.167 HD
ATOM     71  C   UNL A   1      43.418  31.868  34.704  1.00  0.00     0.074 A 
ATOM     72  C   UNL A   1      43.597  30.885  33.654  1.00  0.00     0.031 C 
ATOM     73  C   UNL A   1      43.313  33.228  34.603  1.00  0.00     0.031 A 
BRANCH  60  74
ATOM     74  C   UNL A   1      43.693  32.892  28.891  1.00  0.00    -0.014 A 
ATOM     75  C   UNL A   1      43.550  33.826  27.861  1.00  0.00     0.009 A 
ATOM     76  C   UNL A   1      44.813  32.042  28.890  1.00  0.00     0.009 A 
ATOM     77  C   UNL A   1      44.532  33.920  26.867  1.00  0.00     0.001 A 
ATOM     78  C   UNL A   1      45.794  32.145  27.910  1.00  0.00     0.001 A 
ATOM     79  C   UNL A   1      45.656  33.090  26.900  1.00  0.00     0.000 A 
ENDBRANCH  60  74
BRANCH  61  80
ATOM     80  C   UNL A   1      42.213  27.382  35.943  1.00  0.00    -0.014 A 
ATOM     81  C   UNL A   1      43.085  26.730  35.059  1.00  0.00     0.009 A 
ATOM     82  C   UNL A   1      41.399  26.564  36.756  1.00  0.00     0.009 A 
ATOM     83  C   UNL A   1      43.021  25.341  34.873  1.00  0.00     0.001 A 
ATOM     84  C   UNL A   1      41.356  25.176  36.596  1.00  0.00     0.001 A 
ATOM     85  C   UNL A   1      42.141  24.568  35.624  1.00  0.00     0.000 A 
ENDBRANCH  61  80
BRANCH  73  86
ATOM     86  C   UNL A   1      42.979  33.991  35.847  1.00  0.00    -0.014 A 
ATOM     87  C   UNL A   1      41.644  34.308  36.155  1.00  0.00     0.009 A 
ATOM     88  C   UNL A   1      43.996  34.509  36.656  1.00  0.00     0.009 A 
ATOM     89  C   UNL A   1      41.340  35.190  37.194  1.00  0.00     0.001 A 
ATOM     90  C   UNL A   1      43.690  35.371  37.711  1.00  0.00     0.001 A 
ATOM     91  C   UNL A   1      42.366  35.730  37.964  1.00  0.00     0.000 A 
ENDBRANCH  73  86
ENDBRANCH  47  48
ENDBRANCH  39  42
ENDBRANCH  37  38
ENDBRANCH  36  37
ENDBRANCH  35  36
ENDBRANCH   1  35
TORSDOF 17
ENDMDL
MODEL 3
REMARK VINA RESULT:     -11.7      3.600      9.181
REMARK SMILES CCCC(=O)N(c1cc2sc(=O)oc2c2ccccc12)S(=O)(=O)c1ccc(C(=O)NCCCCNC(=O)c2ccc(-c3c4nc(c(-c5ccccc5)c5ccc([nH]5)c(-c5ccccc5)c5nc(c(-c6ccccc6)c6ccc3[nH]6)C=C5)C=C4)cc2)cc1
REMARK SMILES IDX 31 1 30 2 28 3 29 4 27 6 24 7 25 8 87 9 26 10 86 11 21 12
REMARK SMILES IDX 22 13 23 14 6 15 4 16 5 17 3 18 2 19 1 20 7 21 8 22 20 23
REMARK SMILES IDX 9 24 15 25 19 26 10 27 14 28 16 29 18 30 11 31 13 32 17 33
REMARK SMILES IDX 12 34 32 35 33 36 34 37 35 38 36 39 37 41 38 42 39 43 85 44
REMARK SMILES IDX 40 45 84 46 41 47 42 48 43 49 78 50 44 51 83 52 77 53 79 54
REMARK SMILES IDX 45 55 82 56 76 57 75 58 46 60 68 61 53 62 67 63 54 64 57 65
REMARK SMILES IDX 66 66 80 67 55 68 56 69 65 71 81 72 58 73 47 74 48 75 52 76
REMARK SMILES IDX 49 77 51 78 50 79 69 80 70 81 74 82 71 83 73 84 72 85 59 86
REMARK SMILES IDX 60 87 64 88 61 89 63 90 62 91
REMARK H PARENT 30 5 35 40 79 59 57 70
REMARK Flexibility Score: inf
ROOT
ATOM      1  C   UNL A   1      34.462  29.983  27.387  1.00  0.00     0.116 C 
ENDROOT
BRANCH   1   2
ATOM      2  N   UNL A   1      33.677  30.167  26.178  1.00  0.00    -0.352 N 
ATOM      3  C   UNL A   1      32.877  29.286  25.486  1.00  0.00     0.251 C 
ATOM      4  O   UNL A   1      32.297  29.694  24.481  1.00  0.00    -0.269 OA
ATOM      5  H   UNL A   1      33.726  31.070  25.790  1.00  0.00     0.163 HD
BRANCH   3   6
ATOM      6  C   UNL A   1      32.755  27.848  25.864  1.00  0.00     0.039 A 
ATOM      7  C   UNL A   1      32.301  25.110  26.233  1.00  0.00     0.088 A 
ATOM      8  C   UNL A   1      31.281  26.024  26.507  1.00  0.00     0.023 A 
ATOM      9  C   UNL A   1      33.587  25.570  25.946  1.00  0.00     0.023 A 
ATOM     10  C   UNL A   1      31.496  27.385  26.273  1.00  0.00     0.015 A 
ATOM     11  C   UNL A   1      33.817  26.941  25.823  1.00  0.00     0.015 A 
BRANCH   7  12
ATOM     12  S   UNL A   1      31.991  23.351  26.339  1.00  0.00     0.270 S 
ATOM     13  O   UNL A   1      30.558  23.225  26.450  1.00  0.00    -0.201 OA
ATOM     14  O   UNL A   1      32.885  22.865  27.380  1.00  0.00    -0.201 OA
BRANCH  12  15
ATOM     15  N   UNL A   1      32.528  22.632  24.892  1.00  0.00    -0.202 N 
BRANCH  15  16
ATOM     16  C   UNL A   1      32.071  23.186  23.650  1.00  0.00     0.241 C 
ATOM     17  O   UNL A   1      30.880  23.201  23.353  1.00  0.00    -0.273 OA
BRANCH  16  18
ATOM     18  C   UNL A   1      33.085  23.690  22.630  1.00  0.00     0.101 C 
BRANCH  18  19
ATOM     19  C   UNL A   1      32.946  25.170  22.276  1.00  0.00     0.006 C 
ATOM     20  C   UNL A   1      31.595  25.735  22.691  1.00  0.00     0.004 C 
ENDBRANCH  18  19
ENDBRANCH  16  18
ENDBRANCH  15  16
BRANCH  15  21
ATOM     21  C   UNL A   1      33.667  21.757  24.894  1.00  0.00     0.070 A 
ATOM     22  C   UNL A   1      34.893  22.328  25.274  1.00  0.00     0.051 A 
ATOM     23  C   UNL A   1      33.586  20.377  24.512  1.00  0.00     0.010 A 
ATOM     24  C   UNL A   1      36.030  21.542  25.266  1.00  0.00     0.080 A 
ATOM     25  C   UNL A   1      34.749  19.567  24.629  1.00  0.00     0.028 A 
ATOM     26  C   UNL A   1      32.406  19.751  24.049  1.00  0.00     0.011 A 
ATOM     27  S   UNL A   1      37.677  22.033  25.602  1.00  0.00    -0.052 S 
ATOM     28  C   UNL A   1      35.958  20.188  24.969  1.00  0.00     0.157 A 
ATOM     29  C   UNL A   1      34.660  18.175  24.433  1.00  0.00     0.013 A 
ATOM     30  C   UNL A   1      32.333  18.367  23.868  1.00  0.00     0.001 A 
ATOM     31  C   UNL A   1      38.186  20.363  25.319  1.00  0.00     0.396 A 
ATOM     32  O   UNL A   1      37.161  19.472  25.012  1.00  0.00    -0.413 OA
ATOM     33  C   UNL A   1      33.451  17.576  24.091  1.00  0.00     0.001 A 
ATOM     34  O   UNL A   1      39.357  20.022  25.397  1.00  0.00    -0.233 OA
ENDBRANCH  15  21
ENDBRANCH  12  15
ENDBRANCH   7  12
ENDBRANCH   3   6
ENDBRANCH   1   2
BRANCH   1  35
ATOM     35  C   UNL A   1      35.544  31.030  27.627  1.00  0.00     0.023 C 
BRANCH  35  36
ATOM     36  C   UNL A   1      35.534  31.703  28.996  1.00  0.00     0.023 C 
BRANCH  36  37
ATOM     37  C   UNL A   1      36.798  31.474  29.822  1.00  0.00     0.116 C 
BRANCH  37  38
ATOM     38  N   UNL A   1      36.654  30.463  30.861  1.00  0.00    -0.352 N 
ATOM     39  C   UNL A   1      37.443  29.366  31.132  1.00  0.00     0.251 C 
ATOM     40  H   UNL A   1      35.879  30.580  31.458  1.00  0.00     0.163 HD
ATOM     41  O   UNL A   1      37.162  28.592  32.040  1.00  0.00    -0.269 OA
BRANCH  39  42
ATOM     42  C   UNL A   1      38.589  29.092  30.249  1.00  0.00     0.039 A 
ATOM     43  C   UNL A   1      38.402  28.376  29.065  1.00  0.00     0.014 A 
ATOM     44  C   UNL A   1      39.868  29.447  30.683  1.00  0.00     0.014 A 
ATOM     45  C   UNL A   1      39.499  27.825  28.429  1.00  0.00     0.010 A 
ATOM     46  C   UNL A   1      40.973  28.955  30.000  1.00  0.00     0.010 A 
ATOM     47  C   UNL A   1      40.783  28.099  28.907  1.00  0.00    -0.014 A 
BRANCH  47  48
ATOM     48  C   UNL A   1      41.879  27.579  28.087  1.00  0.00     0.031 A 
ATOM     49  C   UNL A   1      42.795  28.669  27.637  1.00  0.00     0.074 A 
ATOM     50  C   UNL A   1      42.334  26.317  28.227  1.00  0.00     0.049 A 
ATOM     51  N   UNL A   1      43.713  29.172  28.410  1.00  0.00    -0.248 NA
ATOM     52  C   UNL A   1      42.515  29.476  26.449  1.00  0.00     0.031 C 
ATOM     53  C   UNL A   1      42.449  25.613  29.512  1.00  0.00     0.029 A 
ATOM     54  N   UNL A   1      42.980  25.498  27.334  1.00  0.00    -0.354 N 
ATOM     55  C   UNL A   1      44.115  30.369  27.845  1.00  0.00     0.074 A 
ATOM     56  C   UNL A   1      43.345  30.515  26.629  1.00  0.00     0.031 C 
ATOM     57  C   UNL A   1      43.302  24.578  29.358  1.00  0.00     0.029 A 
ATOM     58  C   UNL A   1      43.683  24.465  27.952  1.00  0.00     0.049 A 
ATOM     59  H   UNL A   1      42.951  25.627  26.358  1.00  0.00     0.167 HD
ATOM     60  C   UNL A   1      45.065  31.163  28.409  1.00  0.00     0.031 A 
ATOM     61  C   UNL A   1      44.875  23.994  27.489  1.00  0.00     0.031 A 
ATOM     62  C   UNL A   1      45.633  30.664  29.626  1.00  0.00     0.049 A 
ATOM     63  C   UNL A   1      45.801  25.100  27.950  1.00  0.00     0.074 A 
ATOM     64  C   UNL A   1      45.518  30.889  30.979  1.00  0.00     0.029 A 
ATOM     65  N   UNL A   1      46.543  29.641  29.524  1.00  0.00    -0.354 N 
ATOM     66  N   UNL A   1      46.231  25.299  29.170  1.00  0.00    -0.248 NA
ATOM     67  C   UNL A   1      45.935  26.259  27.065  1.00  0.00     0.031 C 
ATOM     68  C   UNL A   1      46.002  29.694  31.602  1.00  0.00     0.029 A 
ATOM     69  C   UNL A   1      46.336  28.800  30.584  1.00  0.00     0.049 A 
ATOM     70  H   UNL A   1      47.220  29.532  28.819  1.00  0.00     0.167 HD
ATOM     71  C   UNL A   1      46.398  26.683  29.288  1.00  0.00     0.074 A 
ATOM     72  C   UNL A   1      46.220  27.205  27.947  1.00  0.00     0.031 C 
ATOM     73  C   UNL A   1      46.475  27.359  30.474  1.00  0.00     0.031 A 
BRANCH  60  74
ATOM     74  C   UNL A   1      45.667  32.342  27.753  1.00  0.00    -0.014 A 
ATOM     75  C   UNL A   1      45.153  33.636  27.874  1.00  0.00     0.009 A 
ATOM     76  C   UNL A   1      46.914  32.158  27.130  1.00  0.00     0.009 A 
ATOM     77  C   UNL A   1      45.896  34.726  27.402  1.00  0.00     0.001 A 
ATOM     78  C   UNL A   1      47.656  33.243  26.673  1.00  0.00     0.001 A 
ATOM     79  C   UNL A   1      47.149  34.529  26.815  1.00  0.00     0.000 A 
ENDBRANCH  60  74
BRANCH  61  80
ATOM     80  C   UNL A   1      44.817  23.467  26.083  1.00  0.00    -0.014 A 
ATOM     81  C   UNL A   1      43.655  23.279  25.321  1.00  0.00     0.009 A 
ATOM     82  C   UNL A   1      46.037  23.073  25.493  1.00  0.00     0.009 A 
ATOM     83  C   UNL A   1      43.691  22.573  24.109  1.00  0.00     0.001 A 
ATOM     84  C   UNL A   1      46.081  22.399  24.269  1.00  0.00     0.001 A 
ATOM     85  C   UNL A   1      44.900  22.114  23.595  1.00  0.00     0.000 A 
ENDBRANCH  61  80
BRANCH  73  86
ATOM     86  C   UNL A   1      46.508  26.549  31.732  1.00  0.00    -0.014 A 
ATOM     87  C   UNL A   1      47.735  26.161  32.301  1.00  0.00     0.009 A 
ATOM     88  C   UNL A   1      45.324  26.057  32.291  1.00  0.00     0.009 A 
ATOM     89  C   UNL A   1      47.778  25.237  33.347  1.00  0.00     0.001 A 
ATOM     90  C   UNL A   1      45.366  25.153  33.355  1.00  0.00     0.001 A 
ATOM     91  C   UNL A   1      46.592  24.725  33.866  1.00  0.00     0.000 A 
ENDBRANCH  73  86
ENDBRANCH  47  48
ENDBRANCH  39  42
ENDBRANCH  37  38
ENDBRANCH  36  37
ENDBRANCH  35  36
ENDBRANCH   1  35
TORSDOF 17
ENDMDL
