MODEL 1
REMARK VINA RESULT:     -12.6      0.000      0.000
REMARK SMILES COc1cc2ccccc2cc1C(=O)Nc1cc(C(=O)NCCCCNC(=O)c2ccc(-c3c4nc(c(-c5ccccc5)c5ccc([nH]5)c(-c5ccccc5)c5nc(c(-c6ccccc6)c6ccc3[nH]6)C=C5)C=C4)cc2)ccc1C
REMARK SMILES IDX 23 1 22 2 21 3 19 4 20 5 18 7 16 8 17 9 79 10 78 11 80 12
REMARK SMILES IDX 77 13 15 14 13 15 14 16 12 18 3 19 4 20 5 21 11 22 6 23
REMARK SMILES IDX 10 24 7 25 9 26 8 27 2 28 1 29 24 30 25 31 26 32 27 33 28 35
REMARK SMILES IDX 29 36 30 37 76 38 31 39 75 40 32 41 33 42 34 43 69 44 35 45
REMARK SMILES IDX 74 46 68 47 70 48 36 49 73 50 67 51 66 52 37 54 59 55 44 56
REMARK SMILES IDX 58 57 45 58 48 59 57 60 71 61 46 62 47 63 56 65 72 66 49 67
REMARK SMILES IDX 38 68 39 69 43 70 40 71 42 72 41 73 60 74 61 75 65 76 62 77
REMARK SMILES IDX 64 78 63 79 50 80 51 81 55 82 52 83 54 84 53 85
REMARK H PARENT 21 6 15 17 26 34 70 53 48 64
REMARK Flexibility Score: inf
ROOT
ATOM      1  C   UNL A   1      33.764  29.932  27.199  1.00  0.00     0.023 C 
ENDROOT
BRANCH   1   2
ATOM      2  C   UNL A   1      32.904  29.387  26.050  1.00  0.00     0.116 C 
BRANCH   2   3
ATOM      3  N   UNL A   1      33.604  29.458  24.779  1.00  0.00    -0.352 N 
ATOM      4  C   UNL A   1      33.789  28.586  23.734  1.00  0.00     0.251 C 
ATOM      5  O   UNL A   1      34.518  28.986  22.821  1.00  0.00    -0.269 OA
ATOM      6  H   UNL A   1      34.045  30.326  24.635  1.00  0.00     0.163 HD
BRANCH   4   7
ATOM      7  C   UNL A   1      33.132  27.249  23.599  1.00  0.00     0.041 A 
ATOM      8  C   UNL A   1      32.199  25.219  24.554  1.00  0.00     0.045 A 
ATOM      9  C   UNL A   1      33.120  26.271  24.588  1.00  0.00     0.040 A 
ATOM     10  C   UNL A   1      31.483  24.936  23.382  1.00  0.00    -0.027 A 
ATOM     11  C   UNL A   1      31.554  25.872  22.339  1.00  0.00     0.006 A 
ATOM     12  C   UNL A   1      30.478  23.825  23.281  1.00  0.00     0.046 C 
ATOM     13  C   UNL A   1      32.332  27.032  22.466  1.00  0.00     0.014 A 
BRANCH   8  14
ATOM     14  N   UNL A   1      31.860  24.587  25.765  1.00  0.00    -0.322 N 
ATOM     15  C   UNL A   1      32.486  23.501  26.379  1.00  0.00     0.259 C 
ATOM     16  O   UNL A   1      31.943  23.002  27.367  1.00  0.00    -0.269 OA
ATOM     17  H   UNL A   1      31.081  24.958  26.240  1.00  0.00     0.170 HD
BRANCH  15  18
ATOM     18  C   UNL A   1      33.809  22.935  25.928  1.00  0.00     0.082 A 
ATOM     19  C   UNL A   1      33.974  21.926  24.979  1.00  0.00     0.132 A 
ATOM     20  C   UNL A   1      35.131  21.150  24.940  1.00  0.00     0.056 A 
ATOM     21  C   UNL A   1      36.290  21.648  25.510  1.00  0.00    -0.015 A 
ATOM     22  C   UNL A   1      34.992  23.514  26.390  1.00  0.00     0.026 A 
ATOM     23  C   UNL A   1      37.507  20.957  25.417  1.00  0.00     0.009 A 
ATOM     24  C   UNL A   1      36.240  22.943  26.055  1.00  0.00    -0.017 A 
ATOM     25  C   UNL A   1      38.699  21.626  25.658  1.00  0.00     0.001 A 
ATOM     26  C   UNL A   1      37.445  23.628  26.180  1.00  0.00     0.009 A 
ATOM     27  C   UNL A   1      38.665  22.987  25.937  1.00  0.00     0.001 A 
BRANCH  19  28
ATOM     28  O   UNL A   1      33.114  21.713  23.933  1.00  0.00    -0.496 OA
ATOM     29  C   UNL A   1      32.455  20.452  24.088  1.00  0.00     0.278 C 
ENDBRANCH  19  28
ENDBRANCH  15  18
ENDBRANCH   8  14
ENDBRANCH   4   7
ENDBRANCH   2   3
ENDBRANCH   1   2
BRANCH   1  30
ATOM     30  C   UNL A   1      33.382  31.358  27.605  1.00  0.00     0.023 C 
BRANCH  30  31
ATOM     31  C   UNL A   1      34.596  32.256  27.797  1.00  0.00     0.116 C 
BRANCH  31  32
ATOM     32  N   UNL A   1      34.952  32.500  29.186  1.00  0.00    -0.352 N 
ATOM     33  C   UNL A   1      35.684  31.720  30.070  1.00  0.00     0.251 C 
ATOM     34  H   UNL A   1      34.624  33.350  29.557  1.00  0.00     0.163 HD
ATOM     35  O   UNL A   1      35.755  32.046  31.240  1.00  0.00    -0.269 OA
BRANCH  33  36
ATOM     36  C   UNL A   1      36.527  30.602  29.560  1.00  0.00     0.039 A 
ATOM     37  C   UNL A   1      36.593  29.454  30.363  1.00  0.00     0.014 A 
ATOM     38  C   UNL A   1      37.440  30.778  28.528  1.00  0.00     0.014 A 
ATOM     39  C   UNL A   1      37.742  28.677  30.340  1.00  0.00     0.010 A 
ATOM     40  C   UNL A   1      38.631  30.094  28.588  1.00  0.00     0.010 A 
ATOM     41  C   UNL A   1      38.804  29.103  29.554  1.00  0.00    -0.014 A 
BRANCH  41  42
ATOM     42  C   UNL A   1      40.158  28.611  29.696  1.00  0.00     0.031 A 
ATOM     43  C   UNL A   1      40.522  27.363  29.007  1.00  0.00     0.074 A 
ATOM     44  C   UNL A   1      41.070  29.362  30.347  1.00  0.00     0.049 A 
ATOM     45  N   UNL A   1      41.694  26.844  29.023  1.00  0.00    -0.248 NA
ATOM     46  C   UNL A   1      39.553  26.561  28.264  1.00  0.00     0.031 C 
ATOM     47  C   UNL A   1      42.511  29.175  30.364  1.00  0.00     0.029 A 
ATOM     48  N   UNL A   1      40.841  30.349  31.307  1.00  0.00    -0.354 N 
ATOM     49  C   UNL A   1      41.699  25.755  28.195  1.00  0.00     0.074 A 
ATOM     50  C   UNL A   1      40.335  25.603  27.759  1.00  0.00     0.031 C 
ATOM     51  C   UNL A   1      43.030  29.819  31.419  1.00  0.00     0.029 A 
ATOM     52  C   UNL A   1      41.920  30.305  32.207  1.00  0.00     0.049 A 
ATOM     53  H   UNL A   1      40.070  30.960  31.345  1.00  0.00     0.167 HD
ATOM     54  C   UNL A   1      42.892  25.153  27.949  1.00  0.00     0.031 A 
ATOM     55  C   UNL A   1      41.748  29.934  33.508  1.00  0.00     0.031 A 
ATOM     56  C   UNL A   1      43.881  25.559  28.956  1.00  0.00     0.049 A 
ATOM     57  C   UNL A   1      42.520  28.657  33.780  1.00  0.00     0.074 A 
ATOM     58  C   UNL A   1      44.969  26.414  28.958  1.00  0.00     0.029 A 
ATOM     59  N   UNL A   1      43.585  25.300  30.300  1.00  0.00    -0.354 N 
ATOM     60  N   UNL A   1      42.671  27.685  32.910  1.00  0.00    -0.248 NA
ATOM     61  C   UNL A   1      43.345  28.492  34.973  1.00  0.00     0.031 C 
ATOM     62  C   UNL A   1      45.249  26.751  30.318  1.00  0.00     0.029 A 
ATOM     63  C   UNL A   1      44.363  26.069  31.141  1.00  0.00     0.049 A 
ATOM     64  H   UNL A   1      42.909  24.652  30.605  1.00  0.00     0.167 HD
ATOM     65  C   UNL A   1      43.689  26.873  33.340  1.00  0.00     0.074 A 
ATOM     66  C   UNL A   1      44.034  27.382  34.661  1.00  0.00     0.031 C 
ATOM     67  C   UNL A   1      44.297  25.904  32.592  1.00  0.00     0.031 A 
BRANCH  54  68
ATOM     68  C   UNL A   1      43.179  24.326  26.719  1.00  0.00    -0.014 A 
ATOM     69  C   UNL A   1      42.628  23.039  26.596  1.00  0.00     0.009 A 
ATOM     70  C   UNL A   1      44.074  24.701  25.697  1.00  0.00     0.009 A 
ATOM     71  C   UNL A   1      42.961  22.185  25.529  1.00  0.00     0.001 A 
ATOM     72  C   UNL A   1      44.402  23.863  24.623  1.00  0.00     0.001 A 
ATOM     73  C   UNL A   1      43.847  22.598  24.542  1.00  0.00     0.000 A 
ENDBRANCH  54  68
BRANCH  55  74
ATOM     74  C   UNL A   1      40.421  30.339  34.044  1.00  0.00    -0.014 A 
ATOM     75  C   UNL A   1      40.302  31.660  34.537  1.00  0.00     0.009 A 
ATOM     76  C   UNL A   1      39.253  29.656  33.684  1.00  0.00     0.009 A 
ATOM     77  C   UNL A   1      39.076  32.331  34.508  1.00  0.00     0.001 A 
ATOM     78  C   UNL A   1      38.021  30.326  33.687  1.00  0.00     0.001 A 
ATOM     79  C   UNL A   1      37.942  31.672  34.048  1.00  0.00     0.000 A 
ENDBRANCH  55  74
BRANCH  67  80
ATOM     80  C   UNL A   1      44.995  24.712  33.204  1.00  0.00    -0.014 A 
ATOM     81  C   UNL A   1      46.301  24.758  33.713  1.00  0.00     0.009 A 
ATOM     82  C   UNL A   1      44.256  23.537  33.468  1.00  0.00     0.009 A 
ATOM     83  C   UNL A   1      46.857  23.676  34.403  1.00  0.00     0.001 A 
ATOM     84  C   UNL A   1      44.790  22.476  34.201  1.00  0.00     0.001 A 
ATOM     85  C   UNL A   1      46.097  22.542  34.658  1.00  0.00     0.000 A 
ENDBRANCH  67  80
ENDBRANCH  41  42
ENDBRANCH  33  36
ENDBRANCH  31  32
ENDBRANCH  30  31
ENDBRANCH   1  30
TORSDOF 14
ENDMDL
MODEL 2
REMARK VINA RESULT:     -12.4      2.056      3.230
REMARK SMILES COc1cc2ccccc2cc1C(=O)Nc1cc(C(=O)NCCCCNC(=O)c2ccc(-c3c4nc(c(-c5ccccc5)c5ccc([nH]5)c(-c5ccccc5)c5nc(c(-c6ccccc6)c6ccc3[nH]6)C=C5)C=C4)cc2)ccc1C
REMARK SMILES IDX 23 1 22 2 21 3 19 4 20 5 18 7 16 8 17 9 79 10 78 11 80 12
REMARK SMILES IDX 77 13 15 14 13 15 14 16 12 18 3 19 4 20 5 21 11 22 6 23
REMARK SMILES IDX 10 24 7 25 9 26 8 27 2 28 1 29 24 30 25 31 26 32 27 33 28 35
REMARK SMILES IDX 29 36 30 37 76 38 31 39 75 40 32 41 33 42 34 43 69 44 35 45
REMARK SMILES IDX 74 46 68 47 70 48 36 49 73 50 67 51 66 52 37 54 59 55 44 56
REMARK SMILES IDX 58 57 45 58 48 59 57 60 71 61 46 62 47 63 56 65 72 66 49 67
REMARK SMILES IDX 38 68 39 69 43 70 40 71 42 72 41 73 60 74 61 75 65 76 62 77
REMARK SMILES IDX 64 78 63 79 50 80 51 81 55 82 52 83 54 84 53 85
REMARK H PARENT 21 6 15 17 26 34 70 53 48 64
REMARK Flexibility Score: inf
ROOT
ATOM      1  C   UNL A   1      35.129  30.130  27.484  1.00  0.00     0.023 C 
ENDROOT
BRANCH   1   2
ATOM      2  C   UNL A   1      34.387  29.234  26.482  1.00  0.00     0.116 C 
BRANCH   2   3
ATOM      3  N   UNL A   1      33.152  29.850  26.027  1.00  0.00    -0.352 N 
ATOM      4  C   UNL A   1      32.065  29.410  25.311  1.00  0.00     0.251 C 
ATOM      5  O   UNL A   1      31.208  30.261  25.054  1.00  0.00    -0.269 OA
ATOM      6  H   UNL A   1      33.077  30.795  26.292  1.00  0.00     0.163 HD
BRANCH   4   7
ATOM      7  C   UNL A   1      31.825  27.995  24.889  1.00  0.00     0.041 A 
ATOM      8  C   UNL A   1      31.226  25.691  25.376  1.00  0.00     0.045 A 
ATOM      9  C   UNL A   1      31.811  26.905  25.753  1.00  0.00     0.040 A 
ATOM     10  C   UNL A   1      30.925  25.432  24.032  1.00  0.00    -0.027 A 
ATOM     11  C   UNL A   1      31.017  26.503  23.130  1.00  0.00     0.006 A 
ATOM     12  C   UNL A   1      30.292  24.153  23.563  1.00  0.00     0.046 C 
ATOM     13  C   UNL A   1      31.418  27.775  23.563  1.00  0.00     0.014 A 
BRANCH   8  14
ATOM     14  N   UNL A   1      30.763  24.829  26.389  1.00  0.00    -0.322 N 
ATOM     15  C   UNL A   1      31.277  23.588  26.768  1.00  0.00     0.259 C 
ATOM     16  O   UNL A   1      30.635  22.921  27.583  1.00  0.00    -0.269 OA
ATOM     17  H   UNL A   1      29.978  25.141  26.893  1.00  0.00     0.170 HD
BRANCH  15  18
ATOM     18  C   UNL A   1      32.590  23.039  26.271  1.00  0.00     0.082 A 
ATOM     19  C   UNL A   1      32.769  21.791  25.673  1.00  0.00     0.132 A 
ATOM     20  C   UNL A   1      34.015  21.167  25.658  1.00  0.00     0.056 A 
ATOM     21  C   UNL A   1      35.153  21.942  25.807  1.00  0.00    -0.015 A 
ATOM     22  C   UNL A   1      33.722  23.855  26.291  1.00  0.00     0.026 A 
ATOM     23  C   UNL A   1      36.436  21.386  25.703  1.00  0.00     0.009 A 
ATOM     24  C   UNL A   1      34.980  23.332  25.918  1.00  0.00    -0.017 A 
ATOM     25  C   UNL A   1      37.530  22.212  25.487  1.00  0.00     0.001 A 
ATOM     26  C   UNL A   1      36.068  24.137  25.587  1.00  0.00     0.009 A 
ATOM     27  C   UNL A   1      37.323  23.577  25.326  1.00  0.00     0.001 A 
BRANCH  19  28
ATOM     28  O   UNL A   1      31.808  21.153  24.933  1.00  0.00    -0.496 OA
ATOM     29  C   UNL A   1      32.325  20.817  23.642  1.00  0.00     0.278 C 
ENDBRANCH  19  28
ENDBRANCH  15  18
ENDBRANCH   8  14
ENDBRANCH   4   7
ENDBRANCH   2   3
ENDBRANCH   1   2
BRANCH   1  30
ATOM     30  C   UNL A   1      34.215  31.159  28.153  1.00  0.00     0.023 C 
BRANCH  30  31
ATOM     31  C   UNL A   1      34.883  32.516  28.316  1.00  0.00     0.116 C 
BRANCH  31  32
ATOM     32  N   UNL A   1      34.064  33.516  28.983  1.00  0.00    -0.352 N 
ATOM     33  C   UNL A   1      34.203  34.092  30.238  1.00  0.00     0.251 C 
ATOM     34  H   UNL A   1      33.291  33.835  28.464  1.00  0.00     0.163 HD
ATOM     35  O   UNL A   1      33.324  34.817  30.665  1.00  0.00    -0.269 OA
BRANCH  33  36
ATOM     36  C   UNL A   1      35.492  33.976  30.975  1.00  0.00     0.039 A 
ATOM     37  C   UNL A   1      36.625  34.504  30.338  1.00  0.00     0.014 A 
ATOM     38  C   UNL A   1      35.644  33.134  32.069  1.00  0.00     0.014 A 
ATOM     39  C   UNL A   1      37.867  33.938  30.584  1.00  0.00     0.010 A 
ATOM     40  C   UNL A   1      36.843  32.480  32.226  1.00  0.00     0.010 A 
ATOM     41  C   UNL A   1      37.926  32.830  31.419  1.00  0.00    -0.014 A 
BRANCH  41  42
ATOM     42  C   UNL A   1      39.061  31.935  31.489  1.00  0.00     0.031 A 
ATOM     43  C   UNL A   1      39.009  30.681  30.722  1.00  0.00     0.074 A 
ATOM     44  C   UNL A   1      40.171  32.324  32.151  1.00  0.00     0.049 A 
ATOM     45  N   UNL A   1      39.961  29.825  30.670  1.00  0.00    -0.248 NA
ATOM     46  C   UNL A   1      37.827  30.267  29.967  1.00  0.00     0.031 C 
ATOM     47  C   UNL A   1      41.482  31.699  32.111  1.00  0.00     0.029 A 
ATOM     48  N   UNL A   1      40.274  33.272  33.170  1.00  0.00    -0.354 N 
ATOM     49  C   UNL A   1      39.615  28.842  29.784  1.00  0.00     0.074 A 
ATOM     50  C   UNL A   1      38.266  29.148  29.385  1.00  0.00     0.031 C 
ATOM     51  C   UNL A   1      42.190  32.083  33.181  1.00  0.00     0.029 A 
ATOM     52  C   UNL A   1      41.298  32.838  34.031  1.00  0.00     0.049 A 
ATOM     53  H   UNL A   1      39.732  34.088  33.267  1.00  0.00     0.167 HD
ATOM     54  C   UNL A   1      40.557  27.916  29.467  1.00  0.00     0.031 A 
ATOM     55  C   UNL A   1      41.037  32.458  35.315  1.00  0.00     0.031 A 
ATOM     56  C   UNL A   1      41.637  27.932  30.461  1.00  0.00     0.049 A 
ATOM     57  C   UNL A   1      41.377  30.991  35.491  1.00  0.00     0.074 A 
ATOM     58  C   UNL A   1      42.937  28.405  30.475  1.00  0.00     0.029 A 
ATOM     59  N   UNL A   1      41.294  27.694  31.798  1.00  0.00    -0.354 N 
ATOM     60  N   UNL A   1      41.205  30.077  34.564  1.00  0.00    -0.248 NA
ATOM     61  C   UNL A   1      42.126  30.504  36.645  1.00  0.00     0.031 C 
ATOM     62  C   UNL A   1      43.328  28.553  31.841  1.00  0.00     0.029 A 
ATOM     63  C   UNL A   1      42.285  28.129  32.655  1.00  0.00     0.049 A 
ATOM     64  H   UNL A   1      40.455  27.269  32.089  1.00  0.00     0.167 HD
ATOM     65  C   UNL A   1      41.926  28.963  34.915  1.00  0.00     0.074 A 
ATOM     66  C   UNL A   1      42.430  29.257  36.250  1.00  0.00     0.031 C 
ATOM     67  C   UNL A   1      42.191  27.903  34.095  1.00  0.00     0.031 A 
BRANCH  54  68
ATOM     68  C   UNL A   1      40.555  27.119  28.184  1.00  0.00    -0.014 A 
ATOM     69  C   UNL A   1      39.949  25.851  28.148  1.00  0.00     0.009 A 
ATOM     70  C   UNL A   1      41.230  27.502  27.007  1.00  0.00     0.009 A 
ATOM     71  C   UNL A   1      40.026  25.021  27.015  1.00  0.00     0.001 A 
ATOM     72  C   UNL A   1      41.299  26.688  25.868  1.00  0.00     0.001 A 
ATOM     73  C   UNL A   1      40.700  25.440  25.875  1.00  0.00     0.000 A 
ENDBRANCH  54  68
BRANCH  55  74
ATOM     74  C   UNL A   1      39.910  33.221  35.915  1.00  0.00    -0.014 A 
ATOM     75  C   UNL A   1      38.665  32.556  36.018  1.00  0.00     0.009 A 
ATOM     76  C   UNL A   1      40.141  34.331  36.736  1.00  0.00     0.009 A 
ATOM     77  C   UNL A   1      37.754  32.886  37.027  1.00  0.00     0.001 A 
ATOM     78  C   UNL A   1      39.208  34.677  37.725  1.00  0.00     0.001 A 
ATOM     79  C   UNL A   1      38.045  33.925  37.902  1.00  0.00     0.000 A 
ENDBRANCH  55  74
BRANCH  67  80
ATOM     80  C   UNL A   1      42.492  26.517  34.617  1.00  0.00    -0.014 A 
ATOM     81  C   UNL A   1      41.594  25.774  35.398  1.00  0.00     0.009 A 
ATOM     82  C   UNL A   1      43.637  25.834  34.150  1.00  0.00     0.009 A 
ATOM     83  C   UNL A   1      41.848  24.441  35.738  1.00  0.00     0.001 A 
ATOM     84  C   UNL A   1      43.868  24.489  34.444  1.00  0.00     0.001 A 
ATOM     85  C   UNL A   1      42.976  23.796  35.249  1.00  0.00     0.000 A 
ENDBRANCH  67  80
ENDBRANCH  41  42
ENDBRANCH  33  36
ENDBRANCH  31  32
ENDBRANCH  30  31
ENDBRANCH   1  30
TORSDOF 14
ENDMDL
MODEL 3
REMARK VINA RESULT:     -12.3      3.148      8.643
REMARK SMILES COc1cc2ccccc2cc1C(=O)Nc1cc(C(=O)NCCCCNC(=O)c2ccc(-c3c4nc(c(-c5ccccc5)c5ccc([nH]5)c(-c5ccccc5)c5nc(c(-c6ccccc6)c6ccc3[nH]6)C=C5)C=C4)cc2)ccc1C
REMARK SMILES IDX 23 1 22 2 21 3 19 4 20 5 18 7 16 8 17 9 79 10 78 11 80 12
REMARK SMILES IDX 77 13 15 14 13 15 14 16 12 18 3 19 4 20 5 21 11 22 6 23
REMARK SMILES IDX 10 24 7 25 9 26 8 27 2 28 1 29 24 30 25 31 26 32 27 33 28 35
REMARK SMILES IDX 29 36 30 37 76 38 31 39 75 40 32 41 33 42 34 43 69 44 35 45
REMARK SMILES IDX 74 46 68 47 70 48 36 49 73 50 67 51 66 52 37 54 59 55 44 56
REMARK SMILES IDX 58 57 45 58 48 59 57 60 71 61 46 62 47 63 56 65 72 66 49 67
REMARK SMILES IDX 38 68 39 69 43 70 40 71 42 72 41 73 60 74 61 75 65 76 62 77
REMARK SMILES IDX 64 78 63 79 50 80 51 81 55 82 52 83 54 84 53 85
REMARK H PARENT 21 6 15 17 26 34 70 53 48 64
REMARK Flexibility Score: inf
ROOT
ATOM      1  C   UNL A   1      36.438  21.285  24.446  1.00  0.00     0.023 C 
ENDROOT
BRANCH   1   2
ATOM      2  C   UNL A   1      35.287  20.634  25.226  1.00  0.00     0.116 C 
BRANCH   2   3
ATOM      3  N   UNL A   1      35.063  21.297  26.500  1.00  0.00    -0.352 N 
ATOM      4  C   UNL A   1      34.279  22.347  26.913  1.00  0.00     0.251 C 
ATOM      5  O   UNL A   1      34.401  22.679  28.095  1.00  0.00    -0.269 OA
ATOM      6  H   UNL A   1      35.593  20.906  27.232  1.00  0.00     0.163 HD
BRANCH   4   7
ATOM      7  C   UNL A   1      33.267  23.052  26.067  1.00  0.00     0.041 A 
ATOM      8  C   UNL A   1      32.667  24.510  24.218  1.00  0.00     0.045 A 
ATOM      9  C   UNL A   1      33.544  24.137  25.242  1.00  0.00     0.040 A 
ATOM     10  C   UNL A   1      31.355  24.018  24.188  1.00  0.00    -0.027 A 
ATOM     11  C   UNL A   1      31.034  22.980  25.076  1.00  0.00     0.006 A 
ATOM     12  C   UNL A   1      30.367  24.374  23.115  1.00  0.00     0.046 C 
ATOM     13  C   UNL A   1      31.990  22.476  25.970  1.00  0.00     0.014 A 
BRANCH   8  14
ATOM     14  N   UNL A   1      33.187  25.218  23.117  1.00  0.00    -0.322 N 
ATOM     15  C   UNL A   1      33.237  26.599  22.923  1.00  0.00     0.259 C 
ATOM     16  O   UNL A   1      33.599  27.016  21.821  1.00  0.00    -0.269 OA
ATOM     17  H   UNL A   1      33.562  24.669  22.391  1.00  0.00     0.170 HD
BRANCH  15  18
ATOM     18  C   UNL A   1      32.916  27.606  23.999  1.00  0.00     0.082 A 
ATOM     19  C   UNL A   1      31.660  28.168  24.229  1.00  0.00     0.132 A 
ATOM     20  C   UNL A   1      31.521  29.383  24.898  1.00  0.00     0.056 A 
ATOM     21  C   UNL A   1      32.543  29.808  25.730  1.00  0.00    -0.015 A 
ATOM     22  C   UNL A   1      33.898  27.947  24.930  1.00  0.00     0.026 A 
ATOM     23  C   UNL A   1      32.421  30.972  26.504  1.00  0.00     0.009 A 
ATOM     24  C   UNL A   1      33.649  28.955  25.887  1.00  0.00    -0.017 A 
ATOM     25  C   UNL A   1      33.272  31.176  27.581  1.00  0.00     0.001 A 
ATOM     26  C   UNL A   1      34.419  29.116  27.036  1.00  0.00     0.009 A 
ATOM     27  C   UNL A   1      34.200  30.193  27.903  1.00  0.00     0.001 A 
BRANCH  19  28
ATOM     28  O   UNL A   1      30.476  27.528  23.968  1.00  0.00    -0.496 OA
ATOM     29  C   UNL A   1      29.777  28.198  22.915  1.00  0.00     0.278 C 
ENDBRANCH  19  28
ENDBRANCH  15  18
ENDBRANCH   8  14
ENDBRANCH   4   7
ENDBRANCH   2   3
ENDBRANCH   1   2
BRANCH   1  30
ATOM     30  C   UNL A   1      37.803  21.064  25.105  1.00  0.00     0.023 C 
BRANCH  30  31
ATOM     31  C   UNL A   1      38.503  22.370  25.451  1.00  0.00     0.116 C 
BRANCH  31  32
ATOM     32  N   UNL A   1      39.678  22.219  26.295  1.00  0.00    -0.352 N 
ATOM     33  C   UNL A   1      40.432  23.179  26.955  1.00  0.00     0.251 C 
ATOM     34  H   UNL A   1      39.986  21.293  26.417  1.00  0.00     0.163 HD
ATOM     35  O   UNL A   1      41.468  22.854  27.505  1.00  0.00    -0.269 OA
BRANCH  33  36
ATOM     36  C   UNL A   1      39.890  24.553  27.150  1.00  0.00     0.039 A 
ATOM     37  C   UNL A   1      40.437  25.560  26.342  1.00  0.00     0.014 A 
ATOM     38  C   UNL A   1      39.126  24.895  28.259  1.00  0.00     0.014 A 
ATOM     39  C   UNL A   1      40.493  26.860  26.824  1.00  0.00     0.010 A 
ATOM     40  C   UNL A   1      39.289  26.147  28.802  1.00  0.00     0.010 A 
ATOM     41  C   UNL A   1      40.047  27.097  28.117  1.00  0.00    -0.014 A 
BRANCH  41  42
ATOM     42  C   UNL A   1      40.361  28.293  28.870  1.00  0.00     0.031 A 
ATOM     43  C   UNL A   1      39.361  29.370  28.917  1.00  0.00     0.074 A 
ATOM     44  C   UNL A   1      41.497  28.337  29.597  1.00  0.00     0.049 A 
ATOM     45  N   UNL A   1      39.502  30.460  29.577  1.00  0.00    -0.248 NA
ATOM     46  C   UNL A   1      38.108  29.316  28.166  1.00  0.00     0.031 C 
ATOM     47  C   UNL A   1      41.853  29.317  30.610  1.00  0.00     0.029 A 
ATOM     48  N   UNL A   1      42.664  27.595  29.412  1.00  0.00    -0.354 N 
ATOM     49  C   UNL A   1      38.342  31.179  29.484  1.00  0.00     0.074 A 
ATOM     50  C   UNL A   1      37.507  30.437  28.576  1.00  0.00     0.031 C 
ATOM     51  C   UNL A   1      43.179  29.295  30.801  1.00  0.00     0.029 A 
ATOM     52  C   UNL A   1      43.738  28.416  29.799  1.00  0.00     0.049 A 
ATOM     53  H   UNL A   1      42.723  26.672  29.075  1.00  0.00     0.167 HD
ATOM     54  C   UNL A   1      38.230  32.298  30.245  1.00  0.00     0.031 A 
ATOM     55  C   UNL A   1      44.662  28.854  28.896  1.00  0.00     0.031 A 
ATOM     56  C   UNL A   1      39.553  32.728  30.713  1.00  0.00     0.049 A 
ATOM     57  C   UNL A   1      44.600  30.365  28.795  1.00  0.00     0.074 A 
ATOM     58  C   UNL A   1      40.220  32.670  31.924  1.00  0.00     0.029 A 
ATOM     59  N   UNL A   1      40.524  33.012  29.745  1.00  0.00    -0.354 N 
ATOM     60  N   UNL A   1      43.493  31.067  28.886  1.00  0.00    -0.248 NA
ATOM     61  C   UNL A   1      45.803  31.191  28.798  1.00  0.00     0.031 C 
ATOM     62  C   UNL A   1      41.616  32.813  31.654  1.00  0.00     0.029 A 
ATOM     63  C   UNL A   1      41.793  33.001  30.289  1.00  0.00     0.049 A 
ATOM     64  H   UNL A   1      40.327  33.198  28.798  1.00  0.00     0.167 HD
ATOM     65  C   UNL A   1      43.828  32.379  29.105  1.00  0.00     0.074 A 
ATOM     66  C   UNL A   1      45.280  32.414  28.979  1.00  0.00     0.031 C 
ATOM     67  C   UNL A   1      42.961  33.363  29.490  1.00  0.00     0.031 A 
BRANCH  54  68
ATOM     68  C   UNL A   1      36.910  32.896  30.672  1.00  0.00    -0.014 A 
ATOM     69  C   UNL A   1      36.423  32.664  31.970  1.00  0.00     0.009 A 
ATOM     70  C   UNL A   1      36.039  33.599  29.816  1.00  0.00     0.009 A 
ATOM     71  C   UNL A   1      35.148  33.096  32.376  1.00  0.00     0.001 A 
ATOM     72  C   UNL A   1      34.772  34.046  30.215  1.00  0.00     0.001 A 
ATOM     73  C   UNL A   1      34.323  33.788  31.498  1.00  0.00     0.000 A 
ENDBRANCH  54  68
BRANCH  55  74
ATOM     74  C   UNL A   1      44.907  27.867  27.810  1.00  0.00    -0.014 A 
ATOM     75  C   UNL A   1      44.162  28.025  26.617  1.00  0.00     0.009 A 
ATOM     76  C   UNL A   1      46.089  27.119  27.762  1.00  0.00     0.009 A 
ATOM     77  C   UNL A   1      44.672  27.595  25.388  1.00  0.00     0.001 A 
ATOM     78  C   UNL A   1      46.579  26.663  26.529  1.00  0.00     0.001 A 
ATOM     79  C   UNL A   1      45.899  26.945  25.343  1.00  0.00     0.000 A 
ENDBRANCH  55  74
BRANCH  67  80
ATOM     80  C   UNL A   1      43.205  34.827  29.211  1.00  0.00    -0.014 A 
ATOM     81  C   UNL A   1      42.776  35.473  28.043  1.00  0.00     0.009 A 
ATOM     82  C   UNL A   1      43.711  35.653  30.239  1.00  0.00     0.009 A 
ATOM     83  C   UNL A   1      42.891  36.858  27.887  1.00  0.00     0.001 A 
ATOM     84  C   UNL A   1      43.780  37.041  30.108  1.00  0.00     0.001 A 
ATOM     85  C   UNL A   1      43.379  37.642  28.924  1.00  0.00     0.000 A 
ENDBRANCH  67  80
ENDBRANCH  41  42
ENDBRANCH  33  36
ENDBRANCH  31  32
ENDBRANCH  30  31
ENDBRANCH   1  30
TORSDOF 14
ENDMDL
