MODEL 1
REMARK VINA RESULT:      -9.5      0.000      0.000
REMARK SMILES CC[N@@H+](CCC(=O)NCCCCNC(=O)c1ccc(-c2c3nc(c(-c4ccccc4)c4ccc([nH]4)c(-c4ccccc4)c4nc(c(-c5ccccc5)c5ccc2[nH]5)C=C4)C=C3)cc1)[C@@H]1CS[C@@H](C)C1
REMARK SMILES IDX 10 1 9 2 8 3 6 4 7 5 5 7 4 8 3 9 2 11 1 12 64 13 65 14 69 15
REMARK SMILES IDX 66 16 67 17 68 18 11 19 12 20 13 21 14 22 15 24 16 25 17 26
REMARK SMILES IDX 63 27 18 28 62 29 19 30 20 31 21 32 56 33 22 34 61 35 55 36
REMARK SMILES IDX 57 37 23 38 60 39 54 40 53 41 24 43 46 44 31 45 45 46 32 47
REMARK SMILES IDX 35 48 44 49 58 50 33 51 34 52 43 54 59 55 36 56 25 57 26 58
REMARK SMILES IDX 30 59 27 60 29 61 28 62 47 63 48 64 52 65 49 66 51 67 50 68
REMARK SMILES IDX 37 69 38 70 42 71 39 72 41 73 40 74
REMARK H PARENT 8 6 3 10 13 23 57 42 35 53
REMARK Flexibility Score: inf
ROOT
ATOM      1  C   UNL A   1      37.450  21.294  24.600  1.00  0.00     0.023 C 
ENDROOT
BRANCH   1   2
ATOM      2  C   UNL A   1      37.462  22.318  25.729  1.00  0.00     0.116 C 
BRANCH   2   3
ATOM      3  N   UNL A   1      36.370  23.276  25.636  1.00  0.00    -0.356 N 
ATOM      4  C   UNL A   1      35.059  23.187  26.002  1.00  0.00     0.225 C 
ATOM      5  O   UNL A   1      34.322  24.141  25.744  1.00  0.00    -0.275 OA
ATOM      6  H   UNL A   1      36.623  24.141  25.239  1.00  0.00     0.163 HD
BRANCH   4   7
ATOM      7  C   UNL A   1      34.522  21.956  26.696  1.00  0.00     0.161 C 
BRANCH   7   8
ATOM      8  C   UNL A   1      33.315  21.300  26.002  1.00  0.00     0.272 C 
BRANCH   8   9
ATOM      9  N   UNL A   1      33.421  20.953  24.554  1.00  0.00    -0.332 N 
ATOM     10  H   UNL A   1      34.308  21.083  24.068  1.00  0.00     0.348 HD
BRANCH   9  11
ATOM     11  C   UNL A   1      32.681  21.953  23.768  1.00  0.00     0.259 C 
ATOM     12  C   UNL A   1      31.448  22.726  24.225  1.00  0.00     0.071 C 
ENDBRANCH   9  11
BRANCH   9  13
ATOM     13  C   UNL A   1      33.506  19.489  24.329  1.00  0.00     0.195 C 
ATOM     14  C   UNL A   1      32.427  18.765  25.193  1.00  0.00     0.134 C 
ATOM     15  C   UNL A   1      34.791  18.695  24.626  1.00  0.00     0.080 C 
ATOM     16  S   UNL A   1      32.934  17.052  25.492  1.00  0.00    -0.152 SA
ATOM     17  C   UNL A   1      34.456  17.186  24.530  1.00  0.00     0.049 C 
ATOM     18  C   UNL A   1      34.159  16.605  23.145  1.00  0.00     0.019 C 
ENDBRANCH   9  13
ENDBRANCH   8   9
ENDBRANCH   7   8
ENDBRANCH   4   7
ENDBRANCH   2   3
ENDBRANCH   1   2
BRANCH   1  19
ATOM     19  C   UNL A   1      38.276  20.042  24.829  1.00  0.00     0.023 C 
BRANCH  19  20
ATOM     20  C   UNL A   1      39.177  20.096  26.038  1.00  0.00     0.116 C 
BRANCH  20  21
ATOM     21  N   UNL A   1      40.320  19.195  25.922  1.00  0.00    -0.352 N 
ATOM     22  C   UNL A   1      41.673  19.444  26.037  1.00  0.00     0.251 C 
ATOM     23  H   UNL A   1      40.089  18.258  25.730  1.00  0.00     0.163 HD
ATOM     24  O   UNL A   1      42.476  18.567  25.741  1.00  0.00    -0.269 OA
BRANCH  22  25
ATOM     25  C   UNL A   1      42.162  20.772  26.485  1.00  0.00     0.039 A 
ATOM     26  C   UNL A   1      42.520  21.735  25.536  1.00  0.00     0.014 A 
ATOM     27  C   UNL A   1      42.266  21.078  27.839  1.00  0.00     0.014 A 
ATOM     28  C   UNL A   1      42.916  23.011  25.955  1.00  0.00     0.010 A 
ATOM     29  C   UNL A   1      42.477  22.384  28.244  1.00  0.00     0.010 A 
ATOM     30  C   UNL A   1      42.859  23.357  27.313  1.00  0.00    -0.014 A 
BRANCH  30  31
ATOM     31  C   UNL A   1      43.267  24.690  27.819  1.00  0.00     0.031 A 
ATOM     32  C   UNL A   1      42.207  25.720  28.132  1.00  0.00     0.074 A 
ATOM     33  C   UNL A   1      44.573  25.005  27.917  1.00  0.00     0.049 A 
ATOM     34  N   UNL A   1      42.345  26.974  28.477  1.00  0.00    -0.248 NA
ATOM     35  C   UNL A   1      40.800  25.297  27.990  1.00  0.00     0.031 C 
ATOM     36  C   UNL A   1      45.691  24.116  27.591  1.00  0.00     0.029 A 
ATOM     37  N   UNL A   1      45.180  26.167  28.320  1.00  0.00    -0.354 N 
ATOM     38  C   UNL A   1      41.055  27.489  28.546  1.00  0.00     0.074 A 
ATOM     39  C   UNL A   1      40.152  26.441  28.136  1.00  0.00     0.031 C 
ATOM     40  C   UNL A   1      46.846  24.747  27.856  1.00  0.00     0.029 A 
ATOM     41  C   UNL A   1      46.552  26.099  28.319  1.00  0.00     0.049 A 
ATOM     42  H   UNL A   1      44.681  26.972  28.586  1.00  0.00     0.167 HD
ATOM     43  C   UNL A   1      40.651  28.716  28.950  1.00  0.00     0.031 A 
ATOM     44  C   UNL A   1      47.469  27.027  28.651  1.00  0.00     0.031 A 
ATOM     45  C   UNL A   1      41.552  29.738  29.403  1.00  0.00     0.049 A 
ATOM     46  C   UNL A   1      46.996  28.378  29.111  1.00  0.00     0.074 A 
ATOM     47  C   UNL A   1      41.251  30.989  29.911  1.00  0.00     0.029 A 
ATOM     48  N   UNL A   1      42.933  29.620  29.406  1.00  0.00    -0.354 N 
ATOM     49  N   UNL A   1      45.770  28.825  29.246  1.00  0.00    -0.248 NA
ATOM     50  C   UNL A   1      48.034  29.350  29.479  1.00  0.00     0.031 C 
ATOM     51  C   UNL A   1      42.455  31.650  30.171  1.00  0.00     0.029 A 
ATOM     52  C   UNL A   1      43.502  30.787  29.885  1.00  0.00     0.049 A 
ATOM     53  H   UNL A   1      43.434  28.826  29.114  1.00  0.00     0.167 HD
ATOM     54  C   UNL A   1      45.889  30.117  29.740  1.00  0.00     0.074 A 
ATOM     55  C   UNL A   1      47.306  30.373  29.900  1.00  0.00     0.031 C 
ATOM     56  C   UNL A   1      44.915  31.013  30.037  1.00  0.00     0.031 A 
BRANCH  43  57
ATOM     57  C   UNL A   1      39.175  29.010  28.922  1.00  0.00    -0.014 A 
ATOM     58  C   UNL A   1      38.357  28.772  30.039  1.00  0.00     0.009 A 
ATOM     59  C   UNL A   1      38.596  29.557  27.766  1.00  0.00     0.009 A 
ATOM     60  C   UNL A   1      36.986  29.033  29.985  1.00  0.00     0.001 A 
ATOM     61  C   UNL A   1      37.232  29.850  27.726  1.00  0.00     0.001 A 
ATOM     62  C   UNL A   1      36.426  29.579  28.831  1.00  0.00     0.000 A 
ENDBRANCH  43  57
BRANCH  44  63
ATOM     63  C   UNL A   1      48.920  26.703  28.594  1.00  0.00    -0.014 A 
ATOM     64  C   UNL A   1      49.639  26.875  27.401  1.00  0.00     0.009 A 
ATOM     65  C   UNL A   1      49.594  26.220  29.727  1.00  0.00     0.009 A 
ATOM     66  C   UNL A   1      50.994  26.540  27.335  1.00  0.00     0.001 A 
ATOM     67  C   UNL A   1      50.956  25.917  29.667  1.00  0.00     0.001 A 
ATOM     68  C   UNL A   1      51.652  26.066  28.468  1.00  0.00     0.000 A 
ENDBRANCH  44  63
BRANCH  56  69
ATOM     69  C   UNL A   1      45.350  32.334  30.603  1.00  0.00    -0.014 A 
ATOM     70  C   UNL A   1      45.533  32.514  31.983  1.00  0.00     0.009 A 
ATOM     71  C   UNL A   1      45.626  33.401  29.733  1.00  0.00     0.009 A 
ATOM     72  C   UNL A   1      45.948  33.749  32.482  1.00  0.00     0.001 A 
ATOM     73  C   UNL A   1      46.074  34.623  30.232  1.00  0.00     0.001 A 
ATOM     74  C   UNL A   1      46.224  34.799  31.607  1.00  0.00     0.000 A 
ENDBRANCH  56  69
ENDBRANCH  30  31
ENDBRANCH  22  25
ENDBRANCH  20  21
ENDBRANCH  19  20
ENDBRANCH   1  19
TORSDOF 15
ENDMDL
MODEL 2
REMARK VINA RESULT:      -9.5      3.036      7.541
REMARK SMILES CC[N@@H+](CCC(=O)NCCCCNC(=O)c1ccc(-c2c3nc(c(-c4ccccc4)c4ccc([nH]4)c(-c4ccccc4)c4nc(c(-c5ccccc5)c5ccc2[nH]5)C=C4)C=C3)cc1)[C@@H]1CS[C@@H](C)C1
REMARK SMILES IDX 10 1 9 2 8 3 6 4 7 5 5 7 4 8 3 9 2 11 1 12 64 13 65 14 69 15
REMARK SMILES IDX 66 16 67 17 68 18 11 19 12 20 13 21 14 22 15 24 16 25 17 26
REMARK SMILES IDX 63 27 18 28 62 29 19 30 20 31 21 32 56 33 22 34 61 35 55 36
REMARK SMILES IDX 57 37 23 38 60 39 54 40 53 41 24 43 46 44 31 45 45 46 32 47
REMARK SMILES IDX 35 48 44 49 58 50 33 51 34 52 43 54 59 55 36 56 25 57 26 58
REMARK SMILES IDX 30 59 27 60 29 61 28 62 47 63 48 64 52 65 49 66 51 67 50 68
REMARK SMILES IDX 37 69 38 70 42 71 39 72 41 73 40 74
REMARK H PARENT 8 6 3 10 13 23 57 42 35 53
REMARK Flexibility Score: inf
ROOT
ATOM      1  C   UNL A   1      31.621  27.901  26.670  1.00  0.00     0.023 C 
ENDROOT
BRANCH   1   2
ATOM      2  C   UNL A   1      31.039  26.644  26.034  1.00  0.00     0.116 C 
BRANCH   2   3
ATOM      3  N   UNL A   1      31.157  25.471  26.888  1.00  0.00    -0.356 N 
ATOM      4  C   UNL A   1      31.520  24.187  26.609  1.00  0.00     0.225 C 
ATOM      5  O   UNL A   1      31.470  23.361  27.525  1.00  0.00    -0.275 OA
ATOM      6  H   UNL A   1      30.935  25.635  27.833  1.00  0.00     0.163 HD
BRANCH   4   7
ATOM      7  C   UNL A   1      31.966  23.782  25.223  1.00  0.00     0.161 C 
BRANCH   7   8
ATOM      8  C   UNL A   1      31.733  22.299  24.879  1.00  0.00     0.272 C 
BRANCH   8   9
ATOM      9  N   UNL A   1      32.912  21.446  24.550  1.00  0.00    -0.332 N 
ATOM     10  H   UNL A   1      33.149  21.266  23.574  1.00  0.00     0.348 HD
BRANCH   9  11
ATOM     11  C   UNL A   1      32.596  20.047  24.879  1.00  0.00     0.259 C 
ATOM     12  C   UNL A   1      32.681  18.856  23.929  1.00  0.00     0.071 C 
ENDBRANCH   9  11
BRANCH   9  13
ATOM     13  C   UNL A   1      34.198  22.163  24.735  1.00  0.00     0.195 C 
ATOM     14  C   UNL A   1      34.707  22.687  23.355  1.00  0.00     0.134 C 
ATOM     15  C   UNL A   1      35.437  21.468  25.328  1.00  0.00     0.080 C 
ATOM     16  S   UNL A   1      36.502  22.916  23.413  1.00  0.00    -0.152 SA
ATOM     17  C   UNL A   1      36.652  22.410  25.140  1.00  0.00     0.049 C 
ATOM     18  C   UNL A   1      36.703  23.692  25.975  1.00  0.00     0.019 C 
ENDBRANCH   9  13
ENDBRANCH   8   9
ENDBRANCH   7   8
ENDBRANCH   4   7
ENDBRANCH   2   3
ENDBRANCH   1   2
BRANCH   1  19
ATOM     19  C   UNL A   1      33.130  27.929  26.827  1.00  0.00     0.023 C 
BRANCH  19  20
ATOM     20  C   UNL A   1      33.820  29.037  26.071  1.00  0.00     0.116 C 
BRANCH  20  21
ATOM     21  N   UNL A   1      33.691  30.330  26.738  1.00  0.00    -0.352 N 
ATOM     22  C   UNL A   1      34.484  30.926  27.698  1.00  0.00     0.251 C 
ATOM     23  H   UNL A   1      32.913  30.863  26.458  1.00  0.00     0.163 HD
ATOM     24  O   UNL A   1      34.102  31.954  28.244  1.00  0.00    -0.269 OA
BRANCH  22  25
ATOM     25  C   UNL A   1      35.776  30.314  28.097  1.00  0.00     0.039 A 
ATOM     26  C   UNL A   1      36.885  30.421  27.251  1.00  0.00     0.014 A 
ATOM     27  C   UNL A   1      35.906  29.638  29.307  1.00  0.00     0.014 A 
ATOM     28  C   UNL A   1      38.121  29.905  27.656  1.00  0.00     0.010 A 
ATOM     29  C   UNL A   1      37.159  29.295  29.783  1.00  0.00     0.010 A 
ATOM     30  C   UNL A   1      38.276  29.372  28.944  1.00  0.00    -0.014 A 
BRANCH  30  31
ATOM     31  C   UNL A   1      39.559  28.808  29.430  1.00  0.00     0.031 A 
ATOM     32  C   UNL A   1      40.394  29.603  30.406  1.00  0.00     0.074 A 
ATOM     33  C   UNL A   1      40.013  27.639  28.940  1.00  0.00     0.049 A 
ATOM     34  N   UNL A   1      41.591  29.351  30.871  1.00  0.00    -0.248 NA
ATOM     35  C   UNL A   1      39.830  30.878  30.888  1.00  0.00     0.031 C 
ATOM     36  C   UNL A   1      39.324  26.805  27.951  1.00  0.00     0.029 A 
ATOM     37  N   UNL A   1      41.166  26.948  29.209  1.00  0.00    -0.354 N 
ATOM     38  C   UNL A   1      41.930  30.449  31.654  1.00  0.00     0.074 A 
ATOM     39  C   UNL A   1      40.852  31.403  31.544  1.00  0.00     0.031 C 
ATOM     40  C   UNL A   1      40.045  25.693  27.736  1.00  0.00     0.029 A 
ATOM     41  C   UNL A   1      41.267  25.759  28.529  1.00  0.00     0.049 A 
ATOM     42  H   UNL A   1      41.857  27.274  29.830  1.00  0.00     0.167 HD
ATOM     43  C   UNL A   1      43.025  30.636  32.426  1.00  0.00     0.031 A 
ATOM     44  C   UNL A   1      42.240  24.829  28.544  1.00  0.00     0.031 A 
ATOM     45  C   UNL A   1      44.070  29.663  32.569  1.00  0.00     0.049 A 
ATOM     46  C   UNL A   1      43.440  25.052  29.422  1.00  0.00     0.074 A 
ATOM     47  C   UNL A   1      45.186  29.709  33.386  1.00  0.00     0.029 A 
ATOM     48  N   UNL A   1      44.122  28.462  31.880  1.00  0.00    -0.354 N 
ATOM     49  N   UNL A   1      43.709  26.060  30.215  1.00  0.00    -0.248 NA
ATOM     50  C   UNL A   1      44.466  24.000  29.415  1.00  0.00     0.031 C 
ATOM     51  C   UNL A   1      45.942  28.558  33.148  1.00  0.00     0.029 A 
ATOM     52  C   UNL A   1      45.264  27.767  32.233  1.00  0.00     0.049 A 
ATOM     53  H   UNL A   1      43.446  28.148  31.236  1.00  0.00     0.167 HD
ATOM     54  C   UNL A   1      44.918  25.751  30.825  1.00  0.00     0.074 A 
ATOM     55  C   UNL A   1      45.318  24.452  30.322  1.00  0.00     0.031 C 
ATOM     56  C   UNL A   1      45.635  26.474  31.720  1.00  0.00     0.031 A 
BRANCH  43  57
ATOM     57  C   UNL A   1      43.138  31.938  33.174  1.00  0.00    -0.014 A 
ATOM     58  C   UNL A   1      42.610  32.091  34.467  1.00  0.00     0.009 A 
ATOM     59  C   UNL A   1      43.806  33.023  32.586  1.00  0.00     0.009 A 
ATOM     60  C   UNL A   1      42.708  33.313  35.135  1.00  0.00     0.001 A 
ATOM     61  C   UNL A   1      43.935  34.233  33.270  1.00  0.00     0.001 A 
ATOM     62  C   UNL A   1      43.377  34.381  34.539  1.00  0.00     0.000 A 
ENDBRANCH  43  57
BRANCH  44  63
ATOM     63  C   UNL A   1      42.106  23.591  27.729  1.00  0.00    -0.014 A 
ATOM     64  C   UNL A   1      42.603  23.547  26.417  1.00  0.00     0.009 A 
ATOM     65  C   UNL A   1      41.483  22.448  28.255  1.00  0.00     0.009 A 
ATOM     66  C   UNL A   1      42.450  22.397  25.638  1.00  0.00     0.001 A 
ATOM     67  C   UNL A   1      41.361  21.289  27.485  1.00  0.00     0.001 A 
ATOM     68  C   UNL A   1      41.833  21.268  26.174  1.00  0.00     0.000 A 
ENDBRANCH  44  63
BRANCH  56  69
ATOM     69  C   UNL A   1      46.901  25.857  32.242  1.00  0.00    -0.014 A 
ATOM     70  C   UNL A   1      48.133  26.064  31.602  1.00  0.00     0.009 A 
ATOM     71  C   UNL A   1      46.863  25.095  33.420  1.00  0.00     0.009 A 
ATOM     72  C   UNL A   1      49.297  25.488  32.114  1.00  0.00     0.001 A 
ATOM     73  C   UNL A   1      48.033  24.550  33.948  1.00  0.00     0.001 A 
ATOM     74  C   UNL A   1      49.246  24.738  33.288  1.00  0.00     0.000 A 
ENDBRANCH  56  69
ENDBRANCH  30  31
ENDBRANCH  22  25
ENDBRANCH  20  21
ENDBRANCH  19  20
ENDBRANCH   1  19
TORSDOF 15
ENDMDL
MODEL 3
REMARK VINA RESULT:      -9.2      4.455      9.207
REMARK SMILES CC[N@@H+](CCC(=O)NCCCCNC(=O)c1ccc(-c2c3nc(c(-c4ccccc4)c4ccc([nH]4)c(-c4ccccc4)c4nc(c(-c5ccccc5)c5ccc2[nH]5)C=C4)C=C3)cc1)[C@@H]1CS[C@@H](C)C1
REMARK SMILES IDX 10 1 9 2 8 3 6 4 7 5 5 7 4 8 3 9 2 11 1 12 64 13 65 14 69 15
REMARK SMILES IDX 66 16 67 17 68 18 11 19 12 20 13 21 14 22 15 24 16 25 17 26
REMARK SMILES IDX 63 27 18 28 62 29 19 30 20 31 21 32 56 33 22 34 61 35 55 36
REMARK SMILES IDX 57 37 23 38 60 39 54 40 53 41 24 43 46 44 31 45 45 46 32 47
REMARK SMILES IDX 35 48 44 49 58 50 33 51 34 52 43 54 59 55 36 56 25 57 26 58
REMARK SMILES IDX 30 59 27 60 29 61 28 62 47 63 48 64 52 65 49 66 51 67 50 68
REMARK SMILES IDX 37 69 38 70 42 71 39 72 41 73 40 74
REMARK H PARENT 8 6 3 10 13 23 57 42 35 53
REMARK Flexibility Score: inf
ROOT
ATOM      1  C   UNL A   1      31.362  30.902  26.148  1.00  0.00     0.023 C 
ENDROOT
BRANCH   1   2
ATOM      2  C   UNL A   1      32.635  30.117  26.443  1.00  0.00     0.116 C 
BRANCH   2   3
ATOM      3  N   UNL A   1      33.297  29.639  25.237  1.00  0.00    -0.356 N 
ATOM      4  C   UNL A   1      33.588  28.377  24.809  1.00  0.00     0.225 C 
ATOM      5  O   UNL A   1      34.226  28.256  23.761  1.00  0.00    -0.275 OA
ATOM      6  H   UNL A   1      33.585  30.353  24.623  1.00  0.00     0.163 HD
BRANCH   4   7
ATOM      7  C   UNL A   1      33.147  27.163  25.594  1.00  0.00     0.161 C 
BRANCH   7   8
ATOM      8  C   UNL A   1      32.547  26.028  24.742  1.00  0.00     0.272 C 
BRANCH   8   9
ATOM      9  N   UNL A   1      33.473  25.081  24.055  1.00  0.00    -0.332 N 
ATOM     10  H   UNL A   1      34.440  25.356  23.883  1.00  0.00     0.348 HD
BRANCH   9  11
ATOM     11  C   UNL A   1      33.096  24.989  22.636  1.00  0.00     0.259 C 
ATOM     12  C   UNL A   1      32.282  26.014  21.852  1.00  0.00     0.071 C 
ENDBRANCH   9  11
BRANCH   9  13
ATOM     13  C   UNL A   1      33.937  23.994  24.953  1.00  0.00     0.195 C 
ATOM     14  C   UNL A   1      35.448  24.204  25.288  1.00  0.00     0.134 C 
ATOM     15  C   UNL A   1      33.869  22.514  24.537  1.00  0.00     0.080 C 
ATOM     16  S   UNL A   1      36.195  22.621  25.752  1.00  0.00    -0.152 SA
ATOM     17  C   UNL A   1      34.661  21.685  25.578  1.00  0.00     0.049 C 
ATOM     18  C   UNL A   1      34.067  21.542  26.982  1.00  0.00     0.019 C 
ENDBRANCH   9  13
ENDBRANCH   8   9
ENDBRANCH   7   8
ENDBRANCH   4   7
ENDBRANCH   2   3
ENDBRANCH   1   2
BRANCH   1  19
ATOM     19  C   UNL A   1      31.397  32.379  26.497  1.00  0.00     0.023 C 
BRANCH  19  20
ATOM     20  C   UNL A   1      32.676  32.840  27.150  1.00  0.00     0.116 C 
BRANCH  20  21
ATOM     21  N   UNL A   1      32.534  34.142  27.796  1.00  0.00    -0.352 N 
ATOM     22  C   UNL A   1      33.249  34.712  28.830  1.00  0.00     0.251 C 
ATOM     23  H   UNL A   1      31.811  34.704  27.437  1.00  0.00     0.163 HD
ATOM     24  O   UNL A   1      32.855  35.760  29.330  1.00  0.00    -0.269 OA
BRANCH  22  25
ATOM     25  C   UNL A   1      34.468  34.053  29.360  1.00  0.00     0.039 A 
ATOM     26  C   UNL A   1      34.366  33.176  30.446  1.00  0.00     0.014 A 
ATOM     27  C   UNL A   1      35.716  34.289  28.791  1.00  0.00     0.014 A 
ATOM     28  C   UNL A   1      35.503  32.501  30.903  1.00  0.00     0.010 A 
ATOM     29  C   UNL A   1      36.795  33.488  29.121  1.00  0.00     0.010 A 
ATOM     30  C   UNL A   1      36.720  32.622  30.217  1.00  0.00    -0.014 A 
BRANCH  30  31
ATOM     31  C   UNL A   1      37.960  31.935  30.654  1.00  0.00     0.031 A 
ATOM     32  C   UNL A   1      38.793  32.542  31.758  1.00  0.00     0.074 A 
ATOM     33  C   UNL A   1      38.380  30.827  30.014  1.00  0.00     0.049 A 
ATOM     34  N   UNL A   1      39.961  32.170  32.216  1.00  0.00    -0.248 NA
ATOM     35  C   UNL A   1      38.267  33.762  32.402  1.00  0.00     0.031 C 
ATOM     36  C   UNL A   1      37.693  30.176  28.896  1.00  0.00     0.029 A 
ATOM     37  N   UNL A   1      39.494  30.052  30.215  1.00  0.00    -0.354 N 
ATOM     38  C   UNL A   1      40.318  33.129  33.158  1.00  0.00     0.074 A 
ATOM     39  C   UNL A   1      39.287  34.138  33.155  1.00  0.00     0.031 C 
ATOM     40  C   UNL A   1      38.372  29.073  28.544  1.00  0.00     0.029 A 
ATOM     41  C   UNL A   1      39.568  28.968  29.374  1.00  0.00     0.049 A 
ATOM     42  H   UNL A   1      40.175  30.253  30.896  1.00  0.00     0.167 HD
ATOM     43  C   UNL A   1      41.392  33.153  33.981  1.00  0.00     0.031 A 
ATOM     44  C   UNL A   1      40.499  28.000  29.283  1.00  0.00     0.031 A 
ATOM     45  C   UNL A   1      42.389  32.121  34.013  1.00  0.00     0.049 A 
ATOM     46  C   UNL A   1      41.675  28.039  30.218  1.00  0.00     0.074 A 
ATOM     47  C   UNL A   1      43.476  31.997  34.860  1.00  0.00     0.029 A 
ATOM     48  N   UNL A   1      42.414  31.029  33.160  1.00  0.00    -0.354 N 
ATOM     49  N   UNL A   1      41.959  28.910  31.156  1.00  0.00    -0.248 NA
ATOM     50  C   UNL A   1      42.655  26.951  30.091  1.00  0.00     0.031 C 
ATOM     51  C   UNL A   1      44.191  30.857  34.481  1.00  0.00     0.029 A 
ATOM     52  C   UNL A   1      43.513  30.238  33.443  1.00  0.00     0.049 A 
ATOM     53  H   UNL A   1      41.749  30.842  32.459  1.00  0.00     0.167 HD
ATOM     54  C   UNL A   1      43.132  28.461  31.750  1.00  0.00     0.074 A 
ATOM     55  C   UNL A   1      43.493  27.229  31.077  1.00  0.00     0.031 C 
ATOM     56  C   UNL A   1      43.846  29.015  32.760  1.00  0.00     0.031 A 
BRANCH  43  57
ATOM     57  C   UNL A   1      41.534  34.328  34.911  1.00  0.00    -0.014 A 
ATOM     58  C   UNL A   1      42.187  35.507  34.511  1.00  0.00     0.009 A 
ATOM     59  C   UNL A   1      40.986  34.266  36.201  1.00  0.00     0.009 A 
ATOM     60  C   UNL A   1      42.325  36.578  35.396  1.00  0.00     0.001 A 
ATOM     61  C   UNL A   1      41.095  35.351  37.072  1.00  0.00     0.001 A 
ATOM     62  C   UNL A   1      41.773  36.502  36.673  1.00  0.00     0.000 A 
ENDBRANCH  43  57
BRANCH  44  63
ATOM     63  C   UNL A   1      40.342  26.898  28.296  1.00  0.00    -0.014 A 
ATOM     64  C   UNL A   1      40.951  26.983  27.034  1.00  0.00     0.009 A 
ATOM     65  C   UNL A   1      39.584  25.757  28.605  1.00  0.00     0.009 A 
ATOM     66  C   UNL A   1      40.778  25.965  26.092  1.00  0.00     0.001 A 
ATOM     67  C   UNL A   1      39.440  24.727  27.674  1.00  0.00     0.001 A 
ATOM     68  C   UNL A   1      40.027  24.836  26.414  1.00  0.00     0.000 A 
ENDBRANCH  44  63
BRANCH  56  69
ATOM     69  C   UNL A   1      45.066  28.271  33.224  1.00  0.00    -0.014 A 
ATOM     70  C   UNL A   1      44.984  27.279  34.215  1.00  0.00     0.009 A 
ATOM     71  C   UNL A   1      46.307  28.536  32.624  1.00  0.00     0.009 A 
ATOM     72  C   UNL A   1      46.130  26.595  34.621  1.00  0.00     0.001 A 
ATOM     73  C   UNL A   1      47.444  27.826  33.008  1.00  0.00     0.001 A 
ATOM     74  C   UNL A   1      47.356  26.864  34.013  1.00  0.00     0.000 A 
ENDBRANCH  56  69
ENDBRANCH  30  31
ENDBRANCH  22  25
ENDBRANCH  20  21
ENDBRANCH  19  20
ENDBRANCH   1  19
TORSDOF 15
ENDMDL
