MODEL 1
REMARK VINA RESULT:     -10.4      0.000      0.000
REMARK SMILES CC[C@@](O)(C(=O)NCCCCNC(=O)c1ccc(-c2c3nc(c(-c4ccccc4)c4ccc([nH]4)c(-c4ccccc4)c4nc(c(-c5ccccc5)c5ccc2[nH]5)C=C4)C=C3)cc1)[C@H]1CCc2ccc(OC)cc21
REMARK SMILES IDX 9 1 8 2 7 3 5 4 6 5 3 7 2 8 1 9 4 10 63 12 64 13 73 14 65 15
REMARK SMILES IDX 66 16 72 17 67 18 69 19 68 20 70 21 71 22 10 23 11 24 12 25
REMARK SMILES IDX 13 26 14 28 15 29 16 30 62 31 17 32 61 33 18 34 19 35 20 36
REMARK SMILES IDX 55 37 21 38 60 39 54 40 56 41 22 42 59 43 53 44 52 45 23 47
REMARK SMILES IDX 45 48 30 49 44 50 31 51 34 52 43 53 57 54 32 55 33 56 42 58
REMARK SMILES IDX 58 59 35 60 24 61 25 62 29 63 26 64 28 65 27 66 46 67 47 68
REMARK SMILES IDX 51 69 48 70 50 71 49 72 36 73 37 74 41 75 38 76 40 77 39 78
REMARK H PARENT 7 6 4 11 12 27 56 46 34 57
REMARK Flexibility Score: inf
ROOT
ATOM      1  C   UNL A   1      34.479  30.757  27.495  1.00  0.00     0.023 C 
ENDROOT
BRANCH   1   2
ATOM      2  C   UNL A   1      34.326  29.334  26.945  1.00  0.00     0.116 C 
BRANCH   2   3
ATOM      3  N   UNL A   1      34.142  29.395  25.515  1.00  0.00    -0.354 N 
ATOM      4  C   UNL A   1      33.197  28.798  24.730  1.00  0.00     0.252 C 
ATOM      5  O   UNL A   1      33.446  28.794  23.519  1.00  0.00    -0.272 OA
ATOM      6  H   UNL A   1      34.797  29.951  25.032  1.00  0.00     0.163 HD
BRANCH   4   7
ATOM      7  C   UNL A   1      31.860  28.207  25.315  1.00  0.00     0.149 C 
BRANCH   7   8
ATOM      8  C   UNL A   1      32.094  27.166  26.448  1.00  0.00     0.043 C 
ATOM      9  C   UNL A   1      33.072  26.026  26.189  1.00  0.00     0.007 C 
ENDBRANCH   7   8
BRANCH   7  10
ATOM     10  O   UNL A   1      31.205  29.357  25.892  1.00  0.00    -0.379 OA
ATOM     11  H   UNL A   1      31.291  30.114  25.291  1.00  0.00     0.212 HD
ENDBRANCH   7  10
BRANCH   7  12
ATOM     12  C   UNL A   1      31.040  27.670  24.078  1.00  0.00     0.061 C 
ATOM     13  C   UNL A   1      30.213  26.389  24.402  1.00  0.00     0.017 C 
ATOM     14  C   UNL A   1      29.985  28.587  23.513  1.00  0.00    -0.035 A 
ATOM     15  C   UNL A   1      28.862  26.489  23.689  1.00  0.00     0.036 C 
ATOM     16  C   UNL A   1      28.744  27.953  23.431  1.00  0.00    -0.044 A 
ATOM     17  C   UNL A   1      30.144  29.888  23.058  1.00  0.00     0.050 A 
ATOM     18  C   UNL A   1      27.610  28.664  23.081  1.00  0.00     0.008 A 
ATOM     19  C   UNL A   1      29.016  30.608  22.669  1.00  0.00     0.119 A 
ATOM     20  C   UNL A   1      27.749  30.012  22.741  1.00  0.00     0.047 A 
BRANCH  19  21
ATOM     21  O   UNL A   1      29.038  31.908  22.240  1.00  0.00    -0.497 OA
ATOM     22  C   UNL A   1      28.136  32.206  21.177  1.00  0.00     0.278 C 
ENDBRANCH  19  21
ENDBRANCH   7  12
ENDBRANCH   4   7
ENDBRANCH   2   3
ENDBRANCH   1   2
BRANCH   1  23
ATOM     23  C   UNL A   1      33.157  31.501  27.673  1.00  0.00     0.023 C 
BRANCH  23  24
ATOM     24  C   UNL A   1      33.153  32.905  27.090  1.00  0.00     0.116 C 
BRANCH  24  25
ATOM     25  N   UNL A   1      32.651  33.905  28.018  1.00  0.00    -0.352 N 
ATOM     26  C   UNL A   1      33.227  34.375  29.169  1.00  0.00     0.251 C 
ATOM     27  H   UNL A   1      31.777  34.298  27.788  1.00  0.00     0.163 HD
ATOM     28  O   UNL A   1      32.610  35.139  29.903  1.00  0.00    -0.269 OA
BRANCH  26  29
ATOM     29  C   UNL A   1      34.577  33.914  29.540  1.00  0.00     0.039 A 
ATOM     30  C   UNL A   1      34.710  33.069  30.641  1.00  0.00     0.014 A 
ATOM     31  C   UNL A   1      35.699  34.288  28.793  1.00  0.00     0.014 A 
ATOM     32  C   UNL A   1      35.963  32.553  30.961  1.00  0.00     0.010 A 
ATOM     33  C   UNL A   1      36.933  33.706  29.062  1.00  0.00     0.010 A 
ATOM     34  C   UNL A   1      37.077  32.839  30.153  1.00  0.00    -0.014 A 
BRANCH  34  35
ATOM     35  C   UNL A   1      38.390  32.220  30.447  1.00  0.00     0.031 A 
ATOM     36  C   UNL A   1      39.354  32.883  31.391  1.00  0.00     0.074 A 
ATOM     37  C   UNL A   1      38.716  31.060  29.845  1.00  0.00     0.049 A 
ATOM     38  N   UNL A   1      40.519  32.457  31.808  1.00  0.00    -0.248 NA
ATOM     39  C   UNL A   1      38.973  34.204  31.919  1.00  0.00     0.031 C 
ATOM     40  C   UNL A   1      37.890  30.354  28.861  1.00  0.00     0.029 A 
ATOM     41  N   UNL A   1      39.822  30.262  29.984  1.00  0.00    -0.354 N 
ATOM     42  C   UNL A   1      41.004  33.451  32.647  1.00  0.00     0.074 A 
ATOM     43  C   UNL A   1      40.043  34.530  32.629  1.00  0.00     0.031 C 
ATOM     44  C   UNL A   1      38.499  29.209  28.519  1.00  0.00     0.029 A 
ATOM     45  C   UNL A   1      39.767  29.113  29.233  1.00  0.00     0.049 A 
ATOM     46  H   UNL A   1      40.582  30.490  30.565  1.00  0.00     0.167 HD
ATOM     47  C   UNL A   1      42.136  33.453  33.393  1.00  0.00     0.031 A 
ATOM     48  C   UNL A   1      40.637  28.092  29.138  1.00  0.00     0.031 A 
ATOM     49  C   UNL A   1      43.094  32.380  33.406  1.00  0.00     0.049 A 
ATOM     50  C   UNL A   1      41.884  28.118  29.978  1.00  0.00     0.074 A 
ATOM     51  C   UNL A   1      44.255  32.269  34.152  1.00  0.00     0.029 A 
ATOM     52  N   UNL A   1      43.002  31.232  32.635  1.00  0.00    -0.354 N 
ATOM     53  N   UNL A   1      42.289  29.031  30.827  1.00  0.00    -0.248 NA
ATOM     54  C   UNL A   1      42.781  26.961  29.860  1.00  0.00     0.031 C 
ATOM     55  C   UNL A   1      44.890  31.074  33.796  1.00  0.00     0.029 A 
ATOM     56  C   UNL A   1      44.094  30.415  32.872  1.00  0.00     0.049 A 
ATOM     57  H   UNL A   1      42.269  31.028  32.010  1.00  0.00     0.167 HD
ATOM     58  C   UNL A   1      43.479  28.550  31.358  1.00  0.00     0.074 A 
ATOM     59  C   UNL A   1      43.709  27.251  30.760  1.00  0.00     0.031 C 
ATOM     60  C   UNL A   1      44.313  29.132  32.255  1.00  0.00     0.031 A 
BRANCH  47  61
ATOM     61  C   UNL A   1      42.389  34.654  34.262  1.00  0.00    -0.014 A 
ATOM     62  C   UNL A   1      41.955  34.682  35.598  1.00  0.00     0.009 A 
ATOM     63  C   UNL A   1      43.102  35.751  33.758  1.00  0.00     0.009 A 
ATOM     64  C   UNL A   1      42.203  35.797  36.401  1.00  0.00     0.001 A 
ATOM     65  C   UNL A   1      43.375  36.852  34.570  1.00  0.00     0.001 A 
ATOM     66  C   UNL A   1      42.919  36.879  35.888  1.00  0.00     0.000 A 
ENDBRANCH  47  61
BRANCH  48  67
ATOM     67  C   UNL A   1      40.356  26.950  28.228  1.00  0.00    -0.014 A 
ATOM     68  C   UNL A   1      39.549  25.881  28.646  1.00  0.00     0.009 A 
ATOM     69  C   UNL A   1      40.909  26.919  26.939  1.00  0.00     0.009 A 
ATOM     70  C   UNL A   1      39.333  24.786  27.805  1.00  0.00     0.001 A 
ATOM     71  C   UNL A   1      40.664  25.839  26.088  1.00  0.00     0.001 A 
ATOM     72  C   UNL A   1      39.887  24.768  26.527  1.00  0.00     0.000 A 
ENDBRANCH  48  67
BRANCH  60  73
ATOM     73  C   UNL A   1      45.536  28.352  32.648  1.00  0.00    -0.014 A 
ATOM     74  C   UNL A   1      46.745  28.493  31.951  1.00  0.00     0.009 A 
ATOM     75  C   UNL A   1      45.476  27.466  33.734  1.00  0.00     0.009 A 
ATOM     76  C   UNL A   1      47.856  27.724  32.301  1.00  0.00     0.001 A 
ATOM     77  C   UNL A   1      46.599  26.724  34.104  1.00  0.00     0.001 A 
ATOM     78  C   UNL A   1      47.783  26.842  33.378  1.00  0.00     0.000 A 
ENDBRANCH  60  73
ENDBRANCH  34  35
ENDBRANCH  26  29
ENDBRANCH  24  25
ENDBRANCH  23  24
ENDBRANCH   1  23
TORSDOF 15
ENDMDL
MODEL 2
REMARK VINA RESULT:     -10.4      4.729      9.446
REMARK SMILES CC[C@@](O)(C(=O)NCCCCNC(=O)c1ccc(-c2c3nc(c(-c4ccccc4)c4ccc([nH]4)c(-c4ccccc4)c4nc(c(-c5ccccc5)c5ccc2[nH]5)C=C4)C=C3)cc1)[C@H]1CCc2ccc(OC)cc21
REMARK SMILES IDX 9 1 8 2 7 3 5 4 6 5 3 7 2 8 1 9 4 10 63 12 64 13 73 14 65 15
REMARK SMILES IDX 66 16 72 17 67 18 69 19 68 20 70 21 71 22 10 23 11 24 12 25
REMARK SMILES IDX 13 26 14 28 15 29 16 30 62 31 17 32 61 33 18 34 19 35 20 36
REMARK SMILES IDX 55 37 21 38 60 39 54 40 56 41 22 42 59 43 53 44 52 45 23 47
REMARK SMILES IDX 45 48 30 49 44 50 31 51 34 52 43 53 57 54 32 55 33 56 42 58
REMARK SMILES IDX 58 59 35 60 24 61 25 62 29 63 26 64 28 65 27 66 46 67 47 68
REMARK SMILES IDX 51 69 48 70 50 71 49 72 36 73 37 74 41 75 38 76 40 77 39 78
REMARK H PARENT 7 6 4 11 12 27 56 46 34 57
REMARK Flexibility Score: inf
ROOT
ATOM      1  C   UNL A   1      36.819  20.986  24.673  1.00  0.00     0.023 C 
ENDROOT
BRANCH   1   2
ATOM      2  C   UNL A   1      35.741  21.118  25.756  1.00  0.00     0.116 C 
BRANCH   2   3
ATOM      3  N   UNL A   1      34.550  20.424  25.325  1.00  0.00    -0.354 N 
ATOM      4  C   UNL A   1      33.247  20.833  25.345  1.00  0.00     0.252 C 
ATOM      5  O   UNL A   1      32.413  19.935  25.181  1.00  0.00    -0.272 OA
ATOM      6  H   UNL A   1      34.701  19.520  24.965  1.00  0.00     0.163 HD
BRANCH   4   7
ATOM      7  C   UNL A   1      32.835  22.344  25.504  1.00  0.00     0.149 C 
BRANCH   7   8
ATOM      8  C   UNL A   1      31.297  22.571  25.431  1.00  0.00     0.043 C 
ATOM      9  C   UNL A   1      30.598  23.169  26.647  1.00  0.00     0.007 C 
ENDBRANCH   7   8
BRANCH   7  10
ATOM     10  O   UNL A   1      33.273  22.675  26.840  1.00  0.00    -0.379 OA
ATOM     11  H   UNL A   1      32.587  23.196  27.286  1.00  0.00     0.212 HD
ENDBRANCH   7  10
BRANCH   7  12
ATOM     12  C   UNL A   1      33.677  23.144  24.436  1.00  0.00     0.061 C 
ATOM     13  C   UNL A   1      33.219  22.873  22.971  1.00  0.00     0.017 C 
ATOM     14  C   UNL A   1      33.613  24.648  24.508  1.00  0.00    -0.035 A 
ATOM     15  C   UNL A   1      33.279  24.189  22.190  1.00  0.00     0.036 C 
ATOM     16  C   UNL A   1      33.256  25.207  23.280  1.00  0.00    -0.044 A 
ATOM     17  C   UNL A   1      33.906  25.460  25.595  1.00  0.00     0.050 A 
ATOM     18  C   UNL A   1      32.995  26.562  23.170  1.00  0.00     0.008 A 
ATOM     19  C   UNL A   1      33.681  26.832  25.490  1.00  0.00     0.119 A 
ATOM     20  C   UNL A   1      33.169  27.366  24.299  1.00  0.00     0.047 A 
BRANCH  19  21
ATOM     21  O   UNL A   1      33.893  27.730  26.502  1.00  0.00    -0.497 OA
ATOM     22  C   UNL A   1      33.778  29.100  26.123  1.00  0.00     0.278 C 
ENDBRANCH  19  21
ENDBRANCH   7  12
ENDBRANCH   4   7
ENDBRANCH   2   3
ENDBRANCH   1   2
BRANCH   1  23
ATOM     23  C   UNL A   1      37.778  19.817  24.888  1.00  0.00     0.023 C 
BRANCH  23  24
ATOM     24  C   UNL A   1      38.989  20.159  25.740  1.00  0.00     0.116 C 
BRANCH  24  25
ATOM     25  N   UNL A   1      39.993  19.107  25.751  1.00  0.00    -0.352 N 
ATOM     26  C   UNL A   1      41.334  19.202  26.017  1.00  0.00     0.251 C 
ATOM     27  H   UNL A   1      39.665  18.204  25.537  1.00  0.00     0.163 HD
ATOM     28  O   UNL A   1      42.065  18.230  25.866  1.00  0.00    -0.269 OA
BRANCH  26  29
ATOM     29  C   UNL A   1      41.895  20.498  26.441  1.00  0.00     0.039 A 
ATOM     30  C   UNL A   1      42.253  21.419  25.456  1.00  0.00     0.014 A 
ATOM     31  C   UNL A   1      42.041  20.814  27.795  1.00  0.00     0.014 A 
ATOM     32  C   UNL A   1      42.707  22.681  25.832  1.00  0.00     0.010 A 
ATOM     33  C   UNL A   1      42.414  22.101  28.168  1.00  0.00     0.010 A 
ATOM     34  C   UNL A   1      42.756  23.043  27.189  1.00  0.00    -0.014 A 
BRANCH  34  35
ATOM     35  C   UNL A   1      43.158  24.414  27.581  1.00  0.00     0.031 A 
ATOM     36  C   UNL A   1      44.599  24.836  27.518  1.00  0.00     0.074 A 
ATOM     37  C   UNL A   1      42.214  25.275  28.009  1.00  0.00     0.049 A 
ATOM     38  N   UNL A   1      45.123  26.010  27.765  1.00  0.00    -0.248 NA
ATOM     39  C   UNL A   1      45.584  23.805  27.149  1.00  0.00     0.031 C 
ATOM     40  C   UNL A   1      40.792  24.960  28.176  1.00  0.00     0.029 A 
ATOM     41  N   UNL A   1      42.307  26.595  28.369  1.00  0.00    -0.354 N 
ATOM     42  C   UNL A   1      46.490  25.859  27.578  1.00  0.00     0.074 A 
ATOM     43  C   UNL A   1      46.725  24.468  27.263  1.00  0.00     0.031 C 
ATOM     44  C   UNL A   1      40.141  26.068  28.562  1.00  0.00     0.029 A 
ATOM     45  C   UNL A   1      41.099  27.159  28.701  1.00  0.00     0.049 A 
ATOM     46  H   UNL A   1      43.157  27.090  28.388  1.00  0.00     0.167 HD
ATOM     47  C   UNL A   1      47.462  26.801  27.634  1.00  0.00     0.031 A 
ATOM     48  C   UNL A   1      40.797  28.417  29.065  1.00  0.00     0.031 A 
ATOM     49  C   UNL A   1      47.226  28.184  27.953  1.00  0.00     0.049 A 
ATOM     50  C   UNL A   1      41.894  29.444  29.117  1.00  0.00     0.074 A 
ATOM     51  C   UNL A   1      48.137  29.226  28.001  1.00  0.00     0.029 A 
ATOM     52  N   UNL A   1      45.990  28.718  28.279  1.00  0.00    -0.354 N 
ATOM     53  N   UNL A   1      43.171  29.301  28.860  1.00  0.00    -0.248 NA
ATOM     54  C   UNL A   1      41.501  30.809  29.487  1.00  0.00     0.031 C 
ATOM     55  C   UNL A   1      47.458  30.381  28.404  1.00  0.00     0.029 A 
ATOM     56  C   UNL A   1      46.116  30.070  28.549  1.00  0.00     0.049 A 
ATOM     57  H   UNL A   1      45.147  28.211  28.315  1.00  0.00     0.167 HD
ATOM     58  C   UNL A   1      43.731  30.562  29.020  1.00  0.00     0.074 A 
ATOM     59  C   UNL A   1      42.647  31.460  29.362  1.00  0.00     0.031 C 
ATOM     60  C   UNL A   1      45.027  30.944  28.903  1.00  0.00     0.031 A 
BRANCH  47  61
ATOM     61  C   UNL A   1      48.868  26.362  27.332  1.00  0.00    -0.014 A 
ATOM     62  C   UNL A   1      49.362  26.372  26.017  1.00  0.00     0.009 A 
ATOM     63  C   UNL A   1      49.723  25.973  28.374  1.00  0.00     0.009 A 
ATOM     64  C   UNL A   1      50.671  25.972  25.748  1.00  0.00     0.001 A 
ATOM     65  C   UNL A   1      51.042  25.602  28.106  1.00  0.00     0.001 A 
ATOM     66  C   UNL A   1      51.513  25.594  26.793  1.00  0.00     0.000 A 
ENDBRANCH  47  61
BRANCH  48  67
ATOM     67  C   UNL A   1      39.394  28.784  29.395  1.00  0.00    -0.014 A 
ATOM     68  C   UNL A   1      38.908  28.659  30.706  1.00  0.00     0.009 A 
ATOM     69  C   UNL A   1      38.528  29.249  28.394  1.00  0.00     0.009 A 
ATOM     70  C   UNL A   1      37.574  28.954  30.998  1.00  0.00     0.001 A 
ATOM     71  C   UNL A   1      37.204  29.575  28.695  1.00  0.00     0.001 A 
ATOM     72  C   UNL A   1      36.726  29.415  29.994  1.00  0.00     0.000 A 
ENDBRANCH  48  67
BRANCH  60  73
ATOM     73  C   UNL A   1      45.327  32.399  29.131  1.00  0.00    -0.014 A 
ATOM     74  C   UNL A   1      45.276  33.327  28.080  1.00  0.00     0.009 A 
ATOM     75  C   UNL A   1      45.660  32.847  30.419  1.00  0.00     0.009 A 
ATOM     76  C   UNL A   1      45.605  34.665  28.302  1.00  0.00     0.001 A 
ATOM     77  C   UNL A   1      45.955  34.192  30.645  1.00  0.00     0.001 A 
ATOM     78  C   UNL A   1      45.941  35.097  29.585  1.00  0.00     0.000 A 
ENDBRANCH  60  73
ENDBRANCH  34  35
ENDBRANCH  26  29
ENDBRANCH  24  25
ENDBRANCH  23  24
ENDBRANCH   1  23
TORSDOF 15
ENDMDL
MODEL 3
REMARK VINA RESULT:     -10.4      4.574      9.171
REMARK SMILES CC[C@@](O)(C(=O)NCCCCNC(=O)c1ccc(-c2c3nc(c(-c4ccccc4)c4ccc([nH]4)c(-c4ccccc4)c4nc(c(-c5ccccc5)c5ccc2[nH]5)C=C4)C=C3)cc1)[C@H]1CCc2ccc(OC)cc21
REMARK SMILES IDX 9 1 8 2 7 3 5 4 6 5 3 7 2 8 1 9 4 10 63 12 64 13 73 14 65 15
REMARK SMILES IDX 66 16 72 17 67 18 69 19 68 20 70 21 71 22 10 23 11 24 12 25
REMARK SMILES IDX 13 26 14 28 15 29 16 30 62 31 17 32 61 33 18 34 19 35 20 36
REMARK SMILES IDX 55 37 21 38 60 39 54 40 56 41 22 42 59 43 53 44 52 45 23 47
REMARK SMILES IDX 45 48 30 49 44 50 31 51 34 52 43 53 57 54 32 55 33 56 42 58
REMARK SMILES IDX 58 59 35 60 24 61 25 62 29 63 26 64 28 65 27 66 46 67 47 68
REMARK SMILES IDX 51 69 48 70 50 71 49 72 36 73 37 74 41 75 38 76 40 77 39 78
REMARK H PARENT 7 6 4 11 12 27 56 46 34 57
REMARK Flexibility Score: inf
ROOT
ATOM      1  C   UNL A   1      36.578  20.231  25.042  1.00  0.00     0.023 C 
ENDROOT
BRANCH   1   2
ATOM      2  C   UNL A   1      36.107  21.617  25.496  1.00  0.00     0.116 C 
BRANCH   2   3
ATOM      3  N   UNL A   1      35.249  21.472  26.649  1.00  0.00    -0.354 N 
ATOM      4  C   UNL A   1      33.897  21.638  26.756  1.00  0.00     0.252 C 
ATOM      5  O   UNL A   1      33.470  21.726  27.913  1.00  0.00    -0.272 OA
ATOM      6  H   UNL A   1      35.707  21.216  27.481  1.00  0.00     0.163 HD
BRANCH   4   7
ATOM      7  C   UNL A   1      32.943  21.656  25.504  1.00  0.00     0.149 C 
BRANCH   7   8
ATOM      8  C   UNL A   1      32.934  20.312  24.720  1.00  0.00     0.043 C 
ATOM      9  C   UNL A   1      32.854  19.014  25.516  1.00  0.00     0.007 C 
ENDBRANCH   7   8
BRANCH   7  10
ATOM     10  O   UNL A   1      31.632  21.847  26.080  1.00  0.00    -0.379 OA
ATOM     11  H   UNL A   1      31.253  22.678  25.752  1.00  0.00     0.212 HD
ENDBRANCH   7  10
BRANCH   7  12
ATOM     12  C   UNL A   1      33.359  22.919  24.654  1.00  0.00     0.061 C 
ATOM     13  C   UNL A   1      33.233  22.689  23.117  1.00  0.00     0.017 C 
ATOM     14  C   UNL A   1      32.541  24.169  24.849  1.00  0.00    -0.035 A 
ATOM     15  C   UNL A   1      32.692  23.970  22.476  1.00  0.00     0.036 C 
ATOM     16  C   UNL A   1      32.063  24.666  23.636  1.00  0.00    -0.044 A 
ATOM     17  C   UNL A   1      32.287  24.842  26.037  1.00  0.00     0.050 A 
ATOM     18  C   UNL A   1      31.166  25.720  23.608  1.00  0.00     0.008 A 
ATOM     19  C   UNL A   1      31.413  25.927  26.021  1.00  0.00     0.119 A 
ATOM     20  C   UNL A   1      30.811  26.322  24.818  1.00  0.00     0.047 A 
BRANCH  19  21
ATOM     21  O   UNL A   1      31.053  26.646  27.130  1.00  0.00    -0.497 OA
ATOM     22  C   UNL A   1      31.770  27.864  27.315  1.00  0.00     0.278 C 
ENDBRANCH  19  21
ENDBRANCH   7  12
ENDBRANCH   4   7
ENDBRANCH   2   3
ENDBRANCH   1   2
BRANCH   1  23
ATOM     23  C   UNL A   1      38.057  20.167  24.667  1.00  0.00     0.023 C 
BRANCH  23  24
ATOM     24  C   UNL A   1      39.001  20.285  25.852  1.00  0.00     0.116 C 
BRANCH  24  25
ATOM     25  N   UNL A   1      39.997  19.227  25.894  1.00  0.00    -0.352 N 
ATOM     26  C   UNL A   1      41.340  19.321  26.149  1.00  0.00     0.251 C 
ATOM     27  H   UNL A   1      39.661  18.319  25.713  1.00  0.00     0.163 HD
ATOM     28  O   UNL A   1      42.064  18.339  26.028  1.00  0.00    -0.269 OA
BRANCH  26  29
ATOM     29  C   UNL A   1      41.913  20.626  26.525  1.00  0.00     0.039 A 
ATOM     30  C   UNL A   1      42.351  21.475  25.508  1.00  0.00     0.014 A 
ATOM     31  C   UNL A   1      41.993  21.023  27.864  1.00  0.00     0.014 A 
ATOM     32  C   UNL A   1      42.818  22.747  25.832  1.00  0.00     0.010 A 
ATOM     33  C   UNL A   1      42.380  22.321  28.178  1.00  0.00     0.010 A 
ATOM     34  C   UNL A   1      42.802  23.192  27.165  1.00  0.00    -0.014 A 
BRANCH  34  35
ATOM     35  C   UNL A   1      43.220  24.574  27.495  1.00  0.00     0.031 A 
ATOM     36  C   UNL A   1      42.196  25.625  27.820  1.00  0.00     0.074 A 
ATOM     37  C   UNL A   1      44.531  24.882  27.484  1.00  0.00     0.049 A 
ATOM     38  N   UNL A   1      42.382  26.867  28.187  1.00  0.00    -0.248 NA
ATOM     39  C   UNL A   1      40.779  25.240  27.700  1.00  0.00     0.031 C 
ATOM     40  C   UNL A   1      45.614  23.964  27.119  1.00  0.00     0.029 A 
ATOM     41  N   UNL A   1      45.177  26.048  27.801  1.00  0.00    -0.354 N 
ATOM     42  C   UNL A   1      41.113  27.407  28.345  1.00  0.00     0.074 A 
ATOM     43  C   UNL A   1      40.165  26.382  27.970  1.00  0.00     0.031 C 
ATOM     44  C   UNL A   1      46.791  24.590  27.276  1.00  0.00     0.029 A 
ATOM     45  C   UNL A   1      46.546  25.957  27.721  1.00  0.00     0.049 A 
ATOM     46  H   UNL A   1      44.706  26.873  28.061  1.00  0.00     0.167 HD
ATOM     47  C   UNL A   1      40.765  28.638  28.792  1.00  0.00     0.031 A 
ATOM     48  C   UNL A   1      47.496  26.870  27.986  1.00  0.00     0.031 A 
ATOM     49  C   UNL A   1      41.710  29.658  29.160  1.00  0.00     0.049 A 
ATOM     50  C   UNL A   1      47.083  28.228  28.482  1.00  0.00     0.074 A 
ATOM     51  C   UNL A   1      41.461  30.926  29.658  1.00  0.00     0.029 A 
ATOM     52  N   UNL A   1      43.087  29.527  29.068  1.00  0.00    -0.354 N 
ATOM     53  N   UNL A   1      45.879  28.696  28.701  1.00  0.00    -0.248 NA
ATOM     54  C   UNL A   1      48.164  29.173  28.789  1.00  0.00     0.031 C 
ATOM     55  C   UNL A   1      42.688  31.579  29.822  1.00  0.00     0.029 A 
ATOM     56  C   UNL A   1      43.701  30.697  29.482  1.00  0.00     0.049 A 
ATOM     57  H   UNL A   1      43.558  28.722  28.755  1.00  0.00     0.167 HD
ATOM     58  C   UNL A   1      46.057  29.984  29.189  1.00  0.00     0.074 A 
ATOM     59  C   UNL A   1      47.487  30.208  29.264  1.00  0.00     0.031 C 
ATOM     60  C   UNL A   1      45.125  30.906  29.536  1.00  0.00     0.031 A 
BRANCH  47  61
ATOM     61  C   UNL A   1      39.297  28.940  28.915  1.00  0.00    -0.014 A 
ATOM     62  C   UNL A   1      38.613  28.720  30.123  1.00  0.00     0.009 A 
ATOM     63  C   UNL A   1      38.597  29.486  27.830  1.00  0.00     0.009 A 
ATOM     64  C   UNL A   1      37.253  29.012  30.230  1.00  0.00     0.001 A 
ATOM     65  C   UNL A   1      37.243  29.806  27.948  1.00  0.00     0.001 A 
ATOM     66  C   UNL A   1      36.569  29.561  29.145  1.00  0.00     0.000 A 
ENDBRANCH  47  61
BRANCH  48  67
ATOM     67  C   UNL A   1      48.932  26.530  27.804  1.00  0.00    -0.014 A 
ATOM     68  C   UNL A   1      49.556  26.691  26.557  1.00  0.00     0.009 A 
ATOM     69  C   UNL A   1      49.683  26.027  28.877  1.00  0.00     0.009 A 
ATOM     70  C   UNL A   1      50.891  26.319  26.380  1.00  0.00     0.001 A 
ATOM     71  C   UNL A   1      51.027  25.687  28.705  1.00  0.00     0.001 A 
ATOM     72  C   UNL A   1      51.625  25.821  27.454  1.00  0.00     0.000 A 
ENDBRANCH  48  67
BRANCH  60  73
ATOM     73  C   UNL A   1      45.633  32.226  30.043  1.00  0.00    -0.014 A 
ATOM     74  C   UNL A   1      45.890  32.432  31.408  1.00  0.00     0.009 A 
ATOM     75  C   UNL A   1      45.863  33.276  29.141  1.00  0.00     0.009 A 
ATOM     76  C   UNL A   1      46.316  33.680  31.865  1.00  0.00     0.001 A 
ATOM     77  C   UNL A   1      46.322  34.512  29.598  1.00  0.00     0.001 A 
ATOM     78  C   UNL A   1      46.534  34.717  30.960  1.00  0.00     0.000 A 
ENDBRANCH  60  73
ENDBRANCH  34  35
ENDBRANCH  26  29
ENDBRANCH  24  25
ENDBRANCH  23  24
ENDBRANCH   1  23
TORSDOF 15
ENDMDL
