MODEL 1
REMARK VINA RESULT:     -13.3      0.000      0.000
REMARK SMILES Cc1cccc(OC2(C(=O)NCCCCNC(=O)c3ccc(-c4c5nc(c(-c6ccccc6)c6ccc([nH]6)c(-c6ccccc6)c6nc(c(-c7ccccc7)c7ccc4[nH]7)C=C6)C=C5)cc3)CCN(C(=O)c3cnc[nH]c3=O)CC2)c1
REMARK SMILES IDX 13 1 12 2 11 3 9 4 10 5 8 7 67 8 80 9 68 10 79 11 69 12
REMARK SMILES IDX 70 13 71 14 7 15 6 16 1 17 2 18 3 19 81 20 4 21 5 22 72 23
REMARK SMILES IDX 73 24 77 25 74 26 76 27 78 28 75 29 14 31 15 32 16 33 17 34
REMARK SMILES IDX 18 36 19 37 20 38 66 39 21 40 65 41 22 42 23 43 24 44 59 45
REMARK SMILES IDX 25 46 64 47 58 48 60 49 26 50 63 51 57 52 56 53 27 55 49 56
REMARK SMILES IDX 34 57 48 58 35 59 38 60 47 61 61 62 36 63 37 64 46 66 62 67
REMARK SMILES IDX 39 68 28 69 29 70 33 71 30 72 32 73 31 74 50 75 51 76 55 77
REMARK SMILES IDX 52 78 54 79 53 80 40 81 41 82 45 83 42 84 44 85 43 86
REMARK H PARENT 11 6 76 30 16 35 60 54 38 65
REMARK Flexibility Score: inf
ROOT
ATOM      1  C   UNL A   1      33.859  29.863  26.627  1.00  0.00     0.023 C 
ENDROOT
BRANCH   1   2
ATOM      2  C   UNL A   1      33.748  28.401  27.121  1.00  0.00     0.116 C 
BRANCH   2   3
ATOM      3  N   UNL A   1      32.410  27.812  27.242  1.00  0.00    -0.353 N 
ATOM      4  C   UNL A   1      31.514  27.259  26.363  1.00  0.00     0.264 C 
ATOM      5  O   UNL A   1      30.693  26.492  26.888  1.00  0.00    -0.270 OA
ATOM      6  H   UNL A   1      32.079  27.814  28.169  1.00  0.00     0.163 HD
BRANCH   4   7
ATOM      7  C   UNL A   1      31.474  27.536  24.818  1.00  0.00     0.190 C 
ATOM      8  C   UNL A   1      30.286  26.816  24.201  1.00  0.00     0.080 C 
ATOM      9  C   UNL A   1      31.331  29.065  24.566  1.00  0.00     0.080 C 
ATOM     10  C   UNL A   1      29.949  27.181  22.777  1.00  0.00     0.124 C 
ATOM     11  C   UNL A   1      30.982  29.365  23.093  1.00  0.00     0.124 C 
ATOM     12  N   UNL A   1      29.784  28.617  22.723  1.00  0.00    -0.338 N 
ATOM     13  C   UNL A   1      28.513  29.151  22.867  1.00  0.00     0.261 C 
ATOM     14  O   UNL A   1      27.606  28.595  23.482  1.00  0.00    -0.269 OA
BRANCH   7  15
ATOM     15  O   UNL A   1      32.795  27.241  24.327  1.00  0.00    -0.477 OA
BRANCH  15  16
ATOM     16  C   UNL A   1      33.494  26.089  24.221  1.00  0.00     0.121 A 
ATOM     17  C   UNL A   1      35.703  23.555  26.002  1.00  0.00     0.044 C 
ATOM     18  C   UNL A   1      34.874  24.210  24.935  1.00  0.00    -0.047 A 
ATOM     19  C   UNL A   1      34.596  23.536  23.745  1.00  0.00     0.003 A 
ATOM     20  C   UNL A   1      34.356  25.501  25.137  1.00  0.00     0.049 A 
ATOM     21  C   UNL A   1      33.795  24.141  22.782  1.00  0.00     0.004 A 
ATOM     22  C   UNL A   1      33.243  25.399  23.028  1.00  0.00     0.046 A 
ENDBRANCH  15  16
ENDBRANCH   7  15
BRANCH  13  23
ATOM     23  C   UNL A   1      28.292  30.433  22.183  1.00  0.00     0.123 A 
ATOM     24  C   UNL A   1      27.957  30.461  20.886  1.00  0.00     0.132 A 
ATOM     25  C   UNL A   1      28.497  31.724  22.863  1.00  0.00     0.263 A 
ATOM     26  N   UNL A   1      27.733  31.605  20.156  1.00  0.00    -0.246 NA
ATOM     27  N   UNL A   1      28.263  32.824  22.088  1.00  0.00    -0.312 N 
ATOM     28  O   UNL A   1      28.868  31.828  24.025  1.00  0.00    -0.269 OA
ATOM     29  C   UNL A   1      27.896  32.724  20.780  1.00  0.00     0.199 A 
ATOM     30  H   UNL A   1      28.363  33.718  22.489  1.00  0.00     0.171 HD
ENDBRANCH  13  23
ENDBRANCH   4   7
ENDBRANCH   2   3
ENDBRANCH   1   2
BRANCH   1  31
ATOM     31  C   UNL A   1      33.497  30.951  27.628  1.00  0.00     0.023 C 
BRANCH  31  32
ATOM     32  C   UNL A   1      34.595  31.984  27.768  1.00  0.00     0.116 C 
BRANCH  32  33
ATOM     33  N   UNL A   1      34.954  32.308  29.148  1.00  0.00    -0.352 N 
ATOM     34  C   UNL A   1      35.782  31.607  30.022  1.00  0.00     0.251 C 
ATOM     35  H   UNL A   1      34.558  33.134  29.508  1.00  0.00     0.163 HD
ATOM     36  O   UNL A   1      35.988  32.000  31.147  1.00  0.00    -0.269 OA
BRANCH  34  37
ATOM     37  C   UNL A   1      36.520  30.434  29.484  1.00  0.00     0.039 A 
ATOM     38  C   UNL A   1      36.733  29.360  30.353  1.00  0.00     0.014 A 
ATOM     39  C   UNL A   1      37.258  30.561  28.314  1.00  0.00     0.014 A 
ATOM     40  C   UNL A   1      37.881  28.593  30.197  1.00  0.00     0.010 A 
ATOM     41  C   UNL A   1      38.463  29.895  28.238  1.00  0.00     0.010 A 
ATOM     42  C   UNL A   1      38.806  28.964  29.224  1.00  0.00    -0.014 A 
BRANCH  42  43
ATOM     43  C   UNL A   1      40.195  28.519  29.240  1.00  0.00     0.031 A 
ATOM     44  C   UNL A   1      40.553  27.211  28.661  1.00  0.00     0.074 A 
ATOM     45  C   UNL A   1      41.158  29.307  29.769  1.00  0.00     0.049 A 
ATOM     46  N   UNL A   1      41.583  26.520  29.010  1.00  0.00    -0.248 NA
ATOM     47  C   UNL A   1      39.715  26.542  27.674  1.00  0.00     0.031 C 
ATOM     48  C   UNL A   1      42.606  29.147  29.661  1.00  0.00     0.029 A 
ATOM     49  N   UNL A   1      41.001  30.311  30.715  1.00  0.00    -0.354 N 
ATOM     50  C   UNL A   1      41.704  25.483  28.117  1.00  0.00     0.074 A 
ATOM     51  C   UNL A   1      40.474  25.489  27.363  1.00  0.00     0.031 C 
ATOM     52  C   UNL A   1      43.197  29.835  30.653  1.00  0.00     0.029 A 
ATOM     53  C   UNL A   1      42.145  30.336  31.523  1.00  0.00     0.049 A 
ATOM     54  H   UNL A   1      40.219  30.903  30.803  1.00  0.00     0.167 HD
ATOM     55  C   UNL A   1      42.891  24.822  28.012  1.00  0.00     0.031 A 
ATOM     56  C   UNL A   1      42.061  30.087  32.863  1.00  0.00     0.031 A 
ATOM     57  C   UNL A   1      43.853  25.273  29.016  1.00  0.00     0.049 A 
ATOM     58  C   UNL A   1      42.823  28.852  33.302  1.00  0.00     0.074 A 
ATOM     59  C   UNL A   1      44.923  26.152  28.967  1.00  0.00     0.029 A 
ATOM     60  N   UNL A   1      43.588  25.047  30.361  1.00  0.00    -0.354 N 
ATOM     61  N   UNL A   1      43.234  27.919  32.488  1.00  0.00    -0.248 NA
ATOM     62  C   UNL A   1      43.132  28.548  34.698  1.00  0.00     0.031 C 
ATOM     63  C   UNL A   1      45.252  26.514  30.300  1.00  0.00     0.029 A 
ATOM     64  C   UNL A   1      44.405  25.829  31.154  1.00  0.00     0.049 A 
ATOM     65  H   UNL A   1      42.914  24.416  30.702  1.00  0.00     0.167 HD
ATOM     66  C   UNL A   1      43.818  26.908  33.206  1.00  0.00     0.074 A 
ATOM     67  C   UNL A   1      43.747  27.357  34.584  1.00  0.00     0.031 C 
ATOM     68  C   UNL A   1      44.290  25.777  32.605  1.00  0.00     0.031 A 
BRANCH  55  69
ATOM     69  C   UNL A   1      43.265  23.994  26.805  1.00  0.00    -0.014 A 
ATOM     70  C   UNL A   1      43.265  22.591  26.900  1.00  0.00     0.009 A 
ATOM     71  C   UNL A   1      43.695  24.522  25.576  1.00  0.00     0.009 A 
ATOM     72  C   UNL A   1      43.765  21.775  25.876  1.00  0.00     0.001 A 
ATOM     73  C   UNL A   1      44.237  23.718  24.563  1.00  0.00     0.001 A 
ATOM     74  C   UNL A   1      44.283  22.341  24.719  1.00  0.00     0.000 A 
ENDBRANCH  55  69
BRANCH  56  75
ATOM     75  C   UNL A   1      40.777  30.537  33.475  1.00  0.00    -0.014 A 
ATOM     76  C   UNL A   1      40.581  31.918  33.682  1.00  0.00     0.009 A 
ATOM     77  C   UNL A   1      39.660  29.691  33.510  1.00  0.00     0.009 A 
ATOM     78  C   UNL A   1      39.293  32.451  33.793  1.00  0.00     0.001 A 
ATOM     79  C   UNL A   1      38.372  30.228  33.639  1.00  0.00     0.001 A 
ATOM     80  C   UNL A   1      38.188  31.607  33.742  1.00  0.00     0.000 A 
ENDBRANCH  56  75
BRANCH  68  81
ATOM     81  C   UNL A   1      44.742  24.522  33.311  1.00  0.00    -0.014 A 
ATOM     82  C   UNL A   1      46.050  24.291  33.754  1.00  0.00     0.009 A 
ATOM     83  C   UNL A   1      43.769  23.565  33.684  1.00  0.00     0.009 A 
ATOM     84  C   UNL A   1      46.379  23.144  34.491  1.00  0.00     0.001 A 
ATOM     85  C   UNL A   1      44.083  22.445  34.457  1.00  0.00     0.001 A 
ATOM     86  C   UNL A   1      45.394  22.229  34.851  1.00  0.00     0.000 A 
ENDBRANCH  68  81
ENDBRANCH  42  43
ENDBRANCH  34  37
ENDBRANCH  32  33
ENDBRANCH  31  32
ENDBRANCH   1  31
TORSDOF 14
ENDMDL
MODEL 2
REMARK VINA RESULT:     -13.2      3.844      8.621
REMARK SMILES Cc1cccc(OC2(C(=O)NCCCCNC(=O)c3ccc(-c4c5nc(c(-c6ccccc6)c6ccc([nH]6)c(-c6ccccc6)c6nc(c(-c7ccccc7)c7ccc4[nH]7)C=C6)C=C5)cc3)CCN(C(=O)c3cnc[nH]c3=O)CC2)c1
REMARK SMILES IDX 13 1 12 2 11 3 9 4 10 5 8 7 67 8 80 9 68 10 79 11 69 12
REMARK SMILES IDX 70 13 71 14 7 15 6 16 1 17 2 18 3 19 81 20 4 21 5 22 72 23
REMARK SMILES IDX 73 24 77 25 74 26 76 27 78 28 75 29 14 31 15 32 16 33 17 34
REMARK SMILES IDX 18 36 19 37 20 38 66 39 21 40 65 41 22 42 23 43 24 44 59 45
REMARK SMILES IDX 25 46 64 47 58 48 60 49 26 50 63 51 57 52 56 53 27 55 49 56
REMARK SMILES IDX 34 57 48 58 35 59 38 60 47 61 61 62 36 63 37 64 46 66 62 67
REMARK SMILES IDX 39 68 28 69 29 70 33 71 30 72 32 73 31 74 50 75 51 76 55 77
REMARK SMILES IDX 52 78 54 79 53 80 40 81 41 82 45 83 42 84 44 85 43 86
REMARK H PARENT 11 6 76 30 16 35 60 54 38 65
REMARK Flexibility Score: inf
ROOT
ATOM      1  C   UNL A   1      37.708  21.314  25.140  1.00  0.00     0.023 C 
ENDROOT
BRANCH   1   2
ATOM      2  C   UNL A   1      36.720  22.461  25.459  1.00  0.00     0.116 C 
BRANCH   2   3
ATOM      3  N   UNL A   1      35.758  22.262  26.548  1.00  0.00    -0.353 N 
ATOM      4  C   UNL A   1      34.413  21.997  26.614  1.00  0.00     0.264 C 
ATOM      5  O   UNL A   1      34.050  21.475  27.679  1.00  0.00    -0.270 OA
ATOM      6  H   UNL A   1      36.173  22.335  27.437  1.00  0.00     0.163 HD
BRANCH   4   7
ATOM      7  C   UNL A   1      33.374  22.307  25.481  1.00  0.00     0.190 C 
ATOM      8  C   UNL A   1      31.963  22.171  26.031  1.00  0.00     0.080 C 
ATOM      9  C   UNL A   1      33.581  23.761  24.965  1.00  0.00     0.080 C 
ATOM     10  C   UNL A   1      30.850  22.683  25.150  1.00  0.00     0.124 C 
ATOM     11  C   UNL A   1      32.406  24.220  24.077  1.00  0.00     0.124 C 
ATOM     12  N   UNL A   1      31.157  24.056  24.814  1.00  0.00    -0.338 N 
ATOM     13  C   UNL A   1      30.629  25.071  25.598  1.00  0.00     0.261 C 
ATOM     14  O   UNL A   1      30.324  24.931  26.780  1.00  0.00    -0.269 OA
BRANCH   7  15
ATOM     15  O   UNL A   1      33.760  21.497  24.354  1.00  0.00    -0.477 OA
BRANCH  15  16
ATOM     16  C   UNL A   1      33.668  20.172  24.107  1.00  0.00     0.121 A 
ATOM     17  C   UNL A   1      34.944  16.696  24.981  1.00  0.00     0.044 C 
ATOM     18  C   UNL A   1      34.128  17.791  24.356  1.00  0.00    -0.047 A 
ATOM     19  C   UNL A   1      33.019  17.480  23.569  1.00  0.00     0.003 A 
ATOM     20  C   UNL A   1      34.465  19.137  24.576  1.00  0.00     0.049 A 
ATOM     21  C   UNL A   1      32.250  18.505  23.026  1.00  0.00     0.004 A 
ATOM     22  C   UNL A   1      32.569  19.835  23.306  1.00  0.00     0.046 A 
ENDBRANCH  15  16
ENDBRANCH   7  15
BRANCH  13  23
ATOM     23  C   UNL A   1      30.403  26.345  24.901  1.00  0.00     0.123 A 
ATOM     24  C   UNL A   1      29.429  26.456  23.988  1.00  0.00     0.132 A 
ATOM     25  C   UNL A   1      31.270  27.516  25.119  1.00  0.00     0.263 A 
ATOM     26  N   UNL A   1      29.140  27.600  23.280  1.00  0.00    -0.246 NA
ATOM     27  N   UNL A   1      30.938  28.621  24.388  1.00  0.00    -0.312 N 
ATOM     28  O   UNL A   1      32.233  27.517  25.875  1.00  0.00    -0.269 OA
ATOM     29  C   UNL A   1      29.899  28.620  23.505  1.00  0.00     0.199 A 
ATOM     30  H   UNL A   1      31.466  29.444  24.501  1.00  0.00     0.171 HD
ENDBRANCH  13  23
ENDBRANCH   4   7
ENDBRANCH   2   3
ENDBRANCH   1   2
BRANCH   1  31
ATOM     31  C   UNL A   1      39.083  21.398  25.787  1.00  0.00     0.023 C 
BRANCH  31  32
ATOM     32  C   UNL A   1      39.287  22.706  26.522  1.00  0.00     0.116 C 
BRANCH  32  33
ATOM     33  N   UNL A   1      40.676  22.994  26.877  1.00  0.00    -0.352 N 
ATOM     34  C   UNL A   1      41.262  24.218  27.191  1.00  0.00     0.251 C 
ATOM     35  H   UNL A   1      41.280  22.216  26.899  1.00  0.00     0.163 HD
ATOM     36  O   UNL A   1      42.436  24.302  27.468  1.00  0.00    -0.269 OA
BRANCH  34  37
ATOM     37  C   UNL A   1      40.369  25.399  27.317  1.00  0.00     0.039 A 
ATOM     38  C   UNL A   1      40.695  26.530  26.563  1.00  0.00     0.014 A 
ATOM     39  C   UNL A   1      39.486  25.487  28.387  1.00  0.00     0.014 A 
ATOM     40  C   UNL A   1      40.375  27.784  27.068  1.00  0.00     0.010 A 
ATOM     41  C   UNL A   1      39.290  26.725  28.959  1.00  0.00     0.010 A 
ATOM     42  C   UNL A   1      39.802  27.869  28.335  1.00  0.00    -0.014 A 
BRANCH  42  43
ATOM     43  C   UNL A   1      39.809  29.092  29.129  1.00  0.00     0.031 A 
ATOM     44  C   UNL A   1      38.772  30.116  28.908  1.00  0.00     0.074 A 
ATOM     45  C   UNL A   1      40.753  29.284  30.078  1.00  0.00     0.049 A 
ATOM     46  N   UNL A   1      38.920  31.369  29.174  1.00  0.00    -0.248 NA
ATOM     47  C   UNL A   1      37.488  29.804  28.292  1.00  0.00     0.031 C 
ATOM     48  C   UNL A   1      40.782  30.310  31.118  1.00  0.00     0.029 A 
ATOM     49  N   UNL A   1      42.011  28.702  30.145  1.00  0.00    -0.354 N 
ATOM     50  C   UNL A   1      37.689  31.965  29.040  1.00  0.00     0.074 A 
ATOM     51  C   UNL A   1      36.855  30.973  28.407  1.00  0.00     0.031 C 
ATOM     52  C   UNL A   1      42.045  30.450  31.557  1.00  0.00     0.029 A 
ATOM     53  C   UNL A   1      42.895  29.629  30.711  1.00  0.00     0.049 A 
ATOM     54  H   UNL A   1      42.242  27.792  29.847  1.00  0.00     0.167 HD
ATOM     55  C   UNL A   1      37.468  33.182  29.612  1.00  0.00     0.031 A 
ATOM     56  C   UNL A   1      43.968  30.094  30.004  1.00  0.00     0.031 A 
ATOM     57  C   UNL A   1      38.687  33.736  30.196  1.00  0.00     0.049 A 
ATOM     58  C   UNL A   1      43.922  31.586  29.739  1.00  0.00     0.074 A 
ATOM     59  C   UNL A   1      39.172  33.786  31.494  1.00  0.00     0.029 A 
ATOM     60  N   UNL A   1      39.750  34.069  29.365  1.00  0.00    -0.354 N 
ATOM     61  N   UNL A   1      42.847  32.316  29.851  1.00  0.00    -0.248 NA
ATOM     62  C   UNL A   1      45.073  32.359  29.276  1.00  0.00     0.031 C 
ATOM     63  C   UNL A   1      40.560  34.077  31.432  1.00  0.00     0.029 A 
ATOM     64  C   UNL A   1      40.907  34.237  30.101  1.00  0.00     0.049 A 
ATOM     65  H   UNL A   1      39.687  34.171  28.388  1.00  0.00     0.167 HD
ATOM     66  C   UNL A   1      43.124  33.603  29.468  1.00  0.00     0.074 A 
ATOM     67  C   UNL A   1      44.536  33.584  29.135  1.00  0.00     0.031 C 
ATOM     68  C   UNL A   1      42.160  34.568  29.435  1.00  0.00     0.031 A 
BRANCH  55  69
ATOM     69  C   UNL A   1      36.083  33.713  29.901  1.00  0.00    -0.014 A 
ATOM     70  C   UNL A   1      35.306  34.230  28.850  1.00  0.00     0.009 A 
ATOM     71  C   UNL A   1      35.513  33.801  31.182  1.00  0.00     0.009 A 
ATOM     72  C   UNL A   1      34.091  34.891  29.077  1.00  0.00     0.001 A 
ATOM     73  C   UNL A   1      34.321  34.498  31.425  1.00  0.00     0.001 A 
ATOM     74  C   UNL A   1      33.614  35.055  30.370  1.00  0.00     0.000 A 
ENDBRANCH  55  69
BRANCH  56  75
ATOM     75  C   UNL A   1      44.535  29.094  29.053  1.00  0.00    -0.014 A 
ATOM     76  C   UNL A   1      45.072  27.901  29.578  1.00  0.00     0.009 A 
ATOM     77  C   UNL A   1      44.230  29.146  27.686  1.00  0.00     0.009 A 
ATOM     78  C   UNL A   1      45.180  26.754  28.785  1.00  0.00     0.001 A 
ATOM     79  C   UNL A   1      44.357  27.999  26.891  1.00  0.00     0.001 A 
ATOM     80  C   UNL A   1      44.795  26.797  27.449  1.00  0.00     0.000 A 
ENDBRANCH  56  75
BRANCH  68  81
ATOM     81  C   UNL A   1      42.301  35.942  28.827  1.00  0.00    -0.014 A 
ATOM     82  C   UNL A   1      42.985  37.006  29.426  1.00  0.00     0.009 A 
ATOM     83  C   UNL A   1      41.842  36.148  27.505  1.00  0.00     0.009 A 
ATOM     84  C   UNL A   1      43.163  38.227  28.759  1.00  0.00     0.001 A 
ATOM     85  C   UNL A   1      42.057  37.347  26.819  1.00  0.00     0.001 A 
ATOM     86  C   UNL A   1      42.709  38.393  27.454  1.00  0.00     0.000 A 
ENDBRANCH  68  81
ENDBRANCH  42  43
ENDBRANCH  34  37
ENDBRANCH  32  33
ENDBRANCH  31  32
ENDBRANCH   1  31
TORSDOF 14
ENDMDL
MODEL 3
REMARK VINA RESULT:     -13.2      3.374      7.950
REMARK SMILES Cc1cccc(OC2(C(=O)NCCCCNC(=O)c3ccc(-c4c5nc(c(-c6ccccc6)c6ccc([nH]6)c(-c6ccccc6)c6nc(c(-c7ccccc7)c7ccc4[nH]7)C=C6)C=C5)cc3)CCN(C(=O)c3cnc[nH]c3=O)CC2)c1
REMARK SMILES IDX 13 1 12 2 11 3 9 4 10 5 8 7 67 8 80 9 68 10 79 11 69 12
REMARK SMILES IDX 70 13 71 14 7 15 6 16 1 17 2 18 3 19 81 20 4 21 5 22 72 23
REMARK SMILES IDX 73 24 77 25 74 26 76 27 78 28 75 29 14 31 15 32 16 33 17 34
REMARK SMILES IDX 18 36 19 37 20 38 66 39 21 40 65 41 22 42 23 43 24 44 59 45
REMARK SMILES IDX 25 46 64 47 58 48 60 49 26 50 63 51 57 52 56 53 27 55 49 56
REMARK SMILES IDX 34 57 48 58 35 59 38 60 47 61 61 62 36 63 37 64 46 66 62 67
REMARK SMILES IDX 39 68 28 69 29 70 33 71 30 72 32 73 31 74 50 75 51 76 55 77
REMARK SMILES IDX 52 78 54 79 53 80 40 81 41 82 45 83 42 84 44 85 43 86
REMARK H PARENT 11 6 76 30 16 35 60 54 38 65
REMARK Flexibility Score: inf
ROOT
ATOM      1  C   UNL A   1      38.147  23.440  26.097  1.00  0.00     0.023 C 
ENDROOT
BRANCH   1   2
ATOM      2  C   UNL A   1      36.660  23.646  25.723  1.00  0.00     0.116 C 
BRANCH   2   3
ATOM      3  N   UNL A   1      35.651  23.451  26.769  1.00  0.00    -0.353 N 
ATOM      4  C   UNL A   1      34.320  23.119  26.780  1.00  0.00     0.264 C 
ATOM      5  O   UNL A   1      33.925  22.634  27.850  1.00  0.00    -0.270 OA
ATOM      6  H   UNL A   1      36.013  23.592  27.674  1.00  0.00     0.163 HD
BRANCH   4   7
ATOM      7  C   UNL A   1      33.330  23.315  25.578  1.00  0.00     0.190 C 
ATOM      8  C   UNL A   1      31.897  23.287  26.087  1.00  0.00     0.080 C 
ATOM      9  C   UNL A   1      33.601  24.687  24.896  1.00  0.00     0.080 C 
ATOM     10  C   UNL A   1      30.832  23.717  25.108  1.00  0.00     0.124 C 
ATOM     11  C   UNL A   1      32.472  25.065  23.915  1.00  0.00     0.124 C 
ATOM     12  N   UNL A   1      31.194  25.028  24.619  1.00  0.00    -0.338 N 
ATOM     13  C   UNL A   1      30.673  26.146  25.251  1.00  0.00     0.261 C 
ATOM     14  O   UNL A   1      30.324  26.163  26.429  1.00  0.00    -0.269 OA
BRANCH   7  15
ATOM     15  O   UNL A   1      33.728  22.361  24.574  1.00  0.00    -0.477 OA
BRANCH  15  16
ATOM     16  C   UNL A   1      33.316  21.106  24.293  1.00  0.00     0.121 A 
ATOM     17  C   UNL A   1      32.741  17.591  25.631  1.00  0.00     0.044 C 
ATOM     18  C   UNL A   1      32.753  18.769  24.699  1.00  0.00    -0.047 A 
ATOM     19  C   UNL A   1      32.122  18.691  23.457  1.00  0.00     0.003 A 
ATOM     20  C   UNL A   1      33.383  19.965  25.081  1.00  0.00     0.049 A 
ATOM     21  C   UNL A   1      32.109  19.801  22.619  1.00  0.00     0.004 A 
ATOM     22  C   UNL A   1      32.691  20.997  23.044  1.00  0.00     0.046 A 
ENDBRANCH  15  16
ENDBRANCH   7  15
BRANCH  13  23
ATOM     23  C   UNL A   1      30.512  27.330  24.395  1.00  0.00     0.123 A 
ATOM     24  C   UNL A   1      29.651  27.313  23.368  1.00  0.00     0.132 A 
ATOM     25  C   UNL A   1      31.328  28.542  24.580  1.00  0.00     0.263 A 
ATOM     26  N   UNL A   1      29.431  28.365  22.509  1.00  0.00    -0.246 NA
ATOM     27  N   UNL A   1      31.068  29.551  23.697  1.00  0.00    -0.312 N 
ATOM     28  O   UNL A   1      32.195  28.653  25.439  1.00  0.00    -0.269 OA
ATOM     29  C   UNL A   1      30.142  29.425  22.705  1.00  0.00     0.199 A 
ATOM     30  H   UNL A   1      31.567  30.396  23.779  1.00  0.00     0.171 HD
ENDBRANCH  13  23
ENDBRANCH   4   7
ENDBRANCH   2   3
ENDBRANCH   1   2
BRANCH   1  31
ATOM     31  C   UNL A   1      38.675  22.013  26.037  1.00  0.00     0.023 C 
BRANCH  31  32
ATOM     32  C   UNL A   1      40.069  21.897  26.617  1.00  0.00     0.116 C 
BRANCH  32  33
ATOM     33  N   UNL A   1      40.922  20.910  25.955  1.00  0.00    -0.352 N 
ATOM     34  C   UNL A   1      42.311  20.810  25.966  1.00  0.00     0.251 C 
ATOM     35  H   UNL A   1      40.451  20.222  25.432  1.00  0.00     0.163 HD
ATOM     36  O   UNL A   1      42.885  19.931  25.365  1.00  0.00    -0.269 OA
BRANCH  34  37
ATOM     37  C   UNL A   1      43.064  21.733  26.856  1.00  0.00     0.039 A 
ATOM     38  C   UNL A   1      42.792  21.663  28.225  1.00  0.00     0.014 A 
ATOM     39  C   UNL A   1      43.719  22.832  26.315  1.00  0.00     0.014 A 
ATOM     40  C   UNL A   1      42.906  22.819  28.989  1.00  0.00     0.010 A 
ATOM     41  C   UNL A   1      43.701  24.009  27.033  1.00  0.00     0.010 A 
ATOM     42  C   UNL A   1      43.222  24.015  28.348  1.00  0.00    -0.014 A 
BRANCH  42  43
ATOM     43  C   UNL A   1      42.964  25.323  28.938  1.00  0.00     0.031 A 
ATOM     44  C   UNL A   1      41.774  26.091  28.529  1.00  0.00     0.074 A 
ATOM     45  C   UNL A   1      43.802  25.829  29.870  1.00  0.00     0.049 A 
ATOM     46  N   UNL A   1      41.678  27.374  28.597  1.00  0.00    -0.248 NA
ATOM     47  C   UNL A   1      40.604  25.455  27.934  1.00  0.00     0.031 C 
ATOM     48  C   UNL A   1      43.587  26.986  30.736  1.00  0.00     0.029 A 
ATOM     49  N   UNL A   1      45.139  25.508  30.065  1.00  0.00    -0.354 N 
ATOM     50  C   UNL A   1      40.370  27.704  28.336  1.00  0.00     0.074 A 
ATOM     51  C   UNL A   1      39.765  26.489  27.845  1.00  0.00     0.031 C 
ATOM     52  C   UNL A   1      44.777  27.424  31.183  1.00  0.00     0.029 A 
ATOM     53  C   UNL A   1      45.808  26.658  30.501  1.00  0.00     0.049 A 
ATOM     54  H   UNL A   1      45.547  24.623  29.920  1.00  0.00     0.167 HD
ATOM     55  C   UNL A   1      39.901  28.930  28.702  1.00  0.00     0.031 A 
ATOM     56  C   UNL A   1      46.818  27.204  29.760  1.00  0.00     0.031 A 
ATOM     57  C   UNL A   1      40.965  29.783  29.226  1.00  0.00     0.049 A 
ATOM     58  C   UNL A   1      46.520  28.604  29.262  1.00  0.00     0.074 A 
ATOM     59  C   UNL A   1      41.359  30.116  30.512  1.00  0.00     0.029 A 
ATOM     60  N   UNL A   1      41.996  30.179  28.383  1.00  0.00    -0.354 N 
ATOM     61  N   UNL A   1      45.326  29.129  29.226  1.00  0.00    -0.248 NA
ATOM     62  C   UNL A   1      47.537  29.500  28.715  1.00  0.00     0.031 C 
ATOM     63  C   UNL A   1      42.673  30.649  30.443  1.00  0.00     0.029 A 
ATOM     64  C   UNL A   1      43.060  30.669  29.115  1.00  0.00     0.049 A 
ATOM     65  H   UNL A   1      41.972  30.120  27.400  1.00  0.00     0.167 HD
ATOM     66  C   UNL A   1      45.388  30.372  28.652  1.00  0.00     0.074 A 
ATOM     67  C   UNL A   1      46.797  30.568  28.367  1.00  0.00     0.031 C 
ATOM     68  C   UNL A   1      44.269  31.125  28.441  1.00  0.00     0.031 A 
BRANCH  55  69
ATOM     69  C   UNL A   1      38.429  29.230  28.865  1.00  0.00    -0.014 A 
ATOM     70  C   UNL A   1      37.704  29.749  27.778  1.00  0.00     0.009 A 
ATOM     71  C   UNL A   1      37.715  29.096  30.067  1.00  0.00     0.009 A 
ATOM     72  C   UNL A   1      36.386  30.208  27.913  1.00  0.00     0.001 A 
ATOM     73  C   UNL A   1      36.413  29.591  30.224  1.00  0.00     0.001 A 
ATOM     74  C   UNL A   1      35.751  30.159  29.146  1.00  0.00     0.000 A 
ENDBRANCH  55  69
BRANCH  56  75
ATOM     75  C   UNL A   1      47.609  26.196  28.996  1.00  0.00    -0.014 A 
ATOM     76  C   UNL A   1      47.373  26.069  27.612  1.00  0.00     0.009 A 
ATOM     77  C   UNL A   1      48.788  25.654  29.527  1.00  0.00     0.009 A 
ATOM     78  C   UNL A   1      48.346  25.527  26.766  1.00  0.00     0.001 A 
ATOM     79  C   UNL A   1      49.752  25.096  28.676  1.00  0.00     0.001 A 
ATOM     80  C   UNL A   1      49.547  25.068  27.296  1.00  0.00     0.000 A 
ENDBRANCH  56  75
BRANCH  68  81
ATOM     81  C   UNL A   1      44.195  32.393  27.626  1.00  0.00    -0.014 A 
ATOM     82  C   UNL A   1      44.044  33.675  28.170  1.00  0.00     0.009 A 
ATOM     83  C   UNL A   1      44.433  32.320  26.234  1.00  0.00     0.009 A 
ATOM     84  C   UNL A   1      44.083  34.819  27.361  1.00  0.00     0.001 A 
ATOM     85  C   UNL A   1      44.518  33.460  25.431  1.00  0.00     0.001 A 
ATOM     86  C   UNL A   1      44.331  34.713  25.996  1.00  0.00     0.000 A 
ENDBRANCH  68  81
ENDBRANCH  42  43
ENDBRANCH  34  37
ENDBRANCH  32  33
ENDBRANCH  31  32
ENDBRANCH   1  31
TORSDOF 14
ENDMDL
