MODEL 1
REMARK VINA RESULT:     -11.2      0.000      0.000
REMARK SMILES O=C(NCCCCNC(=O)c1ccc(C(F)(F)F)cc1NC(=O)c1ccon1)c1ccc(-c2c3nc(c(-c4ccccc4)c4ccc([nH]4)c(-c4ccccc4)c4nc(c(-c5ccccc5)c5ccc2[nH]5)C=C4)C=C3)cc1
REMARK SMILES IDX 5 1 4 2 3 3 1 4 2 5 29 7 30 8 76 9 31 10 75 11 32 12 33 13
REMARK SMILES IDX 34 14 69 15 35 16 74 17 68 18 70 19 36 20 73 21 67 22 66 23
REMARK SMILES IDX 37 25 59 26 44 27 58 28 45 29 48 30 57 31 71 32 46 33 47 34
REMARK SMILES IDX 56 36 72 37 49 38 38 39 39 40 43 41 40 42 42 43 41 44 60 45
REMARK SMILES IDX 61 46 65 47 62 48 64 49 63 50 50 51 51 52 55 53 52 54 54 55
REMARK SMILES IDX 53 56 6 57 7 58 8 59 9 60 10 62 11 63 12 64 20 65 13 66
REMARK SMILES IDX 19 67 14 68 21 69 22 70 23 72 24 73 25 74 28 75 26 76 27 77
REMARK SMILES IDX 15 78 16 79 17 80 18 81
REMARK H PARENT 3 6 70 24 48 35 8 61 21 71
REMARK Flexibility Score: inf
ROOT
ATOM      1  C   UNL A   1      32.474  28.774  26.475  1.00  0.00     0.023 C 
ENDROOT
BRANCH   1   2
ATOM      2  C   UNL A   1      33.835  29.139  27.056  1.00  0.00     0.116 C 
BRANCH   2   3
ATOM      3  N   UNL A   1      33.826  30.393  27.792  1.00  0.00    -0.352 N 
ATOM      4  O   UNL A   1      34.551  31.958  29.245  1.00  0.00    -0.269 OA
ATOM      5  C   UNL A   1      34.797  30.947  28.594  1.00  0.00     0.251 C 
ATOM      6  H   UNL A   1      33.003  30.925  27.702  1.00  0.00     0.163 HD
BRANCH   5   7
ATOM      7  C   UNL A   1      36.124  30.302  28.705  1.00  0.00     0.039 A 
ATOM      8  C   UNL A   1      36.506  29.649  29.877  1.00  0.00     0.014 A 
ATOM      9  C   UNL A   1      37.005  30.367  27.621  1.00  0.00     0.014 A 
ATOM     10  C   UNL A   1      37.821  29.224  30.031  1.00  0.00     0.010 A 
ATOM     11  C   UNL A   1      38.299  29.854  27.746  1.00  0.00     0.010 A 
ATOM     12  C   UNL A   1      38.735  29.322  28.968  1.00  0.00    -0.014 A 
BRANCH  12  13
ATOM     13  C   UNL A   1      40.125  28.835  29.161  1.00  0.00     0.031 A 
ATOM     14  C   UNL A   1      40.541  27.461  28.711  1.00  0.00     0.074 A 
ATOM     15  C   UNL A   1      41.036  29.669  29.701  1.00  0.00     0.049 A 
ATOM     16  N   UNL A   1      41.730  26.910  28.741  1.00  0.00    -0.248 NA
ATOM     17  C   UNL A   1      39.493  26.586  28.164  1.00  0.00     0.031 C 
ATOM     18  C   UNL A   1      40.758  31.024  30.180  1.00  0.00     0.029 A 
ATOM     19  N   UNL A   1      42.382  29.512  29.906  1.00  0.00    -0.354 N 
ATOM     20  C   UNL A   1      41.569  25.623  28.246  1.00  0.00     0.074 A 
ATOM     21  C   UNL A   1      40.163  25.464  27.939  1.00  0.00     0.031 C 
ATOM     22  C   UNL A   1      41.909  31.600  30.557  1.00  0.00     0.029 A 
ATOM     23  C   UNL A   1      42.993  30.638  30.404  1.00  0.00     0.049 A 
ATOM     24  H   UNL A   1      42.865  28.675  29.716  1.00  0.00     0.167 HD
ATOM     25  C   UNL A   1      42.505  24.660  28.059  1.00  0.00     0.031 A 
ATOM     26  C   UNL A   1      44.282  30.872  30.708  1.00  0.00     0.031 A 
ATOM     27  C   UNL A   1      43.905  24.819  28.348  1.00  0.00     0.049 A 
ATOM     28  C   UNL A   1      45.293  29.784  30.505  1.00  0.00     0.074 A 
ATOM     29  C   UNL A   1      44.935  23.915  28.151  1.00  0.00     0.029 A 
ATOM     30  N   UNL A   1      44.474  25.957  28.901  1.00  0.00    -0.354 N 
ATOM     31  N   UNL A   1      45.125  28.585  30.003  1.00  0.00    -0.248 NA
ATOM     32  C   UNL A   1      46.672  30.084  30.913  1.00  0.00     0.031 C 
ATOM     33  C   UNL A   1      46.120  24.488  28.626  1.00  0.00     0.029 A 
ATOM     34  C   UNL A   1      45.836  25.768  29.074  1.00  0.00     0.049 A 
ATOM     35  H   UNL A   1      43.983  26.777  29.133  1.00  0.00     0.167 HD
ATOM     36  C   UNL A   1      46.380  27.992  30.021  1.00  0.00     0.074 A 
ATOM     37  C   UNL A   1      47.301  28.970  30.565  1.00  0.00     0.031 C 
ATOM     38  C   UNL A   1      46.736  26.746  29.625  1.00  0.00     0.031 A 
BRANCH  25  39
ATOM     39  C   UNL A   1      42.036  23.328  27.540  1.00  0.00    -0.014 A 
ATOM     40  C   UNL A   1      42.039  23.035  26.167  1.00  0.00     0.009 A 
ATOM     41  C   UNL A   1      41.625  22.337  28.445  1.00  0.00     0.009 A 
ATOM     42  C   UNL A   1      41.609  21.786  25.710  1.00  0.00     0.001 A 
ATOM     43  C   UNL A   1      41.218  21.083  27.988  1.00  0.00     0.001 A 
ATOM     44  C   UNL A   1      41.202  20.811  26.622  1.00  0.00     0.000 A 
ENDBRANCH  25  39
BRANCH  26  45
ATOM     45  C   UNL A   1      44.685  32.201  31.231  1.00  0.00    -0.014 A 
ATOM     46  C   UNL A   1      45.069  33.224  30.352  1.00  0.00     0.009 A 
ATOM     47  C   UNL A   1      44.670  32.459  32.611  1.00  0.00     0.009 A 
ATOM     48  C   UNL A   1      45.445  34.475  30.846  1.00  0.00     0.001 A 
ATOM     49  C   UNL A   1      45.020  33.718  33.100  1.00  0.00     0.001 A 
ATOM     50  C   UNL A   1      45.414  34.723  32.218  1.00  0.00     0.000 A 
ENDBRANCH  26  45
BRANCH  38  51
ATOM     51  C   UNL A   1      48.189  26.386  29.745  1.00  0.00    -0.014 A 
ATOM     52  C   UNL A   1      48.677  25.707  30.872  1.00  0.00     0.009 A 
ATOM     53  C   UNL A   1      49.077  26.722  28.712  1.00  0.00     0.009 A 
ATOM     54  C   UNL A   1      50.035  25.402  30.976  1.00  0.00     0.001 A 
ATOM     55  C   UNL A   1      50.430  26.394  28.809  1.00  0.00     0.001 A 
ATOM     56  C   UNL A   1      50.909  25.743  29.945  1.00  0.00     0.000 A 
ENDBRANCH  38  51
ENDBRANCH  12  13
ENDBRANCH   5   7
ENDBRANCH   2   3
ENDBRANCH   1   2
BRANCH   1  57
ATOM     57  C   UNL A   1      31.824  27.521  27.059  1.00  0.00     0.023 C 
BRANCH  57  58
ATOM     58  C   UNL A   1      32.240  26.204  26.412  1.00  0.00     0.116 C 
BRANCH  58  59
ATOM     59  N   UNL A   1      31.608  25.046  27.025  1.00  0.00    -0.352 N 
ATOM     60  C   UNL A   1      31.962  23.724  26.942  1.00  0.00     0.253 C 
ATOM     61  H   UNL A   1      30.816  25.239  27.576  1.00  0.00     0.163 HD
ATOM     62  O   UNL A   1      31.269  22.860  27.466  1.00  0.00    -0.269 OA
BRANCH  60  63
ATOM     63  C   UNL A   1      33.182  23.336  26.206  1.00  0.00     0.063 A 
ATOM     64  C   UNL A   1      34.368  23.321  26.952  1.00  0.00     0.016 A 
ATOM     65  C   UNL A   1      33.170  22.982  24.841  1.00  0.00     0.054 A 
ATOM     66  C   UNL A   1      35.555  22.902  26.359  1.00  0.00     0.014 A 
ATOM     67  C   UNL A   1      34.389  22.634  24.252  1.00  0.00     0.040 A 
ATOM     68  C   UNL A   1      35.574  22.540  25.007  1.00  0.00     0.058 A 
BRANCH  65  69
ATOM     69  N   UNL A   1      31.947  23.003  24.134  1.00  0.00    -0.320 N 
ATOM     70  C   UNL A   1      31.391  23.876  23.217  1.00  0.00     0.277 C 
ATOM     71  H   UNL A   1      31.367  22.233  24.337  1.00  0.00     0.170 HD
ATOM     72  O   UNL A   1      30.247  23.638  22.828  1.00  0.00    -0.267 OA
BRANCH  70  73
ATOM     73  C   UNL A   1      32.180  24.965  22.660  1.00  0.00     0.171 A 
ATOM     74  C   UNL A   1      32.196  26.337  23.036  1.00  0.00     0.079 A 
ATOM     75  N   UNL A   1      33.036  24.745  21.649  1.00  0.00    -0.075 NA
ATOM     76  C   UNL A   1      33.071  26.921  22.159  1.00  0.00     0.232 A 
ATOM     77  O   UNL A   1      33.579  25.976  21.333  1.00  0.00    -0.364 OA
ENDBRANCH  70  73
ENDBRANCH  65  69
BRANCH  68  78
ATOM     78  C   UNL A   1      36.857  22.054  24.371  1.00  0.00     0.416 C 
ATOM     79  F   UNL A   1      36.932  20.700  24.308  1.00  0.00    -0.166 F 
ATOM     80  F   UNL A   1      36.996  22.504  23.092  1.00  0.00    -0.166 F 
ATOM     81  F   UNL A   1      37.975  22.471  25.028  1.00  0.00    -0.166 F 
ENDBRANCH  68  78
ENDBRANCH  60  63
ENDBRANCH  58  59
ENDBRANCH  57  58
ENDBRANCH   1  57
TORSDOF 14
ENDMDL
MODEL 2
REMARK VINA RESULT:     -11.2      1.371      5.991
REMARK SMILES O=C(NCCCCNC(=O)c1ccc(C(F)(F)F)cc1NC(=O)c1ccon1)c1ccc(-c2c3nc(c(-c4ccccc4)c4ccc([nH]4)c(-c4ccccc4)c4nc(c(-c5ccccc5)c5ccc2[nH]5)C=C4)C=C3)cc1
REMARK SMILES IDX 5 1 4 2 3 3 1 4 2 5 29 7 30 8 76 9 31 10 75 11 32 12 33 13
REMARK SMILES IDX 34 14 69 15 35 16 74 17 68 18 70 19 36 20 73 21 67 22 66 23
REMARK SMILES IDX 37 25 59 26 44 27 58 28 45 29 48 30 57 31 71 32 46 33 47 34
REMARK SMILES IDX 56 36 72 37 49 38 38 39 39 40 43 41 40 42 42 43 41 44 60 45
REMARK SMILES IDX 61 46 65 47 62 48 64 49 63 50 50 51 51 52 55 53 52 54 54 55
REMARK SMILES IDX 53 56 6 57 7 58 8 59 9 60 10 62 11 63 12 64 20 65 13 66
REMARK SMILES IDX 19 67 14 68 21 69 22 70 23 72 24 73 25 74 28 75 26 76 27 77
REMARK SMILES IDX 15 78 16 79 17 80 18 81
REMARK H PARENT 3 6 70 24 48 35 8 61 21 71
REMARK Flexibility Score: inf
ROOT
ATOM      1  C   UNL A   1      31.960  28.309  27.595  1.00  0.00     0.023 C 
ENDROOT
BRANCH   1   2
ATOM      2  C   UNL A   1      33.326  28.921  27.312  1.00  0.00     0.116 C 
BRANCH   2   3
ATOM      3  N   UNL A   1      33.385  30.346  27.597  1.00  0.00    -0.352 N 
ATOM      4  O   UNL A   1      34.208  32.264  28.452  1.00  0.00    -0.269 OA
ATOM      5  C   UNL A   1      34.397  31.085  28.165  1.00  0.00     0.251 C 
ATOM      6  H   UNL A   1      32.582  30.857  27.346  1.00  0.00     0.163 HD
BRANCH   5   7
ATOM      7  C   UNL A   1      35.699  30.452  28.467  1.00  0.00     0.039 A 
ATOM      8  C   UNL A   1      35.902  29.771  29.668  1.00  0.00     0.014 A 
ATOM      9  C   UNL A   1      36.738  30.555  27.538  1.00  0.00     0.014 A 
ATOM     10  C   UNL A   1      37.182  29.356  30.017  1.00  0.00     0.010 A 
ATOM     11  C   UNL A   1      38.005  30.052  27.852  1.00  0.00     0.010 A 
ATOM     12  C   UNL A   1      38.250  29.492  29.114  1.00  0.00    -0.014 A 
BRANCH  12  13
ATOM     13  C   UNL A   1      39.599  29.014  29.512  1.00  0.00     0.031 A 
ATOM     14  C   UNL A   1      40.425  29.758  30.526  1.00  0.00     0.074 A 
ATOM     15  C   UNL A   1      40.061  27.861  28.988  1.00  0.00     0.049 A 
ATOM     16  N   UNL A   1      41.589  29.438  31.035  1.00  0.00    -0.248 NA
ATOM     17  C   UNL A   1      39.882  31.029  31.032  1.00  0.00     0.031 C 
ATOM     18  C   UNL A   1      39.358  27.047  27.993  1.00  0.00     0.029 A 
ATOM     19  N   UNL A   1      41.210  27.159  29.242  1.00  0.00    -0.354 N 
ATOM     20  C   UNL A   1      41.930  30.474  31.894  1.00  0.00     0.074 A 
ATOM     21  C   UNL A   1      40.859  31.446  31.827  1.00  0.00     0.031 C 
ATOM     22  C   UNL A   1      40.057  25.923  27.776  1.00  0.00     0.029 A 
ATOM     23  C   UNL A   1      41.281  25.965  28.565  1.00  0.00     0.049 A 
ATOM     24  H   UNL A   1      41.915  27.477  29.851  1.00  0.00     0.167 HD
ATOM     25  C   UNL A   1      43.032  30.605  32.673  1.00  0.00     0.031 A 
ATOM     26  C   UNL A   1      42.227  25.009  28.575  1.00  0.00     0.031 A 
ATOM     27  C   UNL A   1      44.092  29.636  32.754  1.00  0.00     0.049 A 
ATOM     28  C   UNL A   1      43.442  25.187  29.434  1.00  0.00     0.074 A 
ATOM     29  C   UNL A   1      45.227  29.662  33.547  1.00  0.00     0.029 A 
ATOM     30  N   UNL A   1      44.151  28.465  32.012  1.00  0.00    -0.354 N 
ATOM     31  N   UNL A   1      43.729  26.158  30.266  1.00  0.00    -0.248 NA
ATOM     32  C   UNL A   1      44.465  24.136  29.353  1.00  0.00     0.031 C 
ATOM     33  C   UNL A   1      45.994  28.529  33.252  1.00  0.00     0.029 A 
ATOM     34  C   UNL A   1      45.314  27.774  32.311  1.00  0.00     0.049 A 
ATOM     35  H   UNL A   1      43.466  28.169  31.370  1.00  0.00     0.167 HD
ATOM     36  C   UNL A   1      44.958  25.828  30.820  1.00  0.00     0.074 A 
ATOM     37  C   UNL A   1      45.352  24.558  30.243  1.00  0.00     0.031 C 
ATOM     38  C   UNL A   1      45.696  26.518  31.722  1.00  0.00     0.031 A 
BRANCH  25  39
ATOM     39  C   UNL A   1      43.163  31.866  33.483  1.00  0.00    -0.014 A 
ATOM     40  C   UNL A   1      43.792  33.008  32.963  1.00  0.00     0.009 A 
ATOM     41  C   UNL A   1      42.611  31.923  34.772  1.00  0.00     0.009 A 
ATOM     42  C   UNL A   1      43.892  34.172  33.731  1.00  0.00     0.001 A 
ATOM     43  C   UNL A   1      42.691  33.093  35.529  1.00  0.00     0.001 A 
ATOM     44  C   UNL A   1      43.339  34.213  35.012  1.00  0.00     0.000 A 
ENDBRANCH  25  39
BRANCH  26  45
ATOM     45  C   UNL A   1      42.051  23.792  27.743  1.00  0.00    -0.014 A 
ATOM     46  C   UNL A   1      42.570  23.742  26.440  1.00  0.00     0.009 A 
ATOM     47  C   UNL A   1      41.382  22.669  28.254  1.00  0.00     0.009 A 
ATOM     48  C   UNL A   1      42.406  22.595  25.661  1.00  0.00     0.001 A 
ATOM     49  C   UNL A   1      41.244  21.515  27.481  1.00  0.00     0.001 A 
ATOM     50  C   UNL A   1      41.750  21.482  26.183  1.00  0.00     0.000 A 
ENDBRANCH  26  45
BRANCH  38  51
ATOM     51  C   UNL A   1      46.991  25.895  32.157  1.00  0.00    -0.014 A 
ATOM     52  C   UNL A   1      48.172  26.092  31.423  1.00  0.00     0.009 A 
ATOM     53  C   UNL A   1      47.032  25.111  33.319  1.00  0.00     0.009 A 
ATOM     54  C   UNL A   1      49.362  25.485  31.829  1.00  0.00     0.001 A 
ATOM     55  C   UNL A   1      48.228  24.526  33.735  1.00  0.00     0.001 A 
ATOM     56  C   UNL A   1      49.390  24.705  32.985  1.00  0.00     0.000 A 
ENDBRANCH  38  51
ENDBRANCH  12  13
ENDBRANCH   5   7
ENDBRANCH   2   3
ENDBRANCH   1   2
BRANCH   1  57
ATOM     57  C   UNL A   1      31.396  27.418  26.489  1.00  0.00     0.023 C 
BRANCH  57  58
ATOM     58  C   UNL A   1      32.165  26.125  26.234  1.00  0.00     0.116 C 
BRANCH  58  59
ATOM     59  N   UNL A   1      31.620  24.988  26.958  1.00  0.00    -0.352 N 
ATOM     60  C   UNL A   1      32.037  23.682  26.956  1.00  0.00     0.253 C 
ATOM     61  H   UNL A   1      30.842  25.183  27.529  1.00  0.00     0.163 HD
ATOM     62  O   UNL A   1      31.411  22.827  27.572  1.00  0.00    -0.269 OA
BRANCH  60  63
ATOM     63  C   UNL A   1      33.243  23.299  26.196  1.00  0.00     0.063 A 
ATOM     64  C   UNL A   1      34.442  23.270  26.923  1.00  0.00     0.016 A 
ATOM     65  C   UNL A   1      33.208  22.960  24.827  1.00  0.00     0.054 A 
ATOM     66  C   UNL A   1      35.618  22.855  26.306  1.00  0.00     0.014 A 
ATOM     67  C   UNL A   1      34.417  22.615  24.214  1.00  0.00     0.040 A 
ATOM     68  C   UNL A   1      35.614  22.509  24.949  1.00  0.00     0.058 A 
BRANCH  65  69
ATOM     69  N   UNL A   1      31.974  22.994  24.140  1.00  0.00    -0.320 N 
ATOM     70  C   UNL A   1      31.414  23.870  23.229  1.00  0.00     0.277 C 
ATOM     71  H   UNL A   1      31.389  22.232  24.356  1.00  0.00     0.170 HD
ATOM     72  O   UNL A   1      30.261  23.645  22.860  1.00  0.00    -0.267 OA
BRANCH  70  73
ATOM     73  C   UNL A   1      32.207  24.948  22.655  1.00  0.00     0.171 A 
ATOM     74  C   UNL A   1      32.180  26.336  22.964  1.00  0.00     0.079 A 
ATOM     75  N   UNL A   1      33.113  24.697  21.695  1.00  0.00    -0.075 NA
ATOM     76  C   UNL A   1      33.083  26.895  22.099  1.00  0.00     0.232 A 
ATOM     77  O   UNL A   1      33.646  25.923  21.344  1.00  0.00    -0.364 OA
ENDBRANCH  70  73
ENDBRANCH  65  69
BRANCH  68  78
ATOM     78  C   UNL A   1      36.884  22.026  24.287  1.00  0.00     0.416 C 
ATOM     79  F   UNL A   1      36.980  22.412  22.988  1.00  0.00    -0.166 F 
ATOM     80  F   UNL A   1      37.998  22.502  24.910  1.00  0.00    -0.166 F 
ATOM     81  F   UNL A   1      37.012  20.670  24.295  1.00  0.00    -0.166 F 
ENDBRANCH  68  78
ENDBRANCH  60  63
ENDBRANCH  58  59
ENDBRANCH  57  58
ENDBRANCH   1  57
TORSDOF 14
ENDMDL
MODEL 3
REMARK VINA RESULT:     -11.2      3.404      7.855
REMARK SMILES O=C(NCCCCNC(=O)c1ccc(C(F)(F)F)cc1NC(=O)c1ccon1)c1ccc(-c2c3nc(c(-c4ccccc4)c4ccc([nH]4)c(-c4ccccc4)c4nc(c(-c5ccccc5)c5ccc2[nH]5)C=C4)C=C3)cc1
REMARK SMILES IDX 5 1 4 2 3 3 1 4 2 5 29 7 30 8 76 9 31 10 75 11 32 12 33 13
REMARK SMILES IDX 34 14 69 15 35 16 74 17 68 18 70 19 36 20 73 21 67 22 66 23
REMARK SMILES IDX 37 25 59 26 44 27 58 28 45 29 48 30 57 31 71 32 46 33 47 34
REMARK SMILES IDX 56 36 72 37 49 38 38 39 39 40 43 41 40 42 42 43 41 44 60 45
REMARK SMILES IDX 61 46 65 47 62 48 64 49 63 50 50 51 51 52 55 53 52 54 54 55
REMARK SMILES IDX 53 56 6 57 7 58 8 59 9 60 10 62 11 63 12 64 20 65 13 66
REMARK SMILES IDX 19 67 14 68 21 69 22 70 23 72 24 73 25 74 28 75 26 76 27 77
REMARK SMILES IDX 15 78 16 79 17 80 18 81
REMARK H PARENT 3 6 70 24 48 35 8 61 21 71
REMARK Flexibility Score: inf
ROOT
ATOM      1  C   UNL A   1      35.710  22.940  25.028  1.00  0.00     0.023 C 
ENDROOT
BRANCH   1   2
ATOM      2  C   UNL A   1      37.094  23.572  24.941  1.00  0.00     0.116 C 
BRANCH   2   3
ATOM      3  N   UNL A   1      38.159  22.679  25.366  1.00  0.00    -0.352 N 
ATOM      4  O   UNL A   1      40.126  22.079  26.295  1.00  0.00    -0.269 OA
ATOM      5  C   UNL A   1      39.256  22.935  26.157  1.00  0.00     0.251 C 
ATOM      6  H   UNL A   1      38.084  21.753  25.041  1.00  0.00     0.163 HD
BRANCH   5   7
ATOM      7  C   UNL A   1      39.410  24.255  26.807  1.00  0.00     0.039 A 
ATOM      8  C   UNL A   1      40.095  25.290  26.171  1.00  0.00     0.014 A 
ATOM      9  C   UNL A   1      38.871  24.452  28.081  1.00  0.00     0.014 A 
ATOM     10  C   UNL A   1      40.398  26.451  26.874  1.00  0.00     0.010 A 
ATOM     11  C   UNL A   1      39.096  25.658  28.752  1.00  0.00     0.010 A 
ATOM     12  C   UNL A   1      39.902  26.649  28.174  1.00  0.00    -0.014 A 
BRANCH  12  13
ATOM     13  C   UNL A   1      40.225  27.912  28.887  1.00  0.00     0.031 A 
ATOM     14  C   UNL A   1      39.224  29.031  28.986  1.00  0.00     0.074 A 
ATOM     15  C   UNL A   1      41.421  28.026  29.498  1.00  0.00     0.049 A 
ATOM     16  N   UNL A   1      39.321  30.168  29.632  1.00  0.00    -0.248 NA
ATOM     17  C   UNL A   1      37.952  28.862  28.266  1.00  0.00     0.031 C 
ATOM     18  C   UNL A   1      42.479  27.014  29.474  1.00  0.00     0.029 A 
ATOM     19  N   UNL A   1      41.932  29.025  30.285  1.00  0.00    -0.354 N 
ATOM     20  C   UNL A   1      38.143  30.856  29.374  1.00  0.00     0.074 A 
ATOM     21  C   UNL A   1      37.350  30.021  28.498  1.00  0.00     0.031 C 
ATOM     22  C   UNL A   1      43.484  27.412  30.269  1.00  0.00     0.029 A 
ATOM     23  C   UNL A   1      43.168  28.729  30.807  1.00  0.00     0.049 A 
ATOM     24  H   UNL A   1      41.461  29.872  30.460  1.00  0.00     0.167 HD
ATOM     25  C   UNL A   1      37.753  32.073  29.828  1.00  0.00     0.031 A 
ATOM     26  C   UNL A   1      43.964  29.438  31.628  1.00  0.00     0.031 A 
ATOM     27  C   UNL A   1      38.531  32.901  30.711  1.00  0.00     0.049 A 
ATOM     28  C   UNL A   1      43.513  30.787  32.102  1.00  0.00     0.074 A 
ATOM     29  C   UNL A   1      38.199  34.129  31.258  1.00  0.00     0.029 A 
ATOM     30  N   UNL A   1      39.800  32.587  31.174  1.00  0.00    -0.354 N 
ATOM     31  N   UNL A   1      42.381  31.405  31.875  1.00  0.00    -0.248 NA
ATOM     32  C   UNL A   1      44.454  31.535  32.946  1.00  0.00     0.031 C 
ATOM     33  C   UNL A   1      39.286  34.579  32.017  1.00  0.00     0.029 A 
ATOM     34  C   UNL A   1      40.274  33.609  31.980  1.00  0.00     0.049 A 
ATOM     35  H   UNL A   1      40.289  31.760  30.962  1.00  0.00     0.167 HD
ATOM     36  C   UNL A   1      42.466  32.609  32.560  1.00  0.00     0.074 A 
ATOM     37  C   UNL A   1      43.753  32.624  33.226  1.00  0.00     0.031 C 
ATOM     38  C   UNL A   1      41.559  33.614  32.628  1.00  0.00     0.031 A 
BRANCH  25  39
ATOM     39  C   UNL A   1      36.427  32.599  29.350  1.00  0.00    -0.014 A 
ATOM     40  C   UNL A   1      35.248  32.389  30.082  1.00  0.00     0.009 A 
ATOM     41  C   UNL A   1      36.367  33.354  28.167  1.00  0.00     0.009 A 
ATOM     42  C   UNL A   1      34.030  32.898  29.622  1.00  0.00     0.001 A 
ATOM     43  C   UNL A   1      35.154  33.881  27.722  1.00  0.00     0.001 A 
ATOM     44  C   UNL A   1      33.985  33.646  28.445  1.00  0.00     0.000 A 
ENDBRANCH  25  39
BRANCH  26  45
ATOM     45  C   UNL A   1      45.269  28.875  32.055  1.00  0.00    -0.014 A 
ATOM     46  C   UNL A   1      45.360  28.100  33.221  1.00  0.00     0.009 A 
ATOM     47  C   UNL A   1      46.425  29.094  31.291  1.00  0.00     0.009 A 
ATOM     48  C   UNL A   1      46.588  27.568  33.620  1.00  0.00     0.001 A 
ATOM     49  C   UNL A   1      47.646  28.538  31.678  1.00  0.00     0.001 A 
ATOM     50  C   UNL A   1      47.727  27.783  32.846  1.00  0.00     0.000 A 
ENDBRANCH  26  45
BRANCH  38  51
ATOM     51  C   UNL A   1      41.925  34.800  33.473  1.00  0.00    -0.014 A 
ATOM     52  C   UNL A   1      42.692  35.854  32.951  1.00  0.00     0.009 A 
ATOM     53  C   UNL A   1      41.486  34.868  34.804  1.00  0.00     0.009 A 
ATOM     54  C   UNL A   1      43.041  36.937  33.760  1.00  0.00     0.001 A 
ATOM     55  C   UNL A   1      41.817  35.964  35.602  1.00  0.00     0.001 A 
ATOM     56  C   UNL A   1      42.602  36.992  35.082  1.00  0.00     0.000 A 
ENDBRANCH  38  51
ENDBRANCH  12  13
ENDBRANCH   5   7
ENDBRANCH   2   3
ENDBRANCH   1   2
BRANCH   1  57
ATOM     57  C   UNL A   1      34.892  23.313  26.263  1.00  0.00     0.023 C 
BRANCH  57  58
ATOM     58  C   UNL A   1      33.413  23.591  26.011  1.00  0.00     0.116 C 
BRANCH  58  59
ATOM     59  N   UNL A   1      33.124  23.906  24.620  1.00  0.00    -0.352 N 
ATOM     60  C   UNL A   1      32.816  25.117  24.055  1.00  0.00     0.253 C 
ATOM     61  H   UNL A   1      33.154  23.144  23.999  1.00  0.00     0.163 HD
ATOM     62  O   UNL A   1      32.523  25.193  22.867  1.00  0.00    -0.269 OA
BRANCH  60  63
ATOM     63  C   UNL A   1      32.824  26.337  24.886  1.00  0.00     0.063 A 
ATOM     64  C   UNL A   1      34.087  26.804  25.277  1.00  0.00     0.016 A 
ATOM     65  C   UNL A   1      31.645  27.016  25.257  1.00  0.00     0.054 A 
ATOM     66  C   UNL A   1      34.196  27.985  26.004  1.00  0.00     0.014 A 
ATOM     67  C   UNL A   1      31.779  28.161  26.048  1.00  0.00     0.040 A 
ATOM     68  C   UNL A   1      33.043  28.683  26.384  1.00  0.00     0.058 A 
BRANCH  65  69
ATOM     69  N   UNL A   1      30.396  26.513  24.830  1.00  0.00    -0.320 N 
ATOM     70  C   UNL A   1      29.408  27.000  23.994  1.00  0.00     0.277 C 
ATOM     71  H   UNL A   1      30.183  25.629  25.208  1.00  0.00     0.170 HD
ATOM     72  O   UNL A   1      28.381  26.329  23.879  1.00  0.00    -0.267 OA
BRANCH  70  73
ATOM     73  C   UNL A   1      29.633  28.201  23.203  1.00  0.00     0.171 A 
ATOM     74  C   UNL A   1      29.262  29.543  23.495  1.00  0.00     0.079 A 
ATOM     75  N   UNL A   1      30.266  28.135  22.020  1.00  0.00    -0.075 NA
ATOM     76  C   UNL A   1      29.668  30.255  22.398  1.00  0.00     0.232 A 
ATOM     77  O   UNL A   1      30.272  29.422  21.517  1.00  0.00    -0.364 OA
ENDBRANCH  70  73
ENDBRANCH  65  69
BRANCH  68  78
ATOM     78  C   UNL A   1      33.163  29.984  27.145  1.00  0.00     0.416 C 
ATOM     79  F   UNL A   1      31.966  30.443  27.593  1.00  0.00    -0.166 F 
ATOM     80  F   UNL A   1      33.960  29.862  28.244  1.00  0.00    -0.166 F 
ATOM     81  F   UNL A   1      33.709  30.990  26.408  1.00  0.00    -0.166 F 
ENDBRANCH  68  78
ENDBRANCH  60  63
ENDBRANCH  58  59
ENDBRANCH  57  58
ENDBRANCH   1  57
TORSDOF 14
ENDMDL
