MODEL 1
REMARK VINA RESULT:     -12.3      0.000      0.000
REMARK SMILES C[C@H]1CC[C@@](Nc2ccc(C(N)=O)nn2)(C(=O)NCCCCNC(=O)c2ccc(-c3c4nc(c(-c5ccccc5)c5ccc([nH]5)c(-c5ccccc5)c5nc(c(-c6ccccc6)c6ccc3[nH]6)C=C5)C=C4)cc2)CC1
REMARK SMILES IDX 20 1 19 2 18 3 16 4 17 5 5 7 1 8 2 9 75 10 3 11 74 12 4 13
REMARK SMILES IDX 6 14 7 16 8 17 15 18 9 19 14 20 10 21 11 22 12 23 13 24
REMARK SMILES IDX 21 27 22 28 23 29 24 30 25 32 26 33 27 34 73 35 28 36 72 37
REMARK SMILES IDX 29 38 30 39 31 40 66 41 32 42 71 43 65 44 67 45 33 46 70 47
REMARK SMILES IDX 64 48 63 49 34 51 56 52 41 53 55 54 42 55 45 56 54 57 68 58
REMARK SMILES IDX 43 59 44 60 53 62 69 63 46 64 35 65 36 66 40 67 37 68 39 69
REMARK SMILES IDX 38 70 57 71 58 72 62 73 59 74 61 75 60 76 47 77 48 78 52 79
REMARK SMILES IDX 49 80 51 81 50 82
REMARK H PARENT 18 6 6 15 12 25 12 26 23 31 67 50 45 61
REMARK Flexibility Score: inf
ROOT
ATOM      1  C   UNL A   1      36.837  21.082  24.434  1.00  0.00     0.023 C 
ENDROOT
BRANCH   1   2
ATOM      2  C   UNL A   1      36.567  22.274  25.343  1.00  0.00     0.116 C 
BRANCH   2   3
ATOM      3  N   UNL A   1      35.683  21.911  26.433  1.00  0.00    -0.354 N 
ATOM      4  C   UNL A   1      34.342  21.656  26.448  1.00  0.00     0.245 C 
ATOM      5  O   UNL A   1      33.889  21.234  27.517  1.00  0.00    -0.272 OA
ATOM      6  H   UNL A   1      36.123  21.837  27.311  1.00  0.00     0.163 HD
BRANCH   4   7
ATOM      7  C   UNL A   1      33.440  21.840  25.171  1.00  0.00     0.118 C 
ATOM      8  C   UNL A   1      32.236  25.875  26.457  1.00  0.00     0.007 C 
ATOM      9  C   UNL A   1      32.319  24.625  25.580  1.00  0.00    -0.014 C 
ATOM     10  C   UNL A   1      31.722  23.411  26.304  1.00  0.00     0.006 C 
ATOM     11  C   UNL A   1      33.766  24.377  25.157  1.00  0.00     0.006 C 
ATOM     12  C   UNL A   1      31.962  22.081  25.575  1.00  0.00     0.039 C 
ATOM     13  C   UNL A   1      33.889  23.083  24.358  1.00  0.00     0.039 C 
BRANCH   7  14
ATOM     14  N   UNL A   1      33.476  20.647  24.277  1.00  0.00    -0.354 N 
ATOM     15  H   UNL A   1      33.477  20.794  23.302  1.00  0.00     0.163 HD
BRANCH  14  16
ATOM     16  C   UNL A   1      33.507  19.346  24.742  1.00  0.00     0.149 A 
ATOM     17  C   UNL A   1      34.550  18.464  24.499  1.00  0.00     0.051 A 
ATOM     18  N   UNL A   1      32.385  18.906  25.358  1.00  0.00    -0.132 NA
ATOM     19  C   UNL A   1      34.385  17.107  24.776  1.00  0.00     0.040 A 
ATOM     20  N   UNL A   1      32.197  17.569  25.618  1.00  0.00    -0.143 NA
ATOM     21  C   UNL A   1      33.176  16.692  25.302  1.00  0.00     0.150 A 
BRANCH  21  22
ATOM     22  C   UNL A   1      32.861  15.245  25.457  1.00  0.00     0.269 C 
ATOM     23  N   UNL A   1      31.540  14.922  25.620  1.00  0.00    -0.364 N 
ATOM     24  O   UNL A   1      33.727  14.378  25.404  1.00  0.00    -0.268 OA
ATOM     25  H   UNL A   1      30.861  15.634  25.660  1.00  0.00     0.160 HD
ATOM     26  H   UNL A   1      31.269  13.979  25.699  1.00  0.00     0.160 HD
ENDBRANCH  21  22
ENDBRANCH  14  16
ENDBRANCH   7  14
ENDBRANCH   4   7
ENDBRANCH   2   3
ENDBRANCH   1   2
BRANCH   1  27
ATOM     27  C   UNL A   1      37.695  19.994  25.083  1.00  0.00     0.023 C 
BRANCH  27  28
ATOM     28  C   UNL A   1      39.003  20.486  25.694  1.00  0.00     0.116 C 
BRANCH  28  29
ATOM     29  N   UNL A   1      40.033  19.460  25.735  1.00  0.00    -0.352 N 
ATOM     30  C   UNL A   1      41.354  19.589  26.088  1.00  0.00     0.251 C 
ATOM     31  H   UNL A   1      39.746  18.555  25.475  1.00  0.00     0.163 HD
ATOM     32  O   UNL A   1      42.135  18.655  25.948  1.00  0.00    -0.269 OA
BRANCH  30  33
ATOM     33  C   UNL A   1      41.829  20.883  26.612  1.00  0.00     0.039 A 
ATOM     34  C   UNL A   1      42.304  21.843  25.714  1.00  0.00     0.014 A 
ATOM     35  C   UNL A   1      41.758  21.161  27.979  1.00  0.00     0.014 A 
ATOM     36  C   UNL A   1      42.645  23.111  26.184  1.00  0.00     0.010 A 
ATOM     37  C   UNL A   1      42.029  22.446  28.434  1.00  0.00     0.010 A 
ATOM     38  C   UNL A   1      42.474  23.433  27.541  1.00  0.00    -0.014 A 
BRANCH  38  39
ATOM     39  C   UNL A   1      42.753  24.800  28.047  1.00  0.00     0.031 A 
ATOM     40  C   UNL A   1      44.147  25.182  28.458  1.00  0.00     0.074 A 
ATOM     41  C   UNL A   1      41.739  25.674  28.200  1.00  0.00     0.049 A 
ATOM     42  N   UNL A   1      44.576  26.305  28.976  1.00  0.00    -0.248 NA
ATOM     43  C   UNL A   1      45.192  24.159  28.287  1.00  0.00     0.031 C 
ATOM     44  C   UNL A   1      40.335  25.412  27.878  1.00  0.00     0.029 A 
ATOM     45  N   UNL A   1      41.737  26.962  28.674  1.00  0.00    -0.354 N 
ATOM     46  C   UNL A   1      45.933  26.117  29.208  1.00  0.00     0.074 A 
ATOM     47  C   UNL A   1      46.245  24.758  28.823  1.00  0.00     0.031 C 
ATOM     48  C   UNL A   1      39.612  26.513  28.138  1.00  0.00     0.029 A 
ATOM     49  C   UNL A   1      40.492  27.543  28.680  1.00  0.00     0.049 A 
ATOM     50  H   UNL A   1      42.549  27.425  28.980  1.00  0.00     0.167 HD
ATOM     51  C   UNL A   1      46.841  27.001  29.683  1.00  0.00     0.031 A 
ATOM     52  C   UNL A   1      40.102  28.767  29.085  1.00  0.00     0.031 A 
ATOM     53  C   UNL A   1      46.534  28.354  30.058  1.00  0.00     0.049 A 
ATOM     54  C   UNL A   1      41.128  29.725  29.620  1.00  0.00     0.074 A 
ATOM     55  C   UNL A   1      47.396  29.345  30.495  1.00  0.00     0.029 A 
ATOM     56  N   UNL A   1      45.263  28.907  30.043  1.00  0.00    -0.354 N 
ATOM     57  N   UNL A   1      42.420  29.556  29.767  1.00  0.00    -0.248 NA
ATOM     58  C   UNL A   1      40.642  31.049  30.035  1.00  0.00     0.031 C 
ATOM     59  C   UNL A   1      46.638  30.482  30.792  1.00  0.00     0.029 A 
ATOM     60  C   UNL A   1      45.312  30.217  30.486  1.00  0.00     0.049 A 
ATOM     61  H   UNL A   1      44.445  28.436  29.759  1.00  0.00     0.167 HD
ATOM     62  C   UNL A   1      42.904  30.759  30.263  1.00  0.00     0.074 A 
ATOM     63  C   UNL A   1      41.771  31.654  30.378  1.00  0.00     0.031 C 
ATOM     64  C   UNL A   1      44.176  31.093  30.594  1.00  0.00     0.031 A 
BRANCH  51  65
ATOM     65  C   UNL A   1      48.259  26.522  29.826  1.00  0.00    -0.014 A 
ATOM     66  C   UNL A   1      49.196  26.702  28.795  1.00  0.00     0.009 A 
ATOM     67  C   UNL A   1      48.673  25.910  31.019  1.00  0.00     0.009 A 
ATOM     68  C   UNL A   1      50.506  26.243  28.941  1.00  0.00     0.001 A 
ATOM     69  C   UNL A   1      49.992  25.479  31.173  1.00  0.00     0.001 A 
ATOM     70  C   UNL A   1      50.904  25.636  30.131  1.00  0.00     0.000 A 
ENDBRANCH  51  65
BRANCH  52  71
ATOM     71  C   UNL A   1      38.673  29.166  28.982  1.00  0.00    -0.014 A 
ATOM     72  C   UNL A   1      38.163  29.677  27.780  1.00  0.00     0.009 A 
ATOM     73  C   UNL A   1      37.816  29.046  30.087  1.00  0.00     0.009 A 
ATOM     74  C   UNL A   1      36.831  30.087  27.693  1.00  0.00     0.001 A 
ATOM     75  C   UNL A   1      36.477  29.429  29.989  1.00  0.00     0.001 A 
ATOM     76  C   UNL A   1      35.988  29.958  28.796  1.00  0.00     0.000 A 
ENDBRANCH  52  71
BRANCH  64  77
ATOM     77  C   UNL A   1      44.415  32.497  31.077  1.00  0.00    -0.014 A 
ATOM     78  C   UNL A   1      44.630  33.551  30.177  1.00  0.00     0.009 A 
ATOM     79  C   UNL A   1      44.384  32.771  32.454  1.00  0.00     0.009 A 
ATOM     80  C   UNL A   1      44.841  34.848  30.648  1.00  0.00     0.001 A 
ATOM     81  C   UNL A   1      44.566  34.073  32.920  1.00  0.00     0.001 A 
ATOM     82  C   UNL A   1      44.803  35.108  32.019  1.00  0.00     0.000 A 
ENDBRANCH  64  77
ENDBRANCH  38  39
ENDBRANCH  30  33
ENDBRANCH  28  29
ENDBRANCH  27  28
ENDBRANCH   1  27
TORSDOF 14
ENDMDL
MODEL 2
REMARK VINA RESULT:     -12.1      0.532      5.970
REMARK SMILES C[C@H]1CC[C@@](Nc2ccc(C(N)=O)nn2)(C(=O)NCCCCNC(=O)c2ccc(-c3c4nc(c(-c5ccccc5)c5ccc([nH]5)c(-c5ccccc5)c5nc(c(-c6ccccc6)c6ccc3[nH]6)C=C5)C=C4)cc2)CC1
REMARK SMILES IDX 20 1 19 2 18 3 16 4 17 5 5 7 1 8 2 9 75 10 3 11 74 12 4 13
REMARK SMILES IDX 6 14 7 16 8 17 15 18 9 19 14 20 10 21 11 22 12 23 13 24
REMARK SMILES IDX 21 27 22 28 23 29 24 30 25 32 26 33 27 34 73 35 28 36 72 37
REMARK SMILES IDX 29 38 30 39 31 40 66 41 32 42 71 43 65 44 67 45 33 46 70 47
REMARK SMILES IDX 64 48 63 49 34 51 56 52 41 53 55 54 42 55 45 56 54 57 68 58
REMARK SMILES IDX 43 59 44 60 53 62 69 63 46 64 35 65 36 66 40 67 37 68 39 69
REMARK SMILES IDX 38 70 57 71 58 72 62 73 59 74 61 75 60 76 47 77 48 78 52 79
REMARK SMILES IDX 49 80 51 81 50 82
REMARK H PARENT 18 6 6 15 12 25 12 26 23 31 67 50 45 61
REMARK Flexibility Score: inf
ROOT
ATOM      1  C   UNL A   1      37.949  21.450  25.057  1.00  0.00     0.023 C 
ENDROOT
BRANCH   1   2
ATOM      2  C   UNL A   1      36.455  21.477  24.759  1.00  0.00     0.116 C 
BRANCH   2   3
ATOM      3  N   UNL A   1      35.677  21.464  25.982  1.00  0.00    -0.354 N 
ATOM      4  C   UNL A   1      34.330  21.543  26.183  1.00  0.00     0.245 C 
ATOM      5  O   UNL A   1      33.949  21.366  27.345  1.00  0.00    -0.272 OA
ATOM      6  H   UNL A   1      36.210  21.385  26.807  1.00  0.00     0.163 HD
BRANCH   4   7
ATOM      7  C   UNL A   1      33.320  21.794  25.002  1.00  0.00     0.118 C 
ATOM      8  C   UNL A   1      32.770  25.993  26.205  1.00  0.00     0.007 C 
ATOM      9  C   UNL A   1      32.601  24.712  25.388  1.00  0.00    -0.014 C 
ATOM     10  C   UNL A   1      31.944  23.611  26.231  1.00  0.00     0.006 C 
ATOM     11  C   UNL A   1      33.950  24.266  24.826  1.00  0.00     0.006 C 
ATOM     12  C   UNL A   1      31.937  22.235  25.548  1.00  0.00     0.039 C 
ATOM     13  C   UNL A   1      33.824  22.939  24.085  1.00  0.00     0.039 C 
BRANCH   7  14
ATOM     14  N   UNL A   1      33.109  20.574  24.169  1.00  0.00    -0.354 N 
ATOM     15  H   UNL A   1      32.858  20.691  23.224  1.00  0.00     0.163 HD
BRANCH  14  16
ATOM     16  C   UNL A   1      33.246  19.287  24.654  1.00  0.00     0.149 A 
ATOM     17  C   UNL A   1      34.329  18.467  24.371  1.00  0.00     0.051 A 
ATOM     18  N   UNL A   1      32.188  18.790  25.336  1.00  0.00    -0.132 NA
ATOM     19  C   UNL A   1      34.265  17.109  24.678  1.00  0.00     0.040 A 
ATOM     20  N   UNL A   1      32.099  17.449  25.628  1.00  0.00    -0.143 NA
ATOM     21  C   UNL A   1      33.115  16.630  25.275  1.00  0.00     0.150 A 
BRANCH  21  22
ATOM     22  C   UNL A   1      32.901  15.169  25.470  1.00  0.00     0.269 C 
ATOM     23  N   UNL A   1      31.604  14.759  25.636  1.00  0.00    -0.364 N 
ATOM     24  O   UNL A   1      33.825  14.364  25.448  1.00  0.00    -0.268 OA
ATOM     25  H   UNL A   1      30.876  15.422  25.651  1.00  0.00     0.160 HD
ATOM     26  H   UNL A   1      31.399  13.802  25.741  1.00  0.00     0.160 HD
ENDBRANCH  21  22
ENDBRANCH  14  16
ENDBRANCH   7  14
ENDBRANCH   4   7
ENDBRANCH   2   3
ENDBRANCH   1   2
BRANCH   1  27
ATOM     27  C   UNL A   1      38.567  20.053  24.990  1.00  0.00     0.023 C 
BRANCH  27  28
ATOM     28  C   UNL A   1      39.382  19.651  26.215  1.00  0.00     0.116 C 
BRANCH  28  29
ATOM     29  N   UNL A   1      40.655  19.035  25.874  1.00  0.00    -0.352 N 
ATOM     30  C   UNL A   1      41.910  19.592  25.904  1.00  0.00     0.251 C 
ATOM     31  H   UNL A   1      40.611  18.094  25.585  1.00  0.00     0.163 HD
ATOM     32  O   UNL A   1      42.878  18.984  25.462  1.00  0.00    -0.269 OA
BRANCH  30  33
ATOM     33  C   UNL A   1      42.073  20.953  26.449  1.00  0.00     0.039 A 
ATOM     34  C   UNL A   1      42.073  21.132  27.834  1.00  0.00     0.014 A 
ATOM     35  C   UNL A   1      42.274  22.037  25.590  1.00  0.00     0.014 A 
ATOM     36  C   UNL A   1      42.344  22.394  28.362  1.00  0.00     0.010 A 
ATOM     37  C   UNL A   1      42.615  23.277  26.119  1.00  0.00     0.010 A 
ATOM     38  C   UNL A   1      42.654  23.467  27.508  1.00  0.00    -0.014 A 
BRANCH  38  39
ATOM     39  C   UNL A   1      43.025  24.797  28.051  1.00  0.00     0.031 A 
ATOM     40  C   UNL A   1      41.966  25.835  28.295  1.00  0.00     0.074 A 
ATOM     41  C   UNL A   1      44.323  25.094  28.260  1.00  0.00     0.049 A 
ATOM     42  N   UNL A   1      42.099  27.069  28.709  1.00  0.00    -0.248 NA
ATOM     43  C   UNL A   1      40.575  25.440  28.014  1.00  0.00     0.031 C 
ATOM     44  C   UNL A   1      45.451  24.190  28.022  1.00  0.00     0.029 A 
ATOM     45  N   UNL A   1      44.912  26.247  28.714  1.00  0.00    -0.354 N 
ATOM     46  C   UNL A   1      40.817  27.602  28.720  1.00  0.00     0.074 A 
ATOM     47  C   UNL A   1      39.926  26.576  28.225  1.00  0.00     0.031 C 
ATOM     48  C   UNL A   1      46.591  24.813  28.359  1.00  0.00     0.029 A 
ATOM     49  C   UNL A   1      46.281  26.170  28.797  1.00  0.00     0.049 A 
ATOM     50  H   UNL A   1      44.402  27.053  28.958  1.00  0.00     0.167 HD
ATOM     51  C   UNL A   1      40.413  28.829  29.123  1.00  0.00     0.031 A 
ATOM     52  C   UNL A   1      47.186  27.092  29.177  1.00  0.00     0.031 A 
ATOM     53  C   UNL A   1      41.295  29.847  29.624  1.00  0.00     0.049 A 
ATOM     54  C   UNL A   1      46.713  28.452  29.607  1.00  0.00     0.074 A 
ATOM     55  C   UNL A   1      40.976  31.103  30.112  1.00  0.00     0.029 A 
ATOM     56  N   UNL A   1      42.675  29.728  29.699  1.00  0.00    -0.354 N 
ATOM     57  N   UNL A   1      45.489  28.917  29.679  1.00  0.00    -0.248 NA
ATOM     58  C   UNL A   1      47.748  29.411  30.021  1.00  0.00     0.031 C 
ATOM     59  C   UNL A   1      42.166  31.761  30.436  1.00  0.00     0.029 A 
ATOM     60  C   UNL A   1      43.223  30.895  30.202  1.00  0.00     0.049 A 
ATOM     61  H   UNL A   1      43.188  28.930  29.433  1.00  0.00     0.167 HD
ATOM     62  C   UNL A   1      45.605  30.210  30.172  1.00  0.00     0.074 A 
ATOM     63  C   UNL A   1      47.015  30.451  30.395  1.00  0.00     0.031 C 
ATOM     64  C   UNL A   1      44.628  31.118  30.418  1.00  0.00     0.031 A 
BRANCH  51  65
ATOM     65  C   UNL A   1      38.944  29.136  29.032  1.00  0.00    -0.014 A 
ATOM     66  C   UNL A   1      38.092  28.955  30.134  1.00  0.00     0.009 A 
ATOM     67  C   UNL A   1      38.409  29.641  27.837  1.00  0.00     0.009 A 
ATOM     68  C   UNL A   1      36.729  29.237  30.030  1.00  0.00     0.001 A 
ATOM     69  C   UNL A   1      37.050  29.950  27.745  1.00  0.00     0.001 A 
ATOM     70  C   UNL A   1      36.210  29.738  28.837  1.00  0.00     0.000 A 
ENDBRANCH  51  65
BRANCH  52  71
ATOM     71  C   UNL A   1      48.634  26.756  29.185  1.00  0.00    -0.014 A 
ATOM     72  C   UNL A   1      49.251  26.303  30.360  1.00  0.00     0.009 A 
ATOM     73  C   UNL A   1      49.407  26.894  28.022  1.00  0.00     0.009 A 
ATOM     74  C   UNL A   1      50.619  26.023  30.379  1.00  0.00     0.001 A 
ATOM     75  C   UNL A   1      50.769  26.585  28.036  1.00  0.00     0.001 A 
ATOM     76  C   UNL A   1      51.376  26.160  29.216  1.00  0.00     0.000 A 
ENDBRANCH  52  71
BRANCH  64  77
ATOM     77  C   UNL A   1      45.049  32.442  30.992  1.00  0.00    -0.014 A 
ATOM     78  C   UNL A   1      45.343  33.536  30.164  1.00  0.00     0.009 A 
ATOM     79  C   UNL A   1      45.114  32.604  32.385  1.00  0.00     0.009 A 
ATOM     80  C   UNL A   1      45.723  34.758  30.720  1.00  0.00     0.001 A 
ATOM     81  C   UNL A   1      45.466  33.836  32.939  1.00  0.00     0.001 A 
ATOM     82  C   UNL A   1      45.780  34.908  32.106  1.00  0.00     0.000 A 
ENDBRANCH  64  77
ENDBRANCH  38  39
ENDBRANCH  30  33
ENDBRANCH  28  29
ENDBRANCH  27  28
ENDBRANCH   1  27
TORSDOF 14
ENDMDL
MODEL 3
REMARK VINA RESULT:     -12.0      5.743     10.633
REMARK SMILES C[C@H]1CC[C@@](Nc2ccc(C(N)=O)nn2)(C(=O)NCCCCNC(=O)c2ccc(-c3c4nc(c(-c5ccccc5)c5ccc([nH]5)c(-c5ccccc5)c5nc(c(-c6ccccc6)c6ccc3[nH]6)C=C5)C=C4)cc2)CC1
REMARK SMILES IDX 20 1 19 2 18 3 16 4 17 5 5 7 1 8 2 9 75 10 3 11 74 12 4 13
REMARK SMILES IDX 6 14 7 16 8 17 15 18 9 19 14 20 10 21 11 22 12 23 13 24
REMARK SMILES IDX 21 27 22 28 23 29 24 30 25 32 26 33 27 34 73 35 28 36 72 37
REMARK SMILES IDX 29 38 30 39 31 40 66 41 32 42 71 43 65 44 67 45 33 46 70 47
REMARK SMILES IDX 64 48 63 49 34 51 56 52 41 53 55 54 42 55 45 56 54 57 68 58
REMARK SMILES IDX 43 59 44 60 53 62 69 63 46 64 35 65 36 66 40 67 37 68 39 69
REMARK SMILES IDX 38 70 57 71 58 72 62 73 59 74 61 75 60 76 47 77 48 78 52 79
REMARK SMILES IDX 49 80 51 81 50 82
REMARK H PARENT 18 6 6 15 12 25 12 26 23 31 67 50 45 61
REMARK Flexibility Score: inf
ROOT
ATOM      1  C   UNL A   1      31.524  30.976  26.050  1.00  0.00     0.023 C 
ENDROOT
BRANCH   1   2
ATOM      2  C   UNL A   1      32.600  29.899  25.991  1.00  0.00     0.116 C 
BRANCH   2   3
ATOM      3  N   UNL A   1      33.069  29.702  24.634  1.00  0.00    -0.354 N 
ATOM      4  C   UNL A   1      32.665  28.827  23.668  1.00  0.00     0.245 C 
ATOM      5  O   UNL A   1      33.168  28.990  22.551  1.00  0.00    -0.272 OA
ATOM      6  H   UNL A   1      33.804  30.299  24.363  1.00  0.00     0.163 HD
BRANCH   4   7
ATOM      7  C   UNL A   1      31.589  27.712  23.946  1.00  0.00     0.118 C 
ATOM      8  C   UNL A   1      34.717  24.669  24.526  1.00  0.00     0.007 C 
ATOM      9  C   UNL A   1      33.314  25.271  24.445  1.00  0.00    -0.014 C 
ATOM     10  C   UNL A   1      33.012  25.756  23.020  1.00  0.00     0.006 C 
ATOM     11  C   UNL A   1      33.167  26.396  25.469  1.00  0.00     0.006 C 
ATOM     12  C   UNL A   1      31.710  26.564  22.909  1.00  0.00     0.039 C 
ATOM     13  C   UNL A   1      31.807  27.076  25.344  1.00  0.00     0.039 C 
BRANCH   7  14
ATOM     14  N   UNL A   1      30.195  28.240  23.874  1.00  0.00    -0.354 N 
ATOM     15  H   UNL A   1      29.481  27.736  24.329  1.00  0.00     0.163 HD
BRANCH  14  16
ATOM     16  C   UNL A   1      29.853  29.399  23.204  1.00  0.00     0.149 A 
ATOM     17  C   UNL A   1      29.428  30.559  23.835  1.00  0.00     0.051 A 
ATOM     18  N   UNL A   1      29.825  29.321  21.853  1.00  0.00    -0.132 NA
ATOM     19  C   UNL A   1      28.856  31.584  23.083  1.00  0.00     0.040 A 
ATOM     20  N   UNL A   1      29.245  30.313  21.098  1.00  0.00    -0.143 NA
ATOM     21  C   UNL A   1      28.748  31.407  21.717  1.00  0.00     0.150 A 
BRANCH  21  22
ATOM     22  C   UNL A   1      27.993  32.375  20.873  1.00  0.00     0.269 C 
ATOM     23  N   UNL A   1      27.656  31.953  19.614  1.00  0.00    -0.364 N 
ATOM     24  O   UNL A   1      27.653  33.477  21.287  1.00  0.00    -0.268 OA
ATOM     25  H   UNL A   1      27.939  31.062  19.301  1.00  0.00     0.160 HD
ATOM     26  H   UNL A   1      27.132  32.538  19.022  1.00  0.00     0.160 HD
ENDBRANCH  21  22
ENDBRANCH  14  16
ENDBRANCH   7  14
ENDBRANCH   4   7
ENDBRANCH   2   3
ENDBRANCH   1   2
BRANCH   1  27
ATOM     27  C   UNL A   1      31.660  31.920  27.245  1.00  0.00     0.023 C 
BRANCH  27  28
ATOM     28  C   UNL A   1      32.823  32.903  27.159  1.00  0.00     0.116 C 
BRANCH  28  29
ATOM     29  N   UNL A   1      32.478  34.236  27.630  1.00  0.00    -0.352 N 
ATOM     30  C   UNL A   1      33.035  34.947  28.664  1.00  0.00     0.251 C 
ATOM     31  H   UNL A   1      31.749  34.686  27.144  1.00  0.00     0.163 HD
ATOM     32  O   UNL A   1      32.548  36.012  29.027  1.00  0.00    -0.269 OA
BRANCH  30  33
ATOM     33  C   UNL A   1      34.215  34.395  29.356  1.00  0.00     0.039 A 
ATOM     34  C   UNL A   1      34.026  33.642  30.517  1.00  0.00     0.014 A 
ATOM     35  C   UNL A   1      35.495  34.582  28.827  1.00  0.00     0.014 A 
ATOM     36  C   UNL A   1      35.122  33.017  31.114  1.00  0.00     0.010 A 
ATOM     37  C   UNL A   1      36.572  33.899  29.381  1.00  0.00     0.010 A 
ATOM     38  C   UNL A   1      36.396  33.110  30.528  1.00  0.00    -0.014 A 
BRANCH  38  39
ATOM     39  C   UNL A   1      37.558  32.387  31.099  1.00  0.00     0.031 A 
ATOM     40  C   UNL A   1      38.201  32.874  32.367  1.00  0.00     0.074 A 
ATOM     41  C   UNL A   1      38.077  31.332  30.441  1.00  0.00     0.049 A 
ATOM     42  N   UNL A   1      39.256  32.412  32.988  1.00  0.00    -0.248 NA
ATOM     43  C   UNL A   1      37.592  34.051  33.009  1.00  0.00     0.031 C 
ATOM     44  C   UNL A   1      37.572  30.785  29.179  1.00  0.00     0.029 A 
ATOM     45  N   UNL A   1      39.152  30.534  30.741  1.00  0.00    -0.354 N 
ATOM     46  C   UNL A   1      39.447  33.250  34.079  1.00  0.00     0.074 A 
ATOM     47  C   UNL A   1      38.431  34.277  34.009  1.00  0.00     0.031 C 
ATOM     48  C   UNL A   1      38.318  29.726  28.830  1.00  0.00     0.029 A 
ATOM     49  C   UNL A   1      39.377  29.543  29.817  1.00  0.00     0.049 A 
ATOM     50  H   UNL A   1      39.708  30.659  31.543  1.00  0.00     0.167 HD
ATOM     51  C   UNL A   1      40.373  33.163  35.063  1.00  0.00     0.031 A 
ATOM     52  C   UNL A   1      40.334  28.596  29.768  1.00  0.00     0.031 A 
ATOM     53  C   UNL A   1      41.378  32.138  35.139  1.00  0.00     0.049 A 
ATOM     54  C   UNL A   1      41.358  28.529  30.864  1.00  0.00     0.074 A 
ATOM     55  C   UNL A   1      42.326  31.931  36.126  1.00  0.00     0.029 A 
ATOM     56  N   UNL A   1      41.569  31.148  34.187  1.00  0.00    -0.354 N 
ATOM     57  N   UNL A   1      41.482  29.286  31.927  1.00  0.00    -0.248 NA
ATOM     58  C   UNL A   1      42.369  27.467  30.759  1.00  0.00     0.031 C 
ATOM     59  C   UNL A   1      43.121  30.844  35.747  1.00  0.00     0.029 A 
ATOM     60  C   UNL A   1      42.633  30.341  34.551  1.00  0.00     0.049 A 
ATOM     61  H   UNL A   1      41.027  31.036  33.372  1.00  0.00     0.167 HD
ATOM     62  C   UNL A   1      42.565  28.775  32.631  1.00  0.00     0.074 A 
ATOM     63  C   UNL A   1      43.053  27.636  31.883  1.00  0.00     0.031 C 
ATOM     64  C   UNL A   1      43.106  29.212  33.795  1.00  0.00     0.031 A 
BRANCH  51  65
ATOM     65  C   UNL A   1      40.341  34.215  36.136  1.00  0.00    -0.014 A 
ATOM     66  C   UNL A   1      41.013  35.438  35.978  1.00  0.00     0.009 A 
ATOM     67  C   UNL A   1      39.603  33.993  37.309  1.00  0.00     0.009 A 
ATOM     68  C   UNL A   1      40.980  36.400  36.989  1.00  0.00     0.001 A 
ATOM     69  C   UNL A   1      39.548  34.970  38.306  1.00  0.00     0.001 A 
ATOM     70  C   UNL A   1      40.244  36.167  38.149  1.00  0.00     0.000 A 
ENDBRANCH  51  65
BRANCH  52  71
ATOM     71  C   UNL A   1      40.358  27.620  28.646  1.00  0.00    -0.014 A 
ATOM     72  C   UNL A   1      39.656  26.410  28.743  1.00  0.00     0.009 A 
ATOM     73  C   UNL A   1      41.091  27.889  27.479  1.00  0.00     0.009 A 
ATOM     74  C   UNL A   1      39.708  25.476  27.706  1.00  0.00     0.001 A 
ATOM     75  C   UNL A   1      41.118  26.966  26.432  1.00  0.00     0.001 A 
ATOM     76  C   UNL A   1      40.436  25.756  26.550  1.00  0.00     0.000 A 
ENDBRANCH  52  71
BRANCH  64  77
ATOM     77  C   UNL A   1      44.265  28.432  34.349  1.00  0.00    -0.014 A 
ATOM     78  C   UNL A   1      44.073  27.407  35.288  1.00  0.00     0.009 A 
ATOM     79  C   UNL A   1      45.565  28.704  33.893  1.00  0.00     0.009 A 
ATOM     80  C   UNL A   1      45.164  26.690  35.782  1.00  0.00     0.001 A 
ATOM     81  C   UNL A   1      46.650  27.965  34.367  1.00  0.00     0.001 A 
ATOM     82  C   UNL A   1      46.450  26.967  35.317  1.00  0.00     0.000 A 
ENDBRANCH  64  77
ENDBRANCH  38  39
ENDBRANCH  30  33
ENDBRANCH  28  29
ENDBRANCH  27  28
ENDBRANCH   1  27
TORSDOF 14
ENDMDL
