MODEL 1
REMARK VINA RESULT:     -11.6      0.000      0.000
REMARK SMILES O=C(NCCCCNC(=O)[C@@H]1CN(c2ncccn2)CCN1C(=O)C1CCOCC1)c1ccc(-c2c3nc(c(-c4ccccc4)c4ccc([nH]4)c(-c4ccccc4)c4nc(c(-c5ccccc5)c5ccc2[nH]5)C=C4)C=C3)cc1
REMARK SMILES IDX 5 1 4 2 3 3 1 4 2 5 31 7 32 8 78 9 33 10 77 11 34 12 35 13
REMARK SMILES IDX 36 14 71 15 37 16 76 17 70 18 72 19 38 20 75 21 69 22 68 23
REMARK SMILES IDX 39 25 61 26 46 27 60 28 47 29 50 30 59 31 73 32 48 33 49 34
REMARK SMILES IDX 58 36 74 37 51 38 40 39 41 40 45 41 42 42 44 43 43 44 62 45
REMARK SMILES IDX 63 46 67 47 64 48 66 49 65 50 52 51 53 52 57 53 54 54 56 55
REMARK SMILES IDX 55 56 6 57 7 58 8 59 9 60 10 62 11 63 12 64 22 65 13 66
REMARK SMILES IDX 21 67 20 68 23 69 24 70 25 71 26 72 30 73 27 74 29 75 28 76
REMARK SMILES IDX 14 77 15 78 19 79 16 80 18 81 17 82
REMARK H PARENT 3 6 72 24 50 35 8 61
REMARK Flexibility Score: inf
ROOT
ATOM      1  C   UNL A   1      31.378  31.655  26.802  1.00  0.00     0.023 C 
ENDROOT
BRANCH   1   2
ATOM      2  C   UNL A   1      32.624  32.502  27.035  1.00  0.00     0.116 C 
BRANCH   2   3
ATOM      3  N   UNL A   1      32.346  33.807  27.613  1.00  0.00    -0.352 N 
ATOM      4  O   UNL A   1      32.711  35.572  28.977  1.00  0.00    -0.269 OA
ATOM      5  C   UNL A   1      33.105  34.509  28.521  1.00  0.00     0.251 C 
ATOM      6  H   UNL A   1      31.512  34.240  27.320  1.00  0.00     0.163 HD
BRANCH   5   7
ATOM      7  C   UNL A   1      34.391  33.934  28.964  1.00  0.00     0.039 A 
ATOM      8  C   UNL A   1      35.562  34.179  28.244  1.00  0.00     0.014 A 
ATOM      9  C   UNL A   1      34.408  33.120  30.100  1.00  0.00     0.014 A 
ATOM     10  C   UNL A   1      36.732  33.520  28.596  1.00  0.00     0.010 A 
ATOM     11  C   UNL A   1      35.602  32.511  30.491  1.00  0.00     0.010 A 
ATOM     12  C   UNL A   1      36.766  32.694  29.731  1.00  0.00    -0.014 A 
BRANCH  12  13
ATOM     13  C   UNL A   1      38.059  32.113  30.164  1.00  0.00     0.031 A 
ATOM     14  C   UNL A   1      38.937  32.810  31.160  1.00  0.00     0.074 A 
ATOM     15  C   UNL A   1      38.424  30.927  29.641  1.00  0.00     0.049 A 
ATOM     16  N   UNL A   1      40.093  32.427  31.641  1.00  0.00    -0.248 NA
ATOM     17  C   UNL A   1      38.467  34.103  31.683  1.00  0.00     0.031 C 
ATOM     18  C   UNL A   1      37.650  30.167  28.654  1.00  0.00     0.029 A 
ATOM     19  N   UNL A   1      39.524  30.145  29.874  1.00  0.00    -0.354 N 
ATOM     20  C   UNL A   1      40.499  33.437  32.503  1.00  0.00     0.074 A 
ATOM     21  C   UNL A   1      39.472  34.456  32.476  1.00  0.00     0.031 C 
ATOM     22  C   UNL A   1      38.280  29.013  28.395  1.00  0.00     0.029 A 
ATOM     23  C   UNL A   1      39.526  28.978  29.150  1.00  0.00     0.049 A 
ATOM     24  H   UNL A   1      40.243  30.396  30.497  1.00  0.00     0.167 HD
ATOM     25  C   UNL A   1      41.629  33.502  33.248  1.00  0.00     0.031 A 
ATOM     26  C   UNL A   1      40.440  27.995  29.084  1.00  0.00     0.031 A 
ATOM     27  C   UNL A   1      42.642  32.479  33.278  1.00  0.00     0.049 A 
ATOM     28  C   UNL A   1      41.688  28.108  29.906  1.00  0.00     0.074 A 
ATOM     29  C   UNL A   1      43.797  32.433  34.040  1.00  0.00     0.029 A 
ATOM     30  N   UNL A   1      42.624  31.327  32.508  1.00  0.00    -0.354 N 
ATOM     31  N   UNL A   1      42.035  29.049  30.749  1.00  0.00    -0.248 NA
ATOM     32  C   UNL A   1      42.673  27.028  29.762  1.00  0.00     0.031 C 
ATOM     33  C   UNL A   1      44.502  31.273  33.696  1.00  0.00     0.029 A 
ATOM     34  C   UNL A   1      43.763  30.579  32.752  1.00  0.00     0.049 A 
ATOM     35  H   UNL A   1      41.907  31.078  31.881  1.00  0.00     0.167 HD
ATOM     36  C   UNL A   1      43.277  28.676  31.238  1.00  0.00     0.074 A 
ATOM     37  C   UNL A   1      43.609  27.407  30.619  1.00  0.00     0.031 C 
ATOM     38  C   UNL A   1      44.078  29.328  32.114  1.00  0.00     0.031 A 
BRANCH  25  39
ATOM     39  C   UNL A   1      41.853  34.732  34.080  1.00  0.00    -0.014 A 
ATOM     40  C   UNL A   1      41.454  34.786  35.424  1.00  0.00     0.009 A 
ATOM     41  C   UNL A   1      42.550  35.822  33.533  1.00  0.00     0.009 A 
ATOM     42  C   UNL A   1      41.737  35.913  36.200  1.00  0.00     0.001 A 
ATOM     43  C   UNL A   1      42.847  36.938  34.316  1.00  0.00     0.001 A 
ATOM     44  C   UNL A   1      42.439  36.985  35.648  1.00  0.00     0.000 A 
ENDBRANCH  25  39
BRANCH  26  45
ATOM     45  C   UNL A   1      40.218  26.840  28.180  1.00  0.00    -0.014 A 
ATOM     46  C   UNL A   1      40.760  26.828  26.887  1.00  0.00     0.009 A 
ATOM     47  C   UNL A   1      39.472  25.733  28.617  1.00  0.00     0.009 A 
ATOM     48  C   UNL A   1      40.541  25.737  26.042  1.00  0.00     0.001 A 
ATOM     49  C   UNL A   1      39.280  24.633  27.781  1.00  0.00     0.001 A 
ATOM     50  C   UNL A   1      39.807  24.640  26.491  1.00  0.00     0.000 A 
ENDBRANCH  26  45
BRANCH  38  51
ATOM     51  C   UNL A   1      45.384  28.672  32.449  1.00  0.00    -0.014 A 
ATOM     52  C   UNL A   1      46.544  28.963  31.712  1.00  0.00     0.009 A 
ATOM     53  C   UNL A   1      45.459  27.765  33.516  1.00  0.00     0.009 A 
ATOM     54  C   UNL A   1      47.748  28.330  32.020  1.00  0.00     0.001 A 
ATOM     55  C   UNL A   1      46.671  27.153  33.835  1.00  0.00     0.001 A 
ATOM     56  C   UNL A   1      47.811  27.429  33.082  1.00  0.00     0.000 A 
ENDBRANCH  38  51
ENDBRANCH  12  13
ENDBRANCH   5   7
ENDBRANCH   2   3
ENDBRANCH   1   2
BRANCH   1  57
ATOM     57  C   UNL A   1      31.360  30.846  25.502  1.00  0.00     0.023 C 
BRANCH  57  58
ATOM     58  C   UNL A   1      32.183  29.565  25.546  1.00  0.00     0.116 C 
BRANCH  58  59
ATOM     59  N   UNL A   1      31.633  28.545  26.424  1.00  0.00    -0.354 N 
ATOM     60  C   UNL A   1      31.657  27.184  26.416  1.00  0.00     0.244 C 
ATOM     61  H   UNL A   1      31.137  28.918  27.188  1.00  0.00     0.163 HD
ATOM     62  O   UNL A   1      31.623  26.675  27.544  1.00  0.00    -0.273 OA
BRANCH  60  63
ATOM     63  C   UNL A   1      31.690  26.251  25.164  1.00  0.00     0.193 C 
ATOM     64  C   UNL A   1      33.167  25.876  24.944  1.00  0.00     0.155 C 
ATOM     65  N   UNL A   1      30.998  26.524  23.842  1.00  0.00    -0.327 N 
ATOM     66  N   UNL A   1      33.357  24.812  23.966  1.00  0.00    -0.336 N 
ATOM     67  C   UNL A   1      31.337  25.516  22.795  1.00  0.00     0.142 C 
ATOM     68  C   UNL A   1      32.818  25.131  22.653  1.00  0.00     0.141 C 
BRANCH  65  69
ATOM     69  C   UNL A   1      29.690  26.994  23.669  1.00  0.00     0.226 C 
ATOM     70  O   UNL A   1      28.728  26.213  23.733  1.00  0.00    -0.275 OA
BRANCH  69  71
ATOM     71  C   UNL A   1      29.352  28.435  23.302  1.00  0.00     0.083 C 
ATOM     72  C   UNL A   1      27.873  28.662  23.018  1.00  0.00     0.042 C 
ATOM     73  C   UNL A   1      30.364  29.044  22.335  1.00  0.00     0.042 C 
ATOM     74  C   UNL A   1      27.639  30.002  22.351  1.00  0.00     0.161 C 
ATOM     75  C   UNL A   1      29.833  30.224  21.531  1.00  0.00     0.161 C 
ATOM     76  O   UNL A   1      28.453  30.098  21.188  1.00  0.00    -0.381 OA
ENDBRANCH  69  71
ENDBRANCH  65  69
BRANCH  66  77
ATOM     77  C   UNL A   1      34.627  24.261  24.040  1.00  0.00     0.225 A 
ATOM     78  N   UNL A   1      35.336  24.364  25.173  1.00  0.00    -0.221 NA
ATOM     79  N   UNL A   1      35.055  23.564  22.972  1.00  0.00    -0.221 NA
ATOM     80  C   UNL A   1      36.517  23.715  25.221  1.00  0.00     0.117 A 
ATOM     81  C   UNL A   1      36.252  22.956  23.053  1.00  0.00     0.117 A 
ATOM     82  C   UNL A   1      37.031  22.987  24.178  1.00  0.00     0.040 A 
ENDBRANCH  66  77
ENDBRANCH  60  63
ENDBRANCH  58  59
ENDBRANCH  57  58
ENDBRANCH   1  57
TORSDOF 14
ENDMDL
MODEL 2
REMARK VINA RESULT:     -11.6      0.486      5.850
REMARK SMILES O=C(NCCCCNC(=O)[C@@H]1CN(c2ncccn2)CCN1C(=O)C1CCOCC1)c1ccc(-c2c3nc(c(-c4ccccc4)c4ccc([nH]4)c(-c4ccccc4)c4nc(c(-c5ccccc5)c5ccc2[nH]5)C=C4)C=C3)cc1
REMARK SMILES IDX 5 1 4 2 3 3 1 4 2 5 31 7 32 8 78 9 33 10 77 11 34 12 35 13
REMARK SMILES IDX 36 14 71 15 37 16 76 17 70 18 72 19 38 20 75 21 69 22 68 23
REMARK SMILES IDX 39 25 61 26 46 27 60 28 47 29 50 30 59 31 73 32 48 33 49 34
REMARK SMILES IDX 58 36 74 37 51 38 40 39 41 40 45 41 42 42 44 43 43 44 62 45
REMARK SMILES IDX 63 46 67 47 64 48 66 49 65 50 52 51 53 52 57 53 54 54 56 55
REMARK SMILES IDX 55 56 6 57 7 58 8 59 9 60 10 62 11 63 12 64 22 65 13 66
REMARK SMILES IDX 21 67 20 68 23 69 24 70 25 71 26 72 30 73 27 74 29 75 28 76
REMARK SMILES IDX 14 77 15 78 19 79 16 80 18 81 17 82
REMARK H PARENT 3 6 72 24 50 35 8 61
REMARK Flexibility Score: inf
ROOT
ATOM      1  C   UNL A   1      31.305  31.647  26.654  1.00  0.00     0.023 C 
ENDROOT
BRANCH   1   2
ATOM      2  C   UNL A   1      32.550  32.503  26.859  1.00  0.00     0.116 C 
BRANCH   2   3
ATOM      3  N   UNL A   1      32.271  33.819  27.412  1.00  0.00    -0.352 N 
ATOM      4  O   UNL A   1      32.609  35.590  28.775  1.00  0.00    -0.269 OA
ATOM      5  C   UNL A   1      33.002  34.516  28.345  1.00  0.00     0.251 C 
ATOM      6  H   UNL A   1      31.459  34.264  27.078  1.00  0.00     0.163 HD
BRANCH   5   7
ATOM      7  C   UNL A   1      34.256  33.922  28.850  1.00  0.00     0.039 A 
ATOM      8  C   UNL A   1      35.466  34.156  28.193  1.00  0.00     0.014 A 
ATOM      9  C   UNL A   1      34.206  33.101  29.980  1.00  0.00     0.014 A 
ATOM     10  C   UNL A   1      36.609  33.480  28.600  1.00  0.00     0.010 A 
ATOM     11  C   UNL A   1      35.370  32.475  30.428  1.00  0.00     0.010 A 
ATOM     12  C   UNL A   1      36.574  32.647  29.730  1.00  0.00    -0.014 A 
BRANCH  12  13
ATOM     13  C   UNL A   1      37.836  32.047  30.224  1.00  0.00     0.031 A 
ATOM     14  C   UNL A   1      38.379  30.776  29.643  1.00  0.00     0.074 A 
ATOM     15  C   UNL A   1      38.493  32.685  31.212  1.00  0.00     0.049 A 
ATOM     16  N   UNL A   1      39.471  30.130  29.965  1.00  0.00    -0.248 NA
ATOM     17  C   UNL A   1      37.600  30.141  28.567  1.00  0.00     0.031 C 
ATOM     18  C   UNL A   1      38.047  33.923  31.858  1.00  0.00     0.029 A 
ATOM     19  N   UNL A   1      39.677  32.393  31.834  1.00  0.00    -0.354 N 
ATOM     20  C   UNL A   1      39.502  29.005  29.153  1.00  0.00     0.074 A 
ATOM     21  C   UNL A   1      38.314  29.048  28.326  1.00  0.00     0.031 C 
ATOM     22  C   UNL A   1      38.964  34.304  32.757  1.00  0.00     0.029 A 
ATOM     23  C   UNL A   1      40.029  33.310  32.793  1.00  0.00     0.049 A 
ATOM     24  H   UNL A   1      40.221  31.603  31.616  1.00  0.00     0.167 HD
ATOM     25  C   UNL A   1      40.438  28.027  29.105  1.00  0.00     0.031 A 
ATOM     26  C   UNL A   1      41.084  33.340  33.626  1.00  0.00     0.031 A 
ATOM     27  C   UNL A   1      41.623  27.997  29.924  1.00  0.00     0.049 A 
ATOM     28  C   UNL A   1      42.091  32.233  33.561  1.00  0.00     0.074 A 
ATOM     29  C   UNL A   1      42.655  27.074  29.911  1.00  0.00     0.029 A 
ATOM     30  N   UNL A   1      41.928  28.927  30.905  1.00  0.00    -0.354 N 
ATOM     31  N   UNL A   1      42.126  31.199  32.756  1.00  0.00    -0.248 NA
ATOM     32  C   UNL A   1      43.199  32.291  34.523  1.00  0.00     0.031 C 
ATOM     33  C   UNL A   1      43.563  27.421  30.918  1.00  0.00     0.029 A 
ATOM     34  C   UNL A   1      43.116  28.582  31.526  1.00  0.00     0.049 A 
ATOM     35  H   UNL A   1      41.382  29.715  31.127  1.00  0.00     0.167 HD
ATOM     36  C   UNL A   1      43.260  30.485  33.112  1.00  0.00     0.074 A 
ATOM     37  C   UNL A   1      43.900  31.218  34.186  1.00  0.00     0.031 C 
ATOM     38  C   UNL A   1      43.725  29.319  32.602  1.00  0.00     0.031 A 
BRANCH  25  39
ATOM     39  C   UNL A   1      40.218  26.887  28.153  1.00  0.00    -0.014 A 
ATOM     40  C   UNL A   1      40.759  26.904  26.858  1.00  0.00     0.009 A 
ATOM     41  C   UNL A   1      39.529  25.743  28.588  1.00  0.00     0.009 A 
ATOM     42  C   UNL A   1      40.602  25.801  26.014  1.00  0.00     0.001 A 
ATOM     43  C   UNL A   1      39.391  24.636  27.749  1.00  0.00     0.001 A 
ATOM     44  C   UNL A   1      39.924  24.667  26.462  1.00  0.00     0.000 A 
ENDBRANCH  25  39
BRANCH  26  45
ATOM     45  C   UNL A   1      41.215  34.440  34.613  1.00  0.00    -0.014 A 
ATOM     46  C   UNL A   1      41.907  35.615  34.286  1.00  0.00     0.009 A 
ATOM     47  C   UNL A   1      40.630  34.323  35.884  1.00  0.00     0.009 A 
ATOM     48  C   UNL A   1      42.027  36.645  35.223  1.00  0.00     0.001 A 
ATOM     49  C   UNL A   1      40.729  35.365  36.807  1.00  0.00     0.001 A 
ATOM     50  C   UNL A   1      41.435  36.520  36.480  1.00  0.00     0.000 A 
ENDBRANCH  26  45
BRANCH  38  51
ATOM     51  C   UNL A   1      44.987  28.778  33.206  1.00  0.00    -0.014 A 
ATOM     52  C   UNL A   1      44.938  27.850  34.259  1.00  0.00     0.009 A 
ATOM     53  C   UNL A   1      46.233  29.188  32.711  1.00  0.00     0.009 A 
ATOM     54  C   UNL A   1      46.119  27.370  34.826  1.00  0.00     0.001 A 
ATOM     55  C   UNL A   1      47.410  28.687  33.265  1.00  0.00     0.001 A 
ATOM     56  C   UNL A   1      47.353  27.786  34.327  1.00  0.00     0.000 A 
ENDBRANCH  38  51
ENDBRANCH  12  13
ENDBRANCH   5   7
ENDBRANCH   2   3
ENDBRANCH   1   2
BRANCH   1  57
ATOM     57  C   UNL A   1      31.286  30.800  25.379  1.00  0.00     0.023 C 
BRANCH  57  58
ATOM     58  C   UNL A   1      32.120  29.528  25.454  1.00  0.00     0.116 C 
BRANCH  58  59
ATOM     59  N   UNL A   1      31.594  28.535  26.376  1.00  0.00    -0.354 N 
ATOM     60  C   UNL A   1      31.617  27.175  26.409  1.00  0.00     0.244 C 
ATOM     61  H   UNL A   1      31.119  28.931  27.142  1.00  0.00     0.163 HD
ATOM     62  O   UNL A   1      31.614  26.700  27.553  1.00  0.00    -0.273 OA
BRANCH  60  63
ATOM     63  C   UNL A   1      31.618  26.204  25.186  1.00  0.00     0.193 C 
ATOM     64  C   UNL A   1      33.083  25.787  24.965  1.00  0.00     0.155 C 
ATOM     65  N   UNL A   1      30.921  26.455  23.861  1.00  0.00    -0.327 N 
ATOM     66  N   UNL A   1      33.238  24.689  24.019  1.00  0.00    -0.336 N 
ATOM     67  C   UNL A   1      31.226  25.408  22.843  1.00  0.00     0.142 C 
ATOM     68  C   UNL A   1      32.696  24.982  22.701  1.00  0.00     0.141 C 
BRANCH  65  69
ATOM     69  C   UNL A   1      29.623  26.952  23.684  1.00  0.00     0.226 C 
ATOM     70  O   UNL A   1      28.645  26.193  23.756  1.00  0.00    -0.275 OA
BRANCH  69  71
ATOM     71  C   UNL A   1      29.317  28.397  23.304  1.00  0.00     0.083 C 
ATOM     72  C   UNL A   1      27.842  28.654  23.024  1.00  0.00     0.042 C 
ATOM     73  C   UNL A   1      30.339  28.972  22.328  1.00  0.00     0.042 C 
ATOM     74  C   UNL A   1      27.637  29.992  22.344  1.00  0.00     0.161 C 
ATOM     75  C   UNL A   1      29.831  30.157  21.514  1.00  0.00     0.161 C 
ATOM     76  O   UNL A   1      28.447  30.058  21.178  1.00  0.00    -0.381 OA
ENDBRANCH  69  71
ENDBRANCH  65  69
BRANCH  66  77
ATOM     77  C   UNL A   1      34.494  24.109  24.099  1.00  0.00     0.225 A 
ATOM     78  N   UNL A   1      35.015  23.491  23.028  1.00  0.00    -0.221 NA
ATOM     79  N   UNL A   1      35.174  24.274  25.248  1.00  0.00    -0.221 NA
ATOM     80  C   UNL A   1      36.283  23.043  23.133  1.00  0.00     0.117 A 
ATOM     81  C   UNL A   1      36.425  23.786  25.317  1.00  0.00     0.117 A 
ATOM     82  C   UNL A   1      37.044  23.164  24.267  1.00  0.00     0.040 A 
ENDBRANCH  66  77
ENDBRANCH  60  63
ENDBRANCH  58  59
ENDBRANCH  57  58
ENDBRANCH   1  57
TORSDOF 14
ENDMDL
MODEL 3
REMARK VINA RESULT:     -11.6      3.776      9.166
REMARK SMILES O=C(NCCCCNC(=O)[C@@H]1CN(c2ncccn2)CCN1C(=O)C1CCOCC1)c1ccc(-c2c3nc(c(-c4ccccc4)c4ccc([nH]4)c(-c4ccccc4)c4nc(c(-c5ccccc5)c5ccc2[nH]5)C=C4)C=C3)cc1
REMARK SMILES IDX 5 1 4 2 3 3 1 4 2 5 31 7 32 8 78 9 33 10 77 11 34 12 35 13
REMARK SMILES IDX 36 14 71 15 37 16 76 17 70 18 72 19 38 20 75 21 69 22 68 23
REMARK SMILES IDX 39 25 61 26 46 27 60 28 47 29 50 30 59 31 73 32 48 33 49 34
REMARK SMILES IDX 58 36 74 37 51 38 40 39 41 40 45 41 42 42 44 43 43 44 62 45
REMARK SMILES IDX 63 46 67 47 64 48 66 49 65 50 52 51 53 52 57 53 54 54 56 55
REMARK SMILES IDX 55 56 6 57 7 58 8 59 9 60 10 62 11 63 12 64 22 65 13 66
REMARK SMILES IDX 21 67 20 68 23 69 24 70 25 71 26 72 30 73 27 74 29 75 28 76
REMARK SMILES IDX 14 77 15 78 19 79 16 80 18 81 17 82
REMARK H PARENT 3 6 72 24 50 35 8 61
REMARK Flexibility Score: inf
ROOT
ATOM      1  C   UNL A   1      37.998  19.913  24.665  1.00  0.00     0.023 C 
ENDROOT
BRANCH   1   2
ATOM      2  C   UNL A   1      39.012  20.144  25.779  1.00  0.00     0.116 C 
BRANCH   2   3
ATOM      3  N   UNL A   1      40.128  19.212  25.758  1.00  0.00    -0.352 N 
ATOM      4  O   UNL A   1      42.290  18.586  25.976  1.00  0.00    -0.269 OA
ATOM      5  C   UNL A   1      41.436  19.450  26.112  1.00  0.00     0.251 C 
ATOM      6  H   UNL A   1      39.923  18.299  25.452  1.00  0.00     0.163 HD
BRANCH   5   7
ATOM      7  C   UNL A   1      41.799  20.787  26.623  1.00  0.00     0.039 A 
ATOM      8  C   UNL A   1      41.695  21.076  27.985  1.00  0.00     0.014 A 
ATOM      9  C   UNL A   1      42.222  21.763  25.717  1.00  0.00     0.014 A 
ATOM     10  C   UNL A   1      41.908  22.375  28.428  1.00  0.00     0.010 A 
ATOM     11  C   UNL A   1      42.501  23.052  26.175  1.00  0.00     0.010 A 
ATOM     12  C   UNL A   1      42.328  23.369  27.530  1.00  0.00    -0.014 A 
BRANCH  12  13
ATOM     13  C   UNL A   1      42.681  24.711  28.051  1.00  0.00     0.031 A 
ATOM     14  C   UNL A   1      44.098  25.074  28.383  1.00  0.00     0.074 A 
ATOM     15  C   UNL A   1      41.688  25.606  28.211  1.00  0.00     0.049 A 
ATOM     16  N   UNL A   1      44.565  26.207  28.842  1.00  0.00    -0.248 NA
ATOM     17  C   UNL A   1      45.124  24.038  28.181  1.00  0.00     0.031 C 
ATOM     18  C   UNL A   1      40.272  25.353  27.930  1.00  0.00     0.029 A 
ATOM     19  N   UNL A   1      41.717  26.909  28.632  1.00  0.00    -0.354 N 
ATOM     20  C   UNL A   1      45.931  26.017  29.006  1.00  0.00     0.074 A 
ATOM     21  C   UNL A   1      46.220  24.657  28.605  1.00  0.00     0.031 C 
ATOM     22  C   UNL A   1      39.573  26.475  28.150  1.00  0.00     0.029 A 
ATOM     23  C   UNL A   1      40.480  27.505  28.641  1.00  0.00     0.049 A 
ATOM     24  H   UNL A   1      42.542  27.372  28.902  1.00  0.00     0.167 HD
ATOM     25  C   UNL A   1      46.856  26.901  29.451  1.00  0.00     0.031 A 
ATOM     26  C   UNL A   1      40.109  28.740  29.023  1.00  0.00     0.031 A 
ATOM     27  C   UNL A   1      46.563  28.257  29.838  1.00  0.00     0.049 A 
ATOM     28  C   UNL A   1      41.154  29.687  29.529  1.00  0.00     0.074 A 
ATOM     29  C   UNL A   1      47.441  29.243  30.253  1.00  0.00     0.029 A 
ATOM     30  N   UNL A   1      45.294  28.814  29.863  1.00  0.00    -0.354 N 
ATOM     31  N   UNL A   1      42.448  29.504  29.635  1.00  0.00    -0.248 NA
ATOM     32  C   UNL A   1      40.689  31.006  29.974  1.00  0.00     0.031 C 
ATOM     33  C   UNL A   1      46.697  30.384  30.575  1.00  0.00     0.029 A 
ATOM     34  C   UNL A   1      45.362  30.120  30.318  1.00  0.00     0.049 A 
ATOM     35  H   UNL A   1      44.467  28.350  29.597  1.00  0.00     0.167 HD
ATOM     36  C   UNL A   1      42.952  30.685  30.157  1.00  0.00     0.074 A 
ATOM     37  C   UNL A   1      41.829  31.587  30.318  1.00  0.00     0.031 C 
ATOM     38  C   UNL A   1      44.230  30.993  30.484  1.00  0.00     0.031 A 
BRANCH  25  39
ATOM     39  C   UNL A   1      48.278  26.432  29.571  1.00  0.00    -0.014 A 
ATOM     40  C   UNL A   1      49.185  26.579  28.511  1.00  0.00     0.009 A 
ATOM     41  C   UNL A   1      48.735  25.913  30.792  1.00  0.00     0.009 A 
ATOM     42  C   UNL A   1      50.522  26.202  28.669  1.00  0.00     0.001 A 
ATOM     43  C   UNL A   1      50.075  25.555  30.953  1.00  0.00     0.001 A 
ATOM     44  C   UNL A   1      50.967  25.696  29.891  1.00  0.00     0.000 A 
ENDBRANCH  25  39
BRANCH  26  45
ATOM     45  C   UNL A   1      38.679  29.131  28.970  1.00  0.00    -0.014 A 
ATOM     46  C   UNL A   1      37.859  28.999  30.100  1.00  0.00     0.009 A 
ATOM     47  C   UNL A   1      38.132  29.655  27.788  1.00  0.00     0.009 A 
ATOM     48  C   UNL A   1      36.512  29.366  30.040  1.00  0.00     0.001 A 
ATOM     49  C   UNL A   1      36.794  30.048  27.740  1.00  0.00     0.001 A 
ATOM     50  C   UNL A   1      35.984  29.894  28.862  1.00  0.00     0.000 A 
ENDBRANCH  26  45
BRANCH  38  51
ATOM     51  C   UNL A   1      44.469  32.363  31.045  1.00  0.00    -0.014 A 
ATOM     52  C   UNL A   1      44.736  33.450  30.196  1.00  0.00     0.009 A 
ATOM     53  C   UNL A   1      44.414  32.573  32.430  1.00  0.00     0.009 A 
ATOM     54  C   UNL A   1      44.977  34.715  30.730  1.00  0.00     0.001 A 
ATOM     55  C   UNL A   1      44.632  33.845  32.958  1.00  0.00     0.001 A 
ATOM     56  C   UNL A   1      44.922  34.912  32.110  1.00  0.00     0.000 A 
ENDBRANCH  38  51
ENDBRANCH  12  13
ENDBRANCH   5   7
ENDBRANCH   2   3
ENDBRANCH   1   2
BRANCH   1  57
ATOM     57  C   UNL A   1      36.527  20.019  25.075  1.00  0.00     0.023 C 
BRANCH  57  58
ATOM     58  C   UNL A   1      36.029  21.445  25.275  1.00  0.00     0.116 C 
BRANCH  58  59
ATOM     59  N   UNL A   1      35.970  22.222  24.047  1.00  0.00    -0.354 N 
ATOM     60  C   UNL A   1      35.187  23.250  23.622  1.00  0.00     0.244 C 
ATOM     61  H   UNL A   1      36.639  21.945  23.381  1.00  0.00     0.163 HD
ATOM     62  O   UNL A   1      35.755  24.023  22.838  1.00  0.00    -0.273 OA
BRANCH  60  63
ATOM     63  C   UNL A   1      33.694  23.513  23.995  1.00  0.00     0.193 C 
ATOM     64  C   UNL A   1      33.706  24.577  25.108  1.00  0.00     0.155 C 
ATOM     65  N   UNL A   1      32.655  22.445  24.281  1.00  0.00    -0.327 N 
ATOM     66  N   UNL A   1      32.388  25.123  25.405  1.00  0.00    -0.336 N 
ATOM     67  C   UNL A   1      31.357  23.013  24.749  1.00  0.00     0.142 C 
ATOM     68  C   UNL A   1      31.425  24.114  25.818  1.00  0.00     0.141 C 
BRANCH  65  69
ATOM     69  C   UNL A   1      32.443  21.272  23.544  1.00  0.00     0.226 C 
ATOM     70  O   UNL A   1      31.771  21.299  22.501  1.00  0.00    -0.275 OA
BRANCH  69  71
ATOM     71  C   UNL A   1      32.918  19.894  23.994  1.00  0.00     0.083 C 
ATOM     72  C   UNL A   1      32.449  18.762  23.089  1.00  0.00     0.042 C 
ATOM     73  C   UNL A   1      32.793  19.698  25.502  1.00  0.00     0.042 C 
ATOM     74  C   UNL A   1      32.661  17.412  23.742  1.00  0.00     0.161 C 
ATOM     75  C   UNL A   1      32.729  18.241  25.943  1.00  0.00     0.161 C 
ATOM     76  O   UNL A   1      32.035  17.403  25.019  1.00  0.00    -0.381 OA
ENDBRANCH  69  71
ENDBRANCH  65  69
BRANCH  66  77
ATOM     77  C   UNL A   1      32.466  26.297  26.138  1.00  0.00     0.225 A 
ATOM     78  N   UNL A   1      33.589  27.030  26.109  1.00  0.00    -0.221 NA
ATOM     79  N   UNL A   1      31.356  26.689  26.789  1.00  0.00    -0.221 NA
ATOM     80  C   UNL A   1      33.566  28.215  26.753  1.00  0.00     0.117 A 
ATOM     81  C   UNL A   1      31.388  27.864  27.441  1.00  0.00     0.117 A 
ATOM     82  C   UNL A   1      32.480  28.688  27.444  1.00  0.00     0.040 A 
ENDBRANCH  66  77
ENDBRANCH  60  63
ENDBRANCH  58  59
ENDBRANCH  57  58
ENDBRANCH   1  57
TORSDOF 14
ENDMDL
