MODEL 1
REMARK VINA RESULT:     -11.9      0.000      0.000
REMARK SMILES CCOc1cc2c(cc1OCC)[C@@H](C(=O)NCCCCNC(=O)c1ccc(-c3c4nc(c(-c5ccccc5)c5ccc([nH]5)c(-c5ccccc5)c5nc(c(-c6ccccc6)c6ccc3[nH]6)C=C5)C=C4)cc1)[C@H](c1ccc(F)cc1Cl)N(C)C2=O
REMARK SMILES IDX 18 1 17 2 16 3 14 4 15 5 13 7 4 8 5 9 9 10 6 11 8 12 7 13
REMARK SMILES IDX 83 14 81 15 84 16 72 17 82 18 3 19 2 20 1 21 10 22 11 23
REMARK SMILES IDX 12 24 73 25 74 26 79 27 75 28 78 29 80 30 76 31 77 32 19 33
REMARK SMILES IDX 20 34 21 35 22 36 23 38 24 39 25 40 71 41 26 42 70 43 27 44
REMARK SMILES IDX 28 45 29 46 64 47 30 48 69 49 63 50 65 51 31 52 68 53 62 54
REMARK SMILES IDX 61 55 32 57 54 58 39 59 53 60 40 61 43 62 52 63 66 64 41 65
REMARK SMILES IDX 42 66 51 68 67 69 44 70 33 71 34 72 38 73 35 74 37 75 36 76
REMARK SMILES IDX 55 77 56 78 60 79 57 80 59 81 58 82 45 83 46 84 50 85 47 86
REMARK SMILES IDX 49 87 48 88
REMARK H PARENT 16 6 21 37 65 56 43 67
REMARK Flexibility Score: inf
ROOT
ATOM      1  C   UNL A   1      31.607  27.471  27.255  1.00  0.00     0.023 C 
ENDROOT
BRANCH   1   2
ATOM      2  C   UNL A   1      31.184  26.403  26.245  1.00  0.00     0.116 C 
BRANCH   2   3
ATOM      3  N   UNL A   1      31.098  25.098  26.877  1.00  0.00    -0.355 N 
ATOM      4  C   UNL A   1      31.775  23.935  26.723  1.00  0.00     0.230 C 
ATOM      5  O   UNL A   1      31.299  22.965  27.333  1.00  0.00    -0.274 OA
ATOM      6  H   UNL A   1      30.395  25.047  27.563  1.00  0.00     0.163 HD
BRANCH   4   7
ATOM      7  C   UNL A   1      33.008  23.700  25.856  1.00  0.00     0.136 C 
ATOM      8  C   UNL A   1      33.108  24.672  21.662  1.00  0.00     0.161 A 
ATOM      9  C   UNL A   1      32.938  23.346  22.087  1.00  0.00     0.064 A 
ATOM     10  C   UNL A   1      33.216  25.704  22.604  1.00  0.00     0.161 A 
ATOM     11  C   UNL A   1      32.849  23.040  23.443  1.00  0.00     0.048 A 
ATOM     12  C   UNL A   1      33.103  25.381  23.966  1.00  0.00     0.056 A 
ATOM     13  C   UNL A   1      32.939  24.057  24.395  1.00  0.00    -0.016 A 
ATOM     14  C   UNL A   1      32.619  21.633  23.872  1.00  0.00     0.254 C 
ATOM     15  N   UNL A   1      32.944  21.318  25.192  1.00  0.00    -0.333 N 
ATOM     16  O   UNL A   1      32.109  20.846  23.081  1.00  0.00    -0.269 OA
ATOM     17  C   UNL A   1      33.633  22.282  26.048  1.00  0.00     0.134 C 
ATOM     18  C   UNL A   1      32.703  19.980  25.716  1.00  0.00     0.147 C 
BRANCH   8  19
ATOM     19  O   UNL A   1      33.277  24.885  20.321  1.00  0.00    -0.490 OA
BRANCH  19  20
ATOM     20  C   UNL A   1      32.264  25.730  19.759  1.00  0.00     0.226 C 
ATOM     21  C   UNL A   1      31.885  25.286  18.356  1.00  0.00     0.049 C 
ENDBRANCH  19  20
ENDBRANCH   8  19
BRANCH  10  22
ATOM     22  O   UNL A   1      33.445  27.037  22.416  1.00  0.00    -0.490 OA
BRANCH  22  23
ATOM     23  C   UNL A   1      32.606  28.023  23.004  1.00  0.00     0.226 C 
ATOM     24  C   UNL A   1      31.155  27.860  22.585  1.00  0.00     0.049 C 
ENDBRANCH  22  23
ENDBRANCH  10  22
BRANCH  17  25
ATOM     25  C   UNL A   1      35.179  22.310  25.901  1.00  0.00    -0.005 A 
ATOM     26  C   UNL A   1      35.808  23.508  26.336  1.00  0.00     0.010 A 
ATOM     27  C   UNL A   1      36.033  21.309  25.377  1.00  0.00     0.049 A 
ATOM     28  C   UNL A   1      37.178  23.730  26.177  1.00  0.00     0.040 A 
ATOM     29  C   UNL A   1      37.410  21.537  25.233  1.00  0.00     0.060 A 
ATOM     30  Cl  UNL A   1      35.564  19.722  24.881  1.00  0.00    -0.084 Cl
ATOM     31  C   UNL A   1      37.965  22.744  25.617  1.00  0.00     0.124 A 
ATOM     32  F   UNL A   1      39.278  22.949  25.454  1.00  0.00    -0.207 F 
ENDBRANCH  17  25
ENDBRANCH   4   7
ENDBRANCH   2   3
ENDBRANCH   1   2
BRANCH   1  33
ATOM     33  C   UNL A   1      32.140  28.762  26.653  1.00  0.00     0.023 C 
BRANCH  33  34
ATOM     34  C   UNL A   1      33.528  29.151  27.136  1.00  0.00     0.116 C 
BRANCH  34  35
ATOM     35  N   UNL A   1      33.611  30.464  27.765  1.00  0.00    -0.352 N 
ATOM     36  C   UNL A   1      34.700  31.014  28.412  1.00  0.00     0.251 C 
ATOM     37  H   UNL A   1      32.800  31.021  27.724  1.00  0.00     0.163 HD
ATOM     38  O   UNL A   1      34.647  32.112  28.948  1.00  0.00    -0.269 OA
BRANCH  36  39
ATOM     39  C   UNL A   1      35.937  30.209  28.493  1.00  0.00     0.039 A 
ATOM     40  C   UNL A   1      36.845  30.249  27.433  1.00  0.00     0.014 A 
ATOM     41  C   UNL A   1      36.249  29.533  29.675  1.00  0.00     0.014 A 
ATOM     42  C   UNL A   1      38.118  29.698  27.600  1.00  0.00     0.010 A 
ATOM     43  C   UNL A   1      37.542  29.070  29.870  1.00  0.00     0.010 A 
ATOM     44  C   UNL A   1      38.494  29.156  28.840  1.00  0.00    -0.014 A 
BRANCH  44  45
ATOM     45  C   UNL A   1      39.869  28.661  29.103  1.00  0.00     0.031 A 
ATOM     46  C   UNL A   1      40.884  29.597  29.699  1.00  0.00     0.074 A 
ATOM     47  C   UNL A   1      40.240  27.428  28.705  1.00  0.00     0.049 A 
ATOM     48  N   UNL A   1      42.177  29.444  29.827  1.00  0.00    -0.248 NA
ATOM     49  C   UNL A   1      40.381  30.898  30.171  1.00  0.00     0.031 C 
ATOM     50  C   UNL A   1      39.368  26.432  28.078  1.00  0.00     0.029 A 
ATOM     51  N   UNL A   1      41.464  26.808  28.757  1.00  0.00    -0.354 N 
ATOM     52  C   UNL A   1      42.645  30.646  30.341  1.00  0.00     0.074 A 
ATOM     53  C   UNL A   1      41.506  31.528  30.470  1.00  0.00     0.031 C 
ATOM     54  C   UNL A   1      40.078  25.320  27.828  1.00  0.00     0.029 A 
ATOM     55  C   UNL A   1      41.464  25.538  28.232  1.00  0.00     0.049 A 
ATOM     56  H   UNL A   1      42.268  27.234  29.134  1.00  0.00     0.167 HD
ATOM     57  C   UNL A   1      43.908  30.982  30.693  1.00  0.00     0.031 A 
ATOM     58  C   UNL A   1      42.468  24.653  28.087  1.00  0.00     0.031 A 
ATOM     59  C   UNL A   1      45.030  30.089  30.621  1.00  0.00     0.049 A 
ATOM     60  C   UNL A   1      43.854  25.031  28.531  1.00  0.00     0.074 A 
ATOM     61  C   UNL A   1      46.338  30.313  31.012  1.00  0.00     0.029 A 
ATOM     62  N   UNL A   1      44.970  28.789  30.143  1.00  0.00    -0.354 N 
ATOM     63  N   UNL A   1      44.275  26.161  29.045  1.00  0.00    -0.248 NA
ATOM     64  C   UNL A   1      44.900  24.009  28.382  1.00  0.00     0.031 C 
ATOM     65  C   UNL A   1      47.075  29.153  30.753  1.00  0.00     0.029 A 
ATOM     66  C   UNL A   1      46.216  28.198  30.233  1.00  0.00     0.049 A 
ATOM     67  H   UNL A   1      44.160  28.353  29.792  1.00  0.00     0.167 HD
ATOM     68  C   UNL A   1      45.625  25.974  29.313  1.00  0.00     0.074 A 
ATOM     69  C   UNL A   1      45.952  24.623  28.906  1.00  0.00     0.031 C 
ATOM     70  C   UNL A   1      46.513  26.844  29.848  1.00  0.00     0.031 A 
BRANCH  57  71
ATOM     71  C   UNL A   1      44.131  32.380  31.191  1.00  0.00    -0.014 A 
ATOM     72  C   UNL A   1      44.446  33.425  30.307  1.00  0.00     0.009 A 
ATOM     73  C   UNL A   1      44.019  32.659  32.562  1.00  0.00     0.009 A 
ATOM     74  C   UNL A   1      44.684  34.712  30.792  1.00  0.00     0.001 A 
ATOM     75  C   UNL A   1      44.230  33.952  33.040  1.00  0.00     0.001 A 
ATOM     76  C   UNL A   1      44.573  34.975  32.157  1.00  0.00     0.000 A 
ENDBRANCH  57  71
BRANCH  58  77
ATOM     77  C   UNL A   1      42.201  23.307  27.517  1.00  0.00    -0.014 A 
ATOM     78  C   UNL A   1      42.610  23.003  26.210  1.00  0.00     0.009 A 
ATOM     79  C   UNL A   1      41.533  22.328  28.265  1.00  0.00     0.009 A 
ATOM     80  C   UNL A   1      42.331  21.753  25.653  1.00  0.00     0.001 A 
ATOM     81  C   UNL A   1      41.276  21.070  27.715  1.00  0.00     0.001 A 
ATOM     82  C   UNL A   1      41.668  20.786  26.407  1.00  0.00     0.000 A 
ENDBRANCH  58  77
BRANCH  70  83
ATOM     83  C   UNL A   1      47.909  26.349  30.084  1.00  0.00    -0.014 A 
ATOM     84  C   UNL A   1      48.296  25.832  31.329  1.00  0.00     0.009 A 
ATOM     85  C   UNL A   1      48.826  26.339  29.022  1.00  0.00     0.009 A 
ATOM     86  C   UNL A   1      49.586  25.329  31.509  1.00  0.00     0.001 A 
ATOM     87  C   UNL A   1      50.107  25.816  29.199  1.00  0.00     0.001 A 
ATOM     88  C   UNL A   1      50.487  25.316  30.444  1.00  0.00     0.000 A 
ENDBRANCH  70  83
ENDBRANCH  44  45
ENDBRANCH  36  39
ENDBRANCH  34  35
ENDBRANCH  33  34
ENDBRANCH   1  33
TORSDOF 16
ENDMDL
MODEL 2
REMARK VINA RESULT:     -10.8      2.504      7.410
REMARK SMILES CCOc1cc2c(cc1OCC)[C@@H](C(=O)NCCCCNC(=O)c1ccc(-c3c4nc(c(-c5ccccc5)c5ccc([nH]5)c(-c5ccccc5)c5nc(c(-c6ccccc6)c6ccc3[nH]6)C=C5)C=C4)cc1)[C@H](c1ccc(F)cc1Cl)N(C)C2=O
REMARK SMILES IDX 18 1 17 2 16 3 14 4 15 5 13 7 4 8 5 9 9 10 6 11 8 12 7 13
REMARK SMILES IDX 83 14 81 15 84 16 72 17 82 18 3 19 2 20 1 21 10 22 11 23
REMARK SMILES IDX 12 24 73 25 74 26 79 27 75 28 78 29 80 30 76 31 77 32 19 33
REMARK SMILES IDX 20 34 21 35 22 36 23 38 24 39 25 40 71 41 26 42 70 43 27 44
REMARK SMILES IDX 28 45 29 46 64 47 30 48 69 49 63 50 65 51 31 52 68 53 62 54
REMARK SMILES IDX 61 55 32 57 54 58 39 59 53 60 40 61 43 62 52 63 66 64 41 65
REMARK SMILES IDX 42 66 51 68 67 69 44 70 33 71 34 72 38 73 35 74 37 75 36 76
REMARK SMILES IDX 55 77 56 78 60 79 57 80 59 81 58 82 45 83 46 84 50 85 47 86
REMARK SMILES IDX 49 87 48 88
REMARK H PARENT 16 6 21 37 65 56 43 67
REMARK Flexibility Score: inf
ROOT
ATOM      1  C   UNL A   1      36.089  22.041  24.614  1.00  0.00     0.023 C 
ENDROOT
BRANCH   1   2
ATOM      2  C   UNL A   1      36.192  23.532  24.290  1.00  0.00     0.116 C 
BRANCH   2   3
ATOM      3  N   UNL A   1      35.340  23.878  23.166  1.00  0.00    -0.355 N 
ATOM      4  C   UNL A   1      34.172  24.554  23.047  1.00  0.00     0.230 C 
ATOM      5  O   UNL A   1      33.648  24.503  21.924  1.00  0.00    -0.274 OA
ATOM      6  H   UNL A   1      35.685  23.550  22.305  1.00  0.00     0.163 HD
BRANCH   4   7
ATOM      7  C   UNL A   1      33.436  25.313  24.147  1.00  0.00     0.136 C 
ATOM      8  C   UNL A   1      30.733  23.376  26.883  1.00  0.00     0.161 A 
ATOM      9  C   UNL A   1      30.244  24.122  25.800  1.00  0.00     0.064 A 
ATOM     10  C   UNL A   1      32.113  23.226  27.068  1.00  0.00     0.161 A 
ATOM     11  C   UNL A   1      31.120  24.700  24.883  1.00  0.00     0.048 A 
ATOM     12  C   UNL A   1      32.981  23.798  26.124  1.00  0.00     0.056 A 
ATOM     13  C   UNL A   1      32.498  24.549  25.043  1.00  0.00    -0.016 A 
ATOM     14  C   UNL A   1      30.580  25.446  23.713  1.00  0.00     0.254 C 
ATOM     15  N   UNL A   1      31.452  26.331  23.077  1.00  0.00    -0.333 N 
ATOM     16  O   UNL A   1      29.438  25.210  23.331  1.00  0.00    -0.269 OA
ATOM     17  C   UNL A   1      32.767  26.630  23.643  1.00  0.00     0.134 C 
ATOM     18  C   UNL A   1      31.029  27.065  21.890  1.00  0.00     0.147 C 
BRANCH   8  19
ATOM     19  O   UNL A   1      29.819  22.914  27.790  1.00  0.00    -0.490 OA
BRANCH  19  20
ATOM     20  C   UNL A   1      28.475  22.940  27.289  1.00  0.00     0.226 C 
ATOM     21  C   UNL A   1      27.729  21.661  27.629  1.00  0.00     0.049 C 
ENDBRANCH  19  20
ENDBRANCH   8  19
BRANCH  10  22
ATOM     22  O   UNL A   1      32.797  22.606  28.075  1.00  0.00    -0.490 OA
BRANCH  22  23
ATOM     23  C   UNL A   1      33.935  21.796  27.806  1.00  0.00     0.226 C 
ATOM     24  C   UNL A   1      33.592  20.603  26.931  1.00  0.00     0.049 C 
ENDBRANCH  22  23
ENDBRANCH  10  22
BRANCH  17  25
ATOM     25  C   UNL A   1      32.781  27.737  24.733  1.00  0.00    -0.005 A 
ATOM     26  C   UNL A   1      33.840  27.645  25.676  1.00  0.00     0.010 A 
ATOM     27  C   UNL A   1      31.872  28.807  24.914  1.00  0.00     0.049 A 
ATOM     28  C   UNL A   1      33.935  28.501  26.775  1.00  0.00     0.040 A 
ATOM     29  C   UNL A   1      31.983  29.670  26.014  1.00  0.00     0.060 A 
ATOM     30  Cl  UNL A   1      30.566  29.229  23.865  1.00  0.00    -0.084 Cl
ATOM     31  C   UNL A   1      32.997  29.501  26.939  1.00  0.00     0.124 A 
ATOM     32  F   UNL A   1      33.075  30.324  27.993  1.00  0.00    -0.207 F 
ENDBRANCH  17  25
ENDBRANCH   4   7
ENDBRANCH   2   3
ENDBRANCH   1   2
BRANCH   1  33
ATOM     33  C   UNL A   1      36.941  21.568  25.782  1.00  0.00     0.023 C 
BRANCH  33  34
ATOM     34  C   UNL A   1      38.439  21.629  25.528  1.00  0.00     0.116 C 
BRANCH  34  35
ATOM     35  N   UNL A   1      39.103  20.332  25.481  1.00  0.00    -0.352 N 
ATOM     36  C   UNL A   1      40.368  20.023  25.944  1.00  0.00     0.251 C 
ATOM     37  H   UNL A   1      38.594  19.593  25.076  1.00  0.00     0.163 HD
ATOM     38  O   UNL A   1      40.850  18.906  25.812  1.00  0.00    -0.269 OA
BRANCH  36  39
ATOM     39  C   UNL A   1      41.163  21.105  26.561  1.00  0.00     0.039 A 
ATOM     40  C   UNL A   1      41.863  21.990  25.737  1.00  0.00     0.014 A 
ATOM     41  C   UNL A   1      41.095  21.317  27.939  1.00  0.00     0.014 A 
ATOM     42  C   UNL A   1      42.408  23.153  26.287  1.00  0.00     0.010 A 
ATOM     43  C   UNL A   1      41.556  22.515  28.465  1.00  0.00     0.010 A 
ATOM     44  C   UNL A   1      42.208  23.451  27.644  1.00  0.00    -0.014 A 
BRANCH  44  45
ATOM     45  C   UNL A   1      42.668  24.725  28.251  1.00  0.00     0.031 A 
ATOM     46  C   UNL A   1      41.666  25.813  28.522  1.00  0.00     0.074 A 
ATOM     47  C   UNL A   1      43.982  24.954  28.446  1.00  0.00     0.049 A 
ATOM     48  N   UNL A   1      41.869  27.062  28.856  1.00  0.00    -0.248 NA
ATOM     49  C   UNL A   1      40.248  25.457  28.351  1.00  0.00     0.031 C 
ATOM     50  C   UNL A   1      45.065  24.002  28.188  1.00  0.00     0.029 A 
ATOM     51  N   UNL A   1      44.631  26.079  28.896  1.00  0.00    -0.354 N 
ATOM     52  C   UNL A   1      40.611  27.650  28.879  1.00  0.00     0.074 A 
ATOM     53  C   UNL A   1      39.657  26.633  28.494  1.00  0.00     0.031 C 
ATOM     54  C   UNL A   1      46.239  24.574  28.507  1.00  0.00     0.029 A 
ATOM     55  C   UNL A   1      45.998  25.944  28.947  1.00  0.00     0.049 A 
ATOM     56  H   UNL A   1      44.161  26.904  29.156  1.00  0.00     0.167 HD
ATOM     57  C   UNL A   1      40.276  28.919  29.209  1.00  0.00     0.031 A 
ATOM     58  C   UNL A   1      46.949  26.828  29.302  1.00  0.00     0.031 A 
ATOM     59  C   UNL A   1      41.214  29.913  29.647  1.00  0.00     0.049 A 
ATOM     60  C   UNL A   1      46.548  28.218  29.712  1.00  0.00     0.074 A 
ATOM     61  C   UNL A   1      40.966  31.209  30.064  1.00  0.00     0.029 A 
ATOM     62  N   UNL A   1      42.581  29.713  29.746  1.00  0.00    -0.354 N 
ATOM     63  N   UNL A   1      45.351  28.750  29.759  1.00  0.00    -0.248 NA
ATOM     64  C   UNL A   1      47.628  29.125  30.126  1.00  0.00     0.031 C 
ATOM     65  C   UNL A   1      42.189  31.800  30.398  1.00  0.00     0.029 A 
ATOM     66  C   UNL A   1      43.190  30.860  30.220  1.00  0.00     0.049 A 
ATOM     67  H   UNL A   1      43.049  28.878  29.513  1.00  0.00     0.167 HD
ATOM     68  C   UNL A   1      45.530  30.041  30.239  1.00  0.00     0.074 A 
ATOM     69  C   UNL A   1      46.950  30.212  30.470  1.00  0.00     0.031 C 
ATOM     70  C   UNL A   1      44.601  30.999  30.468  1.00  0.00     0.031 A 
BRANCH  57  71
ATOM     71  C   UNL A   1      38.825  29.293  29.107  1.00  0.00    -0.014 A 
ATOM     72  C   UNL A   1      38.290  29.808  27.915  1.00  0.00     0.009 A 
ATOM     73  C   UNL A   1      37.981  29.120  30.215  1.00  0.00     0.009 A 
ATOM     74  C   UNL A   1      36.947  30.182  27.849  1.00  0.00     0.001 A 
ATOM     75  C   UNL A   1      36.632  29.469  30.136  1.00  0.00     0.001 A 
ATOM     76  C   UNL A   1      36.119  30.010  28.958  1.00  0.00     0.000 A 
ENDBRANCH  57  71
BRANCH  58  77
ATOM     77  C   UNL A   1      48.379  26.424  29.313  1.00  0.00    -0.014 A 
ATOM     78  C   UNL A   1      48.945  25.874  30.472  1.00  0.00     0.009 A 
ATOM     79  C   UNL A   1      49.184  26.594  28.177  1.00  0.00     0.009 A 
ATOM     80  C   UNL A   1      50.298  25.525  30.503  1.00  0.00     0.001 A 
ATOM     81  C   UNL A   1      50.530  26.222  28.203  1.00  0.00     0.001 A 
ATOM     82  C   UNL A   1      51.088  25.697  29.368  1.00  0.00     0.000 A 
ENDBRANCH  58  77
BRANCH  70  83
ATOM     83  C   UNL A   1      45.075  32.296  31.053  1.00  0.00    -0.014 A 
ATOM     84  C   UNL A   1      45.427  33.378  30.234  1.00  0.00     0.009 A 
ATOM     85  C   UNL A   1      45.101  32.454  32.447  1.00  0.00     0.009 A 
ATOM     86  C   UNL A   1      45.815  34.592  30.803  1.00  0.00     0.001 A 
ATOM     87  C   UNL A   1      45.469  33.675  33.013  1.00  0.00     0.001 A 
ATOM     88  C   UNL A   1      45.829  34.741  32.190  1.00  0.00     0.000 A 
ENDBRANCH  70  83
ENDBRANCH  44  45
ENDBRANCH  36  39
ENDBRANCH  34  35
ENDBRANCH  33  34
ENDBRANCH   1  33
TORSDOF 16
ENDMDL
MODEL 3
REMARK VINA RESULT:     -10.6      1.917      2.408
REMARK SMILES CCOc1cc2c(cc1OCC)[C@@H](C(=O)NCCCCNC(=O)c1ccc(-c3c4nc(c(-c5ccccc5)c5ccc([nH]5)c(-c5ccccc5)c5nc(c(-c6ccccc6)c6ccc3[nH]6)C=C5)C=C4)cc1)[C@H](c1ccc(F)cc1Cl)N(C)C2=O
REMARK SMILES IDX 18 1 17 2 16 3 14 4 15 5 13 7 4 8 5 9 9 10 6 11 8 12 7 13
REMARK SMILES IDX 83 14 81 15 84 16 72 17 82 18 3 19 2 20 1 21 10 22 11 23
REMARK SMILES IDX 12 24 73 25 74 26 79 27 75 28 78 29 80 30 76 31 77 32 19 33
REMARK SMILES IDX 20 34 21 35 22 36 23 38 24 39 25 40 71 41 26 42 70 43 27 44
REMARK SMILES IDX 28 45 29 46 64 47 30 48 69 49 63 50 65 51 31 52 68 53 62 54
REMARK SMILES IDX 61 55 32 57 54 58 39 59 53 60 40 61 43 62 52 63 66 64 41 65
REMARK SMILES IDX 42 66 51 68 67 69 44 70 33 71 34 72 38 73 35 74 37 75 36 76
REMARK SMILES IDX 55 77 56 78 60 79 57 80 59 81 58 82 45 83 46 84 50 85 47 86
REMARK SMILES IDX 49 87 48 88
REMARK H PARENT 16 6 21 37 65 56 43 67
REMARK Flexibility Score: inf
ROOT
ATOM      1  C   UNL A   1      31.717  28.754  26.753  1.00  0.00     0.023 C 
ENDROOT
BRANCH   1   2
ATOM      2  C   UNL A   1      32.654  27.545  26.784  1.00  0.00     0.116 C 
BRANCH   2   3
ATOM      3  N   UNL A   1      31.915  26.323  27.048  1.00  0.00    -0.355 N 
ATOM      4  C   UNL A   1      32.009  25.053  26.588  1.00  0.00     0.230 C 
ATOM      5  O   UNL A   1      31.078  24.303  26.922  1.00  0.00    -0.274 OA
ATOM      6  H   UNL A   1      31.188  26.445  27.700  1.00  0.00     0.163 HD
BRANCH   4   7
ATOM      7  C   UNL A   1      33.097  24.483  25.684  1.00  0.00     0.136 C 
ATOM      8  C   UNL A   1      33.097  25.060  21.416  1.00  0.00     0.161 A 
ATOM      9  C   UNL A   1      32.681  23.842  21.975  1.00  0.00     0.064 A 
ATOM     10  C   UNL A   1      33.490  26.117  22.247  1.00  0.00     0.161 A 
ATOM     11  C   UNL A   1      32.627  23.677  23.358  1.00  0.00     0.048 A 
ATOM     12  C   UNL A   1      33.410  25.941  23.638  1.00  0.00     0.056 A 
ATOM     13  C   UNL A   1      33.000  24.725  24.201  1.00  0.00    -0.016 A 
ATOM     14  C   UNL A   1      32.135  22.395  23.931  1.00  0.00     0.254 C 
ATOM     15  N   UNL A   1      32.480  22.126  25.257  1.00  0.00    -0.333 N 
ATOM     16  O   UNL A   1      31.413  21.675  23.248  1.00  0.00    -0.269 OA
ATOM     17  C   UNL A   1      33.419  22.984  25.978  1.00  0.00     0.134 C 
ATOM     18  C   UNL A   1      31.999  20.921  25.920  1.00  0.00     0.147 C 
BRANCH   8  19
ATOM     19  O   UNL A   1      33.210  25.119  20.054  1.00  0.00    -0.490 OA
BRANCH  19  20
ATOM     20  C   UNL A   1      32.035  25.642  19.420  1.00  0.00     0.226 C 
ATOM     21  C   UNL A   1      31.973  25.249  17.953  1.00  0.00     0.049 C 
ENDBRANCH  19  20
ENDBRANCH   8  19
BRANCH  10  22
ATOM     22  O   UNL A   1      33.984  27.348  21.920  1.00  0.00    -0.490 OA
BRANCH  22  23
ATOM     23  C   UNL A   1      33.957  28.427  22.846  1.00  0.00     0.226 C 
ATOM     24  C   UNL A   1      32.652  29.201  22.781  1.00  0.00     0.049 C 
ENDBRANCH  22  23
ENDBRANCH  10  22
BRANCH  17  25
ATOM     25  C   UNL A   1      34.921  22.661  25.747  1.00  0.00    -0.005 A 
ATOM     26  C   UNL A   1      35.827  23.690  26.121  1.00  0.00     0.010 A 
ATOM     27  C   UNL A   1      35.496  21.488  25.202  1.00  0.00     0.049 A 
ATOM     28  C   UNL A   1      37.200  23.597  25.883  1.00  0.00     0.040 A 
ATOM     29  C   UNL A   1      36.879  21.399  24.979  1.00  0.00     0.060 A 
ATOM     30  Cl  UNL A   1      34.656  20.043  24.768  1.00  0.00    -0.084 Cl
ATOM     31  C   UNL A   1      37.711  22.453  25.304  1.00  0.00     0.124 A 
ATOM     32  F   UNL A   1      39.026  22.356  25.065  1.00  0.00    -0.207 F 
ENDBRANCH  17  25
ENDBRANCH   4   7
ENDBRANCH   2   3
ENDBRANCH   1   2
BRANCH   1  33
ATOM     33  C   UNL A   1      32.344  30.053  26.270  1.00  0.00     0.023 C 
BRANCH  33  34
ATOM     34  C   UNL A   1      33.679  30.382  26.919  1.00  0.00     0.116 C 
BRANCH  34  35
ATOM     35  N   UNL A   1      33.673  31.576  27.756  1.00  0.00    -0.352 N 
ATOM     36  C   UNL A   1      34.634  31.960  28.672  1.00  0.00     0.251 C 
ATOM     37  H   UNL A   1      32.898  32.175  27.658  1.00  0.00     0.163 HD
ATOM     38  O   UNL A   1      34.507  32.963  29.359  1.00  0.00    -0.269 OA
BRANCH  36  39
ATOM     39  C   UNL A   1      35.813  31.086  28.846  1.00  0.00     0.039 A 
ATOM     40  C   UNL A   1      37.046  31.498  28.337  1.00  0.00     0.014 A 
ATOM     41  C   UNL A   1      35.713  29.935  29.631  1.00  0.00     0.014 A 
ATOM     42  C   UNL A   1      38.204  30.811  28.707  1.00  0.00     0.010 A 
ATOM     43  C   UNL A   1      36.872  29.312  30.069  1.00  0.00     0.010 A 
ATOM     44  C   UNL A   1      38.131  29.748  29.622  1.00  0.00    -0.014 A 
BRANCH  44  45
ATOM     45  C   UNL A   1      39.342  29.059  30.133  1.00  0.00     0.031 A 
ATOM     46  C   UNL A   1      40.019  29.585  31.369  1.00  0.00     0.074 A 
ATOM     47  C   UNL A   1      39.900  28.048  29.437  1.00  0.00     0.049 A 
ATOM     48  N   UNL A   1      41.185  29.269  31.873  1.00  0.00    -0.248 NA
ATOM     49  C   UNL A   1      39.309  30.640  32.108  1.00  0.00     0.031 C 
ATOM     50  C   UNL A   1      39.371  27.465  28.201  1.00  0.00     0.029 A 
ATOM     51  N   UNL A   1      41.055  27.342  29.666  1.00  0.00    -0.354 N 
ATOM     52  C   UNL A   1      41.368  30.123  32.952  1.00  0.00     0.074 A 
ATOM     53  C   UNL A   1      40.212  30.992  33.009  1.00  0.00     0.031 C 
ATOM     54  C   UNL A   1      40.184  26.476  27.797  1.00  0.00     0.029 A 
ATOM     55  C   UNL A   1      41.315  26.384  28.716  1.00  0.00     0.049 A 
ATOM     56  H   UNL A   1      41.643  27.507  30.439  1.00  0.00     0.167 HD
ATOM     57  C   UNL A   1      42.397  30.171  33.829  1.00  0.00     0.031 A 
ATOM     58  C   UNL A   1      42.351  25.532  28.595  1.00  0.00     0.031 A 
ATOM     59  C   UNL A   1      43.517  29.273  33.809  1.00  0.00     0.049 A 
ATOM     60  C   UNL A   1      43.459  25.571  29.611  1.00  0.00     0.074 A 
ATOM     61  C   UNL A   1      44.580  29.199  34.691  1.00  0.00     0.029 A 
ATOM     62  N   UNL A   1      43.705  28.275  32.866  1.00  0.00    -0.354 N 
ATOM     63  N   UNL A   1      43.602  26.364  30.644  1.00  0.00    -0.248 NA
ATOM     64  C   UNL A   1      44.543  24.591  29.447  1.00  0.00     0.031 C 
ATOM     65  C   UNL A   1      45.423  28.165  34.270  1.00  0.00     0.029 A 
ATOM     66  C   UNL A   1      44.866  27.578  33.147  1.00  0.00     0.049 A 
ATOM     67  H   UNL A   1      43.103  28.091  32.109  1.00  0.00     0.167 HD
ATOM     68  C   UNL A   1      44.772  25.957  31.274  1.00  0.00     0.074 A 
ATOM     69  C   UNL A   1      45.299  24.847  30.507  1.00  0.00     0.031 C 
ATOM     70  C   UNL A   1      45.357  26.459  32.386  1.00  0.00     0.031 A 
BRANCH  57  71
ATOM     71  C   UNL A   1      42.347  31.235  34.886  1.00  0.00    -0.014 A 
ATOM     72  C   UNL A   1      41.739  30.997  36.129  1.00  0.00     0.009 A 
ATOM     73  C   UNL A   1      42.923  32.492  34.640  1.00  0.00     0.009 A 
ATOM     74  C   UNL A   1      41.671  32.010  37.088  1.00  0.00     0.001 A 
ATOM     75  C   UNL A   1      42.878  33.492  35.611  1.00  0.00     0.001 A 
ATOM     76  C   UNL A   1      42.243  33.255  36.829  1.00  0.00     0.000 A 
ENDBRANCH  57  71
BRANCH  58  77
ATOM     77  C   UNL A   1      42.384  24.548  27.483  1.00  0.00    -0.014 A 
ATOM     78  C   UNL A   1      41.819  23.275  27.654  1.00  0.00     0.009 A 
ATOM     79  C   UNL A   1      42.985  24.866  26.257  1.00  0.00     0.009 A 
ATOM     80  C   UNL A   1      41.877  22.330  26.626  1.00  0.00     0.001 A 
ATOM     81  C   UNL A   1      43.021  23.927  25.223  1.00  0.00     0.001 A 
ATOM     82  C   UNL A   1      42.476  22.658  25.411  1.00  0.00     0.000 A 
ENDBRANCH  58  77
BRANCH  70  83
ATOM     83  C   UNL A   1      46.597  25.778  32.882  1.00  0.00    -0.014 A 
ATOM     84  C   UNL A   1      47.869  26.175  32.445  1.00  0.00     0.009 A 
ATOM     85  C   UNL A   1      46.489  24.772  33.854  1.00  0.00     0.009 A 
ATOM     86  C   UNL A   1      49.012  25.561  32.961  1.00  0.00     0.001 A 
ATOM     87  C   UNL A   1      47.633  24.174  34.384  1.00  0.00     0.001 A 
ATOM     88  C   UNL A   1      48.893  24.567  33.933  1.00  0.00     0.000 A 
ENDBRANCH  70  83
ENDBRANCH  44  45
ENDBRANCH  36  39
ENDBRANCH  34  35
ENDBRANCH  33  34
ENDBRANCH   1  33
TORSDOF 16
ENDMDL
