MODEL 1
REMARK VINA RESULT:     -10.1      0.000      0.000
REMARK SMILES CCC(C)(C)c1ccc(O[C@H](F)C(=O)NCCCCNC(=O)c2ccc(-c3c4nc(c(-c5ccccc5)c5ccc([nH]5)c(-c5ccccc5)c5nc(c(-c6ccccc6)c6ccc3[nH]6)C=C5)C=C4)cc2)cc1
REMARK SMILES IDX 16 1 15 2 13 3 14 4 11 6 12 7 10 8 9 9 6 10 7 11 72 12 8 13
REMARK SMILES IDX 71 14 3 15 4 16 5 17 2 18 1 19 17 20 18 21 19 22 20 23 21 24
REMARK SMILES IDX 22 26 23 27 24 28 70 29 25 30 69 31 26 32 27 33 28 34 63 35
REMARK SMILES IDX 29 36 68 37 62 38 64 39 30 40 67 41 61 42 60 43 31 45 53 46
REMARK SMILES IDX 38 47 52 48 39 49 42 50 51 51 65 52 40 53 41 54 50 56 66 57
REMARK SMILES IDX 43 58 32 59 33 60 37 61 34 62 36 63 35 64 54 65 55 66 59 67
REMARK SMILES IDX 56 68 58 69 57 70 44 71 45 72 49 73 46 74 48 75 47 76
REMARK H PARENT 15 5 20 25 64 44 42 55
REMARK Flexibility Score: inf
ROOT
ATOM      1  C   UNL A   1      42.711  19.286  25.958  1.00  0.00     0.116 C 
ENDROOT
BRANCH   1   2
ATOM      2  N   UNL A   1      43.979  18.577  25.974  1.00  0.00    -0.350 N 
ATOM      3  C   UNL A   1      45.070  18.791  25.163  1.00  0.00     0.294 C 
ATOM      4  O   UNL A   1      46.092  18.130  25.370  1.00  0.00    -0.267 OA
ATOM      5  H   UNL A   1      44.067  17.860  26.643  1.00  0.00     0.163 HD
BRANCH   3   6
ATOM      6  C   UNL A   1      44.976  19.838  24.036  1.00  0.00     0.440 C 
ATOM      7  F   UNL A   1      44.478  19.255  22.910  1.00  0.00    -0.191 F 
BRANCH   6   8
ATOM      8  O   UNL A   1      44.152  20.911  24.501  1.00  0.00    -0.452 OA
BRANCH   8   9
ATOM      9  C   UNL A   1      44.635  22.165  24.710  1.00  0.00     0.123 A 
ATOM     10  C   UNL A   1      46.001  24.623  25.172  1.00  0.00    -0.042 A 
ATOM     11  C   UNL A   1      44.659  24.438  25.545  1.00  0.00     0.008 A 
ATOM     12  C   UNL A   1      46.618  23.562  24.492  1.00  0.00     0.008 A 
ATOM     13  C   UNL A   1      43.982  23.234  25.306  1.00  0.00     0.047 A 
ATOM     14  C   UNL A   1      45.949  22.350  24.280  1.00  0.00     0.047 A 
BRANCH  10  15
ATOM     15  C   UNL A   1      46.732  25.953  25.437  1.00  0.00    -0.011 C 
ATOM     16  C   UNL A   1      45.892  27.185  25.016  1.00  0.00     0.016 C 
ATOM     17  C   UNL A   1      48.015  25.942  24.574  1.00  0.00     0.016 C 
BRANCH  15  18
ATOM     18  C   UNL A   1      47.164  26.160  26.925  1.00  0.00     0.008 C 
ATOM     19  C   UNL A   1      48.367  25.336  27.379  1.00  0.00     0.005 C 
ENDBRANCH  15  18
ENDBRANCH  10  15
ENDBRANCH   8   9
ENDBRANCH   6   8
ENDBRANCH   3   6
ENDBRANCH   1   2
BRANCH   1  20
ATOM     20  C   UNL A   1      42.140  19.515  27.355  1.00  0.00     0.023 C 
BRANCH  20  21
ATOM     21  C   UNL A   1      41.188  20.705  27.482  1.00  0.00     0.023 C 
BRANCH  21  22
ATOM     22  C   UNL A   1      40.962  21.514  26.209  1.00  0.00     0.116 C 
BRANCH  22  23
ATOM     23  N   UNL A   1      39.558  21.718  25.891  1.00  0.00    -0.352 N 
ATOM     24  C   UNL A   1      38.759  22.808  26.124  1.00  0.00     0.251 C 
ATOM     25  H   UNL A   1      39.116  20.961  25.444  1.00  0.00     0.163 HD
ATOM     26  O   UNL A   1      37.556  22.746  25.861  1.00  0.00    -0.269 OA
BRANCH  24  27
ATOM     27  C   UNL A   1      39.310  24.045  26.722  1.00  0.00     0.039 A 
ATOM     28  C   UNL A   1      40.044  24.909  25.902  1.00  0.00     0.014 A 
ATOM     29  C   UNL A   1      39.130  24.359  28.072  1.00  0.00     0.014 A 
ATOM     30  C   UNL A   1      40.541  26.108  26.418  1.00  0.00     0.010 A 
ATOM     31  C   UNL A   1      39.565  25.589  28.569  1.00  0.00     0.010 A 
ATOM     32  C   UNL A   1      40.278  26.475  27.748  1.00  0.00    -0.014 A 
BRANCH  32  33
ATOM     33  C   UNL A   1      40.732  27.790  28.270  1.00  0.00     0.031 A 
ATOM     34  C   UNL A   1      39.743  28.882  28.580  1.00  0.00     0.074 A 
ATOM     35  C   UNL A   1      42.050  28.014  28.440  1.00  0.00     0.049 A 
ATOM     36  N   UNL A   1      39.961  30.070  29.090  1.00  0.00    -0.248 NA
ATOM     37  C   UNL A   1      38.332  28.618  28.259  1.00  0.00     0.031 C 
ATOM     38  C   UNL A   1      43.120  27.066  28.125  1.00  0.00     0.029 A 
ATOM     39  N   UNL A   1      42.714  29.110  28.934  1.00  0.00    -0.354 N 
ATOM     40  C   UNL A   1      38.721  30.696  29.136  1.00  0.00     0.074 A 
ATOM     41  C   UNL A   1      37.763  29.776  28.562  1.00  0.00     0.031 C 
ATOM     42  C   UNL A   1      44.300  27.601  28.475  1.00  0.00     0.029 A 
ATOM     43  C   UNL A   1      44.075  28.939  29.013  1.00  0.00     0.049 A 
ATOM     44  H   UNL A   1      42.259  29.940  29.204  1.00  0.00     0.167 HD
ATOM     45  C   UNL A   1      38.403  31.917  29.628  1.00  0.00     0.031 A 
ATOM     46  C   UNL A   1      45.035  29.758  29.482  1.00  0.00     0.031 A 
ATOM     47  C   UNL A   1      39.347  32.828  30.218  1.00  0.00     0.049 A 
ATOM     48  C   UNL A   1      44.650  31.099  30.042  1.00  0.00     0.074 A 
ATOM     49  C   UNL A   1      39.106  34.054  30.814  1.00  0.00     0.029 A 
ATOM     50  N   UNL A   1      40.715  32.614  30.284  1.00  0.00    -0.354 N 
ATOM     51  N   UNL A   1      43.460  31.634  30.165  1.00  0.00    -0.248 NA
ATOM     52  C   UNL A   1      45.746  31.939  30.545  1.00  0.00     0.031 C 
ATOM     53  C   UNL A   1      40.334  34.603  31.199  1.00  0.00     0.029 A 
ATOM     54  C   UNL A   1      41.334  33.696  30.887  1.00  0.00     0.049 A 
ATOM     55  H   UNL A   1      41.178  31.812  29.950  1.00  0.00     0.167 HD
ATOM     56  C   UNL A   1      43.661  32.860  30.785  1.00  0.00     0.074 A 
ATOM     57  C   UNL A   1      45.084  32.980  31.030  1.00  0.00     0.031 C 
ATOM     58  C   UNL A   1      42.749  33.805  31.121  1.00  0.00     0.031 A 
BRANCH  45  59
ATOM     59  C   UNL A   1      36.963  32.344  29.548  1.00  0.00    -0.014 A 
ATOM     60  C   UNL A   1      36.083  32.136  30.621  1.00  0.00     0.009 A 
ATOM     61  C   UNL A   1      36.494  33.004  28.402  1.00  0.00     0.009 A 
ATOM     62  C   UNL A   1      34.752  32.552  30.535  1.00  0.00     0.001 A 
ATOM     63  C   UNL A   1      35.171  33.444  28.329  1.00  0.00     0.001 A 
ATOM     64  C   UNL A   1      34.299  33.210  29.391  1.00  0.00     0.000 A 
ENDBRANCH  45  59
BRANCH  46  65
ATOM     65  C   UNL A   1      46.455  29.324  29.486  1.00  0.00    -0.014 A 
ATOM     66  C   UNL A   1      47.276  29.577  28.375  1.00  0.00     0.009 A 
ATOM     67  C   UNL A   1      46.991  28.635  30.584  1.00  0.00     0.009 A 
ATOM     68  C   UNL A   1      48.595  29.119  28.350  1.00  0.00     0.001 A 
ATOM     69  C   UNL A   1      48.319  28.202  30.567  1.00  0.00     0.001 A 
ATOM     70  C   UNL A   1      49.115  28.433  29.447  1.00  0.00     0.000 A 
ENDBRANCH  46  65
BRANCH  58  71
ATOM     71  C   UNL A   1      43.266  35.032  31.816  1.00  0.00    -0.014 A 
ATOM     72  C   UNL A   1      43.362  35.090  33.216  1.00  0.00     0.009 A 
ATOM     73  C   UNL A   1      43.666  36.144  31.060  1.00  0.00     0.009 A 
ATOM     74  C   UNL A   1      43.807  36.255  33.845  1.00  0.00     0.001 A 
ATOM     75  C   UNL A   1      44.139  37.297  31.690  1.00  0.00     0.001 A 
ATOM     76  C   UNL A   1      44.196  37.355  33.082  1.00  0.00     0.000 A 
ENDBRANCH  58  71
ENDBRANCH  32  33
ENDBRANCH  24  27
ENDBRANCH  22  23
ENDBRANCH  21  22
ENDBRANCH  20  21
ENDBRANCH   1  20
TORSDOF 15
ENDMDL
MODEL 2
REMARK VINA RESULT:     -10.1      0.543      6.080
REMARK SMILES CCC(C)(C)c1ccc(O[C@H](F)C(=O)NCCCCNC(=O)c2ccc(-c3c4nc(c(-c5ccccc5)c5ccc([nH]5)c(-c5ccccc5)c5nc(c(-c6ccccc6)c6ccc3[nH]6)C=C5)C=C4)cc2)cc1
REMARK SMILES IDX 16 1 15 2 13 3 14 4 11 6 12 7 10 8 9 9 6 10 7 11 72 12 8 13
REMARK SMILES IDX 71 14 3 15 4 16 5 17 2 18 1 19 17 20 18 21 19 22 20 23 21 24
REMARK SMILES IDX 22 26 23 27 24 28 70 29 25 30 69 31 26 32 27 33 28 34 63 35
REMARK SMILES IDX 29 36 68 37 62 38 64 39 30 40 67 41 61 42 60 43 31 45 53 46
REMARK SMILES IDX 38 47 52 48 39 49 42 50 51 51 65 52 40 53 41 54 50 56 66 57
REMARK SMILES IDX 43 58 32 59 33 60 37 61 34 62 36 63 35 64 54 65 55 66 59 67
REMARK SMILES IDX 56 68 58 69 57 70 44 71 45 72 49 73 46 74 48 75 47 76
REMARK H PARENT 15 5 20 25 64 44 42 55
REMARK Flexibility Score: inf
ROOT
ATOM      1  C   UNL A   1      42.649  19.251  25.973  1.00  0.00     0.116 C 
ENDROOT
BRANCH   1   2
ATOM      2  N   UNL A   1      43.878  18.479  26.013  1.00  0.00    -0.350 N 
ATOM      3  C   UNL A   1      44.977  18.608  25.193  1.00  0.00     0.294 C 
ATOM      4  O   UNL A   1      45.964  17.904  25.422  1.00  0.00    -0.267 OA
ATOM      5  H   UNL A   1      43.932  17.782  26.706  1.00  0.00     0.163 HD
BRANCH   3   6
ATOM      6  C   UNL A   1      44.934  19.619  24.031  1.00  0.00     0.440 C 
ATOM      7  F   UNL A   1      44.477  19.003  22.905  1.00  0.00    -0.191 F 
BRANCH   6   8
ATOM      8  O   UNL A   1      44.098  20.711  24.428  1.00  0.00    -0.452 OA
BRANCH   8   9
ATOM      9  C   UNL A   1      44.586  21.959  24.656  1.00  0.00     0.123 A 
ATOM     10  C   UNL A   1      45.961  24.403  25.161  1.00  0.00    -0.042 A 
ATOM     11  C   UNL A   1      44.613  24.224  25.513  1.00  0.00     0.008 A 
ATOM     12  C   UNL A   1      46.581  23.344  24.480  1.00  0.00     0.008 A 
ATOM     13  C   UNL A   1      43.931  23.027  25.253  1.00  0.00     0.047 A 
ATOM     14  C   UNL A   1      45.907  22.139  24.247  1.00  0.00     0.047 A 
BRANCH  10  15
ATOM     15  C   UNL A   1      46.698  25.726  25.449  1.00  0.00    -0.011 C 
ATOM     16  C   UNL A   1      45.865  26.967  25.042  1.00  0.00     0.016 C 
ATOM     17  C   UNL A   1      47.984  25.722  24.591  1.00  0.00     0.016 C 
BRANCH  15  18
ATOM     18  C   UNL A   1      47.125  25.908  26.941  1.00  0.00     0.008 C 
ATOM     19  C   UNL A   1      48.328  25.080  27.384  1.00  0.00     0.005 C 
ENDBRANCH  15  18
ENDBRANCH  10  15
ENDBRANCH   8   9
ENDBRANCH   6   8
ENDBRANCH   3   6
ENDBRANCH   1   2
BRANCH   1  20
ATOM     20  C   UNL A   1      42.086  19.544  27.361  1.00  0.00     0.023 C 
BRANCH  20  21
ATOM     21  C   UNL A   1      41.165  20.762  27.447  1.00  0.00     0.023 C 
BRANCH  21  22
ATOM     22  C   UNL A   1      40.963  21.534  26.147  1.00  0.00     0.116 C 
BRANCH  22  23
ATOM     23  N   UNL A   1      39.565  21.759  25.817  1.00  0.00    -0.352 N 
ATOM     24  C   UNL A   1      38.779  22.860  26.047  1.00  0.00     0.251 C 
ATOM     25  H   UNL A   1      39.116  21.011  25.362  1.00  0.00     0.163 HD
ATOM     26  O   UNL A   1      37.578  22.816  25.772  1.00  0.00    -0.269 OA
BRANCH  24  27
ATOM     27  C   UNL A   1      39.342  24.086  26.655  1.00  0.00     0.039 A 
ATOM     28  C   UNL A   1      39.981  25.009  25.820  1.00  0.00     0.014 A 
ATOM     29  C   UNL A   1      39.265  24.334  28.030  1.00  0.00     0.014 A 
ATOM     30  C   UNL A   1      40.485  26.199  26.350  1.00  0.00     0.010 A 
ATOM     31  C   UNL A   1      39.705  25.554  28.546  1.00  0.00     0.010 A 
ATOM     32  C   UNL A   1      40.322  26.498  27.713  1.00  0.00    -0.014 A 
BRANCH  32  33
ATOM     33  C   UNL A   1      40.780  27.802  28.258  1.00  0.00     0.031 A 
ATOM     34  C   UNL A   1      42.247  28.117  28.377  1.00  0.00     0.074 A 
ATOM     35  C   UNL A   1      39.868  28.702  28.676  1.00  0.00     0.049 A 
ATOM     36  N   UNL A   1      42.822  29.224  28.780  1.00  0.00    -0.248 NA
ATOM     37  C   UNL A   1      43.192  27.049  28.017  1.00  0.00     0.031 C 
ATOM     38  C   UNL A   1      38.417  28.504  28.672  1.00  0.00     0.029 A 
ATOM     39  N   UNL A   1      40.027  29.971  29.174  1.00  0.00    -0.354 N 
ATOM     40  C   UNL A   1      44.189  28.979  28.737  1.00  0.00     0.074 A 
ATOM     41  C   UNL A   1      44.358  27.606  28.312  1.00  0.00     0.031 C 
ATOM     42  C   UNL A   1      37.818  29.626  29.101  1.00  0.00     0.029 A 
ATOM     43  C   UNL A   1      38.840  30.612  29.436  1.00  0.00     0.049 A 
ATOM     44  H   UNL A   1      40.908  30.382  29.332  1.00  0.00     0.167 HD
ATOM     45  C   UNL A   1      45.213  29.823  29.007  1.00  0.00     0.031 A 
ATOM     46  C   UNL A   1      38.599  31.860  29.879  1.00  0.00     0.031 A 
ATOM     47  C   UNL A   1      45.052  31.194  29.411  1.00  0.00     0.049 A 
ATOM     48  C   UNL A   1      39.754  32.782  30.150  1.00  0.00     0.074 A 
ATOM     49  C   UNL A   1      46.031  32.149  29.632  1.00  0.00     0.029 A 
ATOM     50  N   UNL A   1      43.834  31.806  29.659  1.00  0.00    -0.354 N 
ATOM     51  N   UNL A   1      41.038  32.563  30.011  1.00  0.00    -0.248 NA
ATOM     52  C   UNL A   1      39.419  34.133  30.623  1.00  0.00     0.031 C 
ATOM     53  C   UNL A   1      45.406  33.326  30.059  1.00  0.00     0.029 A 
ATOM     54  C   UNL A   1      44.036  33.119  30.055  1.00  0.00     0.049 A 
ATOM     55  H   UNL A   1      42.955  31.373  29.568  1.00  0.00     0.167 HD
ATOM     56  C   UNL A   1      41.664  33.756  30.351  1.00  0.00     0.074 A 
ATOM     57  C   UNL A   1      40.616  34.700  30.684  1.00  0.00     0.031 C 
ATOM     58  C   UNL A   1      42.987  34.045  30.387  1.00  0.00     0.031 A 
BRANCH  45  59
ATOM     59  C   UNL A   1      46.611  29.283  28.875  1.00  0.00    -0.014 A 
ATOM     60  C   UNL A   1      47.371  29.509  27.716  1.00  0.00     0.009 A 
ATOM     61  C   UNL A   1      47.191  28.581  29.942  1.00  0.00     0.009 A 
ATOM     62  C   UNL A   1      48.673  29.012  27.617  1.00  0.00     0.001 A 
ATOM     63  C   UNL A   1      48.502  28.110  29.852  1.00  0.00     0.001 A 
ATOM     64  C   UNL A   1      49.238  28.318  28.686  1.00  0.00     0.000 A 
ENDBRANCH  45  59
BRANCH  46  65
ATOM     65  C   UNL A   1      37.203  32.336  30.057  1.00  0.00    -0.014 A 
ATOM     66  C   UNL A   1      36.510  32.069  31.249  1.00  0.00     0.009 A 
ATOM     67  C   UNL A   1      36.547  33.034  29.032  1.00  0.00     0.009 A 
ATOM     68  C   UNL A   1      35.179  32.462  31.397  1.00  0.00     0.001 A 
ATOM     69  C   UNL A   1      35.225  33.450  29.195  1.00  0.00     0.001 A 
ATOM     70  C   UNL A   1      34.538  33.153  30.371  1.00  0.00     0.000 A 
ENDBRANCH  46  65
BRANCH  58  71
ATOM     71  C   UNL A   1      43.367  35.447  30.770  1.00  0.00    -0.014 A 
ATOM     72  C   UNL A   1      43.520  36.451  29.801  1.00  0.00     0.009 A 
ATOM     73  C   UNL A   1      43.571  35.768  32.121  1.00  0.00     0.009 A 
ATOM     74  C   UNL A   1      43.913  37.738  30.174  1.00  0.00     0.001 A 
ATOM     75  C   UNL A   1      43.935  37.063  32.494  1.00  0.00     0.001 A 
ATOM     76  C   UNL A   1      44.118  38.042  31.519  1.00  0.00     0.000 A 
ENDBRANCH  58  71
ENDBRANCH  32  33
ENDBRANCH  24  27
ENDBRANCH  22  23
ENDBRANCH  21  22
ENDBRANCH  20  21
ENDBRANCH   1  20
TORSDOF 15
ENDMDL
MODEL 3
REMARK VINA RESULT:     -10.1      4.830     11.532
REMARK SMILES CCC(C)(C)c1ccc(O[C@H](F)C(=O)NCCCCNC(=O)c2ccc(-c3c4nc(c(-c5ccccc5)c5ccc([nH]5)c(-c5ccccc5)c5nc(c(-c6ccccc6)c6ccc3[nH]6)C=C5)C=C4)cc2)cc1
REMARK SMILES IDX 16 1 15 2 13 3 14 4 11 6 12 7 10 8 9 9 6 10 7 11 72 12 8 13
REMARK SMILES IDX 71 14 3 15 4 16 5 17 2 18 1 19 17 20 18 21 19 22 20 23 21 24
REMARK SMILES IDX 22 26 23 27 24 28 70 29 25 30 69 31 26 32 27 33 28 34 63 35
REMARK SMILES IDX 29 36 68 37 62 38 64 39 30 40 67 41 61 42 60 43 31 45 53 46
REMARK SMILES IDX 38 47 52 48 39 49 42 50 51 51 65 52 40 53 41 54 50 56 66 57
REMARK SMILES IDX 43 58 32 59 33 60 37 61 34 62 36 63 35 64 54 65 55 66 59 67
REMARK SMILES IDX 56 68 58 69 57 70 44 71 45 72 49 73 46 74 48 75 47 76
REMARK H PARENT 15 5 20 25 64 44 42 55
REMARK Flexibility Score: inf
ROOT
ATOM      1  C   UNL A   1      33.317  34.889  30.181  1.00  0.00     0.116 C 
ENDROOT
BRANCH   1   2
ATOM      2  N   UNL A   1      32.476  35.777  30.964  1.00  0.00    -0.350 N 
ATOM      3  C   UNL A   1      32.725  36.275  32.223  1.00  0.00     0.294 C 
ATOM      4  O   UNL A   1      31.920  37.077  32.705  1.00  0.00    -0.267 OA
ATOM      5  H   UNL A   1      31.630  36.056  30.545  1.00  0.00     0.163 HD
BRANCH   3   6
ATOM      6  C   UNL A   1      33.988  35.816  32.977  1.00  0.00     0.440 C 
ATOM      7  F   UNL A   1      34.159  36.579  34.092  1.00  0.00    -0.191 F 
BRANCH   6   8
ATOM      8  O   UNL A   1      33.835  34.428  33.289  1.00  0.00    -0.452 OA
BRANCH   8   9
ATOM      9  C   UNL A   1      34.896  33.608  33.513  1.00  0.00     0.123 A 
ATOM     10  C   UNL A   1      37.283  32.195  34.167  1.00  0.00    -0.042 A 
ATOM     11  C   UNL A   1      36.514  31.870  33.036  1.00  0.00     0.008 A 
ATOM     12  C   UNL A   1      36.779  33.203  35.002  1.00  0.00     0.008 A 
ATOM     13  C   UNL A   1      35.333  32.555  32.721  1.00  0.00     0.047 A 
ATOM     14  C   UNL A   1      35.615  33.906  34.671  1.00  0.00     0.047 A 
BRANCH  10  15
ATOM     15  C   UNL A   1      38.578  31.430  34.504  1.00  0.00    -0.011 C 
ATOM     16  C   UNL A   1      38.812  30.220  33.566  1.00  0.00     0.016 C 
ATOM     17  C   UNL A   1      38.418  30.886  35.942  1.00  0.00     0.016 C 
BRANCH  15  18
ATOM     18  C   UNL A   1      39.867  32.313  34.473  1.00  0.00     0.008 C 
ATOM     19  C   UNL A   1      39.785  33.564  33.602  1.00  0.00     0.005 C 
ENDBRANCH  15  18
ENDBRANCH  10  15
ENDBRANCH   8   9
ENDBRANCH   6   8
ENDBRANCH   3   6
ENDBRANCH   1   2
BRANCH   1  20
ATOM     20  C   UNL A   1      33.856  35.545  28.912  1.00  0.00     0.023 C 
BRANCH  20  21
ATOM     21  C   UNL A   1      34.672  34.627  28.001  1.00  0.00     0.023 C 
BRANCH  21  22
ATOM     22  C   UNL A   1      35.026  33.260  28.580  1.00  0.00     0.116 C 
BRANCH  22  23
ATOM     23  N   UNL A   1      34.129  32.199  28.153  1.00  0.00    -0.352 N 
ATOM     24  C   UNL A   1      34.378  30.861  27.980  1.00  0.00     0.251 C 
ATOM     25  H   UNL A   1      33.207  32.482  27.959  1.00  0.00     0.163 HD
ATOM     26  O   UNL A   1      33.498  30.135  27.516  1.00  0.00    -0.269 OA
BRANCH  24  27
ATOM     27  C   UNL A   1      35.701  30.282  28.307  1.00  0.00     0.039 A 
ATOM     28  C   UNL A   1      36.674  30.240  27.302  1.00  0.00     0.014 A 
ATOM     29  C   UNL A   1      35.993  29.771  29.575  1.00  0.00     0.014 A 
ATOM     30  C   UNL A   1      37.948  29.744  27.585  1.00  0.00     0.010 A 
ATOM     31  C   UNL A   1      37.287  29.342  29.875  1.00  0.00     0.010 A 
ATOM     32  C   UNL A   1      38.278  29.321  28.883  1.00  0.00    -0.014 A 
BRANCH  32  33
ATOM     33  C   UNL A   1      39.659  28.876  29.203  1.00  0.00     0.031 A 
ATOM     34  C   UNL A   1      40.594  29.760  29.984  1.00  0.00     0.074 A 
ATOM     35  C   UNL A   1      40.086  27.677  28.761  1.00  0.00     0.049 A 
ATOM     36  N   UNL A   1      41.813  29.510  30.395  1.00  0.00    -0.248 NA
ATOM     37  C   UNL A   1      40.109  31.104  30.333  1.00  0.00     0.031 C 
ATOM     38  C   UNL A   1      39.305  26.746  27.944  1.00  0.00     0.029 A 
ATOM     39  N   UNL A   1      41.282  27.029  28.948  1.00  0.00    -0.354 N 
ATOM     40  C   UNL A   1      42.243  30.666  31.034  1.00  0.00     0.074 A 
ATOM     41  C   UNL A   1      41.174  31.634  30.919  1.00  0.00     0.031 C 
ATOM     42  C   UNL A   1      40.023  25.630  27.741  1.00  0.00     0.029 A 
ATOM     43  C   UNL A   1      41.323  25.776  28.387  1.00  0.00     0.049 A 
ATOM     44  H   UNL A   1      42.040  27.426  29.437  1.00  0.00     0.167 HD
ATOM     45  C   UNL A   1      43.413  30.898  31.677  1.00  0.00     0.031 A 
ATOM     46  C   UNL A   1      42.291  24.841  28.404  1.00  0.00     0.031 A 
ATOM     47  C   UNL A   1      44.471  29.933  31.813  1.00  0.00     0.049 A 
ATOM     48  C   UNL A   1      43.570  25.117  29.142  1.00  0.00     0.074 A 
ATOM     49  C   UNL A   1      45.661  30.051  32.512  1.00  0.00     0.029 A 
ATOM     50  N   UNL A   1      44.471  28.674  31.234  1.00  0.00    -0.354 N 
ATOM     51  N   UNL A   1      43.920  26.180  29.823  1.00  0.00    -0.248 NA
ATOM     52  C   UNL A   1      44.581  24.049  29.128  1.00  0.00     0.031 C 
ATOM     53  C   UNL A   1      46.401  28.879  32.318  1.00  0.00     0.029 A 
ATOM     54  C   UNL A   1      45.650  28.013  31.539  1.00  0.00     0.049 A 
ATOM     55  H   UNL A   1      43.741  28.304  30.686  1.00  0.00     0.167 HD
ATOM     56  C   UNL A   1      45.178  25.900  30.342  1.00  0.00     0.074 A 
ATOM     57  C   UNL A   1      45.519  24.559  29.913  1.00  0.00     0.031 C 
ATOM     58  C   UNL A   1      45.980  26.683  31.103  1.00  0.00     0.031 A 
BRANCH  45  59
ATOM     59  C   UNL A   1      43.612  32.258  32.286  1.00  0.00    -0.014 A 
ATOM     60  C   UNL A   1      43.977  33.361  31.497  1.00  0.00     0.009 A 
ATOM     61  C   UNL A   1      43.387  32.449  33.658  1.00  0.00     0.009 A 
ATOM     62  C   UNL A   1      44.144  34.621  32.077  1.00  0.00     0.001 A 
ATOM     63  C   UNL A   1      43.528  33.714  34.230  1.00  0.00     0.001 A 
ATOM     64  C   UNL A   1      43.914  34.797  33.442  1.00  0.00     0.000 A 
ENDBRANCH  45  59
BRANCH  46  65
ATOM     65  C   UNL A   1      42.080  23.531  27.735  1.00  0.00    -0.014 A 
ATOM     66  C   UNL A   1      42.471  23.347  26.399  1.00  0.00     0.009 A 
ATOM     67  C   UNL A   1      41.466  22.469  28.416  1.00  0.00     0.009 A 
ATOM     68  C   UNL A   1      42.220  22.138  25.748  1.00  0.00     0.001 A 
ATOM     69  C   UNL A   1      41.242  21.252  27.770  1.00  0.00     0.001 A 
ATOM     70  C   UNL A   1      41.608  21.090  26.435  1.00  0.00     0.000 A 
ENDBRANCH  46  65
BRANCH  58  71
ATOM     71  C   UNL A   1      47.288  26.091  31.544  1.00  0.00    -0.014 A 
ATOM     72  C   UNL A   1      47.430  25.498  32.809  1.00  0.00     0.009 A 
ATOM     73  C   UNL A   1      48.393  26.123  30.679  1.00  0.00     0.009 A 
ATOM     74  C   UNL A   1      48.666  24.990  33.215  1.00  0.00     0.001 A 
ATOM     75  C   UNL A   1      49.619  25.587  31.076  1.00  0.00     0.001 A 
ATOM     76  C   UNL A   1      49.757  25.033  32.348  1.00  0.00     0.000 A 
ENDBRANCH  58  71
ENDBRANCH  32  33
ENDBRANCH  24  27
ENDBRANCH  22  23
ENDBRANCH  21  22
ENDBRANCH  20  21
ENDBRANCH   1  20
TORSDOF 15
ENDMDL
