MODEL 1
REMARK VINA RESULT:     -11.8      0.000      0.000
REMARK SMILES O=C(NCCCCNC(=O)c1ccc(-c2c3nc(c(-c4ccccc4)c4ccc([nH]4)c(-c4ccccc4)c4nc(c(-c5ccccc5)c5ccc2[nH]5)C=C4)C=C3)cc1)c1ccc(-c2ccc(=O)[nH]c2)cc1
REMARK SMILES IDX 6 1 5 2 4 3 3 4 1 5 2 6 59 8 60 9 71 10 61 11 70 12 62 13
REMARK SMILES IDX 63 14 64 15 69 16 65 17 68 18 66 19 67 21 7 22 8 23 9 24
REMARK SMILES IDX 10 26 11 27 12 28 58 29 13 30 57 31 14 32 15 33 16 34 51 35
REMARK SMILES IDX 17 36 56 37 50 38 52 39 18 40 55 41 49 42 48 43 19 45 41 46
REMARK SMILES IDX 26 47 40 48 27 49 30 50 39 51 53 52 28 53 29 54 38 56 54 57
REMARK SMILES IDX 31 58 20 59 21 60 25 61 22 62 24 63 23 64 42 65 43 66 47 67
REMARK SMILES IDX 44 68 46 69 45 70 32 71 33 72 37 73 34 74 36 75 35 76
REMARK H PARENT 3 7 68 20 8 25 52 44 30 55
REMARK Flexibility Score: inf
ROOT
ATOM      1  C   UNL A   1      36.232  23.444  24.661  1.00  0.00     0.023 C 
ENDROOT
BRANCH   1   2
ATOM      2  C   UNL A   1      35.056  24.418  24.645  1.00  0.00     0.023 C 
BRANCH   2   3
ATOM      3  C   UNL A   1      34.306  24.506  23.321  1.00  0.00     0.116 C 
BRANCH   3   4
ATOM      4  N   UNL A   1      32.918  24.909  23.489  1.00  0.00    -0.352 N 
ATOM      5  O   UNL A   1      30.686  24.605  23.668  1.00  0.00    -0.269 OA
ATOM      6  C   UNL A   1      31.811  24.121  23.696  1.00  0.00     0.251 C 
ATOM      7  H   UNL A   1      32.748  25.878  23.446  1.00  0.00     0.163 HD
BRANCH   6   8
ATOM      8  C   UNL A   1      31.988  22.674  23.929  1.00  0.00     0.039 A 
ATOM      9  C   UNL A   1      32.126  22.175  25.227  1.00  0.00     0.014 A 
ATOM     10  C   UNL A   1      32.045  21.813  22.832  1.00  0.00     0.014 A 
ATOM     11  C   UNL A   1      32.427  20.828  25.421  1.00  0.00     0.009 A 
ATOM     12  C   UNL A   1      32.319  20.457  23.031  1.00  0.00     0.009 A 
ATOM     13  C   UNL A   1      32.533  19.956  24.324  1.00  0.00    -0.017 A 
BRANCH  13  14
ATOM     14  C   UNL A   1      32.891  18.538  24.533  1.00  0.00    -0.002 A 
ATOM     15  C   UNL A   1      33.390  17.677  23.467  1.00  0.00     0.016 A 
ATOM     16  C   UNL A   1      32.770  18.012  25.766  1.00  0.00     0.094 A 
ATOM     17  C   UNL A   1      33.727  16.400  23.700  1.00  0.00     0.072 A 
ATOM     18  N   UNL A   1      33.116  16.709  26.019  1.00  0.00    -0.328 N 
ATOM     19  C   UNL A   1      33.596  15.843  25.068  1.00  0.00     0.247 A 
ATOM     20  H   UNL A   1      33.014  16.373  26.939  1.00  0.00     0.169 HD
ATOM     21  O   UNL A   1      33.903  14.683  25.317  1.00  0.00    -0.270 OA
ENDBRANCH  13  14
ENDBRANCH   6   8
ENDBRANCH   3   4
ENDBRANCH   2   3
ENDBRANCH   1   2
BRANCH   1  22
ATOM     22  C   UNL A   1      36.629  22.925  26.038  1.00  0.00     0.116 C 
BRANCH  22  23
ATOM     23  N   UNL A   1      37.883  22.184  26.031  1.00  0.00    -0.352 N 
ATOM     24  C   UNL A   1      39.157  22.618  26.309  1.00  0.00     0.251 C 
ATOM     25  H   UNL A   1      37.805  21.231  25.794  1.00  0.00     0.163 HD
ATOM     26  O   UNL A   1      40.115  21.872  26.128  1.00  0.00    -0.269 OA
BRANCH  24  27
ATOM     27  C   UNL A   1      39.377  23.999  26.788  1.00  0.00     0.039 A 
ATOM     28  C   UNL A   1      38.976  24.334  28.084  1.00  0.00     0.014 A 
ATOM     29  C   UNL A   1      40.001  24.951  25.978  1.00  0.00     0.014 A 
ATOM     30  C   UNL A   1      39.277  25.597  28.595  1.00  0.00     0.010 A 
ATOM     31  C   UNL A   1      40.375  26.179  26.516  1.00  0.00     0.010 A 
ATOM     32  C   UNL A   1      40.022  26.512  27.833  1.00  0.00    -0.014 A 
BRANCH  32  33
ATOM     33  C   UNL A   1      40.469  27.806  28.409  1.00  0.00     0.031 A 
ATOM     34  C   UNL A   1      41.893  27.994  28.852  1.00  0.00     0.074 A 
ATOM     35  C   UNL A   1      39.572  28.792  28.603  1.00  0.00     0.049 A 
ATOM     36  N   UNL A   1      42.452  29.036  29.417  1.00  0.00    -0.248 NA
ATOM     37  C   UNL A   1      42.803  26.855  28.659  1.00  0.00     0.031 C 
ATOM     38  C   UNL A   1      38.148  28.720  28.266  1.00  0.00     0.029 A 
ATOM     39  N   UNL A   1      39.723  30.046  29.141  1.00  0.00    -0.354 N 
ATOM     40  C   UNL A   1      43.770  28.671  29.659  1.00  0.00     0.074 A 
ATOM     41  C   UNL A   1      43.911  27.296  29.233  1.00  0.00     0.031 C 
ATOM     42  C   UNL A   1      37.565  29.887  28.578  1.00  0.00     0.029 A 
ATOM     43  C   UNL A   1      38.557  30.772  29.177  1.00  0.00     0.049 A 
ATOM     44  H   UNL A   1      40.584  30.392  29.469  1.00  0.00     0.167 HD
ATOM     45  C   UNL A   1      44.777  29.417  30.172  1.00  0.00     0.031 A 
ATOM     46  C   UNL A   1      38.310  32.008  29.647  1.00  0.00     0.031 A 
ATOM     47  C   UNL A   1      44.633  30.783  30.605  1.00  0.00     0.049 A 
ATOM     48  C   UNL A   1      39.435  32.812  30.234  1.00  0.00     0.074 A 
ATOM     49  C   UNL A   1      45.607  31.644  31.082  1.00  0.00     0.029 A 
ATOM     50  N   UNL A   1      43.436  31.483  30.625  1.00  0.00    -0.354 N 
ATOM     51  N   UNL A   1      40.696  32.483  30.380  1.00  0.00    -0.248 NA
ATOM     52  C   UNL A   1      39.104  34.162  30.712  1.00  0.00     0.031 C 
ATOM     53  C   UNL A   1      44.987  32.843  31.453  1.00  0.00     0.029 A 
ATOM     54  C   UNL A   1      43.639  32.753  31.143  1.00  0.00     0.049 A 
ATOM     55  H   UNL A   1      42.570  31.130  30.318  1.00  0.00     0.167 HD
ATOM     56  C   UNL A   1      41.314  33.590  30.948  1.00  0.00     0.074 A 
ATOM     57  C   UNL A   1      40.292  34.607  31.100  1.00  0.00     0.031 C 
ATOM     58  C   UNL A   1      42.612  33.750  31.308  1.00  0.00     0.031 A 
BRANCH  45  59
ATOM     59  C   UNL A   1      46.121  28.754  30.310  1.00  0.00    -0.014 A 
ATOM     60  C   UNL A   1      47.066  28.789  29.271  1.00  0.00     0.009 A 
ATOM     61  C   UNL A   1      46.452  28.089  31.501  1.00  0.00     0.009 A 
ATOM     62  C   UNL A   1      48.288  28.125  29.400  1.00  0.00     0.001 A 
ATOM     63  C   UNL A   1      47.690  27.457  31.642  1.00  0.00     0.001 A 
ATOM     64  C   UNL A   1      48.600  27.463  30.586  1.00  0.00     0.000 A 
ENDBRANCH  45  59
BRANCH  46  65
ATOM     65  C   UNL A   1      36.932  32.562  29.570  1.00  0.00    -0.014 A 
ATOM     66  C   UNL A   1      36.020  32.353  30.615  1.00  0.00     0.009 A 
ATOM     67  C   UNL A   1      36.533  33.326  28.462  1.00  0.00     0.009 A 
ATOM     68  C   UNL A   1      34.730  32.886  30.545  1.00  0.00     0.001 A 
ATOM     69  C   UNL A   1      35.253  33.883  28.409  1.00  0.00     0.001 A 
ATOM     70  C   UNL A   1      34.351  33.656  29.446  1.00  0.00     0.000 A 
ENDBRANCH  46  65
BRANCH  58  71
ATOM     71  C   UNL A   1      43.004  35.080  31.890  1.00  0.00    -0.014 A 
ATOM     72  C   UNL A   1      42.870  35.346  33.262  1.00  0.00     0.009 A 
ATOM     73  C   UNL A   1      43.550  36.070  31.057  1.00  0.00     0.009 A 
ATOM     74  C   UNL A   1      43.243  36.588  33.781  1.00  0.00     0.001 A 
ATOM     75  C   UNL A   1      43.952  37.298  31.583  1.00  0.00     0.001 A 
ATOM     76  C   UNL A   1      43.789  37.560  32.943  1.00  0.00     0.000 A 
ENDBRANCH  58  71
ENDBRANCH  32  33
ENDBRANCH  24  27
ENDBRANCH  22  23
ENDBRANCH   1  22
TORSDOF 12
ENDMDL
MODEL 2
REMARK VINA RESULT:     -11.8      2.392      4.878
REMARK SMILES O=C(NCCCCNC(=O)c1ccc(-c2c3nc(c(-c4ccccc4)c4ccc([nH]4)c(-c4ccccc4)c4nc(c(-c5ccccc5)c5ccc2[nH]5)C=C4)C=C3)cc1)c1ccc(-c2ccc(=O)[nH]c2)cc1
REMARK SMILES IDX 6 1 5 2 4 3 3 4 1 5 2 6 59 8 60 9 71 10 61 11 70 12 62 13
REMARK SMILES IDX 63 14 64 15 69 16 65 17 68 18 66 19 67 21 7 22 8 23 9 24
REMARK SMILES IDX 10 26 11 27 12 28 58 29 13 30 57 31 14 32 15 33 16 34 51 35
REMARK SMILES IDX 17 36 56 37 50 38 52 39 18 40 55 41 49 42 48 43 19 45 41 46
REMARK SMILES IDX 26 47 40 48 27 49 30 50 39 51 53 52 28 53 29 54 38 56 54 57
REMARK SMILES IDX 31 58 20 59 21 60 25 61 22 62 24 63 23 64 42 65 43 66 47 67
REMARK SMILES IDX 44 68 46 69 45 70 32 71 33 72 37 73 34 74 36 75 35 76
REMARK H PARENT 3 7 68 20 8 25 52 44 30 55
REMARK Flexibility Score: inf
ROOT
ATOM      1  C   UNL A   1      37.289  20.212  24.989  1.00  0.00     0.023 C 
ENDROOT
BRANCH   1   2
ATOM      2  C   UNL A   1      36.228  21.299  24.840  1.00  0.00     0.023 C 
BRANCH   2   3
ATOM      3  C   UNL A   1      35.103  21.251  25.867  1.00  0.00     0.116 C 
BRANCH   3   4
ATOM      4  N   UNL A   1      34.200  20.130  25.658  1.00  0.00    -0.352 N 
ATOM      5  O   UNL A   1      32.230  19.121  25.201  1.00  0.00    -0.269 OA
ATOM      6  C   UNL A   1      32.913  20.138  25.177  1.00  0.00     0.251 C 
ATOM      7  H   UNL A   1      34.559  19.244  25.896  1.00  0.00     0.163 HD
BRANCH   6   8
ATOM      8  C   UNL A   1      32.347  21.396  24.650  1.00  0.00     0.039 A 
ATOM      9  C   UNL A   1      32.619  21.804  23.342  1.00  0.00     0.014 A 
ATOM     10  C   UNL A   1      31.559  22.187  25.488  1.00  0.00     0.014 A 
ATOM     11  C   UNL A   1      32.189  23.057  22.906  1.00  0.00     0.009 A 
ATOM     12  C   UNL A   1      31.107  23.431  25.038  1.00  0.00     0.009 A 
ATOM     13  C   UNL A   1      31.435  23.886  23.752  1.00  0.00    -0.017 A 
BRANCH  13  14
ATOM     14  C   UNL A   1      31.016  25.228  23.298  1.00  0.00    -0.002 A 
ATOM     15  C   UNL A   1      29.931  25.977  23.921  1.00  0.00     0.016 A 
ATOM     16  C   UNL A   1      31.673  25.802  22.273  1.00  0.00     0.094 A 
ATOM     17  C   UNL A   1      29.594  27.204  23.496  1.00  0.00     0.072 A 
ATOM     18  N   UNL A   1      31.343  27.059  21.832  1.00  0.00    -0.328 N 
ATOM     19  C   UNL A   1      30.338  27.822  22.372  1.00  0.00     0.247 A 
ATOM     20  H   UNL A   1      31.857  27.436  21.083  1.00  0.00     0.169 HD
ATOM     21  O   UNL A   1      30.062  28.945  21.965  1.00  0.00    -0.270 OA
ENDBRANCH  13  14
ENDBRANCH   6   8
ENDBRANCH   3   4
ENDBRANCH   2   3
ENDBRANCH   1   2
BRANCH   1  22
ATOM     22  C   UNL A   1      38.611  20.671  25.594  1.00  0.00     0.116 C 
BRANCH  22  23
ATOM     23  N   UNL A   1      39.624  19.624  25.620  1.00  0.00    -0.352 N 
ATOM     24  C   UNL A   1      40.943  19.694  25.997  1.00  0.00     0.251 C 
ATOM     25  H   UNL A   1      39.316  18.736  25.325  1.00  0.00     0.163 HD
ATOM     26  O   UNL A   1      41.683  18.728  25.832  1.00  0.00    -0.269 OA
BRANCH  24  27
ATOM     27  C   UNL A   1      41.483  20.947  26.567  1.00  0.00     0.039 A 
ATOM     28  C   UNL A   1      42.076  21.875  25.707  1.00  0.00     0.014 A 
ATOM     29  C   UNL A   1      41.380  21.220  27.933  1.00  0.00     0.014 A 
ATOM     30  C   UNL A   1      42.489  23.112  26.206  1.00  0.00     0.010 A 
ATOM     31  C   UNL A   1      41.713  22.483  28.412  1.00  0.00     0.010 A 
ATOM     32  C   UNL A   1      42.266  23.445  27.552  1.00  0.00    -0.014 A 
BRANCH  32  33
ATOM     33  C   UNL A   1      42.572  24.804  28.068  1.00  0.00     0.031 A 
ATOM     34  C   UNL A   1      43.961  25.154  28.521  1.00  0.00     0.074 A 
ATOM     35  C   UNL A   1      41.577  25.703  28.199  1.00  0.00     0.049 A 
ATOM     36  N   UNL A   1      44.403  26.273  29.041  1.00  0.00    -0.248 NA
ATOM     37  C   UNL A   1      44.983  24.104  28.399  1.00  0.00     0.031 C 
ATOM     38  C   UNL A   1      40.175  25.473  27.847  1.00  0.00     0.029 A 
ATOM     39  N   UNL A   1      41.593  26.990  28.675  1.00  0.00    -0.354 N 
ATOM     40  C   UNL A   1      45.745  26.054  29.319  1.00  0.00     0.074 A 
ATOM     41  C   UNL A   1      46.031  24.681  28.965  1.00  0.00     0.031 C 
ATOM     42  C   UNL A   1      39.472  26.590  28.091  1.00  0.00     0.029 A 
ATOM     43  C   UNL A   1      40.361  27.598  28.658  1.00  0.00     0.049 A 
ATOM     44  H   UNL A   1      42.409  27.436  28.997  1.00  0.00     0.167 HD
ATOM     45  C   UNL A   1      46.664  26.922  29.808  1.00  0.00     0.031 A 
ATOM     46  C   UNL A   1      39.983  28.824  29.062  1.00  0.00     0.031 A 
ATOM     47  C   UNL A   1      46.377  28.285  30.169  1.00  0.00     0.049 A 
ATOM     48  C   UNL A   1      41.012  29.765  29.623  1.00  0.00     0.074 A 
ATOM     49  C   UNL A   1      47.251  29.261  30.616  1.00  0.00     0.029 A 
ATOM     50  N   UNL A   1      45.116  28.863  30.137  1.00  0.00    -0.354 N 
ATOM     51  N   UNL A   1      42.296  29.571  29.803  1.00  0.00    -0.248 NA
ATOM     52  C   UNL A   1      40.540  31.096  30.027  1.00  0.00     0.031 C 
ATOM     53  C   UNL A   1      46.508  30.409  30.917  1.00  0.00     0.029 A 
ATOM     54  C   UNL A   1      45.182  30.170  30.593  1.00  0.00     0.049 A 
ATOM     55  H   UNL A   1      44.296  28.410  29.836  1.00  0.00     0.167 HD
ATOM     56  C   UNL A   1      42.790  30.760  30.323  1.00  0.00     0.074 A 
ATOM     57  C   UNL A   1      41.670  31.676  30.409  1.00  0.00     0.031 C 
ATOM     58  C   UNL A   1      44.058  31.066  30.693  1.00  0.00     0.031 A 
BRANCH  45  59
ATOM     59  C   UNL A   1      48.064  26.403  29.999  1.00  0.00    -0.014 A 
ATOM     60  C   UNL A   1      49.024  26.492  28.976  1.00  0.00     0.009 A 
ATOM     61  C   UNL A   1      48.434  25.823  31.222  1.00  0.00     0.009 A 
ATOM     62  C   UNL A   1      50.304  25.962  29.156  1.00  0.00     0.001 A 
ATOM     63  C   UNL A   1      49.724  25.325  31.412  1.00  0.00     0.001 A 
ATOM     64  C   UNL A   1      50.654  25.382  30.374  1.00  0.00     0.000 A 
ENDBRANCH  45  59
BRANCH  46  65
ATOM     65  C   UNL A   1      38.559  29.233  28.937  1.00  0.00    -0.014 A 
ATOM     66  C   UNL A   1      38.062  29.726  27.720  1.00  0.00     0.009 A 
ATOM     67  C   UNL A   1      37.683  29.106  30.026  1.00  0.00     0.009 A 
ATOM     68  C   UNL A   1      36.721  30.096  27.603  1.00  0.00     0.001 A 
ATOM     69  C   UNL A   1      36.335  29.448  29.896  1.00  0.00     0.001 A 
ATOM     70  C   UNL A   1      35.858  29.950  28.687  1.00  0.00     0.000 A 
ENDBRANCH  46  65
BRANCH  58  71
ATOM     71  C   UNL A   1      44.305  32.455  31.212  1.00  0.00    -0.014 A 
ATOM     72  C   UNL A   1      44.237  32.746  32.584  1.00  0.00     0.009 A 
ATOM     73  C   UNL A   1      44.648  33.482  30.318  1.00  0.00     0.009 A 
ATOM     74  C   UNL A   1      44.473  34.044  33.044  1.00  0.00     0.001 A 
ATOM     75  C   UNL A   1      44.915  34.770  30.783  1.00  0.00     0.001 A 
ATOM     76  C   UNL A   1      44.817  35.053  32.145  1.00  0.00     0.000 A 
ENDBRANCH  58  71
ENDBRANCH  32  33
ENDBRANCH  24  27
ENDBRANCH  22  23
ENDBRANCH   1  22
TORSDOF 12
ENDMDL
MODEL 3
REMARK VINA RESULT:     -11.8      3.639      8.827
REMARK SMILES O=C(NCCCCNC(=O)c1ccc(-c2c3nc(c(-c4ccccc4)c4ccc([nH]4)c(-c4ccccc4)c4nc(c(-c5ccccc5)c5ccc2[nH]5)C=C4)C=C3)cc1)c1ccc(-c2ccc(=O)[nH]c2)cc1
REMARK SMILES IDX 6 1 5 2 4 3 3 4 1 5 2 6 59 8 60 9 71 10 61 11 70 12 62 13
REMARK SMILES IDX 63 14 64 15 69 16 65 17 68 18 66 19 67 21 7 22 8 23 9 24
REMARK SMILES IDX 10 26 11 27 12 28 58 29 13 30 57 31 14 32 15 33 16 34 51 35
REMARK SMILES IDX 17 36 56 37 50 38 52 39 18 40 55 41 49 42 48 43 19 45 41 46
REMARK SMILES IDX 26 47 40 48 27 49 30 50 39 51 53 52 28 53 29 54 38 56 54 57
REMARK SMILES IDX 31 58 20 59 21 60 25 61 22 62 24 63 23 64 42 65 43 66 47 67
REMARK SMILES IDX 44 68 46 69 45 70 32 71 33 72 37 73 34 74 36 75 35 76
REMARK H PARENT 3 7 68 20 8 25 52 44 30 55
REMARK Flexibility Score: inf
ROOT
ATOM      1  C   UNL A   1      33.122  27.453  25.743  1.00  0.00     0.023 C 
ENDROOT
BRANCH   1   2
ATOM      2  C   UNL A   1      33.262  25.946  25.940  1.00  0.00     0.023 C 
BRANCH   2   3
ATOM      3  C   UNL A   1      31.950  25.191  26.121  1.00  0.00     0.116 C 
BRANCH   3   4
ATOM      4  N   UNL A   1      31.736  24.183  25.093  1.00  0.00    -0.352 N 
ATOM      5  O   UNL A   1      30.811  23.293  23.234  1.00  0.00    -0.269 OA
ATOM      6  C   UNL A   1      31.021  24.283  23.924  1.00  0.00     0.251 C 
ATOM      7  H   UNL A   1      32.159  23.310  25.260  1.00  0.00     0.163 HD
BRANCH   6   8
ATOM      8  C   UNL A   1      30.482  25.596  23.517  1.00  0.00     0.039 A 
ATOM      9  C   UNL A   1      31.234  26.452  22.708  1.00  0.00     0.014 A 
ATOM     10  C   UNL A   1      29.222  25.983  23.975  1.00  0.00     0.014 A 
ATOM     11  C   UNL A   1      30.769  27.740  22.445  1.00  0.00     0.009 A 
ATOM     12  C   UNL A   1      28.746  27.265  23.685  1.00  0.00     0.009 A 
ATOM     13  C   UNL A   1      29.523  28.162  22.937  1.00  0.00    -0.017 A 
BRANCH  13  14
ATOM     14  C   UNL A   1      29.053  29.540  22.688  1.00  0.00    -0.002 A 
ATOM     15  C   UNL A   1      27.936  30.143  23.406  1.00  0.00     0.016 A 
ATOM     16  C   UNL A   1      29.690  30.288  21.768  1.00  0.00     0.094 A 
ATOM     17  C   UNL A   1      27.553  31.406  23.169  1.00  0.00     0.072 A 
ATOM     18  N   UNL A   1      29.311  31.583  21.520  1.00  0.00    -0.328 N 
ATOM     19  C   UNL A   1      28.275  32.216  22.159  1.00  0.00     0.247 A 
ATOM     20  H   UNL A   1      29.813  32.090  20.841  1.00  0.00     0.169 HD
ATOM     21  O   UNL A   1      27.956  33.377  21.925  1.00  0.00    -0.270 OA
ENDBRANCH  13  14
ENDBRANCH   6   8
ENDBRANCH   3   4
ENDBRANCH   2   3
ENDBRANCH   1   2
BRANCH   1  22
ATOM     22  C   UNL A   1      34.231  28.296  26.361  1.00  0.00     0.116 C 
BRANCH  22  23
ATOM     23  N   UNL A   1      33.771  29.597  26.826  1.00  0.00    -0.352 N 
ATOM     24  C   UNL A   1      34.381  30.488  27.677  1.00  0.00     0.251 C 
ATOM     25  H   UNL A   1      32.893  29.880  26.480  1.00  0.00     0.163 HD
ATOM     26  O   UNL A   1      33.779  31.488  28.057  1.00  0.00    -0.269 OA
BRANCH  24  27
ATOM     27  C   UNL A   1      35.750  30.220  28.166  1.00  0.00     0.039 A 
ATOM     28  C   UNL A   1      35.914  29.692  29.449  1.00  0.00     0.014 A 
ATOM     29  C   UNL A   1      36.863  30.462  27.358  1.00  0.00     0.014 A 
ATOM     30  C   UNL A   1      37.188  29.326  29.887  1.00  0.00     0.010 A 
ATOM     31  C   UNL A   1      38.119  30.019  27.762  1.00  0.00     0.010 A 
ATOM     32  C   UNL A   1      38.294  29.441  29.029  1.00  0.00    -0.014 A 
BRANCH  32  33
ATOM     33  C   UNL A   1      39.631  28.931  29.426  1.00  0.00     0.031 A 
ATOM     34  C   UNL A   1      40.569  29.788  30.229  1.00  0.00     0.074 A 
ATOM     35  C   UNL A   1      40.033  27.718  28.999  1.00  0.00     0.049 A 
ATOM     36  N   UNL A   1      41.789  29.528  30.627  1.00  0.00    -0.248 NA
ATOM     37  C   UNL A   1      40.083  31.122  30.613  1.00  0.00     0.031 C 
ATOM     38  C   UNL A   1      39.240  26.807  28.169  1.00  0.00     0.029 A 
ATOM     39  N   UNL A   1      41.213  27.046  29.195  1.00  0.00    -0.354 N 
ATOM     40  C   UNL A   1      42.219  30.668  31.294  1.00  0.00     0.074 A 
ATOM     41  C   UNL A   1      41.152  31.640  31.196  1.00  0.00     0.031 C 
ATOM     42  C   UNL A   1      39.946  25.686  27.953  1.00  0.00     0.029 A 
ATOM     43  C   UNL A   1      41.252  25.815  28.587  1.00  0.00     0.049 A 
ATOM     44  H   UNL A   1      41.960  27.411  29.722  1.00  0.00     0.167 HD
ATOM     45  C   UNL A   1      43.388  30.882  31.944  1.00  0.00     0.031 A 
ATOM     46  C   UNL A   1      42.233  24.894  28.536  1.00  0.00     0.031 A 
ATOM     47  C   UNL A   1      44.453  29.918  32.033  1.00  0.00     0.049 A 
ATOM     48  C   UNL A   1      43.531  25.159  29.244  1.00  0.00     0.074 A 
ATOM     49  C   UNL A   1      45.650  30.016  32.721  1.00  0.00     0.029 A 
ATOM     50  N   UNL A   1      44.454  28.682  31.404  1.00  0.00    -0.354 N 
ATOM     51  N   UNL A   1      43.891  26.210  29.941  1.00  0.00    -0.248 NA
ATOM     52  C   UNL A   1      44.553  24.107  29.167  1.00  0.00     0.031 C 
ATOM     53  C   UNL A   1      46.404  28.867  32.453  1.00  0.00     0.029 A 
ATOM     54  C   UNL A   1      45.648  28.024  31.655  1.00  0.00     0.049 A 
ATOM     55  H   UNL A   1      43.717  28.325  30.859  1.00  0.00     0.167 HD
ATOM     56  C   UNL A   1      45.172  25.938  30.402  1.00  0.00     0.074 A 
ATOM     57  C   UNL A   1      45.517  24.615  29.922  1.00  0.00     0.031 C 
ATOM     58  C   UNL A   1      45.988  26.715  31.157  1.00  0.00     0.031 A 
BRANCH  45  59
ATOM     59  C   UNL A   1      43.575  32.228  32.593  1.00  0.00    -0.014 A 
ATOM     60  C   UNL A   1      43.171  32.465  33.918  1.00  0.00     0.009 A 
ATOM     61  C   UNL A   1      44.173  33.273  31.872  1.00  0.00     0.009 A 
ATOM     62  C   UNL A   1      43.310  33.734  34.485  1.00  0.00     0.001 A 
ATOM     63  C   UNL A   1      44.343  34.531  32.454  1.00  0.00     0.001 A 
ATOM     64  C   UNL A   1      43.898  34.765  33.754  1.00  0.00     0.000 A 
ENDBRANCH  45  59
BRANCH  46  65
ATOM     65  C   UNL A   1      42.012  23.627  27.789  1.00  0.00    -0.014 A 
ATOM     66  C   UNL A   1      41.407  22.527  28.414  1.00  0.00     0.009 A 
ATOM     67  C   UNL A   1      42.381  23.523  26.439  1.00  0.00     0.009 A 
ATOM     68  C   UNL A   1      41.189  21.343  27.705  1.00  0.00     0.001 A 
ATOM     69  C   UNL A   1      42.135  22.348  25.725  1.00  0.00     0.001 A 
ATOM     70  C   UNL A   1      41.546  21.257  26.361  1.00  0.00     0.000 A 
ENDBRANCH  46  65
BRANCH  58  71
ATOM     71  C   UNL A   1      47.332  26.147  31.523  1.00  0.00    -0.014 A 
ATOM     72  C   UNL A   1      47.543  25.504  32.753  1.00  0.00     0.009 A 
ATOM     73  C   UNL A   1      48.393  26.223  30.606  1.00  0.00     0.009 A 
ATOM     74  C   UNL A   1      48.799  24.981  33.071  1.00  0.00     0.001 A 
ATOM     75  C   UNL A   1      49.637  25.671  30.912  1.00  0.00     0.001 A 
ATOM     76  C   UNL A   1      49.843  25.060  32.148  1.00  0.00     0.000 A 
ENDBRANCH  58  71
ENDBRANCH  32  33
ENDBRANCH  24  27
ENDBRANCH  22  23
ENDBRANCH   1  22
TORSDOF 12
ENDMDL
