MODEL 1
REMARK VINA RESULT:     -11.9      0.000      0.000
REMARK SMILES Cc1ccc([C@H](C)Nc2ccc(C(=O)NCCCCNC(=O)c3ccc(-c4c5nc(c(-c6ccccc6)c6ccc([nH]6)c(-c6ccccc6)c6nc(c(-c7ccccc7)c7ccc4[nH]7)C=C6)C=C5)cc3)cc2Cl)cc1F
REMARK SMILES IDX 17 1 16 2 15 3 13 4 14 5 12 7 9 8 10 9 72 10 11 11 71 12
REMARK SMILES IDX 73 13 8 14 6 16 7 17 5 18 1 19 2 20 3 21 75 22 4 23 74 24
REMARK SMILES IDX 76 25 18 26 19 27 20 28 21 29 22 31 23 32 24 33 70 34 25 35
REMARK SMILES IDX 69 36 26 37 27 38 28 39 63 40 29 41 68 42 62 43 64 44 30 45
REMARK SMILES IDX 67 46 61 47 60 48 31 50 53 51 38 52 52 53 39 54 42 55 51 56
REMARK SMILES IDX 65 57 40 58 41 59 50 61 66 62 43 63 32 64 33 65 37 66 34 67
REMARK SMILES IDX 36 68 35 69 54 70 55 71 59 72 56 73 58 74 57 75 44 76 45 77
REMARK SMILES IDX 49 78 46 79 48 80 47 81
REMARK H PARENT 15 6 8 15 20 30 64 49 42 60
REMARK Flexibility Score: inf
ROOT
ATOM      1  C   UNL A   1      37.205  21.105  24.579  1.00  0.00     0.023 C 
ENDROOT
BRANCH   1   2
ATOM      2  C   UNL A   1      35.905  21.058  25.390  1.00  0.00     0.116 C 
BRANCH   2   3
ATOM      3  N   UNL A   1      35.048  19.980  24.935  1.00  0.00    -0.352 N 
ATOM      4  C   UNL A   1      33.730  19.929  24.556  1.00  0.00     0.251 C 
ATOM      5  O   UNL A   1      33.300  18.829  24.204  1.00  0.00    -0.269 OA
ATOM      6  H   UNL A   1      35.504  19.110  24.890  1.00  0.00     0.163 HD
BRANCH   4   7
ATOM      7  C   UNL A   1      32.808  21.106  24.520  1.00  0.00     0.041 A 
ATOM      8  C   UNL A   1      31.091  23.400  24.280  1.00  0.00     0.053 A 
ATOM      9  C   UNL A   1      31.999  23.034  23.270  1.00  0.00     0.028 A 
ATOM     10  C   UNL A   1      31.097  22.597  25.433  1.00  0.00     0.065 A 
ATOM     11  C   UNL A   1      32.850  21.925  23.390  1.00  0.00     0.016 A 
ATOM     12  C   UNL A   1      31.895  21.443  25.513  1.00  0.00     0.036 A 
ATOM     13  Cl  UNL A   1      30.114  22.860  26.838  1.00  0.00    -0.082 Cl
BRANCH   8  14
ATOM     14  N   UNL A   1      30.319  24.520  24.034  1.00  0.00    -0.377 N 
ATOM     15  H   UNL A   1      29.640  24.429  23.326  1.00  0.00     0.161 HD
BRANCH  14  16
ATOM     16  C   UNL A   1      30.387  25.818  24.694  1.00  0.00     0.106 C 
ATOM     17  C   UNL A   1      31.855  26.031  25.092  1.00  0.00     0.036 C 
BRANCH  16  18
ATOM     18  C   UNL A   1      29.785  26.906  23.804  1.00  0.00    -0.023 A 
ATOM     19  C   UNL A   1      27.988  30.389  21.940  1.00  0.00     0.047 C 
ATOM     20  C   UNL A   1      28.613  29.153  22.506  1.00  0.00    -0.015 A 
ATOM     21  C   UNL A   1      29.991  28.933  22.447  1.00  0.00     0.007 A 
ATOM     22  C   UNL A   1      27.826  28.222  23.176  1.00  0.00     0.126 A 
ATOM     23  C   UNL A   1      30.569  27.827  23.090  1.00  0.00     0.006 A 
ATOM     24  C   UNL A   1      28.392  27.110  23.792  1.00  0.00     0.045 A 
ATOM     25  F   UNL A   1      26.501  28.407  23.270  1.00  0.00    -0.207 F 
ENDBRANCH  16  18
ENDBRANCH  14  16
ENDBRANCH   8  14
ENDBRANCH   4   7
ENDBRANCH   2   3
ENDBRANCH   1   2
BRANCH   1  26
ATOM     26  C   UNL A   1      38.075  19.855  24.725  1.00  0.00     0.023 C 
BRANCH  26  27
ATOM     27  C   UNL A   1      38.899  19.813  26.007  1.00  0.00     0.116 C 
BRANCH  27  28
ATOM     28  N   UNL A   1      40.173  19.126  25.858  1.00  0.00    -0.352 N 
ATOM     29  C   UNL A   1      41.434  19.628  26.080  1.00  0.00     0.251 C 
ATOM     30  H   UNL A   1      40.127  18.187  25.563  1.00  0.00     0.163 HD
ATOM     31  O   UNL A   1      42.429  18.963  25.829  1.00  0.00    -0.269 OA
BRANCH  29  32
ATOM     32  C   UNL A   1      41.568  21.012  26.576  1.00  0.00     0.039 A 
ATOM     33  C   UNL A   1      41.518  21.237  27.954  1.00  0.00     0.014 A 
ATOM     34  C   UNL A   1      41.801  22.068  25.691  1.00  0.00     0.014 A 
ATOM     35  C   UNL A   1      41.774  22.516  28.450  1.00  0.00     0.010 A 
ATOM     36  C   UNL A   1      42.120  23.325  26.190  1.00  0.00     0.010 A 
ATOM     37  C   UNL A   1      42.114  23.559  27.574  1.00  0.00    -0.014 A 
BRANCH  37  38
ATOM     38  C   UNL A   1      42.471  24.904  28.086  1.00  0.00     0.031 A 
ATOM     39  C   UNL A   1      43.894  25.215  28.454  1.00  0.00     0.074 A 
ATOM     40  C   UNL A   1      41.504  25.820  28.283  1.00  0.00     0.049 A 
ATOM     41  N   UNL A   1      44.390  26.306  28.977  1.00  0.00    -0.248 NA
ATOM     42  C   UNL A   1      44.885  24.150  28.227  1.00  0.00     0.031 C 
ATOM     43  C   UNL A   1      40.078  25.625  28.007  1.00  0.00     0.029 A 
ATOM     44  N   UNL A   1      41.575  27.101  28.770  1.00  0.00    -0.354 N 
ATOM     45  C   UNL A   1      45.745  26.055  29.154  1.00  0.00     0.074 A 
ATOM     46  C   UNL A   1      45.983  24.693  28.730  1.00  0.00     0.031 C 
ATOM     47  C   UNL A   1      39.415  26.753  28.308  1.00  0.00     0.029 A 
ATOM     48  C   UNL A   1      40.360  27.736  28.828  1.00  0.00     0.049 A 
ATOM     49  H   UNL A   1      42.419  27.524  29.052  1.00  0.00     0.167 HD
ATOM     50  C   UNL A   1      46.709  26.891  29.608  1.00  0.00     0.031 A 
ATOM     51  C   UNL A   1      40.041  28.972  29.257  1.00  0.00     0.031 A 
ATOM     52  C   UNL A   1      46.476  28.248  30.020  1.00  0.00     0.049 A 
ATOM     53  C   UNL A   1      41.129  29.878  29.759  1.00  0.00     0.074 A 
ATOM     54  C   UNL A   1      47.395  29.188  30.454  1.00  0.00     0.029 A 
ATOM     55  N   UNL A   1      45.233  28.860  30.044  1.00  0.00    -0.354 N 
ATOM     56  N   UNL A   1      42.415  29.644  29.865  1.00  0.00    -0.248 NA
ATOM     57  C   UNL A   1      40.722  31.223  30.190  1.00  0.00     0.031 C 
ATOM     58  C   UNL A   1      46.701  30.359  30.776  1.00  0.00     0.029 A 
ATOM     59  C   UNL A   1      45.358  30.162  30.498  1.00  0.00     0.049 A 
ATOM     60  H   UNL A   1      44.387  28.433  29.778  1.00  0.00     0.167 HD
ATOM     61  C   UNL A   1      42.974  30.820  30.348  1.00  0.00     0.074 A 
ATOM     62  C   UNL A   1      41.890  31.769  30.501  1.00  0.00     0.031 C 
ATOM     63  C   UNL A   1      44.269  31.091  30.641  1.00  0.00     0.031 A 
BRANCH  50  64
ATOM     64  C   UNL A   1      48.108  26.349  29.677  1.00  0.00    -0.014 A 
ATOM     65  C   UNL A   1      48.583  25.721  30.840  1.00  0.00     0.009 A 
ATOM     66  C   UNL A   1      48.955  26.446  28.562  1.00  0.00     0.009 A 
ATOM     67  C   UNL A   1      49.890  25.233  30.898  1.00  0.00     0.001 A 
ATOM     68  C   UNL A   1      50.253  25.934  28.615  1.00  0.00     0.001 A 
ATOM     69  C   UNL A   1      50.722  25.337  29.784  1.00  0.00     0.000 A 
ENDBRANCH  50  64
BRANCH  51  70
ATOM     70  C   UNL A   1      38.631  29.436  29.214  1.00  0.00    -0.014 A 
ATOM     71  C   UNL A   1      37.771  29.196  30.298  1.00  0.00     0.009 A 
ATOM     72  C   UNL A   1      38.133  30.108  28.088  1.00  0.00     0.009 A 
ATOM     73  C   UNL A   1      36.435  29.595  30.242  1.00  0.00     0.001 A 
ATOM     74  C   UNL A   1      36.802  30.530  28.046  1.00  0.00     0.001 A 
ATOM     75  C   UNL A   1      35.952  30.264  29.118  1.00  0.00     0.000 A 
ENDBRANCH  51  70
BRANCH  63  76
ATOM     76  C   UNL A   1      44.586  32.479  31.119  1.00  0.00    -0.014 A 
ATOM     77  C   UNL A   1      44.600  32.790  32.487  1.00  0.00     0.009 A 
ATOM     78  C   UNL A   1      44.913  33.476  30.187  1.00  0.00     0.009 A 
ATOM     79  C   UNL A   1      44.905  34.084  32.911  1.00  0.00     0.001 A 
ATOM     80  C   UNL A   1      45.243  34.762  30.616  1.00  0.00     0.001 A 
ATOM     81  C   UNL A   1      45.231  35.067  31.976  1.00  0.00     0.000 A 
ENDBRANCH  63  76
ENDBRANCH  37  38
ENDBRANCH  29  32
ENDBRANCH  27  28
ENDBRANCH  26  27
ENDBRANCH   1  26
TORSDOF 14
ENDMDL
MODEL 2
REMARK VINA RESULT:     -11.9      2.059      6.422
REMARK SMILES Cc1ccc([C@H](C)Nc2ccc(C(=O)NCCCCNC(=O)c3ccc(-c4c5nc(c(-c6ccccc6)c6ccc([nH]6)c(-c6ccccc6)c6nc(c(-c7ccccc7)c7ccc4[nH]7)C=C6)C=C5)cc3)cc2Cl)cc1F
REMARK SMILES IDX 17 1 16 2 15 3 13 4 14 5 12 7 9 8 10 9 72 10 11 11 71 12
REMARK SMILES IDX 73 13 8 14 6 16 7 17 5 18 1 19 2 20 3 21 75 22 4 23 74 24
REMARK SMILES IDX 76 25 18 26 19 27 20 28 21 29 22 31 23 32 24 33 70 34 25 35
REMARK SMILES IDX 69 36 26 37 27 38 28 39 63 40 29 41 68 42 62 43 64 44 30 45
REMARK SMILES IDX 67 46 61 47 60 48 31 50 53 51 38 52 52 53 39 54 42 55 51 56
REMARK SMILES IDX 65 57 40 58 41 59 50 61 66 62 43 63 32 64 33 65 37 66 34 67
REMARK SMILES IDX 36 68 35 69 54 70 55 71 59 72 56 73 58 74 57 75 44 76 45 77
REMARK SMILES IDX 49 78 46 79 48 80 47 81
REMARK H PARENT 15 6 8 15 20 30 64 49 42 60
REMARK Flexibility Score: inf
ROOT
ATOM      1  C   UNL A   1      37.148  21.373  24.804  1.00  0.00     0.023 C 
ENDROOT
BRANCH   1   2
ATOM      2  C   UNL A   1      35.889  21.287  25.674  1.00  0.00     0.116 C 
BRANCH   2   3
ATOM      3  N   UNL A   1      35.033  20.199  25.243  1.00  0.00    -0.352 N 
ATOM      4  C   UNL A   1      33.749  20.152  24.761  1.00  0.00     0.251 C 
ATOM      5  O   UNL A   1      33.309  19.038  24.470  1.00  0.00    -0.269 OA
ATOM      6  H   UNL A   1      35.459  19.314  25.311  1.00  0.00     0.163 HD
BRANCH   4   7
ATOM      7  C   UNL A   1      32.875  21.347  24.547  1.00  0.00     0.041 A 
ATOM      8  C   UNL A   1      31.105  23.598  24.290  1.00  0.00     0.053 A 
ATOM      9  C   UNL A   1      30.955  22.639  25.309  1.00  0.00     0.028 A 
ATOM     10  C   UNL A   1      32.153  23.372  23.381  1.00  0.00     0.065 A 
ATOM     11  C   UNL A   1      31.806  21.530  25.428  1.00  0.00     0.016 A 
ATOM     12  C   UNL A   1      33.048  22.303  23.554  1.00  0.00     0.036 A 
ATOM     13  Cl  UNL A   1      32.520  24.373  22.013  1.00  0.00    -0.082 Cl
BRANCH   8  14
ATOM     14  N   UNL A   1      30.192  24.636  24.286  1.00  0.00    -0.377 N 
ATOM     15  H   UNL A   1      29.275  24.406  24.565  1.00  0.00     0.161 HD
BRANCH  14  16
ATOM     16  C   UNL A   1      30.419  26.029  23.919  1.00  0.00     0.106 C 
ATOM     17  C   UNL A   1      29.038  26.701  23.879  1.00  0.00     0.036 C 
BRANCH  16  18
ATOM     18  C   UNL A   1      31.434  26.674  24.862  1.00  0.00    -0.023 A 
ATOM     19  C   UNL A   1      34.053  29.179  27.251  1.00  0.00     0.047 C 
ATOM     20  C   UNL A   1      33.186  28.247  26.464  1.00  0.00    -0.015 A 
ATOM     21  C   UNL A   1      32.042  27.666  27.016  1.00  0.00     0.007 A 
ATOM     22  C   UNL A   1      33.468  27.999  25.125  1.00  0.00     0.126 A 
ATOM     23  C   UNL A   1      31.177  26.894  26.225  1.00  0.00     0.006 A 
ATOM     24  C   UNL A   1      32.628  27.212  24.345  1.00  0.00     0.045 A 
ATOM     25  F   UNL A   1      34.547  28.554  24.554  1.00  0.00    -0.207 F 
ENDBRANCH  16  18
ENDBRANCH  14  16
ENDBRANCH   8  14
ENDBRANCH   4   7
ENDBRANCH   2   3
ENDBRANCH   1   2
BRANCH   1  26
ATOM     26  C   UNL A   1      38.064  20.152  24.913  1.00  0.00     0.023 C 
BRANCH  26  27
ATOM     27  C   UNL A   1      39.272  20.356  25.819  1.00  0.00     0.116 C 
BRANCH  27  28
ATOM     28  N   UNL A   1      40.166  19.208  25.866  1.00  0.00    -0.352 N 
ATOM     29  C   UNL A   1      41.518  19.201  26.118  1.00  0.00     0.251 C 
ATOM     30  H   UNL A   1      39.752  18.331  25.696  1.00  0.00     0.163 HD
ATOM     31  O   UNL A   1      42.166  18.168  26.038  1.00  0.00    -0.269 OA
BRANCH  29  32
ATOM     32  C   UNL A   1      42.186  20.479  26.435  1.00  0.00     0.039 A 
ATOM     33  C   UNL A   1      42.686  21.250  25.384  1.00  0.00     0.014 A 
ATOM     34  C   UNL A   1      42.264  20.936  27.753  1.00  0.00     0.014 A 
ATOM     35  C   UNL A   1      43.203  22.519  25.649  1.00  0.00     0.010 A 
ATOM     36  C   UNL A   1      42.716  22.225  28.007  1.00  0.00     0.010 A 
ATOM     37  C   UNL A   1      43.186  23.030  26.957  1.00  0.00    -0.014 A 
BRANCH  37  38
ATOM     38  C   UNL A   1      43.651  24.407  27.249  1.00  0.00     0.031 A 
ATOM     39  C   UNL A   1      42.667  25.462  27.662  1.00  0.00     0.074 A 
ATOM     40  C   UNL A   1      44.949  24.722  27.075  1.00  0.00     0.049 A 
ATOM     41  N   UNL A   1      42.869  26.733  27.896  1.00  0.00    -0.248 NA
ATOM     42  C   UNL A   1      41.264  25.039  27.809  1.00  0.00     0.031 C 
ATOM     43  C   UNL A   1      45.998  23.797  26.634  1.00  0.00     0.029 A 
ATOM     44  N   UNL A   1      45.608  25.914  27.242  1.00  0.00    -0.354 N 
ATOM     45  C   UNL A   1      41.622  27.263  28.202  1.00  0.00     0.074 A 
ATOM     46  C   UNL A   1      40.663  26.188  28.076  1.00  0.00     0.031 C 
ATOM     47  C   UNL A   1      47.169  24.453  26.588  1.00  0.00     0.029 A 
ATOM     48  C   UNL A   1      46.950  25.846  26.962  1.00  0.00     0.049 A 
ATOM     49  H   UNL A   1      45.159  26.740  27.535  1.00  0.00     0.167 HD
ATOM     50  C   UNL A   1      41.306  28.525  28.577  1.00  0.00     0.031 A 
ATOM     51  C   UNL A   1      47.898  26.801  26.999  1.00  0.00     0.031 A 
ATOM     52  C   UNL A   1      42.260  29.592  28.712  1.00  0.00     0.049 A 
ATOM     53  C   UNL A   1      47.521  28.194  27.414  1.00  0.00     0.074 A 
ATOM     54  C   UNL A   1      42.045  30.895  29.128  1.00  0.00     0.029 A 
ATOM     55  N   UNL A   1      43.614  29.476  28.439  1.00  0.00    -0.354 N 
ATOM     56  N   UNL A   1      46.346  28.664  27.757  1.00  0.00    -0.248 NA
ATOM     57  C   UNL A   1      48.604  29.186  27.459  1.00  0.00     0.031 C 
ATOM     58  C   UNL A   1      43.264  31.577  29.071  1.00  0.00     0.029 A 
ATOM     59  C   UNL A   1      44.244  30.687  28.664  1.00  0.00     0.049 A 
ATOM     60  H   UNL A   1      44.061  28.655  28.130  1.00  0.00     0.167 HD
ATOM     61  C   UNL A   1      46.553  29.998  28.084  1.00  0.00     0.074 A 
ATOM     62  C   UNL A   1      47.968  30.258  27.912  1.00  0.00     0.031 C 
ATOM     63  C   UNL A   1      45.653  30.925  28.490  1.00  0.00     0.031 A 
BRANCH  50  64
ATOM     64  C   UNL A   1      39.861  28.812  28.868  1.00  0.00    -0.014 A 
ATOM     65  C   UNL A   1      39.328  28.608  30.151  1.00  0.00     0.009 A 
ATOM     66  C   UNL A   1      39.027  29.314  27.856  1.00  0.00     0.009 A 
ATOM     67  C   UNL A   1      37.979  28.866  30.405  1.00  0.00     0.001 A 
ATOM     68  C   UNL A   1      37.686  29.595  28.121  1.00  0.00     0.001 A 
ATOM     69  C   UNL A   1      37.161  29.363  29.391  1.00  0.00     0.000 A 
ENDBRANCH  50  64
BRANCH  51  70
ATOM     70  C   UNL A   1      49.303  26.471  26.649  1.00  0.00    -0.014 A 
ATOM     71  C   UNL A   1      50.186  25.995  27.631  1.00  0.00     0.009 A 
ATOM     72  C   UNL A   1      49.773  26.640  25.338  1.00  0.00     0.009 A 
ATOM     73  C   UNL A   1      51.518  25.724  27.313  1.00  0.00     0.001 A 
ATOM     74  C   UNL A   1      51.100  26.342  25.017  1.00  0.00     0.001 A 
ATOM     75  C   UNL A   1      51.973  25.894  26.006  1.00  0.00     0.000 A 
ENDBRANCH  51  70
BRANCH  63  76
ATOM     76  C   UNL A   1      46.179  32.295  28.810  1.00  0.00    -0.014 A 
ATOM     77  C   UNL A   1      46.227  33.301  27.833  1.00  0.00     0.009 A 
ATOM     78  C   UNL A   1      46.596  32.590  30.117  1.00  0.00     0.009 A 
ATOM     79  C   UNL A   1      46.713  34.570  28.154  1.00  0.00     0.001 A 
ATOM     80  C   UNL A   1      47.057  33.867  30.440  1.00  0.00     0.001 A 
ATOM     81  C   UNL A   1      47.122  34.853  29.457  1.00  0.00     0.000 A 
ENDBRANCH  63  76
ENDBRANCH  37  38
ENDBRANCH  29  32
ENDBRANCH  27  28
ENDBRANCH  26  27
ENDBRANCH   1  26
TORSDOF 14
ENDMDL
MODEL 3
REMARK VINA RESULT:     -11.9      4.318      9.245
REMARK SMILES Cc1ccc([C@H](C)Nc2ccc(C(=O)NCCCCNC(=O)c3ccc(-c4c5nc(c(-c6ccccc6)c6ccc([nH]6)c(-c6ccccc6)c6nc(c(-c7ccccc7)c7ccc4[nH]7)C=C6)C=C5)cc3)cc2Cl)cc1F
REMARK SMILES IDX 17 1 16 2 15 3 13 4 14 5 12 7 9 8 10 9 72 10 11 11 71 12
REMARK SMILES IDX 73 13 8 14 6 16 7 17 5 18 1 19 2 20 3 21 75 22 4 23 74 24
REMARK SMILES IDX 76 25 18 26 19 27 20 28 21 29 22 31 23 32 24 33 70 34 25 35
REMARK SMILES IDX 69 36 26 37 27 38 28 39 63 40 29 41 68 42 62 43 64 44 30 45
REMARK SMILES IDX 67 46 61 47 60 48 31 50 53 51 38 52 52 53 39 54 42 55 51 56
REMARK SMILES IDX 65 57 40 58 41 59 50 61 66 62 43 63 32 64 33 65 37 66 34 67
REMARK SMILES IDX 36 68 35 69 54 70 55 71 59 72 56 73 58 74 57 75 44 76 45 77
REMARK SMILES IDX 49 78 46 79 48 80 47 81
REMARK H PARENT 15 6 8 15 20 30 64 49 42 60
REMARK Flexibility Score: inf
ROOT
ATOM      1  C   UNL A   1      32.036  29.792  26.631  1.00  0.00     0.023 C 
ENDROOT
BRANCH   1   2
ATOM      2  C   UNL A   1      31.604  29.039  25.368  1.00  0.00     0.116 C 
BRANCH   2   3
ATOM      3  N   UNL A   1      32.571  29.216  24.301  1.00  0.00    -0.352 N 
ATOM      4  C   UNL A   1      33.446  28.362  23.680  1.00  0.00     0.251 C 
ATOM      5  O   UNL A   1      34.139  28.840  22.780  1.00  0.00    -0.269 OA
ATOM      6  H   UNL A   1      32.607  30.136  23.954  1.00  0.00     0.163 HD
BRANCH   4   7
ATOM      7  C   UNL A   1      33.592  26.908  24.003  1.00  0.00     0.041 A 
ATOM      8  C   UNL A   1      33.891  24.162  24.801  1.00  0.00     0.053 A 
ATOM      9  C   UNL A   1      34.014  25.225  25.714  1.00  0.00     0.028 A 
ATOM     10  C   UNL A   1      33.649  24.523  23.464  1.00  0.00     0.065 A 
ATOM     11  C   UNL A   1      33.885  26.568  25.326  1.00  0.00     0.016 A 
ATOM     12  C   UNL A   1      33.443  25.864  23.099  1.00  0.00     0.036 A 
ATOM     13  Cl  UNL A   1      33.507  23.412  22.141  1.00  0.00    -0.082 Cl
BRANCH   8  14
ATOM     14  N   UNL A   1      34.050  22.890  25.317  1.00  0.00    -0.377 N 
ATOM     15  H   UNL A   1      34.975  22.617  25.520  1.00  0.00     0.161 HD
BRANCH  14  16
ATOM     16  C   UNL A   1      33.015  21.901  25.598  1.00  0.00     0.106 C 
ATOM     17  C   UNL A   1      31.670  22.577  25.291  1.00  0.00     0.036 C 
BRANCH  16  18
ATOM     18  C   UNL A   1      33.287  20.606  24.832  1.00  0.00    -0.023 A 
ATOM     19  C   UNL A   1      33.968  16.584  23.349  1.00  0.00     0.047 C 
ATOM     20  C   UNL A   1      33.746  18.000  23.781  1.00  0.00    -0.015 A 
ATOM     21  C   UNL A   1      32.523  18.645  23.582  1.00  0.00     0.007 A 
ATOM     22  C   UNL A   1      34.746  18.683  24.466  1.00  0.00     0.126 A 
ATOM     23  C   UNL A   1      32.296  19.928  24.104  1.00  0.00     0.006 A 
ATOM     24  C   UNL A   1      34.534  19.965  24.960  1.00  0.00     0.045 A 
ATOM     25  F   UNL A   1      35.927  18.090  24.692  1.00  0.00    -0.207 F 
ENDBRANCH  16  18
ENDBRANCH  14  16
ENDBRANCH   8  14
ENDBRANCH   4   7
ENDBRANCH   2   3
ENDBRANCH   1   2
BRANCH   1  26
ATOM     26  C   UNL A   1      31.888  31.312  26.531  1.00  0.00     0.023 C 
BRANCH  26  27
ATOM     27  C   UNL A   1      32.949  32.094  27.296  1.00  0.00     0.116 C 
BRANCH  27  28
ATOM     28  N   UNL A   1      32.540  33.447  27.641  1.00  0.00    -0.352 N 
ATOM     29  C   UNL A   1      33.180  34.337  28.472  1.00  0.00     0.251 C 
ATOM     30  H   UNL A   1      31.704  33.765  27.228  1.00  0.00     0.163 HD
ATOM     31  O   UNL A   1      32.675  35.416  28.745  1.00  0.00    -0.269 OA
BRANCH  29  32
ATOM     32  C   UNL A   1      34.467  33.940  29.078  1.00  0.00     0.039 A 
ATOM     33  C   UNL A   1      34.448  33.154  30.232  1.00  0.00     0.014 A 
ATOM     34  C   UNL A   1      35.677  34.294  28.477  1.00  0.00     0.014 A 
ATOM     35  C   UNL A   1      35.649  32.660  30.745  1.00  0.00     0.010 A 
ATOM     36  C   UNL A   1      36.864  33.747  28.949  1.00  0.00     0.010 A 
ATOM     37  C   UNL A   1      36.861  32.922  30.084  1.00  0.00    -0.014 A 
BRANCH  37  38
ATOM     38  C   UNL A   1      38.136  32.337  30.563  1.00  0.00     0.031 A 
ATOM     39  C   UNL A   1      38.636  31.045  29.984  1.00  0.00     0.074 A 
ATOM     40  C   UNL A   1      38.808  32.935  31.565  1.00  0.00     0.049 A 
ATOM     41  N   UNL A   1      39.690  30.346  30.315  1.00  0.00    -0.248 NA
ATOM     42  C   UNL A   1      37.831  30.447  28.906  1.00  0.00     0.031 C 
ATOM     43  C   UNL A   1      38.403  34.171  32.243  1.00  0.00     0.029 A 
ATOM     44  N   UNL A   1      39.973  32.578  32.196  1.00  0.00    -0.354 N 
ATOM     45  C   UNL A   1      39.668  29.222  29.500  1.00  0.00     0.074 A 
ATOM     46  C   UNL A   1      38.470  29.307  28.694  1.00  0.00     0.031 C 
ATOM     47  C   UNL A   1      39.317  34.478  33.177  1.00  0.00     0.029 A 
ATOM     48  C   UNL A   1      40.351  33.448  33.188  1.00  0.00     0.049 A 
ATOM     49  H   UNL A   1      40.488  31.773  31.959  1.00  0.00     0.167 HD
ATOM     50  C   UNL A   1      40.574  28.220  29.413  1.00  0.00     0.031 A 
ATOM     51  C   UNL A   1      41.410  33.416  34.018  1.00  0.00     0.031 A 
ATOM     52  C   UNL A   1      41.770  28.139  30.207  1.00  0.00     0.049 A 
ATOM     53  C   UNL A   1      42.399  32.292  33.904  1.00  0.00     0.074 A 
ATOM     54  C   UNL A   1      42.772  27.185  30.163  1.00  0.00     0.029 A 
ATOM     55  N   UNL A   1      42.127  29.051  31.186  1.00  0.00    -0.354 N 
ATOM     56  N   UNL A   1      42.394  31.267  33.087  1.00  0.00    -0.248 NA
ATOM     57  C   UNL A   1      43.548  32.326  34.821  1.00  0.00     0.031 C 
ATOM     58  C   UNL A   1      43.719  27.502  31.142  1.00  0.00     0.029 A 
ATOM     59  C   UNL A   1      43.328  28.676  31.764  1.00  0.00     0.049 A 
ATOM     60  H   UNL A   1      41.604  29.847  31.436  1.00  0.00     0.167 HD
ATOM     61  C   UNL A   1      43.548  30.550  33.371  1.00  0.00     0.074 A 
ATOM     62  C   UNL A   1      44.238  31.265  34.426  1.00  0.00     0.031 C 
ATOM     63  C   UNL A   1      43.999  29.402  32.810  1.00  0.00     0.031 A 
BRANCH  50  64
ATOM     64  C   UNL A   1      40.298  27.130  28.417  1.00  0.00    -0.014 A 
ATOM     65  C   UNL A   1      40.821  27.192  27.115  1.00  0.00     0.009 A 
ATOM     66  C   UNL A   1      39.526  26.018  28.789  1.00  0.00     0.009 A 
ATOM     67  C   UNL A   1      40.546  26.179  26.194  1.00  0.00     0.001 A 
ATOM     68  C   UNL A   1      39.275  24.995  27.873  1.00  0.00     0.001 A 
ATOM     69  C   UNL A   1      39.777  25.080  26.575  1.00  0.00     0.000 A 
ENDBRANCH  50  64
BRANCH  51  70
ATOM     70  C   UNL A   1      41.604  34.495  35.021  1.00  0.00    -0.014 A 
ATOM     71  C   UNL A   1      42.347  35.641  34.696  1.00  0.00     0.009 A 
ATOM     72  C   UNL A   1      41.061  34.380  36.309  1.00  0.00     0.009 A 
ATOM     73  C   UNL A   1      42.565  36.636  35.651  1.00  0.00     0.001 A 
ATOM     74  C   UNL A   1      41.259  35.390  37.254  1.00  0.00     0.001 A 
ATOM     75  C   UNL A   1      42.019  36.512  36.927  1.00  0.00     0.000 A 
ENDBRANCH  51  70
BRANCH  63  76
ATOM     76  C   UNL A   1      45.314  28.870  33.302  1.00  0.00    -0.014 A 
ATOM     77  C   UNL A   1      45.374  27.916  34.329  1.00  0.00     0.009 A 
ATOM     78  C   UNL A   1      46.506  29.304  32.700  1.00  0.00     0.009 A 
ATOM     79  C   UNL A   1      46.607  27.430  34.765  1.00  0.00     0.001 A 
ATOM     80  C   UNL A   1      47.735  28.796  33.122  1.00  0.00     0.001 A 
ATOM     81  C   UNL A   1      47.786  27.866  34.159  1.00  0.00     0.000 A 
ENDBRANCH  63  76
ENDBRANCH  37  38
ENDBRANCH  29  32
ENDBRANCH  27  28
ENDBRANCH  26  27
ENDBRANCH   1  26
TORSDOF 14
ENDMDL
