MODEL 1
REMARK VINA RESULT:     -11.4      0.000      0.000
REMARK SMILES C[C@H]1CC[C@H](CNC(=O)NCc2ccc(C(=O)NCCCCNC(=O)c3ccc(-c4c5nc(c(-c6ccccc6)c6ccc([nH]6)c(-c6ccccc6)c6nc(c(-c7ccccc7)c7ccc4[nH]7)C=C6)C=C5)cc3)o2)CC1
REMARK SMILES IDX 19 1 18 2 16 3 17 4 15 6 12 7 13 8 74 9 14 10 11 11 10 12
REMARK SMILES IDX 7 13 8 14 9 16 6 18 5 19 1 20 2 21 76 22 3 23 75 24 4 25
REMARK SMILES IDX 20 26 21 27 22 28 23 29 24 30 25 32 26 33 27 34 73 35 28 36
REMARK SMILES IDX 72 37 29 38 30 39 31 40 66 41 32 42 71 43 65 44 67 45 33 46
REMARK SMILES IDX 70 47 64 48 63 49 34 51 56 52 41 53 55 54 42 55 45 56 54 57
REMARK SMILES IDX 68 58 43 59 44 60 53 62 69 63 46 64 35 65 36 66 40 67 37 68
REMARK SMILES IDX 39 69 38 70 57 71 58 72 62 73 59 74 61 75 60 76 47 77 48 78
REMARK SMILES IDX 52 79 49 80 51 81 50 82
REMARK H PARENT 18 5 7 15 10 17 23 31 67 50 45 61
REMARK Flexibility Score: inf
ROOT
ATOM      1  C   UNL A   1      37.560  23.452  25.899  1.00  0.00     0.116 C 
ENDROOT
BRANCH   1   2
ATOM      2  N   UNL A   1      37.418  23.334  24.464  1.00  0.00    -0.349 N 
ATOM      3  C   UNL A   1      36.406  22.790  23.704  1.00  0.00     0.286 C 
ATOM      4  O   UNL A   1      36.508  22.960  22.486  1.00  0.00    -0.266 OA
ATOM      5  H   UNL A   1      38.168  23.703  23.945  1.00  0.00     0.163 HD
BRANCH   3   6
ATOM      6  C   UNL A   1      35.296  22.078  24.315  1.00  0.00     0.191 A 
ATOM      7  C   UNL A   1      33.132  21.799  24.744  1.00  0.00     0.124 A 
ATOM      8  C   UNL A   1      33.789  20.755  25.357  1.00  0.00     0.048 A 
ATOM      9  O   UNL A   1      34.041  22.606  24.123  1.00  0.00    -0.454 OA
ATOM     10  C   UNL A   1      35.166  20.918  25.061  1.00  0.00     0.056 A 
BRANCH   7  11
ATOM     11  C   UNL A   1      31.693  22.172  24.670  1.00  0.00     0.193 C 
BRANCH  11  12
ATOM     12  N   UNL A   1      31.085  22.210  25.977  1.00  0.00    -0.331 N 
ATOM     13  N   UNL A   1      30.972  24.489  26.572  1.00  0.00    -0.338 N 
ATOM     14  C   UNL A   1      30.650  23.203  26.756  1.00  0.00     0.315 C 
ATOM     15  H   UNL A   1      30.375  25.114  27.046  1.00  0.00     0.165 HD
ATOM     16  O   UNL A   1      29.901  22.925  27.696  1.00  0.00    -0.249 OA
ATOM     17  H   UNL A   1      30.967  21.319  26.378  1.00  0.00     0.165 HD
BRANCH  13  18
ATOM     18  C   UNL A   1      32.019  25.150  25.818  1.00  0.00     0.121 C 
BRANCH  18  19
ATOM     19  C   UNL A   1      32.501  26.428  26.524  1.00  0.00     0.008 C 
ATOM     20  C   UNL A   1      33.246  30.706  27.198  1.00  0.00     0.007 C 
ATOM     21  C   UNL A   1      32.797  29.395  26.558  1.00  0.00    -0.014 C 
ATOM     22  C   UNL A   1      31.763  28.682  27.436  1.00  0.00     0.003 C 
ATOM     23  C   UNL A   1      33.997  28.479  26.296  1.00  0.00     0.003 C 
ATOM     24  C   UNL A   1      31.315  27.360  26.812  1.00  0.00     0.006 C 
ATOM     25  C   UNL A   1      33.567  27.150  25.678  1.00  0.00     0.006 C 
ENDBRANCH  18  19
ENDBRANCH  13  18
ENDBRANCH  11  12
ENDBRANCH   7  11
ENDBRANCH   3   6
ENDBRANCH   1   2
BRANCH   1  26
ATOM     26  C   UNL A   1      38.796  22.706  26.401  1.00  0.00     0.023 C 
BRANCH  26  27
ATOM     27  C   UNL A   1      39.109  21.416  25.634  1.00  0.00     0.023 C 
BRANCH  27  28
ATOM     28  C   UNL A   1      39.496  20.217  26.498  1.00  0.00     0.116 C 
BRANCH  28  29
ATOM     29  N   UNL A   1      40.611  19.450  25.963  1.00  0.00    -0.352 N 
ATOM     30  C   UNL A   1      41.933  19.813  25.863  1.00  0.00     0.251 C 
ATOM     31  H   UNL A   1      40.390  18.552  25.628  1.00  0.00     0.163 HD
ATOM     32  O   UNL A   1      42.735  19.079  25.295  1.00  0.00    -0.269 OA
BRANCH  30  33
ATOM     33  C   UNL A   1      42.377  21.112  26.409  1.00  0.00     0.039 A 
ATOM     34  C   UNL A   1      42.756  22.120  25.520  1.00  0.00     0.014 A 
ATOM     35  C   UNL A   1      42.389  21.346  27.787  1.00  0.00     0.014 A 
ATOM     36  C   UNL A   1      43.078  23.387  26.008  1.00  0.00     0.010 A 
ATOM     37  C   UNL A   1      42.645  22.626  28.267  1.00  0.00     0.010 A 
ATOM     38  C   UNL A   1      42.987  23.661  27.383  1.00  0.00    -0.014 A 
BRANCH  38  39
ATOM     39  C   UNL A   1      43.227  25.026  27.912  1.00  0.00     0.031 A 
ATOM     40  C   UNL A   1      44.615  25.456  28.298  1.00  0.00     0.074 A 
ATOM     41  C   UNL A   1      42.184  25.856  28.114  1.00  0.00     0.049 A 
ATOM     42  N   UNL A   1      45.011  26.582  28.836  1.00  0.00    -0.248 NA
ATOM     43  C   UNL A   1      45.699  24.485  28.073  1.00  0.00     0.031 C 
ATOM     44  C   UNL A   1      40.783  25.544  27.823  1.00  0.00     0.029 A 
ATOM     45  N   UNL A   1      42.141  27.131  28.620  1.00  0.00    -0.354 N 
ATOM     46  C   UNL A   1      46.379  26.447  29.032  1.00  0.00     0.074 A 
ATOM     47  C   UNL A   1      46.740  25.115  28.597  1.00  0.00     0.031 C 
ATOM     48  C   UNL A   1      40.022  26.605  28.136  1.00  0.00     0.029 A 
ATOM     49  C   UNL A   1      40.873  27.657  28.683  1.00  0.00     0.049 A 
ATOM     50  H   UNL A   1      42.943  27.622  28.911  1.00  0.00     0.167 HD
ATOM     51  C   UNL A   1      47.260  27.356  29.513  1.00  0.00     0.031 A 
ATOM     52  C   UNL A   1      40.443  28.849  29.135  1.00  0.00     0.031 A 
ATOM     53  C   UNL A   1      46.906  28.686  29.931  1.00  0.00     0.049 A 
ATOM     54  C   UNL A   1      41.442  29.838  29.668  1.00  0.00     0.074 A 
ATOM     55  C   UNL A   1      47.738  29.700  30.373  1.00  0.00     0.029 A 
ATOM     56  N   UNL A   1      45.614  29.185  29.961  1.00  0.00    -0.354 N 
ATOM     57  N   UNL A   1      42.743  29.722  29.774  1.00  0.00    -0.248 NA
ATOM     58  C   UNL A   1      40.913  31.129  30.132  1.00  0.00     0.031 C 
ATOM     59  C   UNL A   1      46.943  30.798  30.716  1.00  0.00     0.029 A 
ATOM     60  C   UNL A   1      45.623  30.486  30.436  1.00  0.00     0.049 A 
ATOM     61  H   UNL A   1      44.809  28.689  29.685  1.00  0.00     0.167 HD
ATOM     62  C   UNL A   1      43.192  30.931  30.289  1.00  0.00     0.074 A 
ATOM     63  C   UNL A   1      42.025  31.773  30.457  1.00  0.00     0.031 C 
ATOM     64  C   UNL A   1      44.455  31.312  30.594  1.00  0.00     0.031 A 
BRANCH  51  65
ATOM     65  C   UNL A   1      48.700  26.938  29.618  1.00  0.00    -0.014 A 
ATOM     66  C   UNL A   1      49.200  26.339  30.785  1.00  0.00     0.009 A 
ATOM     67  C   UNL A   1      49.557  27.102  28.518  1.00  0.00     0.009 A 
ATOM     68  C   UNL A   1      50.537  25.943  30.860  1.00  0.00     0.001 A 
ATOM     69  C   UNL A   1      50.886  26.679  28.586  1.00  0.00     0.001 A 
ATOM     70  C   UNL A   1      51.377  26.109  29.759  1.00  0.00     0.000 A 
ENDBRANCH  51  65
BRANCH  52  71
ATOM     71  C   UNL A   1      38.996  29.186  29.098  1.00  0.00    -0.014 A 
ATOM     72  C   UNL A   1      38.186  28.975  30.226  1.00  0.00     0.009 A 
ATOM     73  C   UNL A   1      38.411  29.702  27.931  1.00  0.00     0.009 A 
ATOM     74  C   UNL A   1      36.817  29.242  30.174  1.00  0.00     0.001 A 
ATOM     75  C   UNL A   1      37.047  29.996  27.892  1.00  0.00     0.001 A 
ATOM     76  C   UNL A   1      36.248  29.756  29.009  1.00  0.00     0.000 A 
ENDBRANCH  52  71
BRANCH  64  77
ATOM     77  C   UNL A   1      44.648  32.711  31.105  1.00  0.00    -0.014 A 
ATOM     78  C   UNL A   1      44.729  33.804  30.228  1.00  0.00     0.009 A 
ATOM     79  C   UNL A   1      44.709  32.942  32.488  1.00  0.00     0.009 A 
ATOM     80  C   UNL A   1      44.900  35.097  30.727  1.00  0.00     0.001 A 
ATOM     81  C   UNL A   1      44.850  34.238  32.985  1.00  0.00     0.001 A 
ATOM     82  C   UNL A   1      44.955  35.313  32.104  1.00  0.00     0.000 A 
ENDBRANCH  64  77
ENDBRANCH  38  39
ENDBRANCH  30  33
ENDBRANCH  28  29
ENDBRANCH  27  28
ENDBRANCH  26  27
ENDBRANCH   1  26
TORSDOF 15
ENDMDL
MODEL 2
REMARK VINA RESULT:     -11.0      3.418      8.665
REMARK SMILES C[C@H]1CC[C@H](CNC(=O)NCc2ccc(C(=O)NCCCCNC(=O)c3ccc(-c4c5nc(c(-c6ccccc6)c6ccc([nH]6)c(-c6ccccc6)c6nc(c(-c7ccccc7)c7ccc4[nH]7)C=C6)C=C5)cc3)o2)CC1
REMARK SMILES IDX 19 1 18 2 16 3 17 4 15 6 12 7 13 8 74 9 14 10 11 11 10 12
REMARK SMILES IDX 7 13 8 14 9 16 6 18 5 19 1 20 2 21 76 22 3 23 75 24 4 25
REMARK SMILES IDX 20 26 21 27 22 28 23 29 24 30 25 32 26 33 27 34 73 35 28 36
REMARK SMILES IDX 72 37 29 38 30 39 31 40 66 41 32 42 71 43 65 44 67 45 33 46
REMARK SMILES IDX 70 47 64 48 63 49 34 51 56 52 41 53 55 54 42 55 45 56 54 57
REMARK SMILES IDX 68 58 43 59 44 60 53 62 69 63 46 64 35 65 36 66 40 67 37 68
REMARK SMILES IDX 39 69 38 70 57 71 58 72 62 73 59 74 61 75 60 76 47 77 48 78
REMARK SMILES IDX 52 79 49 80 51 81 50 82
REMARK H PARENT 18 5 7 15 10 17 23 31 67 50 45 61
REMARK Flexibility Score: inf
ROOT
ATOM      1  C   UNL A   1      32.708  29.232  24.611  1.00  0.00     0.116 C 
ENDROOT
BRANCH   1   2
ATOM      2  N   UNL A   1      31.743  29.330  23.538  1.00  0.00    -0.349 N 
ATOM      3  C   UNL A   1      31.222  28.362  22.708  1.00  0.00     0.286 C 
ATOM      4  O   UNL A   1      30.306  28.735  21.970  1.00  0.00    -0.266 OA
ATOM      5  H   UNL A   1      31.404  30.239  23.373  1.00  0.00     0.163 HD
BRANCH   3   6
ATOM      6  C   UNL A   1      31.722  26.998  22.725  1.00  0.00     0.191 A 
ATOM      7  C   UNL A   1      31.489  24.820  23.104  1.00  0.00     0.124 A 
ATOM      8  C   UNL A   1      32.765  24.996  22.615  1.00  0.00     0.048 A 
ATOM      9  O   UNL A   1      30.860  26.028  23.181  1.00  0.00    -0.454 OA
ATOM     10  C   UNL A   1      32.904  26.382  22.349  1.00  0.00     0.056 A 
BRANCH   7  11
ATOM     11  C   UNL A   1      30.743  23.608  23.544  1.00  0.00     0.193 C 
BRANCH  11  12
ATOM     12  N   UNL A   1      30.336  23.707  24.924  1.00  0.00    -0.331 N 
ATOM     13  N   UNL A   1      31.698  22.190  26.111  1.00  0.00    -0.338 N 
ATOM     14  C   UNL A   1      30.821  23.201  26.061  1.00  0.00     0.315 C 
ATOM     15  H   UNL A   1      32.155  22.111  26.980  1.00  0.00     0.165 HD
ATOM     16  O   UNL A   1      30.448  23.694  27.127  1.00  0.00    -0.249 OA
ATOM     17  H   UNL A   1      29.535  24.263  25.055  1.00  0.00     0.165 HD
BRANCH  13  18
ATOM     18  C   UNL A   1      32.112  21.189  25.147  1.00  0.00     0.121 C 
BRANCH  18  19
ATOM     19  C   UNL A   1      33.590  21.361  24.757  1.00  0.00     0.008 C 
ATOM     20  C   UNL A   1      37.943  21.716  25.245  1.00  0.00     0.007 C 
ATOM     21  C   UNL A   1      36.457  21.552  25.554  1.00  0.00    -0.014 C 
ATOM     22  C   UNL A   1      35.892  20.294  24.887  1.00  0.00     0.003 C 
ATOM     23  C   UNL A   1      35.670  22.791  25.110  1.00  0.00     0.003 C 
ATOM     24  C   UNL A   1      34.401  20.127  25.178  1.00  0.00     0.006 C 
ATOM     25  C   UNL A   1      34.176  22.638  25.388  1.00  0.00     0.006 C 
ENDBRANCH  18  19
ENDBRANCH  13  18
ENDBRANCH  11  12
ENDBRANCH   7  11
ENDBRANCH   3   6
ENDBRANCH   1   2
BRANCH   1  26
ATOM     26  C   UNL A   1      32.040  29.382  25.978  1.00  0.00     0.023 C 
BRANCH  26  27
ATOM     27  C   UNL A   1      31.691  30.826  26.354  1.00  0.00     0.023 C 
BRANCH  27  28
ATOM     28  C   UNL A   1      32.753  31.569  27.163  1.00  0.00     0.116 C 
BRANCH  28  29
ATOM     29  N   UNL A   1      32.389  32.942  27.478  1.00  0.00    -0.352 N 
ATOM     30  C   UNL A   1      33.083  33.865  28.225  1.00  0.00     0.251 C 
ATOM     31  H   UNL A   1      31.533  33.252  27.107  1.00  0.00     0.163 HD
ATOM     32  O   UNL A   1      32.586  34.958  28.475  1.00  0.00    -0.269 OA
BRANCH  30  33
ATOM     33  C   UNL A   1      34.415  33.517  28.761  1.00  0.00     0.039 A 
ATOM     34  C   UNL A   1      34.493  32.829  29.973  1.00  0.00     0.014 A 
ATOM     35  C   UNL A   1      35.578  33.841  28.057  1.00  0.00     0.014 A 
ATOM     36  C   UNL A   1      35.735  32.400  30.446  1.00  0.00     0.010 A 
ATOM     37  C   UNL A   1      36.807  33.356  28.494  1.00  0.00     0.010 A 
ATOM     38  C   UNL A   1      36.897  32.626  29.689  1.00  0.00    -0.014 A 
BRANCH  38  39
ATOM     39  C   UNL A   1      38.212  32.091  30.123  1.00  0.00     0.031 A 
ATOM     40  C   UNL A   1      38.705  30.773  29.595  1.00  0.00     0.074 A 
ATOM     41  C   UNL A   1      38.929  32.757  31.050  1.00  0.00     0.049 A 
ATOM     42  N   UNL A   1      39.793  30.114  29.906  1.00  0.00    -0.248 NA
ATOM     43  C   UNL A   1      37.852  30.091  28.607  1.00  0.00     0.031 C 
ATOM     44  C   UNL A   1      38.541  34.024  31.674  1.00  0.00     0.029 A 
ATOM     45  N   UNL A   1      40.134  32.456  31.633  1.00  0.00    -0.354 N 
ATOM     46  C   UNL A   1      39.746  28.938  29.170  1.00  0.00     0.074 A 
ATOM     47  C   UNL A   1      38.503  28.950  28.431  1.00  0.00     0.031 C 
ATOM     48  C   UNL A   1      39.498  34.401  32.537  1.00  0.00     0.029 A 
ATOM     49  C   UNL A   1      40.549  33.387  32.555  1.00  0.00     0.049 A 
ATOM     50  H   UNL A   1      40.653  31.649  31.413  1.00  0.00     0.167 HD
ATOM     51  C   UNL A   1      40.664  27.945  29.100  1.00  0.00     0.031 A 
ATOM     52  C   UNL A   1      41.647  33.419  33.332  1.00  0.00     0.031 A 
ATOM     53  C   UNL A   1      41.908  27.939  29.822  1.00  0.00     0.049 A 
ATOM     54  C   UNL A   1      42.648  32.300  33.238  1.00  0.00     0.074 A 
ATOM     55  C   UNL A   1      42.930  27.006  29.767  1.00  0.00     0.029 A 
ATOM     56  N   UNL A   1      42.297  28.909  30.730  1.00  0.00    -0.354 N 
ATOM     57  N   UNL A   1      42.623  31.233  32.479  1.00  0.00    -0.248 NA
ATOM     58  C   UNL A   1      43.834  32.401  34.100  1.00  0.00     0.031 C 
ATOM     59  C   UNL A   1      43.918  27.390  30.680  1.00  0.00     0.029 A 
ATOM     60  C   UNL A   1      43.536  28.588  31.261  1.00  0.00     0.049 A 
ATOM     61  H   UNL A   1      41.773  29.709  30.964  1.00  0.00     0.167 HD
ATOM     62  C   UNL A   1      43.801  30.549  32.749  1.00  0.00     0.074 A 
ATOM     63  C   UNL A   1      44.525  31.331  33.730  1.00  0.00     0.031 C 
ATOM     64  C   UNL A   1      44.244  29.378  32.232  1.00  0.00     0.031 A 
BRANCH  51  65
ATOM     65  C   UNL A   1      40.352  26.773  28.211  1.00  0.00    -0.014 A 
ATOM     66  C   UNL A   1      39.537  25.720  28.656  1.00  0.00     0.009 A 
ATOM     67  C   UNL A   1      40.841  26.745  26.896  1.00  0.00     0.009 A 
ATOM     68  C   UNL A   1      39.245  24.646  27.812  1.00  0.00     0.001 A 
ATOM     69  C   UNL A   1      40.524  25.684  26.045  1.00  0.00     0.001 A 
ATOM     70  C   UNL A   1      39.734  24.632  26.506  1.00  0.00     0.000 A 
ENDBRANCH  51  65
BRANCH  52  71
ATOM     71  C   UNL A   1      41.870  34.553  34.267  1.00  0.00    -0.014 A 
ATOM     72  C   UNL A   1      41.426  34.479  35.597  1.00  0.00     0.009 A 
ATOM     73  C   UNL A   1      42.511  35.723  33.830  1.00  0.00     0.009 A 
ATOM     74  C   UNL A   1      41.590  35.565  36.459  1.00  0.00     0.001 A 
ATOM     75  C   UNL A   1      42.699  36.796  34.704  1.00  0.00     0.001 A 
ATOM     76  C   UNL A   1      42.230  36.721  36.014  1.00  0.00     0.000 A 
ENDBRANCH  52  71
BRANCH  64  77
ATOM     77  C   UNL A   1      45.591  28.890  32.687  1.00  0.00    -0.014 A 
ATOM     78  C   UNL A   1      46.768  29.268  32.021  1.00  0.00     0.009 A 
ATOM     79  C   UNL A   1      45.685  28.074  33.824  1.00  0.00     0.009 A 
ATOM     80  C   UNL A   1      48.008  28.810  32.468  1.00  0.00     0.001 A 
ATOM     81  C   UNL A   1      46.928  27.641  34.286  1.00  0.00     0.001 A 
ATOM     82  C   UNL A   1      48.087  28.001  33.602  1.00  0.00     0.000 A 
ENDBRANCH  64  77
ENDBRANCH  38  39
ENDBRANCH  30  33
ENDBRANCH  28  29
ENDBRANCH  27  28
ENDBRANCH  26  27
ENDBRANCH   1  26
TORSDOF 15
ENDMDL
MODEL 3
REMARK VINA RESULT:     -10.9      3.840      7.555
REMARK SMILES C[C@H]1CC[C@H](CNC(=O)NCc2ccc(C(=O)NCCCCNC(=O)c3ccc(-c4c5nc(c(-c6ccccc6)c6ccc([nH]6)c(-c6ccccc6)c6nc(c(-c7ccccc7)c7ccc4[nH]7)C=C6)C=C5)cc3)o2)CC1
REMARK SMILES IDX 19 1 18 2 16 3 17 4 15 6 12 7 13 8 74 9 14 10 11 11 10 12
REMARK SMILES IDX 7 13 8 14 9 16 6 18 5 19 1 20 2 21 76 22 3 23 75 24 4 25
REMARK SMILES IDX 20 26 21 27 22 28 23 29 24 30 25 32 26 33 27 34 73 35 28 36
REMARK SMILES IDX 72 37 29 38 30 39 31 40 66 41 32 42 71 43 65 44 67 45 33 46
REMARK SMILES IDX 70 47 64 48 63 49 34 51 56 52 41 53 55 54 42 55 45 56 54 57
REMARK SMILES IDX 68 58 43 59 44 60 53 62 69 63 46 64 35 65 36 66 40 67 37 68
REMARK SMILES IDX 39 69 38 70 57 71 58 72 62 73 59 74 61 75 60 76 47 77 48 78
REMARK SMILES IDX 52 79 49 80 51 81 50 82
REMARK H PARENT 18 5 7 15 10 17 23 31 67 50 45 61
REMARK Flexibility Score: inf
ROOT
ATOM      1  C   UNL A   1      38.088  21.547  25.515  1.00  0.00     0.116 C 
ENDROOT
BRANCH   1   2
ATOM      2  N   UNL A   1      37.610  22.072  24.254  1.00  0.00    -0.349 N 
ATOM      3  C   UNL A   1      36.425  22.696  23.933  1.00  0.00     0.286 C 
ATOM      4  O   UNL A   1      36.361  23.157  22.790  1.00  0.00    -0.266 OA
ATOM      5  H   UNL A   1      38.235  21.965  23.501  1.00  0.00     0.163 HD
BRANCH   3   6
ATOM      6  C   UNL A   1      35.339  22.804  24.893  1.00  0.00     0.191 A 
ATOM      7  C   UNL A   1      33.215  22.555  25.501  1.00  0.00     0.124 A 
ATOM      8  C   UNL A   1      33.876  23.068  26.595  1.00  0.00     0.048 A 
ATOM      9  O   UNL A   1      34.095  22.404  24.468  1.00  0.00    -0.454 OA
ATOM     10  C   UNL A   1      35.235  23.203  26.216  1.00  0.00     0.056 A 
BRANCH   7  11
ATOM     11  C   UNL A   1      31.792  22.178  25.275  1.00  0.00     0.193 C 
BRANCH  11  12
ATOM     12  N   UNL A   1      31.014  22.290  26.484  1.00  0.00    -0.331 N 
ATOM     13  N   UNL A   1      29.946  24.390  26.375  1.00  0.00    -0.338 N 
ATOM     14  C   UNL A   1      30.114  23.177  26.915  1.00  0.00     0.315 C 
ATOM     15  H   UNL A   1      29.088  24.810  26.615  1.00  0.00     0.165 HD
ATOM     16  O   UNL A   1      29.388  22.861  27.861  1.00  0.00    -0.249 OA
ATOM     17  H   UNL A   1      31.183  21.562  27.124  1.00  0.00     0.165 HD
BRANCH  13  18
ATOM     18  C   UNL A   1      30.768  25.210  25.506  1.00  0.00     0.121 C 
BRANCH  18  19
ATOM     19  C   UNL A   1      31.755  26.071  26.313  1.00  0.00     0.008 C 
ATOM     20  C   UNL A   1      34.251  29.524  27.389  1.00  0.00     0.007 C 
ATOM     21  C   UNL A   1      33.280  28.611  26.644  1.00  0.00    -0.014 C 
ATOM     22  C   UNL A   1      32.052  28.295  27.504  1.00  0.00     0.003 C 
ATOM     23  C   UNL A   1      33.976  27.316  26.210  1.00  0.00     0.003 C 
ATOM     24  C   UNL A   1      31.079  27.370  26.772  1.00  0.00     0.006 C 
ATOM     25  C   UNL A   1      33.016  26.378  25.483  1.00  0.00     0.006 C 
ENDBRANCH  18  19
ENDBRANCH  13  18
ENDBRANCH  11  12
ENDBRANCH   7  11
ENDBRANCH   3   6
ENDBRANCH   1   2
BRANCH   1  26
ATOM     26  C   UNL A   1      38.944  22.572  26.257  1.00  0.00     0.023 C 
BRANCH  26  27
ATOM     27  C   UNL A   1      40.178  21.981  26.950  1.00  0.00     0.023 C 
BRANCH  27  28
ATOM     28  C   UNL A   1      41.296  22.976  27.259  1.00  0.00     0.116 C 
BRANCH  28  29
ATOM     29  N   UNL A   1      41.853  23.610  26.074  1.00  0.00    -0.352 N 
ATOM     30  C   UNL A   1      41.995  24.950  25.803  1.00  0.00     0.251 C 
ATOM     31  H   UNL A   1      42.172  22.998  25.373  1.00  0.00     0.163 HD
ATOM     32  O   UNL A   1      42.401  25.320  24.706  1.00  0.00    -0.269 OA
BRANCH  30  33
ATOM     33  C   UNL A   1      41.615  25.946  26.826  1.00  0.00     0.039 A 
ATOM     34  C   UNL A   1      40.522  25.676  27.653  1.00  0.00     0.014 A 
ATOM     35  C   UNL A   1      42.349  27.124  26.990  1.00  0.00     0.014 A 
ATOM     36  C   UNL A   1      40.209  26.553  28.693  1.00  0.00     0.010 A 
ATOM     37  C   UNL A   1      42.079  27.962  28.066  1.00  0.00     0.010 A 
ATOM     38  C   UNL A   1      41.010  27.683  28.932  1.00  0.00    -0.014 A 
BRANCH  38  39
ATOM     39  C   UNL A   1      40.756  28.573  30.092  1.00  0.00     0.031 A 
ATOM     40  C   UNL A   1      39.646  29.586  30.041  1.00  0.00     0.074 A 
ATOM     41  C   UNL A   1      41.571  28.518  31.165  1.00  0.00     0.049 A 
ATOM     42  N   UNL A   1      39.314  30.491  30.927  1.00  0.00    -0.248 NA
ATOM     43  C   UNL A   1      38.817  29.603  28.825  1.00  0.00     0.031 C 
ATOM     44  C   UNL A   1      42.710  27.611  31.320  1.00  0.00     0.029 A 
ATOM     45  N   UNL A   1      41.569  29.249  32.326  1.00  0.00    -0.354 N 
ATOM     46  C   UNL A   1      38.255  31.194  30.369  1.00  0.00     0.074 A 
ATOM     47  C   UNL A   1      38.027  30.643  29.051  1.00  0.00     0.031 C 
ATOM     48  C   UNL A   1      43.283  27.825  32.515  1.00  0.00     0.029 A 
ATOM     49  C   UNL A   1      42.577  28.908  33.195  1.00  0.00     0.049 A 
ATOM     50  H   UNL A   1      40.908  29.952  32.519  1.00  0.00     0.167 HD
ATOM     51  C   UNL A   1      37.524  32.196  30.912  1.00  0.00     0.031 A 
ATOM     52  C   UNL A   1      42.903  29.412  34.399  1.00  0.00     0.031 A 
ATOM     53  C   UNL A   1      37.738  32.735  32.228  1.00  0.00     0.049 A 
ATOM     54  C   UNL A   1      42.077  30.529  34.976  1.00  0.00     0.074 A 
ATOM     55  C   UNL A   1      37.009  33.709  32.889  1.00  0.00     0.029 A 
ATOM     56  N   UNL A   1      38.758  32.348  33.082  1.00  0.00    -0.354 N 
ATOM     57  N   UNL A   1      41.030  31.130  34.466  1.00  0.00    -0.248 NA
ATOM     58  C   UNL A   1      42.472  31.026  36.302  1.00  0.00     0.031 C 
ATOM     59  C   UNL A   1      37.618  33.945  34.126  1.00  0.00     0.029 A 
ATOM     60  C   UNL A   1      38.692  33.080  34.256  1.00  0.00     0.049 A 
ATOM     61  H   UNL A   1      39.430  31.656  32.884  1.00  0.00     0.167 HD
ATOM     62  C   UNL A   1      40.623  32.055  35.419  1.00  0.00     0.074 A 
ATOM     63  C   UNL A   1      41.526  31.923  36.543  1.00  0.00     0.031 C 
ATOM     64  C   UNL A   1      39.594  32.935  35.367  1.00  0.00     0.031 A 
BRANCH  51  65
ATOM     65  C   UNL A   1      36.421  32.783  30.075  1.00  0.00    -0.014 A 
ATOM     66  C   UNL A   1      35.115  32.268  30.130  1.00  0.00     0.009 A 
ATOM     67  C   UNL A   1      36.678  33.895  29.258  1.00  0.00     0.009 A 
ATOM     68  C   UNL A   1      34.099  32.834  29.359  1.00  0.00     0.001 A 
ATOM     69  C   UNL A   1      35.653  34.477  28.510  1.00  0.00     0.001 A 
ATOM     70  C   UNL A   1      34.367  33.941  28.554  1.00  0.00     0.000 A 
ENDBRANCH  51  65
BRANCH  52  71
ATOM     71  C   UNL A   1      44.060  28.864  35.153  1.00  0.00    -0.014 A 
ATOM     72  C   UNL A   1      43.880  27.825  36.080  1.00  0.00     0.009 A 
ATOM     73  C   UNL A   1      45.349  29.388  34.964  1.00  0.00     0.009 A 
ATOM     74  C   UNL A   1      44.959  27.347  36.826  1.00  0.00     0.001 A 
ATOM     75  C   UNL A   1      46.431  28.887  35.691  1.00  0.00     0.001 A 
ATOM     76  C   UNL A   1      46.234  27.875  36.628  1.00  0.00     0.000 A 
ENDBRANCH  52  71
BRANCH  64  77
ATOM     77  C   UNL A   1      39.365  33.798  36.575  1.00  0.00    -0.014 A 
ATOM     78  C   UNL A   1      38.642  33.326  37.683  1.00  0.00     0.009 A 
ATOM     79  C   UNL A   1      39.918  35.087  36.622  1.00  0.00     0.009 A 
ATOM     80  C   UNL A   1      38.450  34.144  38.798  1.00  0.00     0.001 A 
ATOM     81  C   UNL A   1      39.749  35.890  37.750  1.00  0.00     0.001 A 
ATOM     82  C   UNL A   1      39.008  35.422  38.833  1.00  0.00     0.000 A 
ENDBRANCH  64  77
ENDBRANCH  38  39
ENDBRANCH  30  33
ENDBRANCH  28  29
ENDBRANCH  27  28
ENDBRANCH  26  27
ENDBRANCH   1  26
TORSDOF 15
ENDMDL
