MODEL 1
REMARK VINA RESULT:     -11.5      0.000      0.000
REMARK SMILES O=C(NCCCCNC(=O)c1ccc(-c2c3nc(c(-c4ccccc4)c4ccc([nH]4)c(-c4ccccc4)c4nc(c(-c5ccccc5)c5ccc2[nH]5)C=C4)C=C3)cc1)C1=Cc2cc(Cl)ccc2O[C@@H]1C(F)(F)F
REMARK SMILES IDX 6 1 5 2 4 3 3 4 1 5 2 6 59 8 60 9 69 10 61 11 68 12 62 13
REMARK SMILES IDX 67 14 63 15 66 16 64 17 65 18 70 19 71 20 72 21 73 22 7 23
REMARK SMILES IDX 8 24 9 25 10 27 11 28 12 29 58 30 13 31 57 32 14 33 15 34
REMARK SMILES IDX 16 35 51 36 17 37 56 38 50 39 52 40 18 41 55 42 49 43 48 44
REMARK SMILES IDX 19 46 41 47 26 48 40 49 27 50 30 51 39 52 53 53 28 54 29 55
REMARK SMILES IDX 38 57 54 58 31 59 20 60 21 61 25 62 22 63 24 64 23 65 42 66
REMARK SMILES IDX 43 67 47 68 44 69 46 70 45 71 32 72 33 73 37 74 34 75 36 76
REMARK SMILES IDX 35 77
REMARK H PARENT 3 7 8 26 52 45 30 56
REMARK Flexibility Score: inf
ROOT
ATOM      1  C   UNL A   1      33.231  28.348  27.244  1.00  0.00     0.023 C 
ENDROOT
BRANCH   1   2
ATOM      2  C   UNL A   1      31.721  28.121  27.351  1.00  0.00     0.023 C 
BRANCH   2   3
ATOM      3  C   UNL A   1      31.132  27.295  26.203  1.00  0.00     0.116 C 
BRANCH   3   4
ATOM      4  N   UNL A   1      31.083  25.858  26.483  1.00  0.00    -0.352 N 
ATOM      5  O   UNL A   1      31.929  23.769  26.730  1.00  0.00    -0.270 OA
ATOM      6  C   UNL A   1      31.984  24.862  26.183  1.00  0.00     0.251 C 
ATOM      7  H   UNL A   1      30.278  25.557  26.963  1.00  0.00     0.163 HD
BRANCH   6   8
ATOM      8  C   UNL A   1      33.075  25.188  25.248  1.00  0.00     0.067 C 
ATOM      9  C   UNL A   1      34.317  25.283  25.737  1.00  0.00     0.025 C 
ATOM     10  C   UNL A   1      32.796  25.054  23.782  1.00  0.00     0.314 C 
ATOM     11  C   UNL A   1      35.283  24.503  24.952  1.00  0.00     0.019 A 
ATOM     12  O   UNL A   1      33.668  24.084  23.151  1.00  0.00    -0.475 OA
ATOM     13  C   UNL A   1      36.443  24.072  25.606  1.00  0.00     0.032 A 
ATOM     14  C   UNL A   1      34.871  23.853  23.771  1.00  0.00     0.128 A 
ATOM     15  C   UNL A   1      37.133  22.961  25.124  1.00  0.00     0.041 A 
ATOM     16  C   UNL A   1      35.597  22.771  23.272  1.00  0.00     0.048 A 
ATOM     17  Cl  UNL A   1      38.439  22.320  26.042  1.00  0.00    -0.084 Cl
ATOM     18  C   UNL A   1      36.714  22.307  23.966  1.00  0.00     0.024 A 
BRANCH  10  19
ATOM     19  C   UNL A   1      32.885  26.413  23.065  1.00  0.00     0.429 C 
ATOM     20  F   UNL A   1      33.649  26.325  21.948  1.00  0.00    -0.167 F 
ATOM     21  F   UNL A   1      31.668  26.858  22.673  1.00  0.00    -0.167 F 
ATOM     22  F   UNL A   1      33.431  27.375  23.846  1.00  0.00    -0.167 F 
ENDBRANCH  10  19
ENDBRANCH   6   8
ENDBRANCH   3   4
ENDBRANCH   2   3
ENDBRANCH   1   2
BRANCH   1  23
ATOM     23  C   UNL A   1      33.683  29.711  26.721  1.00  0.00     0.116 C 
BRANCH  23  24
ATOM     24  N   UNL A   1      33.673  30.780  27.707  1.00  0.00    -0.352 N 
ATOM     25  C   UNL A   1      34.664  31.119  28.607  1.00  0.00     0.251 C 
ATOM     26  H   UNL A   1      32.858  31.332  27.737  1.00  0.00     0.163 HD
ATOM     27  O   UNL A   1      34.509  32.049  29.393  1.00  0.00    -0.269 OA
BRANCH  25  28
ATOM     28  C   UNL A   1      35.898  30.307  28.657  1.00  0.00     0.039 A 
ATOM     29  C   UNL A   1      36.767  30.332  27.561  1.00  0.00     0.014 A 
ATOM     30  C   UNL A   1      36.246  29.611  29.817  1.00  0.00     0.014 A 
ATOM     31  C   UNL A   1      38.035  29.758  27.673  1.00  0.00     0.010 A 
ATOM     32  C   UNL A   1      37.536  29.105  29.952  1.00  0.00     0.010 A 
ATOM     33  C   UNL A   1      38.453  29.196  28.891  1.00  0.00    -0.014 A 
BRANCH  33  34
ATOM     34  C   UNL A   1      39.854  28.745  29.092  1.00  0.00     0.031 A 
ATOM     35  C   UNL A   1      40.884  29.686  29.651  1.00  0.00     0.074 A 
ATOM     36  C   UNL A   1      40.222  27.512  28.689  1.00  0.00     0.049 A 
ATOM     37  N   UNL A   1      42.167  29.494  29.828  1.00  0.00    -0.248 NA
ATOM     38  C   UNL A   1      40.417  31.027  30.035  1.00  0.00     0.031 C 
ATOM     39  C   UNL A   1      39.337  26.516  28.079  1.00  0.00     0.029 A 
ATOM     40  N   UNL A   1      41.446  26.887  28.725  1.00  0.00    -0.354 N 
ATOM     41  C   UNL A   1      42.662  30.694  30.322  1.00  0.00     0.074 A 
ATOM     42  C   UNL A   1      41.552  31.620  30.375  1.00  0.00     0.031 C 
ATOM     43  C   UNL A   1      40.039  25.399  27.827  1.00  0.00     0.029 A 
ATOM     44  C   UNL A   1      41.427  25.610  28.221  1.00  0.00     0.049 A 
ATOM     45  H   UNL A   1      42.258  27.316  29.078  1.00  0.00     0.167 HD
ATOM     46  C   UNL A   1      43.923  30.994  30.716  1.00  0.00     0.031 A 
ATOM     47  C   UNL A   1      42.417  24.706  28.088  1.00  0.00     0.031 A 
ATOM     48  C   UNL A   1      45.026  30.073  30.684  1.00  0.00     0.049 A 
ATOM     49  C   UNL A   1      43.805  25.060  28.542  1.00  0.00     0.074 A 
ATOM     50  C   UNL A   1      46.325  30.268  31.120  1.00  0.00     0.029 A 
ATOM     51  N   UNL A   1      44.960  28.781  30.189  1.00  0.00    -0.354 N 
ATOM     52  N   UNL A   1      44.240  26.177  29.072  1.00  0.00    -0.248 NA
ATOM     53  C   UNL A   1      44.837  24.024  28.387  1.00  0.00     0.031 C 
ATOM     54  C   UNL A   1      47.055  29.104  30.854  1.00  0.00     0.029 A 
ATOM     55  C   UNL A   1      46.199  28.172  30.292  1.00  0.00     0.049 A 
ATOM     56  H   UNL A   1      44.151  28.359  29.818  1.00  0.00     0.167 HD
ATOM     57  C   UNL A   1      45.587  25.970  29.337  1.00  0.00     0.074 A 
ATOM     58  C   UNL A   1      45.895  24.616  28.923  1.00  0.00     0.031 C 
ATOM     59  C   UNL A   1      46.488  26.825  29.877  1.00  0.00     0.031 A 
BRANCH  46  60
ATOM     60  C   UNL A   1      44.170  32.389  31.217  1.00  0.00    -0.014 A 
ATOM     61  C   UNL A   1      44.543  33.417  30.337  1.00  0.00     0.009 A 
ATOM     62  C   UNL A   1      44.008  32.684  32.579  1.00  0.00     0.009 A 
ATOM     63  C   UNL A   1      44.787  34.705  30.818  1.00  0.00     0.001 A 
ATOM     64  C   UNL A   1      44.227  33.979  33.052  1.00  0.00     0.001 A 
ATOM     65  C   UNL A   1      44.626  34.985  32.174  1.00  0.00     0.000 A 
ENDBRANCH  46  60
BRANCH  47  66
ATOM     66  C   UNL A   1      42.131  23.363  27.521  1.00  0.00    -0.014 A 
ATOM     67  C   UNL A   1      41.606  22.347  28.336  1.00  0.00     0.009 A 
ATOM     68  C   UNL A   1      42.390  23.085  26.171  1.00  0.00     0.009 A 
ATOM     69  C   UNL A   1      41.369  21.073  27.815  1.00  0.00     0.001 A 
ATOM     70  C   UNL A   1      42.131  21.817  25.646  1.00  0.00     0.001 A 
ATOM     71  C   UNL A   1      41.629  20.809  26.470  1.00  0.00     0.000 A 
ENDBRANCH  47  66
BRANCH  59  72
ATOM     72  C   UNL A   1      47.884  26.311  30.081  1.00  0.00    -0.014 A 
ATOM     73  C   UNL A   1      48.838  26.373  29.053  1.00  0.00     0.009 A 
ATOM     74  C   UNL A   1      48.260  25.797  31.331  1.00  0.00     0.009 A 
ATOM     75  C   UNL A   1      50.136  25.903  29.267  1.00  0.00     0.001 A 
ATOM     76  C   UNL A   1      49.564  25.350  31.549  1.00  0.00     0.001 A 
ATOM     77  C   UNL A   1      50.497  25.396  30.514  1.00  0.00     0.000 A 
ENDBRANCH  59  72
ENDBRANCH  33  34
ENDBRANCH  25  28
ENDBRANCH  23  24
ENDBRANCH   1  23
TORSDOF 12
ENDMDL
MODEL 2
REMARK VINA RESULT:     -11.3      2.839      7.266
REMARK SMILES O=C(NCCCCNC(=O)c1ccc(-c2c3nc(c(-c4ccccc4)c4ccc([nH]4)c(-c4ccccc4)c4nc(c(-c5ccccc5)c5ccc2[nH]5)C=C4)C=C3)cc1)C1=Cc2cc(Cl)ccc2O[C@@H]1C(F)(F)F
REMARK SMILES IDX 6 1 5 2 4 3 3 4 1 5 2 6 59 8 60 9 69 10 61 11 68 12 62 13
REMARK SMILES IDX 67 14 63 15 66 16 64 17 65 18 70 19 71 20 72 21 73 22 7 23
REMARK SMILES IDX 8 24 9 25 10 27 11 28 12 29 58 30 13 31 57 32 14 33 15 34
REMARK SMILES IDX 16 35 51 36 17 37 56 38 50 39 52 40 18 41 55 42 49 43 48 44
REMARK SMILES IDX 19 46 41 47 26 48 40 49 27 50 30 51 39 52 53 53 28 54 29 55
REMARK SMILES IDX 38 57 54 58 31 59 20 60 21 61 25 62 22 63 24 64 23 65 42 66
REMARK SMILES IDX 43 67 47 68 44 69 46 70 45 71 32 72 33 73 37 74 34 75 36 76
REMARK SMILES IDX 35 77
REMARK H PARENT 3 7 8 26 52 45 30 56
REMARK Flexibility Score: inf
ROOT
ATOM      1  C   UNL A   1      37.727  22.138  24.737  1.00  0.00     0.023 C 
ENDROOT
BRANCH   1   2
ATOM      2  C   UNL A   1      37.220  23.563  24.970  1.00  0.00     0.023 C 
BRANCH   2   3
ATOM      3  C   UNL A   1      35.693  23.684  25.008  1.00  0.00     0.116 C 
BRANCH   3   4
ATOM      4  N   UNL A   1      35.097  23.162  26.241  1.00  0.00    -0.352 N 
ATOM      5  O   UNL A   1      34.225  21.575  27.605  1.00  0.00    -0.270 OA
ATOM      6  C   UNL A   1      34.409  21.992  26.470  1.00  0.00     0.251 C 
ATOM      7  H   UNL A   1      35.208  23.739  27.031  1.00  0.00     0.163 HD
BRANCH   6   8
ATOM      8  C   UNL A   1      33.983  21.210  25.297  1.00  0.00     0.067 C 
ATOM      9  C   UNL A   1      34.833  20.303  24.799  1.00  0.00     0.025 C 
ATOM     10  C   UNL A   1      32.526  21.223  24.946  1.00  0.00     0.314 C 
ATOM     11  C   UNL A   1      34.194  18.997  24.596  1.00  0.00     0.019 A 
ATOM     12  O   UNL A   1      31.945  19.897  24.997  1.00  0.00    -0.475 OA
ATOM     13  C   UNL A   1      35.021  17.868  24.610  1.00  0.00     0.032 A 
ATOM     14  C   UNL A   1      32.811  18.846  24.822  1.00  0.00     0.128 A 
ATOM     15  C   UNL A   1      34.480  16.621  24.920  1.00  0.00     0.041 A 
ATOM     16  C   UNL A   1      32.273  17.585  25.086  1.00  0.00     0.048 A 
ATOM     17  Cl  UNL A   1      35.533  15.277  25.129  1.00  0.00    -0.084 Cl
ATOM     18  C   UNL A   1      33.115  16.476  25.163  1.00  0.00     0.024 A 
BRANCH  10  19
ATOM     19  C   UNL A   1      32.283  21.871  23.571  1.00  0.00     0.429 C 
ATOM     20  F   UNL A   1      31.933  20.940  22.649  1.00  0.00    -0.167 F 
ATOM     21  F   UNL A   1      31.280  22.779  23.610  1.00  0.00    -0.167 F 
ATOM     22  F   UNL A   1      33.381  22.506  23.098  1.00  0.00    -0.167 F 
ENDBRANCH  10  19
ENDBRANCH   6   8
ENDBRANCH   3   4
ENDBRANCH   2   3
ENDBRANCH   1   2
BRANCH   1  23
ATOM     23  C   UNL A   1      38.230  21.382  25.965  1.00  0.00     0.116 C 
BRANCH  23  24
ATOM     24  N   UNL A   1      39.054  20.219  25.674  1.00  0.00    -0.352 N 
ATOM     25  C   UNL A   1      40.395  20.035  25.945  1.00  0.00     0.251 C 
ATOM     26  H   UNL A   1      38.598  19.468  25.229  1.00  0.00     0.163 HD
ATOM     27  O   UNL A   1      40.965  18.994  25.630  1.00  0.00    -0.269 OA
BRANCH  25  28
ATOM     28  C   UNL A   1      41.160  21.137  26.568  1.00  0.00     0.039 A 
ATOM     29  C   UNL A   1      41.773  22.083  25.741  1.00  0.00     0.014 A 
ATOM     30  C   UNL A   1      41.184  21.292  27.956  1.00  0.00     0.014 A 
ATOM     31  C   UNL A   1      42.307  23.246  26.302  1.00  0.00     0.010 A 
ATOM     32  C   UNL A   1      41.649  22.484  28.504  1.00  0.00     0.010 A 
ATOM     33  C   UNL A   1      42.192  23.484  27.681  1.00  0.00    -0.014 A 
BRANCH  33  34
ATOM     34  C   UNL A   1      42.584  24.789  28.274  1.00  0.00     0.031 A 
ATOM     35  C   UNL A   1      41.561  25.871  28.480  1.00  0.00     0.074 A 
ATOM     36  C   UNL A   1      43.882  25.033  28.547  1.00  0.00     0.049 A 
ATOM     37  N   UNL A   1      41.731  27.094  28.914  1.00  0.00    -0.248 NA
ATOM     38  C   UNL A   1      40.171  25.544  28.125  1.00  0.00     0.031 C 
ATOM     39  C   UNL A   1      44.987  24.093  28.344  1.00  0.00     0.029 A 
ATOM     40  N   UNL A   1      44.494  26.156  29.050  1.00  0.00    -0.354 N 
ATOM     41  C   UNL A   1      40.477  27.688  28.864  1.00  0.00     0.074 A 
ATOM     42  C   UNL A   1      39.565  26.707  28.316  1.00  0.00     0.031 C 
ATOM     43  C   UNL A   1      46.133  24.666  28.746  1.00  0.00     0.029 A 
ATOM     44  C   UNL A   1      45.853  26.024  29.199  1.00  0.00     0.049 A 
ATOM     45  H   UNL A   1      44.004  26.978  29.281  1.00  0.00     0.167 HD
ATOM     46  C   UNL A   1      40.110  28.931  29.257  1.00  0.00     0.031 A 
ATOM     47  C   UNL A   1      46.774  26.897  29.648  1.00  0.00     0.031 A 
ATOM     48  C   UNL A   1      41.006  29.904  29.819  1.00  0.00     0.049 A 
ATOM     49  C   UNL A   1      46.340  28.267  30.087  1.00  0.00     0.074 A 
ATOM     50  C   UNL A   1      40.713  31.168  30.303  1.00  0.00     0.029 A 
ATOM     51  N   UNL A   1      42.370  29.722  29.975  1.00  0.00    -0.354 N 
ATOM     52  N   UNL A   1      45.137  28.787  30.098  1.00  0.00    -0.248 NA
ATOM     53  C   UNL A   1      47.391  29.167  30.586  1.00  0.00     0.031 C 
ATOM     54  C   UNL A   1      41.910  31.764  30.718  1.00  0.00     0.029 A 
ATOM     55  C   UNL A   1      42.937  30.855  30.532  1.00  0.00     0.049 A 
ATOM     56  H   UNL A   1      42.863  28.906  29.726  1.00  0.00     0.167 HD
ATOM     57  C   UNL A   1      45.282  30.063  30.626  1.00  0.00     0.074 A 
ATOM     58  C   UNL A   1      46.687  30.233  30.937  1.00  0.00     0.031 C 
ATOM     59  C   UNL A   1      44.336  31.008  30.836  1.00  0.00     0.031 A 
BRANCH  46  60
ATOM     60  C   UNL A   1      38.665  29.305  29.085  1.00  0.00    -0.014 A 
ATOM     61  C   UNL A   1      37.761  29.213  30.156  1.00  0.00     0.009 A 
ATOM     62  C   UNL A   1      38.206  29.777  27.846  1.00  0.00     0.009 A 
ATOM     63  C   UNL A   1      36.417  29.548  29.977  1.00  0.00     0.001 A 
ATOM     64  C   UNL A   1      36.867  30.136  27.678  1.00  0.00     0.001 A 
ATOM     65  C   UNL A   1      35.973  30.011  28.739  1.00  0.00     0.000 A 
ENDBRANCH  46  60
BRANCH  47  66
ATOM     66  C   UNL A   1      48.203  26.498  29.732  1.00  0.00    -0.014 A 
ATOM     67  C   UNL A   1      49.067  26.725  28.649  1.00  0.00     0.009 A 
ATOM     68  C   UNL A   1      48.709  25.881  30.887  1.00  0.00     0.009 A 
ATOM     69  C   UNL A   1      50.402  26.319  28.711  1.00  0.00     0.001 A 
ATOM     70  C   UNL A   1      50.050  25.498  30.955  1.00  0.00     0.001 A 
ATOM     71  C   UNL A   1      50.894  25.709  29.865  1.00  0.00     0.000 A 
ENDBRANCH  47  66
BRANCH  59  72
ATOM     72  C   UNL A   1      44.782  32.299  31.459  1.00  0.00    -0.014 A 
ATOM     73  C   UNL A   1      44.819  32.458  32.853  1.00  0.00     0.009 A 
ATOM     74  C   UNL A   1      45.210  33.355  30.641  1.00  0.00     0.009 A 
ATOM     75  C   UNL A   1      45.251  33.661  33.414  1.00  0.00     0.001 A 
ATOM     76  C   UNL A   1      45.664  34.548  31.205  1.00  0.00     0.001 A 
ATOM     77  C   UNL A   1      45.676  34.703  32.590  1.00  0.00     0.000 A 
ENDBRANCH  59  72
ENDBRANCH  33  34
ENDBRANCH  25  28
ENDBRANCH  23  24
ENDBRANCH   1  23
TORSDOF 12
ENDMDL
MODEL 3
REMARK VINA RESULT:     -11.2      2.886      7.903
REMARK SMILES O=C(NCCCCNC(=O)c1ccc(-c2c3nc(c(-c4ccccc4)c4ccc([nH]4)c(-c4ccccc4)c4nc(c(-c5ccccc5)c5ccc2[nH]5)C=C4)C=C3)cc1)C1=Cc2cc(Cl)ccc2O[C@@H]1C(F)(F)F
REMARK SMILES IDX 6 1 5 2 4 3 3 4 1 5 2 6 59 8 60 9 69 10 61 11 68 12 62 13
REMARK SMILES IDX 67 14 63 15 66 16 64 17 65 18 70 19 71 20 72 21 73 22 7 23
REMARK SMILES IDX 8 24 9 25 10 27 11 28 12 29 58 30 13 31 57 32 14 33 15 34
REMARK SMILES IDX 16 35 51 36 17 37 56 38 50 39 52 40 18 41 55 42 49 43 48 44
REMARK SMILES IDX 19 46 41 47 26 48 40 49 27 50 30 51 39 52 53 53 28 54 29 55
REMARK SMILES IDX 38 57 54 58 31 59 20 60 21 61 25 62 22 63 24 64 23 65 42 66
REMARK SMILES IDX 43 67 47 68 44 69 46 70 45 71 32 72 33 73 37 74 34 75 36 76
REMARK SMILES IDX 35 77
REMARK H PARENT 3 7 8 26 52 45 30 56
REMARK Flexibility Score: inf
ROOT
ATOM      1  C   UNL A   1      36.980  23.689  24.660  1.00  0.00     0.023 C 
ENDROOT
BRANCH   1   2
ATOM      2  C   UNL A   1      36.406  22.963  23.441  1.00  0.00     0.023 C 
BRANCH   2   3
ATOM      3  C   UNL A   1      34.891  22.743  23.502  1.00  0.00     0.116 C 
BRANCH   3   4
ATOM      4  N   UNL A   1      34.122  23.789  22.822  1.00  0.00    -0.352 N 
ATOM      5  O   UNL A   1      33.192  25.841  22.573  1.00  0.00    -0.270 OA
ATOM      6  C   UNL A   1      33.555  24.941  23.317  1.00  0.00     0.251 C 
ATOM      7  H   UNL A   1      33.990  23.644  21.857  1.00  0.00     0.163 HD
BRANCH   6   8
ATOM      8  C   UNL A   1      33.487  25.093  24.781  1.00  0.00     0.067 C 
ATOM      9  C   UNL A   1      34.270  26.014  25.357  1.00  0.00     0.025 C 
ATOM     10  C   UNL A   1      32.324  24.471  25.490  1.00  0.00     0.314 C 
ATOM     11  C   UNL A   1      33.523  26.879  26.279  1.00  0.00     0.019 A 
ATOM     12  O   UNL A   1      31.523  25.457  26.187  1.00  0.00    -0.475 OA
ATOM     13  C   UNL A   1      34.038  28.157  26.521  1.00  0.00     0.032 A 
ATOM     14  C   UNL A   1      32.164  26.618  26.545  1.00  0.00     0.128 A 
ATOM     15  C   UNL A   1      33.186  29.173  26.951  1.00  0.00     0.041 A 
ATOM     16  C   UNL A   1      31.330  27.631  27.020  1.00  0.00     0.048 A 
ATOM     17  Cl  UNL A   1      33.784  30.783  27.055  1.00  0.00    -0.084 Cl
ATOM     18  C   UNL A   1      31.838  28.919  27.195  1.00  0.00     0.024 A 
BRANCH  10  19
ATOM     19  C   UNL A   1      32.779  23.360  26.453  1.00  0.00     0.429 C 
ATOM     20  F   UNL A   1      32.027  23.357  27.582  1.00  0.00    -0.167 F 
ATOM     21  F   UNL A   1      32.660  22.131  25.900  1.00  0.00    -0.167 F 
ATOM     22  F   UNL A   1      34.070  23.505  26.836  1.00  0.00    -0.167 F 
ENDBRANCH  10  19
ENDBRANCH   6   8
ENDBRANCH   3   4
ENDBRANCH   2   3
ENDBRANCH   1   2
BRANCH   1  23
ATOM     23  C   UNL A   1      37.379  22.819  25.850  1.00  0.00     0.116 C 
BRANCH  23  24
ATOM     24  N   UNL A   1      38.734  22.295  25.801  1.00  0.00    -0.352 N 
ATOM     25  C   UNL A   1      39.895  22.892  26.252  1.00  0.00     0.251 C 
ATOM     26  H   UNL A   1      38.838  21.403  25.397  1.00  0.00     0.163 HD
ATOM     27  O   UNL A   1      40.980  22.328  26.133  1.00  0.00    -0.269 OA
BRANCH  25  28
ATOM     28  C   UNL A   1      39.828  24.252  26.827  1.00  0.00     0.039 A 
ATOM     29  C   UNL A   1      39.248  24.423  28.088  1.00  0.00     0.014 A 
ATOM     30  C   UNL A   1      40.427  25.332  26.174  1.00  0.00     0.014 A 
ATOM     31  C   UNL A   1      39.374  25.650  28.744  1.00  0.00     0.010 A 
ATOM     32  C   UNL A   1      40.615  26.529  26.860  1.00  0.00     0.010 A 
ATOM     33  C   UNL A   1      40.113  26.692  28.162  1.00  0.00    -0.014 A 
BRANCH  33  34
ATOM     34  C   UNL A   1      40.417  27.937  28.914  1.00  0.00     0.031 A 
ATOM     35  C   UNL A   1      41.708  28.075  29.671  1.00  0.00     0.074 A 
ATOM     36  C   UNL A   1      39.489  28.913  28.988  1.00  0.00     0.049 A 
ATOM     37  N   UNL A   1      42.112  29.053  30.441  1.00  0.00    -0.248 NA
ATOM     38  C   UNL A   1      42.655  26.953  29.573  1.00  0.00     0.031 C 
ATOM     39  C   UNL A   1      38.172  28.887  28.347  1.00  0.00     0.029 A 
ATOM     40  N   UNL A   1      39.512  30.120  29.645  1.00  0.00    -0.354 N 
ATOM     41  C   UNL A   1      43.348  28.657  30.935  1.00  0.00     0.074 A 
ATOM     42  C   UNL A   1      43.607  27.332  30.414  1.00  0.00     0.031 C 
ATOM     43  C   UNL A   1      37.527  30.033  28.618  1.00  0.00     0.029 A 
ATOM     44  C   UNL A   1      38.365  30.859  29.479  1.00  0.00     0.049 A 
ATOM     45  H   UNL A   1      40.276  30.425  30.184  1.00  0.00     0.167 HD
ATOM     46  C   UNL A   1      44.202  29.341  31.733  1.00  0.00     0.031 A 
ATOM     47  C   UNL A   1      38.025  32.067  29.966  1.00  0.00     0.031 A 
ATOM     48  C   UNL A   1      43.959  30.664  32.239  1.00  0.00     0.049 A 
ATOM     49  C   UNL A   1      38.994  32.810  30.842  1.00  0.00     0.074 A 
ATOM     50  C   UNL A   1      44.793  31.461  33.004  1.00  0.00     0.029 A 
ATOM     51  N   UNL A   1      42.797  31.388  32.028  1.00  0.00    -0.354 N 
ATOM     52  N   UNL A   1      40.189  32.449  31.242  1.00  0.00    -0.248 NA
ATOM     53  C   UNL A   1      38.570  34.133  31.326  1.00  0.00     0.031 C 
ATOM     54  C   UNL A   1      44.118  32.654  33.288  1.00  0.00     0.029 A 
ATOM     55  C   UNL A   1      42.883  32.615  32.662  1.00  0.00     0.049 A 
ATOM     56  H   UNL A   1      42.024  31.075  31.504  1.00  0.00     0.167 HD
ATOM     57  C   UNL A   1      40.669  33.507  32.002  1.00  0.00     0.074 A 
ATOM     58  C   UNL A   1      39.643  34.530  31.996  1.00  0.00     0.031 C 
ATOM     59  C   UNL A   1      41.855  33.622  32.646  1.00  0.00     0.031 A 
BRANCH  46  60
ATOM     60  C   UNL A   1      45.485  28.656  32.110  1.00  0.00    -0.014 A 
ATOM     61  C   UNL A   1      45.565  27.852  33.259  1.00  0.00     0.009 A 
ATOM     62  C   UNL A   1      46.620  28.797  31.297  1.00  0.00     0.009 A 
ATOM     63  C   UNL A   1      46.769  27.236  33.606  1.00  0.00     0.001 A 
ATOM     64  C   UNL A   1      47.814  28.157  31.634  1.00  0.00     0.001 A 
ATOM     65  C   UNL A   1      47.891  27.386  32.792  1.00  0.00     0.000 A 
ENDBRANCH  46  60
BRANCH  47  66
ATOM     66  C   UNL A   1      36.712  32.670  29.618  1.00  0.00    -0.014 A 
ATOM     67  C   UNL A   1      35.627  32.563  30.502  1.00  0.00     0.009 A 
ATOM     68  C   UNL A   1      36.532  33.343  28.400  1.00  0.00     0.009 A 
ATOM     69  C   UNL A   1      34.382  33.097  30.163  1.00  0.00     0.001 A 
ATOM     70  C   UNL A   1      35.292  33.898  28.074  1.00  0.00     0.001 A 
ATOM     71  C   UNL A   1      34.216  33.767  28.951  1.00  0.00     0.000 A 
ENDBRANCH  47  66
BRANCH  59  72
ATOM     72  C   UNL A   1      42.120  34.910  33.371  1.00  0.00    -0.014 A 
ATOM     73  C   UNL A   1      41.607  35.138  34.657  1.00  0.00     0.009 A 
ATOM     74  C   UNL A   1      42.928  35.889  32.774  1.00  0.00     0.009 A 
ATOM     75  C   UNL A   1      41.877  36.337  35.320  1.00  0.00     0.001 A 
ATOM     76  C   UNL A   1      43.215  37.076  33.449  1.00  0.00     0.001 A 
ATOM     77  C   UNL A   1      42.683  37.302  34.717  1.00  0.00     0.000 A 
ENDBRANCH  59  72
ENDBRANCH  33  34
ENDBRANCH  25  28
ENDBRANCH  23  24
ENDBRANCH   1  23
TORSDOF 12
ENDMDL
