MODEL 1
REMARK VINA RESULT:      -8.1      0.000      0.000
REMARK SMILES COc1cc(/C=N/NC(=O)c2cccnc2)ccc1OCC(=O)NCCCCNC(=O)c1ccc(-c2c3nc(c(-c4ccccc4)c4ccc([nH]4)c(-c4ccccc4)c4nc(c(-c5ccccc5)c5ccc2[nH]5)C=C4)C=C3)cc1
REMARK SMILES IDX 25 1 24 2 22 3 23 4 21 6 20 7 19 8 3 9 4 10 5 11 18 12 17 13
REMARK SMILES IDX 2 14 1 15 6 16 7 17 8 18 9 19 10 21 11 22 12 23 16 24 13 25
REMARK SMILES IDX 15 26 14 27 26 28 27 29 28 30 29 31 30 32 31 34 32 35 33 36
REMARK SMILES IDX 79 37 34 38 78 39 35 40 36 41 37 42 72 43 38 44 77 45 71 46
REMARK SMILES IDX 73 47 39 48 76 49 70 50 69 51 40 53 62 54 47 55 61 56 48 57
REMARK SMILES IDX 51 58 60 59 74 60 49 61 50 62 59 64 75 65 52 66 41 67 42 68
REMARK SMILES IDX 46 69 43 70 45 71 44 72 63 73 64 74 68 75 65 76 67 77 66 78
REMARK SMILES IDX 53 79 54 80 58 81 55 82 57 83 56 84
REMARK H PARENT 24 5 8 20 29 33 73 52 51 63
REMARK Flexibility Score: inf
ROOT
ATOM      1  C   UNL A   1      35.187  32.848  31.818  1.00  0.00     0.116 C 
ENDROOT
BRANCH   1   2
ATOM      2  N   UNL A   1      34.803  34.087  32.459  1.00  0.00    -0.353 N 
ATOM      3  C   UNL A   1      35.579  34.936  33.195  1.00  0.00     0.257 C 
ATOM      4  O   UNL A   1      35.125  36.056  33.438  1.00  0.00    -0.271 OA
ATOM      5  H   UNL A   1      33.861  34.353  32.349  1.00  0.00     0.163 HD
BRANCH   3   6
ATOM      6  C   UNL A   1      36.989  34.513  33.628  1.00  0.00     0.329 C 
BRANCH   6   7
ATOM      7  O   UNL A   1      37.111  33.655  34.749  1.00  0.00    -0.480 OA
BRANCH   7   8
ATOM      8  C   UNL A   1      37.906  32.545  34.675  1.00  0.00     0.161 A 
ATOM      9  C   UNL A   1      39.040  32.237  35.439  1.00  0.00     0.161 A 
ATOM     10  C   UNL A   1      39.768  31.068  35.170  1.00  0.00     0.060 A 
ATOM     11  C   UNL A   1      39.337  30.188  34.175  1.00  0.00    -0.002 A 
ATOM     12  C   UNL A   1      37.505  31.659  33.664  1.00  0.00     0.051 A 
ATOM     13  C   UNL A   1      38.196  30.472  33.427  1.00  0.00     0.014 A 
BRANCH   9  14
ATOM     14  O   UNL A   1      39.518  33.137  36.353  1.00  0.00    -0.493 OA
ATOM     15  C   UNL A   1      40.693  32.681  37.025  1.00  0.00     0.278 C 
ENDBRANCH   9  14
BRANCH  11  16
ATOM     16  C   UNL A   1      40.121  28.996  33.812  1.00  0.00     0.141 C 
ATOM     17  N   UNL A   1      41.409  28.976  33.942  1.00  0.00    -0.180 NA
BRANCH  17  18
ATOM     18  N   UNL A   1      42.096  27.908  33.438  1.00  0.00    -0.243 N 
ATOM     19  C   UNL A   1      43.201  27.240  33.945  1.00  0.00     0.272 C 
ATOM     20  H   UNL A   1      41.755  27.559  32.584  1.00  0.00     0.194 HD
ATOM     21  O   UNL A   1      43.716  26.319  33.313  1.00  0.00    -0.267 OA
BRANCH  19  22
ATOM     22  C   UNL A   1      43.790  27.612  35.244  1.00  0.00     0.059 A 
ATOM     23  C   UNL A   1      44.864  28.492  35.377  1.00  0.00     0.017 A 
ATOM     24  C   UNL A   1      43.261  27.039  36.392  1.00  0.00     0.124 A 
ATOM     25  C   UNL A   1      45.412  28.706  36.640  1.00  0.00     0.021 A 
ATOM     26  N   UNL A   1      43.780  27.226  37.630  1.00  0.00    -0.264 NA
ATOM     27  C   UNL A   1      44.847  28.050  37.724  1.00  0.00     0.111 A 
ENDBRANCH  19  22
ENDBRANCH  17  18
ENDBRANCH  11  16
ENDBRANCH   7   8
ENDBRANCH   6   7
ENDBRANCH   3   6
ENDBRANCH   1   2
BRANCH   1  28
ATOM     28  C   UNL A   1      35.988  33.061  30.536  1.00  0.00     0.023 C 
BRANCH  28  29
ATOM     29  C   UNL A   1      35.282  33.848  29.431  1.00  0.00     0.023 C 
BRANCH  29  30
ATOM     30  C   UNL A   1      35.315  33.221  28.044  1.00  0.00     0.116 C 
BRANCH  30  31
ATOM     31  N   UNL A   1      34.302  32.195  27.854  1.00  0.00    -0.352 N 
ATOM     32  C   UNL A   1      34.430  30.829  27.870  1.00  0.00     0.251 C 
ATOM     33  H   UNL A   1      33.390  32.530  27.691  1.00  0.00     0.163 HD
ATOM     34  O   UNL A   1      33.472  30.119  27.581  1.00  0.00    -0.269 OA
BRANCH  32  35
ATOM     35  C   UNL A   1      35.733  30.212  28.195  1.00  0.00     0.039 A 
ATOM     36  C   UNL A   1      36.736  30.212  27.222  1.00  0.00     0.014 A 
ATOM     37  C   UNL A   1      35.974  29.652  29.452  1.00  0.00     0.014 A 
ATOM     38  C   UNL A   1      38.002  29.714  27.533  1.00  0.00     0.010 A 
ATOM     39  C   UNL A   1      37.258  29.226  29.785  1.00  0.00     0.010 A 
ATOM     40  C   UNL A   1      38.285  29.254  28.830  1.00  0.00    -0.014 A 
BRANCH  40  41
ATOM     41  C   UNL A   1      39.649  28.800  29.203  1.00  0.00     0.031 A 
ATOM     42  C   UNL A   1      40.559  29.705  29.990  1.00  0.00     0.074 A 
ATOM     43  C   UNL A   1      40.090  27.596  28.788  1.00  0.00     0.049 A 
ATOM     44  N   UNL A   1      41.800  29.510  30.356  1.00  0.00    -0.248 NA
ATOM     45  C   UNL A   1      40.009  31.007  30.401  1.00  0.00     0.031 C 
ATOM     46  C   UNL A   1      39.320  26.635  27.993  1.00  0.00     0.029 A 
ATOM     47  N   UNL A   1      41.300  26.974  28.975  1.00  0.00    -0.354 N 
ATOM     48  C   UNL A   1      42.181  30.664  31.029  1.00  0.00     0.074 A 
ATOM     49  C   UNL A   1      41.059  31.575  30.973  1.00  0.00     0.031 C 
ATOM     50  C   UNL A   1      40.065  25.538  27.786  1.00  0.00     0.029 A 
ATOM     51  C   UNL A   1      41.378  25.732  28.391  1.00  0.00     0.049 A 
ATOM     52  H   UNL A   1      42.042  27.380  29.479  1.00  0.00     0.167 HD
ATOM     53  C   UNL A   1      43.350  30.934  31.656  1.00  0.00     0.031 A 
ATOM     54  C   UNL A   1      42.396  24.852  28.340  1.00  0.00     0.031 A 
ATOM     55  C   UNL A   1      44.464  30.027  31.717  1.00  0.00     0.049 A 
ATOM     56  C   UNL A   1      43.698  25.196  29.014  1.00  0.00     0.074 A 
ATOM     57  C   UNL A   1      45.677  30.196  32.363  1.00  0.00     0.029 A 
ATOM     58  N   UNL A   1      44.503  28.783  31.111  1.00  0.00    -0.354 N 
ATOM     59  N   UNL A   1      44.018  26.268  29.698  1.00  0.00    -0.248 NA
ATOM     60  C   UNL A   1      44.774  24.199  28.919  1.00  0.00     0.031 C 
ATOM     61  C   UNL A   1      46.470  29.075  32.104  1.00  0.00     0.029 A 
ATOM     62  C   UNL A   1      45.727  28.181  31.350  1.00  0.00     0.049 A 
ATOM     63  H   UNL A   1      43.770  28.384  30.589  1.00  0.00     0.167 HD
ATOM     64  C   UNL A   1      45.317  26.058  30.142  1.00  0.00     0.074 A 
ATOM     65  C   UNL A   1      45.719  24.751  29.666  1.00  0.00     0.031 C 
ATOM     66  C   UNL A   1      46.109  26.875  30.879  1.00  0.00     0.031 A 
BRANCH  53  67
ATOM     67  C   UNL A   1      43.484  32.271  32.332  1.00  0.00    -0.014 A 
ATOM     68  C   UNL A   1      44.070  33.362  31.670  1.00  0.00     0.009 A 
ATOM     69  C   UNL A   1      42.972  32.457  33.625  1.00  0.00     0.009 A 
ATOM     70  C   UNL A   1      44.166  34.604  32.301  1.00  0.00     0.001 A 
ATOM     71  C   UNL A   1      43.042  33.708  34.242  1.00  0.00     0.001 A 
ATOM     72  C   UNL A   1      43.645  34.778  33.583  1.00  0.00     0.000 A 
ENDBRANCH  53  67
BRANCH  54  73
ATOM     73  C   UNL A   1      42.239  23.556  27.627  1.00  0.00    -0.014 A 
ATOM     74  C   UNL A   1      41.700  22.440  28.287  1.00  0.00     0.009 A 
ATOM     75  C   UNL A   1      42.663  23.416  26.297  1.00  0.00     0.009 A 
ATOM     76  C   UNL A   1      41.626  21.203  27.643  1.00  0.00     0.001 A 
ATOM     77  C   UNL A   1      42.557  22.185  25.644  1.00  0.00     0.001 A 
ATOM     78  C   UNL A   1      42.053  21.077  26.322  1.00  0.00     0.000 A 
ENDBRANCH  54  73
BRANCH  66  79
ATOM     79  C   UNL A   1      47.468  26.360  31.258  1.00  0.00    -0.014 A 
ATOM     80  C   UNL A   1      47.688  25.701  32.479  1.00  0.00     0.009 A 
ATOM     81  C   UNL A   1      48.538  26.502  30.359  1.00  0.00     0.009 A 
ATOM     82  C   UNL A   1      48.961  25.229  32.804  1.00  0.00     0.001 A 
ATOM     83  C   UNL A   1      49.801  26.000  30.675  1.00  0.00     0.001 A 
ATOM     84  C   UNL A   1      50.014  25.373  31.900  1.00  0.00     0.000 A 
ENDBRANCH  66  79
ENDBRANCH  40  41
ENDBRANCH  32  35
ENDBRANCH  30  31
ENDBRANCH  29  30
ENDBRANCH  28  29
ENDBRANCH   1  28
TORSDOF 17
ENDMDL
MODEL 2
REMARK VINA RESULT:      -7.7      3.668      8.658
REMARK SMILES COc1cc(/C=N/NC(=O)c2cccnc2)ccc1OCC(=O)NCCCCNC(=O)c1ccc(-c2c3nc(c(-c4ccccc4)c4ccc([nH]4)c(-c4ccccc4)c4nc(c(-c5ccccc5)c5ccc2[nH]5)C=C4)C=C3)cc1
REMARK SMILES IDX 25 1 24 2 22 3 23 4 21 6 20 7 19 8 3 9 4 10 5 11 18 12 17 13
REMARK SMILES IDX 2 14 1 15 6 16 7 17 8 18 9 19 10 21 11 22 12 23 16 24 13 25
REMARK SMILES IDX 15 26 14 27 26 28 27 29 28 30 29 31 30 32 31 34 32 35 33 36
REMARK SMILES IDX 79 37 34 38 78 39 35 40 36 41 37 42 72 43 38 44 77 45 71 46
REMARK SMILES IDX 73 47 39 48 76 49 70 50 69 51 40 53 62 54 47 55 61 56 48 57
REMARK SMILES IDX 51 58 60 59 74 60 49 61 50 62 59 64 75 65 52 66 41 67 42 68
REMARK SMILES IDX 46 69 43 70 45 71 44 72 63 73 64 74 68 75 65 76 67 77 66 78
REMARK SMILES IDX 53 79 54 80 58 81 55 82 57 83 56 84
REMARK H PARENT 24 5 8 20 29 33 73 52 51 63
REMARK Flexibility Score: inf
ROOT
ATOM      1  C   UNL A   1      42.952  36.309  34.625  1.00  0.00     0.116 C 
ENDROOT
BRANCH   1   2
ATOM      2  N   UNL A   1      43.540  35.037  34.262  1.00  0.00    -0.353 N 
ATOM      3  C   UNL A   1      42.964  33.997  33.591  1.00  0.00     0.257 C 
ATOM      4  O   UNL A   1      43.708  33.112  33.164  1.00  0.00    -0.271 OA
ATOM      5  H   UNL A   1      44.477  34.905  34.534  1.00  0.00     0.163 HD
BRANCH   3   6
ATOM      6  C   UNL A   1      41.452  33.994  33.326  1.00  0.00     0.329 C 
BRANCH   6   7
ATOM      7  O   UNL A   1      40.641  33.141  34.115  1.00  0.00    -0.480 OA
BRANCH   7   8
ATOM      8  C   UNL A   1      39.325  33.450  34.320  1.00  0.00     0.161 A 
ATOM      9  C   UNL A   1      38.511  33.104  35.407  1.00  0.00     0.161 A 
ATOM     10  C   UNL A   1      37.155  33.464  35.408  1.00  0.00     0.060 A 
ATOM     11  C   UNL A   1      36.627  34.206  34.349  1.00  0.00    -0.002 A 
ATOM     12  C   UNL A   1      38.768  34.175  33.256  1.00  0.00     0.051 A 
ATOM     13  C   UNL A   1      37.434  34.578  33.276  1.00  0.00     0.014 A 
BRANCH   9  14
ATOM     14  O   UNL A   1      38.999  32.302  36.403  1.00  0.00    -0.493 OA
ATOM     15  C   UNL A   1      38.037  31.362  36.885  1.00  0.00     0.278 C 
ENDBRANCH   9  14
BRANCH  11  16
ATOM     16  C   UNL A   1      35.192  34.530  34.278  1.00  0.00     0.141 C 
ATOM     17  N   UNL A   1      34.670  35.028  33.204  1.00  0.00    -0.180 NA
BRANCH  17  18
ATOM     18  N   UNL A   1      33.374  35.460  33.251  1.00  0.00    -0.243 N 
ATOM     19  C   UNL A   1      32.554  35.930  32.237  1.00  0.00     0.272 C 
ATOM     20  H   UNL A   1      32.958  35.433  34.143  1.00  0.00     0.194 HD
ATOM     21  O   UNL A   1      31.416  36.324  32.487  1.00  0.00    -0.267 OA
BRANCH  19  22
ATOM     22  C   UNL A   1      33.018  35.976  30.839  1.00  0.00     0.059 A 
ATOM     23  C   UNL A   1      33.504  34.863  30.152  1.00  0.00     0.017 A 
ATOM     24  C   UNL A   1      32.991  37.197  30.179  1.00  0.00     0.124 A 
ATOM     25  C   UNL A   1      34.008  35.029  28.863  1.00  0.00     0.021 A 
ATOM     26  N   UNL A   1      33.482  37.385  28.930  1.00  0.00    -0.264 NA
ATOM     27  C   UNL A   1      33.984  36.298  28.304  1.00  0.00     0.111 A 
ENDBRANCH  19  22
ENDBRANCH  17  18
ENDBRANCH  11  16
ENDBRANCH   7   8
ENDBRANCH   6   7
ENDBRANCH   3   6
ENDBRANCH   1   2
BRANCH   1  28
ATOM     28  C   UNL A   1      43.606  37.494  33.917  1.00  0.00     0.023 C 
BRANCH  28  29
ATOM     29  C   UNL A   1      43.947  37.283  32.442  1.00  0.00     0.023 C 
BRANCH  29  30
ATOM     30  C   UNL A   1      45.429  37.165  32.113  1.00  0.00     0.116 C 
BRANCH  30  31
ATOM     31  N   UNL A   1      45.809  37.892  30.913  1.00  0.00    -0.352 N 
ATOM     32  C   UNL A   1      45.896  37.452  29.616  1.00  0.00     0.251 C 
ATOM     33  H   UNL A   1      46.038  38.840  31.051  1.00  0.00     0.163 HD
ATOM     34  O   UNL A   1      46.342  38.192  28.744  1.00  0.00    -0.269 OA
BRANCH  32  35
ATOM     35  C   UNL A   1      45.489  36.073  29.275  1.00  0.00     0.039 A 
ATOM     36  C   UNL A   1      45.965  35.020  30.061  1.00  0.00     0.014 A 
ATOM     37  C   UNL A   1      44.634  35.816  28.199  1.00  0.00     0.014 A 
ATOM     38  C   UNL A   1      45.527  33.719  29.813  1.00  0.00     0.010 A 
ATOM     39  C   UNL A   1      44.139  34.529  28.002  1.00  0.00     0.010 A 
ATOM     40  C   UNL A   1      44.579  33.468  28.807  1.00  0.00    -0.014 A 
BRANCH  40  41
ATOM     41  C   UNL A   1      44.037  32.103  28.585  1.00  0.00     0.031 A 
ATOM     42  C   UNL A   1      42.727  31.698  29.205  1.00  0.00     0.074 A 
ATOM     43  C   UNL A   1      44.750  31.209  27.871  1.00  0.00     0.049 A 
ATOM     44  N   UNL A   1      42.124  30.538  29.175  1.00  0.00    -0.248 NA
ATOM     45  C   UNL A   1      42.010  32.728  29.977  1.00  0.00     0.031 C 
ATOM     46  C   UNL A   1      46.048  31.463  27.242  1.00  0.00     0.029 A 
ATOM     47  N   UNL A   1      44.482  29.899  27.557  1.00  0.00    -0.354 N 
ATOM     48  C   UNL A   1      40.967  30.693  29.929  1.00  0.00     0.074 A 
ATOM     49  C   UNL A   1      40.979  32.043  30.448  1.00  0.00     0.031 C 
ATOM     50  C   UNL A   1      46.449  30.356  26.596  1.00  0.00     0.029 A 
ATOM     51  C   UNL A   1      45.462  29.302  26.800  1.00  0.00     0.049 A 
ATOM     52  H   UNL A   1      43.665  29.432  27.846  1.00  0.00     0.167 HD
ATOM     53  C   UNL A   1      39.973  29.802  30.151  1.00  0.00     0.031 A 
ATOM     54  C   UNL A   1      45.560  28.043  26.332  1.00  0.00     0.031 A 
ATOM     55  C   UNL A   1      39.956  28.461  29.631  1.00  0.00     0.049 A 
ATOM     56  C   UNL A   1      44.457  27.062  26.627  1.00  0.00     0.074 A 
ATOM     57  C   UNL A   1      38.973  27.496  29.769  1.00  0.00     0.029 A 
ATOM     58  N   UNL A   1      40.968  27.896  28.873  1.00  0.00    -0.354 N 
ATOM     59  N   UNL A   1      43.342  27.246  27.291  1.00  0.00    -0.248 NA
ATOM     60  C   UNL A   1      44.623  25.702  26.095  1.00  0.00     0.031 C 
ATOM     61  C   UNL A   1      39.414  26.329  29.139  1.00  0.00     0.029 A 
ATOM     62  C   UNL A   1      40.643  26.588  28.554  1.00  0.00     0.049 A 
ATOM     63  H   UNL A   1      41.795  28.355  28.600  1.00  0.00     0.167 HD
ATOM     64  C   UNL A   1      42.660  26.037  27.226  1.00  0.00     0.074 A 
ATOM     65  C   UNL A   1      43.478  25.135  26.444  1.00  0.00     0.031 C 
ATOM     66  C   UNL A   1      41.462  25.704  27.766  1.00  0.00     0.031 A 
BRANCH  53  67
ATOM     67  C   UNL A   1      38.812  30.250  30.997  1.00  0.00    -0.014 A 
ATOM     68  C   UNL A   1      37.708  30.901  30.425  1.00  0.00     0.009 A 
ATOM     69  C   UNL A   1      38.799  29.971  32.372  1.00  0.00     0.009 A 
ATOM     70  C   UNL A   1      36.626  31.289  31.218  1.00  0.00     0.001 A 
ATOM     71  C   UNL A   1      37.702  30.333  33.157  1.00  0.00     0.001 A 
ATOM     72  C   UNL A   1      36.621  30.998  32.581  1.00  0.00     0.000 A 
ENDBRANCH  53  67
BRANCH  54  73
ATOM     73  C   UNL A   1      46.743  27.625  25.533  1.00  0.00    -0.014 A 
ATOM     74  C   UNL A   1      46.776  27.835  24.144  1.00  0.00     0.009 A 
ATOM     75  C   UNL A   1      47.827  26.978  26.145  1.00  0.00     0.009 A 
ATOM     76  C   UNL A   1      47.851  27.371  23.383  1.00  0.00     0.001 A 
ATOM     77  C   UNL A   1      48.916  26.544  25.384  1.00  0.00     0.001 A 
ATOM     78  C   UNL A   1      48.920  26.728  24.004  1.00  0.00     0.000 A 
ENDBRANCH  54  73
BRANCH  66  79
ATOM     79  C   UNL A   1      40.941  24.323  27.488  1.00  0.00    -0.014 A 
ATOM     80  C   UNL A   1      39.906  24.102  26.566  1.00  0.00     0.009 A 
ATOM     81  C   UNL A   1      41.524  23.220  28.133  1.00  0.00     0.009 A 
ATOM     82  C   UNL A   1      39.443  22.807  26.323  1.00  0.00     0.001 A 
ATOM     83  C   UNL A   1      41.081  21.925  27.864  1.00  0.00     0.001 A 
ATOM     84  C   UNL A   1      40.035  21.720  26.967  1.00  0.00     0.000 A 
ENDBRANCH  66  79
ENDBRANCH  40  41
ENDBRANCH  32  35
ENDBRANCH  30  31
ENDBRANCH  29  30
ENDBRANCH  28  29
ENDBRANCH   1  28
TORSDOF 17
ENDMDL
MODEL 3
REMARK VINA RESULT:      -7.6      2.917      6.330
REMARK SMILES COc1cc(/C=N/NC(=O)c2cccnc2)ccc1OCC(=O)NCCCCNC(=O)c1ccc(-c2c3nc(c(-c4ccccc4)c4ccc([nH]4)c(-c4ccccc4)c4nc(c(-c5ccccc5)c5ccc2[nH]5)C=C4)C=C3)cc1
REMARK SMILES IDX 25 1 24 2 22 3 23 4 21 6 20 7 19 8 3 9 4 10 5 11 18 12 17 13
REMARK SMILES IDX 2 14 1 15 6 16 7 17 8 18 9 19 10 21 11 22 12 23 16 24 13 25
REMARK SMILES IDX 15 26 14 27 26 28 27 29 28 30 29 31 30 32 31 34 32 35 33 36
REMARK SMILES IDX 79 37 34 38 78 39 35 40 36 41 37 42 72 43 38 44 77 45 71 46
REMARK SMILES IDX 73 47 39 48 76 49 70 50 69 51 40 53 62 54 47 55 61 56 48 57
REMARK SMILES IDX 51 58 60 59 74 60 49 61 50 62 59 64 75 65 52 66 41 67 42 68
REMARK SMILES IDX 46 69 43 70 45 71 44 72 63 73 64 74 68 75 65 76 67 77 66 78
REMARK SMILES IDX 53 79 54 80 58 81 55 82 57 83 56 84
REMARK H PARENT 24 5 8 20 29 33 73 52 51 63
REMARK Flexibility Score: inf
ROOT
ATOM      1  C   UNL A   1      34.810  32.335  31.892  1.00  0.00     0.116 C 
ENDROOT
BRANCH   1   2
ATOM      2  N   UNL A   1      34.025  33.545  31.777  1.00  0.00    -0.353 N 
ATOM      3  C   UNL A   1      33.942  34.405  30.718  1.00  0.00     0.257 C 
ATOM      4  O   UNL A   1      33.028  35.232  30.727  1.00  0.00    -0.271 OA
ATOM      5  H   UNL A   1      33.478  33.778  32.562  1.00  0.00     0.163 HD
BRANCH   3   6
ATOM      6  C   UNL A   1      34.918  34.274  29.541  1.00  0.00     0.329 C 
BRANCH   6   7
ATOM      7  O   UNL A   1      34.849  33.102  28.748  1.00  0.00    -0.480 OA
BRANCH   7   8
ATOM      8  C   UNL A   1      35.940  32.285  28.643  1.00  0.00     0.161 A 
ATOM      9  C   UNL A   1      36.052  31.070  27.952  1.00  0.00     0.161 A 
ATOM     10  C   UNL A   1      37.248  30.339  28.014  1.00  0.00     0.060 A 
ATOM     11  C   UNL A   1      38.341  30.842  28.723  1.00  0.00    -0.002 A 
ATOM     12  C   UNL A   1      37.043  32.760  29.368  1.00  0.00     0.051 A 
ATOM     13  C   UNL A   1      38.249  32.061  29.391  1.00  0.00     0.014 A 
BRANCH   9  14
ATOM     14  O   UNL A   1      34.959  30.530  27.332  1.00  0.00    -0.493 OA
ATOM     15  C   UNL A   1      34.958  29.101  27.345  1.00  0.00     0.278 C 
ENDBRANCH   9  14
BRANCH  11  16
ATOM     16  C   UNL A   1      39.582  30.063  28.875  1.00  0.00     0.141 C 
ATOM     17  N   UNL A   1      39.580  28.909  29.461  1.00  0.00    -0.180 NA
BRANCH  17  18
ATOM     18  N   UNL A   1      40.781  28.310  29.719  1.00  0.00    -0.243 N 
ATOM     19  C   UNL A   1      41.300  27.115  29.244  1.00  0.00     0.272 C 
ATOM     20  H   UNL A   1      41.368  28.802  30.337  1.00  0.00     0.194 HD
ATOM     21  O   UNL A   1      42.394  26.712  29.635  1.00  0.00    -0.267 OA
BRANCH  19  22
ATOM     22  C   UNL A   1      40.561  26.295  28.268  1.00  0.00     0.059 A 
ATOM     23  C   UNL A   1      39.507  25.449  28.615  1.00  0.00     0.017 A 
ATOM     24  C   UNL A   1      40.950  26.350  26.936  1.00  0.00     0.124 A 
ATOM     25  C   UNL A   1      38.935  24.641  27.634  1.00  0.00     0.021 A 
ATOM     26  N   UNL A   1      40.415  25.571  25.966  1.00  0.00    -0.264 NA
ATOM     27  C   UNL A   1      39.424  24.730  26.338  1.00  0.00     0.111 A 
ENDBRANCH  19  22
ENDBRANCH  17  18
ENDBRANCH  11  16
ENDBRANCH   7   8
ENDBRANCH   6   7
ENDBRANCH   3   6
ENDBRANCH   1   2
BRANCH   1  28
ATOM     28  C   UNL A   1      35.783  32.365  33.069  1.00  0.00     0.023 C 
BRANCH  28  29
ATOM     29  C   UNL A   1      35.971  33.723  33.745  1.00  0.00     0.023 C 
BRANCH  29  30
ATOM     30  C   UNL A   1      37.228  33.876  34.591  1.00  0.00     0.116 C 
BRANCH  30  31
ATOM     31  N   UNL A   1      37.272  32.963  35.722  1.00  0.00    -0.352 N 
ATOM     32  C   UNL A   1      38.052  31.850  35.915  1.00  0.00     0.251 C 
ATOM     33  H   UNL A   1      36.651  33.174  36.457  1.00  0.00     0.163 HD
ATOM     34  O   UNL A   1      37.870  31.136  36.897  1.00  0.00    -0.269 OA
BRANCH  32  35
ATOM     35  C   UNL A   1      39.083  31.488  34.921  1.00  0.00     0.039 A 
ATOM     36  C   UNL A   1      40.394  31.925  35.127  1.00  0.00     0.014 A 
ATOM     37  C   UNL A   1      38.768  30.711  33.802  1.00  0.00     0.014 A 
ATOM     38  C   UNL A   1      41.403  31.525  34.249  1.00  0.00     0.010 A 
ATOM     39  C   UNL A   1      39.788  30.250  32.973  1.00  0.00     0.010 A 
ATOM     40  C   UNL A   1      41.115  30.651  33.188  1.00  0.00    -0.014 A 
BRANCH  40  41
ATOM     41  C   UNL A   1      42.190  30.146  32.295  1.00  0.00     0.031 A 
ATOM     42  C   UNL A   1      42.589  30.928  31.073  1.00  0.00     0.074 A 
ATOM     43  C   UNL A   1      42.770  28.957  32.555  1.00  0.00     0.049 A 
ATOM     44  N   UNL A   1      43.459  30.622  30.146  1.00  0.00    -0.248 NA
ATOM     45  C   UNL A   1      41.905  32.214  30.854  1.00  0.00     0.031 C 
ATOM     46  C   UNL A   1      42.454  28.085  33.688  1.00  0.00     0.029 A 
ATOM     47  N   UNL A   1      43.748  28.274  31.875  1.00  0.00    -0.354 N 
ATOM     48  C   UNL A   1      43.421  31.667  29.231  1.00  0.00     0.074 A 
ATOM     49  C   UNL A   1      42.404  32.589  29.686  1.00  0.00     0.031 C 
ATOM     50  C   UNL A   1      43.241  26.999  33.641  1.00  0.00     0.029 A 
ATOM     51  C   UNL A   1      44.085  27.073  32.453  1.00  0.00     0.049 A 
ATOM     52  H   UNL A   1      44.169  28.611  31.051  1.00  0.00     0.167 HD
ATOM     53  C   UNL A   1      44.178  31.855  28.125  1.00  0.00     0.031 A 
ATOM     54  C   UNL A   1      44.967  26.132  32.065  1.00  0.00     0.031 A 
ATOM     55  C   UNL A   1      45.194  30.942  27.675  1.00  0.00     0.049 A 
ATOM     56  C   UNL A   1      45.768  26.351  30.810  1.00  0.00     0.074 A 
ATOM     57  C   UNL A   1      46.042  31.065  26.586  1.00  0.00     0.029 A 
ATOM     58  N   UNL A   1      45.501  29.738  28.287  1.00  0.00    -0.354 N 
ATOM     59  N   UNL A   1      45.761  27.375  29.991  1.00  0.00    -0.248 NA
ATOM     60  C   UNL A   1      46.710  25.287  30.434  1.00  0.00     0.031 C 
ATOM     61  C   UNL A   1      46.825  29.911  26.510  1.00  0.00     0.029 A 
ATOM     62  C   UNL A   1      46.510  29.099  27.587  1.00  0.00     0.049 A 
ATOM     63  H   UNL A   1      45.067  29.389  29.099  1.00  0.00     0.167 HD
ATOM     64  C   UNL A   1      46.719  27.093  29.025  1.00  0.00     0.074 A 
ATOM     65  C   UNL A   1      47.299  25.812  29.370  1.00  0.00     0.031 C 
ATOM     66  C   UNL A   1      47.086  27.829  27.948  1.00  0.00     0.031 A 
BRANCH  53  67
ATOM     67  C   UNL A   1      43.937  33.103  27.320  1.00  0.00    -0.014 A 
ATOM     68  C   UNL A   1      43.782  33.047  25.926  1.00  0.00     0.009 A 
ATOM     69  C   UNL A   1      43.810  34.341  27.968  1.00  0.00     0.009 A 
ATOM     70  C   UNL A   1      43.534  34.210  25.194  1.00  0.00     0.001 A 
ATOM     71  C   UNL A   1      43.532  35.498  27.238  1.00  0.00     0.001 A 
ATOM     72  C   UNL A   1      43.402  35.433  25.851  1.00  0.00     0.000 A 
ENDBRANCH  53  67
BRANCH  54  73
ATOM     73  C   UNL A   1      45.149  24.892  32.866  1.00  0.00    -0.014 A 
ATOM     74  C   UNL A   1      44.295  23.792  32.684  1.00  0.00     0.009 A 
ATOM     75  C   UNL A   1      46.153  24.814  33.844  1.00  0.00     0.009 A 
ATOM     76  C   UNL A   1      44.416  22.659  33.490  1.00  0.00     0.001 A 
ATOM     77  C   UNL A   1      46.293  23.665  34.627  1.00  0.00     0.001 A 
ATOM     78  C   UNL A   1      45.416  22.596  34.460  1.00  0.00     0.000 A 
ENDBRANCH  54  73
BRANCH  66  79
ATOM     79  C   UNL A   1      48.199  27.292  27.093  1.00  0.00    -0.014 A 
ATOM     80  C   UNL A   1      49.545  27.553  27.394  1.00  0.00     0.009 A 
ATOM     81  C   UNL A   1      47.893  26.479  25.989  1.00  0.00     0.009 A 
ATOM     82  C   UNL A   1      50.560  27.038  26.585  1.00  0.00     0.001 A 
ATOM     83  C   UNL A   1      48.912  25.941  25.202  1.00  0.00     0.001 A 
ATOM     84  C   UNL A   1      50.243  26.228  25.494  1.00  0.00     0.000 A 
ENDBRANCH  66  79
ENDBRANCH  40  41
ENDBRANCH  32  35
ENDBRANCH  30  31
ENDBRANCH  29  30
ENDBRANCH  28  29
ENDBRANCH   1  28
TORSDOF 17
ENDMDL
