MODEL 1
REMARK VINA RESULT:     -10.6      0.000      0.000
REMARK SMILES C[C@@H](C(=O)NCCCCNC(=O)c1ccc(-c2c3nc(c(-c4ccccc4)c4ccc([nH]4)c(-c4ccccc4)c4nc(c(-c5ccccc5)c5ccc2[nH]5)C=C4)C=C3)cc1)c1ccc(Cc2ccsc2)cc1F
REMARK SMILES IDX 7 1 6 2 5 3 3 4 4 5 2 7 1 8 61 9 62 10 72 11 63 12 71 13
REMARK SMILES IDX 73 14 64 15 65 16 66 17 67 18 70 19 68 20 69 21 8 22 9 23
REMARK SMILES IDX 10 24 11 25 12 27 13 28 14 29 60 30 15 31 59 32 16 33 17 34
REMARK SMILES IDX 18 35 53 36 19 37 58 38 52 39 54 40 20 41 57 42 51 43 50 44
REMARK SMILES IDX 21 46 43 47 28 48 42 49 29 50 32 51 41 52 55 53 30 54 31 55
REMARK SMILES IDX 40 57 56 58 33 59 22 60 23 61 27 62 24 63 26 64 25 65 44 66
REMARK SMILES IDX 45 67 49 68 46 69 48 70 47 71 34 72 35 73 39 74 36 75 38 76
REMARK SMILES IDX 37 77
REMARK H PARENT 5 6 10 26 54 45 32 56
REMARK Flexibility Score: inf
ROOT
ATOM      1  C   UNL A   1      37.109  20.934  24.553  1.00  0.00     0.023 C 
ENDROOT
BRANCH   1   2
ATOM      2  C   UNL A   1      36.018  21.148  25.604  1.00  0.00     0.116 C 
BRANCH   2   3
ATOM      3  N   UNL A   1      34.713  21.250  24.988  1.00  0.00    -0.356 N 
ATOM      4  C   UNL A   1      33.611  21.960  25.362  1.00  0.00     0.227 C 
ATOM      5  O   UNL A   1      32.600  21.783  24.677  1.00  0.00    -0.274 OA
ATOM      6  H   UNL A   1      34.603  20.720  24.166  1.00  0.00     0.163 HD
BRANCH   4   7
ATOM      7  C   UNL A   1      33.676  22.938  26.550  1.00  0.00     0.108 C 
ATOM      8  C   UNL A   1      32.719  22.562  27.687  1.00  0.00     0.023 C 
BRANCH   7   9
ATOM      9  C   UNL A   1      33.383  24.380  26.153  1.00  0.00    -0.000 A 
ATOM     10  C   UNL A   1      32.186  25.007  26.526  1.00  0.00     0.008 A 
ATOM     11  C   UNL A   1      34.337  25.142  25.472  1.00  0.00     0.127 A 
ATOM     12  C   UNL A   1      31.961  26.351  26.230  1.00  0.00     0.004 A 
ATOM     13  C   UNL A   1      34.112  26.484  25.159  1.00  0.00     0.043 A 
ATOM     14  F   UNL A   1      35.516  24.595  25.141  1.00  0.00    -0.207 F 
ATOM     15  C   UNL A   1      32.915  27.110  25.537  1.00  0.00    -0.041 A 
BRANCH  15  16
ATOM     16  C   UNL A   1      32.681  28.576  25.270  1.00  0.00     0.072 C 
BRANCH  16  17
ATOM     17  C   UNL A   1      31.609  28.702  24.224  1.00  0.00    -0.033 A 
ATOM     18  C   UNL A   1      31.422  27.825  23.098  1.00  0.00     0.015 A 
ATOM     19  C   UNL A   1      30.596  29.646  24.260  1.00  0.00     0.068 A 
ATOM     20  C   UNL A   1      30.321  28.149  22.337  1.00  0.00     0.065 A 
ATOM     21  S   UNL A   1      29.481  29.490  22.973  1.00  0.00    -0.152 S 
ENDBRANCH  16  17
ENDBRANCH  15  16
ENDBRANCH   7   9
ENDBRANCH   4   7
ENDBRANCH   2   3
ENDBRANCH   1   2
BRANCH   1  22
ATOM     22  C   UNL A   1      38.066  19.775  24.844  1.00  0.00     0.023 C 
BRANCH  22  23
ATOM     23  C   UNL A   1      39.058  20.023  25.971  1.00  0.00     0.116 C 
BRANCH  23  24
ATOM     24  N   UNL A   1      40.283  19.253  25.820  1.00  0.00    -0.352 N 
ATOM     25  C   UNL A   1      41.582  19.655  25.992  1.00  0.00     0.251 C 
ATOM     26  H   UNL A   1      40.162  18.313  25.558  1.00  0.00     0.163 HD
ATOM     27  O   UNL A   1      42.502  18.898  25.679  1.00  0.00    -0.269 OA
BRANCH  25  28
ATOM     28  C   UNL A   1      41.885  20.998  26.529  1.00  0.00     0.039 A 
ATOM     29  C   UNL A   1      41.809  21.201  27.909  1.00  0.00     0.014 A 
ATOM     30  C   UNL A   1      42.213  22.060  25.683  1.00  0.00     0.014 A 
ATOM     31  C   UNL A   1      42.088  22.460  28.441  1.00  0.00     0.010 A 
ATOM     32  C   UNL A   1      42.576  23.291  26.221  1.00  0.00     0.010 A 
ATOM     33  C   UNL A   1      42.488  23.513  27.602  1.00  0.00    -0.014 A 
BRANCH  33  34
ATOM     34  C   UNL A   1      42.756  24.865  28.152  1.00  0.00     0.031 A 
ATOM     35  C   UNL A   1      44.161  25.260  28.526  1.00  0.00     0.074 A 
ATOM     36  C   UNL A   1      41.740  25.729  28.339  1.00  0.00     0.049 A 
ATOM     37  N   UNL A   1      44.600  26.396  29.009  1.00  0.00    -0.248 NA
ATOM     38  C   UNL A   1      45.207  24.237  28.360  1.00  0.00     0.031 C 
ATOM     39  C   UNL A   1      40.330  25.457  28.054  1.00  0.00     0.029 A 
ATOM     40  N   UNL A   1      41.741  27.019  28.808  1.00  0.00    -0.354 N 
ATOM     41  C   UNL A   1      45.961  26.214  29.221  1.00  0.00     0.074 A 
ATOM     42  C   UNL A   1      46.266  24.845  28.873  1.00  0.00     0.031 C 
ATOM     43  C   UNL A   1      39.608  26.560  28.313  1.00  0.00     0.029 A 
ATOM     44  C   UNL A   1      40.498  27.603  28.814  1.00  0.00     0.049 A 
ATOM     45  H   UNL A   1      42.556  27.482  29.111  1.00  0.00     0.167 HD
ATOM     46  C   UNL A   1      46.882  27.111  29.646  1.00  0.00     0.031 A 
ATOM     47  C   UNL A   1      40.120  28.844  29.173  1.00  0.00     0.031 A 
ATOM     48  C   UNL A   1      46.584  28.478  29.977  1.00  0.00     0.049 A 
ATOM     49  C   UNL A   1      41.162  29.823  29.639  1.00  0.00     0.074 A 
ATOM     50  C   UNL A   1      47.454  29.483  30.359  1.00  0.00     0.029 A 
ATOM     51  N   UNL A   1      45.313  29.031  29.965  1.00  0.00    -0.354 N 
ATOM     52  N   UNL A   1      42.458  29.659  29.762  1.00  0.00    -0.248 NA
ATOM     53  C   UNL A   1      40.689  31.168  29.995  1.00  0.00     0.031 C 
ATOM     54  C   UNL A   1      46.703  30.631  30.632  1.00  0.00     0.029 A 
ATOM     55  C   UNL A   1      45.372  30.358  30.354  1.00  0.00     0.049 A 
ATOM     56  H   UNL A   1      44.489  28.550  29.718  1.00  0.00     0.167 HD
ATOM     57  C   UNL A   1      42.959  30.890  30.167  1.00  0.00     0.074 A 
ATOM     58  C   UNL A   1      41.829  31.792  30.257  1.00  0.00     0.031 C 
ATOM     59  C   UNL A   1      44.239  31.244  30.433  1.00  0.00     0.031 A 
BRANCH  46  60
ATOM     60  C   UNL A   1      48.303  26.631  29.785  1.00  0.00    -0.014 A 
ATOM     61  C   UNL A   1      48.770  26.062  30.982  1.00  0.00     0.009 A 
ATOM     62  C   UNL A   1      49.181  26.730  28.695  1.00  0.00     0.009 A 
ATOM     63  C   UNL A   1      50.098  25.645  31.097  1.00  0.00     0.001 A 
ATOM     64  C   UNL A   1      50.498  26.281  28.802  1.00  0.00     0.001 A 
ATOM     65  C   UNL A   1      50.959  25.750  30.006  1.00  0.00     0.000 A 
ENDBRANCH  46  60
BRANCH  47  66
ATOM     66  C   UNL A   1      38.694  29.252  29.067  1.00  0.00    -0.014 A 
ATOM     67  C   UNL A   1      37.830  29.110  30.164  1.00  0.00     0.009 A 
ATOM     68  C   UNL A   1      38.185  29.770  27.866  1.00  0.00     0.009 A 
ATOM     69  C   UNL A   1      36.479  29.444  30.050  1.00  0.00     0.001 A 
ATOM     70  C   UNL A   1      36.840  30.134  27.765  1.00  0.00     0.001 A 
ATOM     71  C   UNL A   1      35.985  29.959  28.853  1.00  0.00     0.000 A 
ENDBRANCH  47  66
BRANCH  59  72
ATOM     72  C   UNL A   1      44.495  32.683  30.788  1.00  0.00    -0.014 A 
ATOM     73  C   UNL A   1      44.485  33.128  32.119  1.00  0.00     0.009 A 
ATOM     74  C   UNL A   1      44.775  33.604  29.766  1.00  0.00     0.009 A 
ATOM     75  C   UNL A   1      44.703  34.475  32.415  1.00  0.00     0.001 A 
ATOM     76  C   UNL A   1      45.028  34.943  30.068  1.00  0.00     0.001 A 
ATOM     77  C   UNL A   1      44.979  35.380  31.390  1.00  0.00     0.000 A 
ENDBRANCH  59  72
ENDBRANCH  33  34
ENDBRANCH  25  28
ENDBRANCH  23  24
ENDBRANCH  22  23
ENDBRANCH   1  22
TORSDOF 14
ENDMDL
MODEL 2
REMARK VINA RESULT:     -10.5      5.022     10.444
REMARK SMILES C[C@@H](C(=O)NCCCCNC(=O)c1ccc(-c2c3nc(c(-c4ccccc4)c4ccc([nH]4)c(-c4ccccc4)c4nc(c(-c5ccccc5)c5ccc2[nH]5)C=C4)C=C3)cc1)c1ccc(Cc2ccsc2)cc1F
REMARK SMILES IDX 7 1 6 2 5 3 3 4 4 5 2 7 1 8 61 9 62 10 72 11 63 12 71 13
REMARK SMILES IDX 73 14 64 15 65 16 66 17 67 18 70 19 68 20 69 21 8 22 9 23
REMARK SMILES IDX 10 24 11 25 12 27 13 28 14 29 60 30 15 31 59 32 16 33 17 34
REMARK SMILES IDX 18 35 53 36 19 37 58 38 52 39 54 40 20 41 57 42 51 43 50 44
REMARK SMILES IDX 21 46 43 47 28 48 42 49 29 50 32 51 41 52 55 53 30 54 31 55
REMARK SMILES IDX 40 57 56 58 33 59 22 60 23 61 27 62 24 63 26 64 25 65 44 66
REMARK SMILES IDX 45 67 49 68 46 69 48 70 47 71 34 72 35 73 39 74 36 75 38 76
REMARK SMILES IDX 37 77
REMARK H PARENT 5 6 10 26 54 45 32 56
REMARK Flexibility Score: inf
ROOT
ATOM      1  C   UNL A   1      33.906  35.731  29.209  1.00  0.00     0.023 C 
ENDROOT
BRANCH   1   2
ATOM      2  C   UNL A   1      33.600  34.907  30.462  1.00  0.00     0.116 C 
BRANCH   2   3
ATOM      3  N   UNL A   1      34.216  35.492  31.634  1.00  0.00    -0.356 N 
ATOM      4  C   UNL A   1      35.172  34.998  32.471  1.00  0.00     0.227 C 
ATOM      5  O   UNL A   1      35.446  35.699  33.448  1.00  0.00    -0.274 OA
ATOM      6  H   UNL A   1      33.892  36.393  31.863  1.00  0.00     0.163 HD
BRANCH   4   7
ATOM      7  C   UNL A   1      35.869  33.660  32.159  1.00  0.00     0.108 C 
ATOM      8  C   UNL A   1      36.075  32.789  33.404  1.00  0.00     0.023 C 
BRANCH   7   9
ATOM      9  C   UNL A   1      37.223  33.834  31.483  1.00  0.00    -0.000 A 
ATOM     10  C   UNL A   1      37.393  33.566  30.118  1.00  0.00     0.008 A 
ATOM     11  C   UNL A   1      38.315  34.345  32.191  1.00  0.00     0.127 A 
ATOM     12  C   UNL A   1      38.614  33.807  29.488  1.00  0.00     0.004 A 
ATOM     13  C   UNL A   1      39.545  34.574  31.571  1.00  0.00     0.043 A 
ATOM     14  F   UNL A   1      38.181  34.662  33.487  1.00  0.00    -0.207 F 
ATOM     15  C   UNL A   1      39.711  34.308  30.204  1.00  0.00    -0.041 A 
BRANCH  15  16
ATOM     16  C   UNL A   1      41.010  34.613  29.500  1.00  0.00     0.072 C 
BRANCH  16  17
ATOM     17  C   UNL A   1      42.075  33.710  30.057  1.00  0.00    -0.033 A 
ATOM     18  C   UNL A   1      42.148  32.283  29.878  1.00  0.00     0.015 A 
ATOM     19  C   UNL A   1      43.186  34.155  30.753  1.00  0.00     0.068 A 
ATOM     20  C   UNL A   1      43.266  31.723  30.452  1.00  0.00     0.065 A 
ATOM     21  S   UNL A   1      44.259  32.897  31.190  1.00  0.00    -0.152 S 
ENDBRANCH  16  17
ENDBRANCH  15  16
ENDBRANCH   7   9
ENDBRANCH   4   7
ENDBRANCH   2   3
ENDBRANCH   1   2
BRANCH   1  22
ATOM     22  C   UNL A   1      34.272  34.907  27.971  1.00  0.00     0.023 C 
BRANCH  22  23
ATOM     23  C   UNL A   1      34.865  33.535  28.259  1.00  0.00     0.116 C 
BRANCH  23  24
ATOM     24  N   UNL A   1      33.976  32.449  27.878  1.00  0.00    -0.352 N 
ATOM     25  C   UNL A   1      34.232  31.104  27.816  1.00  0.00     0.251 C 
ATOM     26  H   UNL A   1      33.062  32.717  27.632  1.00  0.00     0.163 HD
ATOM     27  O   UNL A   1      33.392  30.344  27.332  1.00  0.00    -0.269 OA
BRANCH  25  28
ATOM     28  C   UNL A   1      35.518  30.565  28.305  1.00  0.00     0.039 A 
ATOM     29  C   UNL A   1      35.531  29.846  29.503  1.00  0.00     0.014 A 
ATOM     30  C   UNL A   1      36.709  30.786  27.609  1.00  0.00     0.014 A 
ATOM     31  C   UNL A   1      36.733  29.328  29.987  1.00  0.00     0.010 A 
ATOM     32  C   UNL A   1      37.891  30.196  28.047  1.00  0.00     0.010 A 
ATOM     33  C   UNL A   1      37.922  29.487  29.256  1.00  0.00    -0.014 A 
BRANCH  33  34
ATOM     34  C   UNL A   1      39.211  28.969  29.776  1.00  0.00     0.031 A 
ATOM     35  C   UNL A   1      39.816  29.568  31.019  1.00  0.00     0.074 A 
ATOM     36  C   UNL A   1      39.852  27.980  29.123  1.00  0.00     0.049 A 
ATOM     37  N   UNL A   1      40.925  29.246  31.636  1.00  0.00    -0.248 NA
ATOM     38  C   UNL A   1      39.094  30.693  31.635  1.00  0.00     0.031 C 
ATOM     39  C   UNL A   1      39.393  27.341  27.888  1.00  0.00     0.029 A 
ATOM     40  N   UNL A   1      41.026  27.334  29.414  1.00  0.00    -0.354 N 
ATOM     41  C   UNL A   1      41.041  30.139  32.694  1.00  0.00     0.074 A 
ATOM     42  C   UNL A   1      39.924  31.052  32.603  1.00  0.00     0.031 C 
ATOM     43  C   UNL A   1      40.253  26.366  27.552  1.00  0.00     0.029 A 
ATOM     44  C   UNL A   1      41.339  26.334  28.526  1.00  0.00     0.049 A 
ATOM     45  H   UNL A   1      41.591  27.564  30.188  1.00  0.00     0.167 HD
ATOM     46  C   UNL A   1      41.978  30.184  33.671  1.00  0.00     0.031 A 
ATOM     47  C   UNL A   1      42.380  25.481  28.506  1.00  0.00     0.031 A 
ATOM     48  C   UNL A   1      43.080  29.266  33.773  1.00  0.00     0.049 A 
ATOM     49  C   UNL A   1      43.407  25.549  29.602  1.00  0.00     0.074 A 
ATOM     50  C   UNL A   1      44.050  29.188  34.757  1.00  0.00     0.029 A 
ATOM     51  N   UNL A   1      43.358  28.266  32.855  1.00  0.00    -0.354 N 
ATOM     52  N   UNL A   1      43.460  26.350  30.639  1.00  0.00    -0.248 NA
ATOM     53  C   UNL A   1      44.507  24.576  29.536  1.00  0.00     0.031 C 
ATOM     54  C   UNL A   1      44.947  28.175  34.405  1.00  0.00     0.029 A 
ATOM     55  C   UNL A   1      44.497  27.578  33.238  1.00  0.00     0.049 A 
ATOM     56  H   UNL A   1      42.825  28.073  32.049  1.00  0.00     0.167 HD
ATOM     57  C   UNL A   1      44.573  25.950  31.370  1.00  0.00     0.074 A 
ATOM     58  C   UNL A   1      45.156  24.829  30.663  1.00  0.00     0.031 C 
ATOM     59  C   UNL A   1      45.062  26.460  32.526  1.00  0.00     0.031 A 
BRANCH  46  60
ATOM     60  C   UNL A   1      41.851  31.273  34.702  1.00  0.00    -0.014 A 
ATOM     61  C   UNL A   1      42.403  32.548  34.492  1.00  0.00     0.009 A 
ATOM     62  C   UNL A   1      41.150  31.027  35.892  1.00  0.00     0.009 A 
ATOM     63  C   UNL A   1      42.294  33.538  35.473  1.00  0.00     0.001 A 
ATOM     64  C   UNL A   1      41.014  32.028  36.856  1.00  0.00     0.001 A 
ATOM     65  C   UNL A   1      41.596  33.278  36.651  1.00  0.00     0.000 A 
ENDBRANCH  46  60
BRANCH  47  66
ATOM     66  C   UNL A   1      42.487  24.457  27.433  1.00  0.00    -0.014 A 
ATOM     67  C   UNL A   1      43.172  24.742  26.241  1.00  0.00     0.009 A 
ATOM     68  C   UNL A   1      41.894  23.194  27.587  1.00  0.00     0.009 A 
ATOM     69  C   UNL A   1      43.229  23.800  25.213  1.00  0.00     0.001 A 
ATOM     70  C   UNL A   1      41.980  22.242  26.569  1.00  0.00     0.001 A 
ATOM     71  C   UNL A   1      42.637  22.549  25.378  1.00  0.00     0.000 A 
ENDBRANCH  47  66
BRANCH  59  72
ATOM     72  C   UNL A   1      46.255  25.772  33.131  1.00  0.00    -0.014 A 
ATOM     73  C   UNL A   1      46.113  24.718  34.047  1.00  0.00     0.009 A 
ATOM     74  C   UNL A   1      47.546  26.175  32.754  1.00  0.00     0.009 A 
ATOM     75  C   UNL A   1      47.240  24.115  34.609  1.00  0.00     0.001 A 
ATOM     76  C   UNL A   1      48.670  25.546  33.290  1.00  0.00     0.001 A 
ATOM     77  C   UNL A   1      48.517  24.526  34.226  1.00  0.00     0.000 A 
ENDBRANCH  59  72
ENDBRANCH  33  34
ENDBRANCH  25  28
ENDBRANCH  23  24
ENDBRANCH  22  23
ENDBRANCH   1  22
TORSDOF 14
ENDMDL
MODEL 3
REMARK VINA RESULT:     -10.5      0.550      6.085
REMARK SMILES C[C@@H](C(=O)NCCCCNC(=O)c1ccc(-c2c3nc(c(-c4ccccc4)c4ccc([nH]4)c(-c4ccccc4)c4nc(c(-c5ccccc5)c5ccc2[nH]5)C=C4)C=C3)cc1)c1ccc(Cc2ccsc2)cc1F
REMARK SMILES IDX 7 1 6 2 5 3 3 4 4 5 2 7 1 8 61 9 62 10 72 11 63 12 71 13
REMARK SMILES IDX 73 14 64 15 65 16 66 17 67 18 70 19 68 20 69 21 8 22 9 23
REMARK SMILES IDX 10 24 11 25 12 27 13 28 14 29 60 30 15 31 59 32 16 33 17 34
REMARK SMILES IDX 18 35 53 36 19 37 58 38 52 39 54 40 20 41 57 42 51 43 50 44
REMARK SMILES IDX 21 46 43 47 28 48 42 49 29 50 32 51 41 52 55 53 30 54 31 55
REMARK SMILES IDX 40 57 56 58 33 59 22 60 23 61 27 62 24 63 26 64 25 65 44 66
REMARK SMILES IDX 45 67 49 68 46 69 48 70 47 71 34 72 35 73 39 74 36 75 38 76
REMARK SMILES IDX 37 77
REMARK H PARENT 5 6 10 26 54 45 32 56
REMARK Flexibility Score: inf
ROOT
ATOM      1  C   UNL A   1      37.218  21.071  24.600  1.00  0.00     0.023 C 
ENDROOT
BRANCH   1   2
ATOM      2  C   UNL A   1      36.027  21.103  25.560  1.00  0.00     0.116 C 
BRANCH   2   3
ATOM      3  N   UNL A   1      34.789  21.338  24.847  1.00  0.00    -0.356 N 
ATOM      4  C   UNL A   1      33.701  22.086  25.187  1.00  0.00     0.227 C 
ATOM      5  O   UNL A   1      32.747  22.031  24.407  1.00  0.00    -0.274 OA
ATOM      6  H   UNL A   1      34.724  20.885  23.975  1.00  0.00     0.163 HD
BRANCH   4   7
ATOM      7  C   UNL A   1      33.716  22.958  26.456  1.00  0.00     0.108 C 
ATOM      8  C   UNL A   1      32.899  22.356  27.605  1.00  0.00     0.023 C 
BRANCH   7   9
ATOM      9  C   UNL A   1      33.207  24.374  26.214  1.00  0.00    -0.000 A 
ATOM     10  C   UNL A   1      31.944  24.779  26.668  1.00  0.00     0.008 A 
ATOM     11  C   UNL A   1      34.020  25.331  25.600  1.00  0.00     0.127 A 
ATOM     12  C   UNL A   1      31.519  26.098  26.516  1.00  0.00     0.004 A 
ATOM     13  C   UNL A   1      33.595  26.651  25.430  1.00  0.00     0.043 A 
ATOM     14  F   UNL A   1      35.255  24.998  25.196  1.00  0.00    -0.207 F 
ATOM     15  C   UNL A   1      32.332  27.053  25.889  1.00  0.00    -0.041 A 
BRANCH  15  16
ATOM     16  C   UNL A   1      31.882  28.489  25.778  1.00  0.00     0.072 C 
BRANCH  16  17
ATOM     17  C   UNL A   1      30.989  28.613  24.575  1.00  0.00    -0.033 A 
ATOM     18  C   UNL A   1      30.379  27.522  23.861  1.00  0.00     0.015 A 
ATOM     19  C   UNL A   1      30.565  29.820  24.044  1.00  0.00     0.068 A 
ATOM     20  C   UNL A   1      29.562  27.937  22.833  1.00  0.00     0.065 A 
ATOM     21  S   UNL A   1      29.492  29.638  22.724  1.00  0.00    -0.152 S 
ENDBRANCH  16  17
ENDBRANCH  15  16
ENDBRANCH   7   9
ENDBRANCH   4   7
ENDBRANCH   2   3
ENDBRANCH   1   2
BRANCH   1  22
ATOM     22  C   UNL A   1      38.180  19.897  24.805  1.00  0.00     0.023 C 
BRANCH  22  23
ATOM     23  C   UNL A   1      39.116  20.029  25.998  1.00  0.00     0.116 C 
BRANCH  23  24
ATOM     24  N   UNL A   1      40.311  19.212  25.866  1.00  0.00    -0.352 N 
ATOM     25  C   UNL A   1      41.624  19.568  26.033  1.00  0.00     0.251 C 
ATOM     26  H   UNL A   1      40.156  18.271  25.622  1.00  0.00     0.163 HD
ATOM     27  O   UNL A   1      42.516  18.770  25.738  1.00  0.00    -0.269 OA
BRANCH  25  28
ATOM     28  C   UNL A   1      41.976  20.909  26.544  1.00  0.00     0.039 A 
ATOM     29  C   UNL A   1      42.295  21.913  25.628  1.00  0.00     0.014 A 
ATOM     30  C   UNL A   1      42.022  21.173  27.916  1.00  0.00     0.014 A 
ATOM     31  C   UNL A   1      42.632  23.188  26.086  1.00  0.00     0.010 A 
ATOM     32  C   UNL A   1      42.273  22.465  28.367  1.00  0.00     0.010 A 
ATOM     33  C   UNL A   1      42.611  23.478  27.460  1.00  0.00    -0.014 A 
BRANCH  33  34
ATOM     34  C   UNL A   1      42.999  24.820  27.960  1.00  0.00     0.031 A 
ATOM     35  C   UNL A   1      41.941  25.858  28.226  1.00  0.00     0.074 A 
ATOM     36  C   UNL A   1      44.299  25.115  28.154  1.00  0.00     0.049 A 
ATOM     37  N   UNL A   1      42.077  27.081  28.676  1.00  0.00    -0.248 NA
ATOM     38  C   UNL A   1      40.550  25.485  27.923  1.00  0.00     0.031 C 
ATOM     39  C   UNL A   1      45.423  24.213  27.897  1.00  0.00     0.029 A 
ATOM     40  N   UNL A   1      44.893  26.262  28.619  1.00  0.00    -0.354 N 
ATOM     41  C   UNL A   1      40.798  27.623  28.689  1.00  0.00     0.074 A 
ATOM     42  C   UNL A   1      39.907  26.622  28.147  1.00  0.00     0.031 C 
ATOM     43  C   UNL A   1      46.566  24.824  28.250  1.00  0.00     0.029 A 
ATOM     44  C   UNL A   1      46.259  26.170  28.723  1.00  0.00     0.049 A 
ATOM     45  H   UNL A   1      44.387  27.073  28.858  1.00  0.00     0.167 HD
ATOM     46  C   UNL A   1      40.393  28.836  29.132  1.00  0.00     0.031 A 
ATOM     47  C   UNL A   1      47.162  27.067  29.160  1.00  0.00     0.031 A 
ATOM     48  C   UNL A   1      41.274  29.827  29.687  1.00  0.00     0.049 A 
ATOM     49  C   UNL A   1      46.687  28.407  29.650  1.00  0.00     0.074 A 
ATOM     50  C   UNL A   1      40.956  31.064  30.221  1.00  0.00     0.029 A 
ATOM     51  N   UNL A   1      42.650  29.693  29.779  1.00  0.00    -0.354 N 
ATOM     52  N   UNL A   1      45.465  28.876  29.728  1.00  0.00    -0.248 NA
ATOM     53  C   UNL A   1      47.720  29.334  30.136  1.00  0.00     0.031 C 
ATOM     54  C   UNL A   1      42.147  31.701  30.585  1.00  0.00     0.029 A 
ATOM     55  C   UNL A   1      43.200  30.833  30.341  1.00  0.00     0.049 A 
ATOM     56  H   UNL A   1      43.163  28.904  29.486  1.00  0.00     0.167 HD
ATOM     57  C   UNL A   1      45.577  30.134  30.309  1.00  0.00     0.074 A 
ATOM     58  C   UNL A   1      46.985  30.347  30.574  1.00  0.00     0.031 C 
ATOM     59  C   UNL A   1      44.602  31.028  30.604  1.00  0.00     0.031 A 
BRANCH  46  60
ATOM     60  C   UNL A   1      38.926  29.158  29.024  1.00  0.00    -0.014 A 
ATOM     61  C   UNL A   1      38.369  29.644  27.829  1.00  0.00     0.009 A 
ATOM     62  C   UNL A   1      38.084  28.953  30.127  1.00  0.00     0.009 A 
ATOM     63  C   UNL A   1      37.010  29.959  27.757  1.00  0.00     0.001 A 
ATOM     64  C   UNL A   1      36.720  29.236  30.042  1.00  0.00     0.001 A 
ATOM     65  C   UNL A   1      36.186  29.750  28.862  1.00  0.00     0.000 A 
ENDBRANCH  46  60
BRANCH  47  66
ATOM     66  C   UNL A   1      48.607  26.718  29.198  1.00  0.00    -0.014 A 
ATOM     67  C   UNL A   1      49.438  27.008  28.105  1.00  0.00     0.009 A 
ATOM     68  C   UNL A   1      49.160  26.079  30.318  1.00  0.00     0.009 A 
ATOM     69  C   UNL A   1      50.783  26.634  28.117  1.00  0.00     0.001 A 
ATOM     70  C   UNL A   1      50.514  25.735  30.341  1.00  0.00     0.001 A 
ATOM     71  C   UNL A   1      51.322  26.002  29.236  1.00  0.00     0.000 A 
ENDBRANCH  47  66
BRANCH  59  72
ATOM     72  C   UNL A   1      45.018  32.293  31.302  1.00  0.00    -0.014 A 
ATOM     73  C   UNL A   1      45.371  33.448  30.588  1.00  0.00     0.009 A 
ATOM     74  C   UNL A   1      45.033  32.331  32.706  1.00  0.00     0.009 A 
ATOM     75  C   UNL A   1      45.775  34.601  31.265  1.00  0.00     0.001 A 
ATOM     76  C   UNL A   1      45.403  33.495  33.380  1.00  0.00     0.001 A 
ATOM     77  C   UNL A   1      45.786  34.624  32.660  1.00  0.00     0.000 A 
ENDBRANCH  59  72
ENDBRANCH  33  34
ENDBRANCH  25  28
ENDBRANCH  23  24
ENDBRANCH  22  23
ENDBRANCH   1  22
TORSDOF 14
ENDMDL
