MODEL 1
REMARK VINA RESULT:     -10.0      0.000      0.000
REMARK SMILES CC[C@@H](C)C[C@@H](C)[NH2+]Cc1ccc(C(=O)NCCCCNC(=O)c2ccc(-c3c4nc(c(-c5ccccc5)c5ccc([nH]5)c(-c5ccccc5)c5nc(c(-c6ccccc6)c6ccc3[nH]6)C=C5)C=C4)cc2)cn1
REMARK SMILES IDX 14 1 15 2 16 3 13 5 10 6 11 7 73 8 12 9 72 10 9 11 8 12 6 15
REMARK SMILES IDX 7 16 5 17 3 18 4 19 2 20 1 21 17 22 18 23 19 24 20 25 21 26
REMARK SMILES IDX 22 27 23 29 24 30 25 31 71 32 26 33 70 34 27 35 28 36 29 37
REMARK SMILES IDX 64 38 30 39 69 40 63 41 65 42 31 43 68 44 62 45 61 46 32 48
REMARK SMILES IDX 54 49 39 50 53 51 40 52 43 53 52 54 66 55 41 56 42 57 51 59
REMARK SMILES IDX 67 60 44 61 33 62 34 63 38 64 35 65 37 66 36 67 55 68 56 69
REMARK SMILES IDX 60 70 57 71 59 72 58 73 45 74 46 75 50 76 47 77 49 78 48 79
REMARK H PARENT 16 4 8 13 8 14 21 28 65 47 43 58
REMARK Flexibility Score: inf
ROOT
ATOM      1  C   UNL A   1      30.374  28.801  22.760  1.00  0.00     0.252 C 
ATOM      2  O   UNL A   1      29.813  29.260  21.766  1.00  0.00    -0.269 OA
ATOM      3  N   UNL A   1      30.837  29.682  23.702  1.00  0.00    -0.352 N 
ATOM      4  H   UNL A   1      30.739  30.630  23.457  1.00  0.00     0.163 HD
ENDROOT
BRANCH   1   5
ATOM      5  C   UNL A   1      30.508  27.333  22.893  1.00  0.00     0.058 A 
ATOM      6  C   UNL A   1      31.168  24.664  23.126  1.00  0.00     0.094 A 
ATOM      7  C   UNL A   1      30.206  25.195  23.980  1.00  0.00     0.030 A 
ATOM      8  N   UNL A   1      31.733  25.386  22.123  1.00  0.00    -0.255 NA
ATOM      9  C   UNL A   1      29.906  26.554  23.881  1.00  0.00     0.017 A 
ATOM     10  C   UNL A   1      31.397  26.697  22.035  1.00  0.00     0.125 A 
BRANCH   6  11
ATOM     11  C   UNL A   1      31.805  23.325  23.446  1.00  0.00     0.318 C 
BRANCH  11  12
ATOM     12  N   UNL A   1      31.286  22.729  24.690  1.00  0.00    -0.339 N 
ATOM     13  H   UNL A   1      30.646  23.400  25.113  1.00  0.00     0.346 HD
ATOM     14  H   UNL A   1      30.847  21.852  24.411  1.00  0.00     0.346 HD
BRANCH  12  15
ATOM     15  C   UNL A   1      32.295  22.365  25.704  1.00  0.00     0.179 C 
ATOM     16  C   UNL A   1      32.119  23.069  27.055  1.00  0.00     0.075 C 
BRANCH  15  17
ATOM     17  C   UNL A   1      33.674  22.707  25.084  1.00  0.00     0.068 C 
BRANCH  17  18
ATOM     18  C   UNL A   1      34.543  23.728  25.859  1.00  0.00    -0.009 C 
ATOM     19  C   UNL A   1      34.771  24.966  24.983  1.00  0.00     0.008 C 
BRANCH  18  20
ATOM     20  C   UNL A   1      35.876  23.119  26.337  1.00  0.00    -0.000 C 
ATOM     21  C   UNL A   1      37.094  23.767  25.690  1.00  0.00     0.004 C 
ENDBRANCH  18  20
ENDBRANCH  17  18
ENDBRANCH  15  17
ENDBRANCH  12  15
ENDBRANCH  11  12
ENDBRANCH   6  11
ENDBRANCH   1   5
BRANCH   3  22
ATOM     22  C   UNL A   1      31.445  29.453  24.995  1.00  0.00     0.116 C 
BRANCH  22  23
ATOM     23  C   UNL A   1      32.970  29.450  24.882  1.00  0.00     0.023 C 
BRANCH  23  24
ATOM     24  C   UNL A   1      33.663  28.431  25.791  1.00  0.00     0.023 C 
BRANCH  24  25
ATOM     25  C   UNL A   1      33.503  28.693  27.285  1.00  0.00     0.116 C 
BRANCH  25  26
ATOM     26  N   UNL A   1      33.499  30.107  27.625  1.00  0.00    -0.352 N 
ATOM     27  C   UNL A   1      34.514  30.852  28.178  1.00  0.00     0.251 C 
ATOM     28  H   UNL A   1      32.664  30.592  27.435  1.00  0.00     0.163 HD
ATOM     29  O   UNL A   1      34.330  32.015  28.503  1.00  0.00    -0.269 OA
BRANCH  27  30
ATOM     30  C   UNL A   1      35.820  30.207  28.417  1.00  0.00     0.039 A 
ATOM     31  C   UNL A   1      36.759  30.192  27.384  1.00  0.00     0.014 A 
ATOM     32  C   UNL A   1      36.128  29.666  29.667  1.00  0.00     0.014 A 
ATOM     33  C   UNL A   1      38.038  29.691  27.627  1.00  0.00     0.010 A 
ATOM     34  C   UNL A   1      37.422  29.228  29.926  1.00  0.00     0.010 A 
ATOM     35  C   UNL A   1      38.388  29.238  28.909  1.00  0.00    -0.014 A 
BRANCH  35  36
ATOM     36  C   UNL A   1      39.764  28.778  29.209  1.00  0.00     0.031 A 
ATOM     37  C   UNL A   1      40.730  29.694  29.905  1.00  0.00     0.074 A 
ATOM     38  C   UNL A   1      40.165  27.562  28.791  1.00  0.00     0.049 A 
ATOM     39  N   UNL A   1      41.989  29.495  30.200  1.00  0.00    -0.248 NA
ATOM     40  C   UNL A   1      40.222  31.019  30.299  1.00  0.00     0.031 C 
ATOM     41  C   UNL A   1      39.334  26.597  28.065  1.00  0.00     0.029 A 
ATOM     42  N   UNL A   1      41.377  26.932  28.911  1.00  0.00    -0.354 N 
ATOM     43  C   UNL A   1      42.427  30.671  30.794  1.00  0.00     0.074 A 
ATOM     44  C   UNL A   1      41.314  31.595  30.777  1.00  0.00     0.031 C 
ATOM     45  C   UNL A   1      40.055  25.489  27.829  1.00  0.00     0.029 A 
ATOM     46  C   UNL A   1      41.404  25.678  28.353  1.00  0.00     0.049 A 
ATOM     47  H   UNL A   1      42.155  27.341  29.355  1.00  0.00     0.167 HD
ATOM     48  C   UNL A   1      43.642  30.951  31.323  1.00  0.00     0.031 A 
ATOM     49  C   UNL A   1      42.403  24.781  28.270  1.00  0.00     0.031 A 
ATOM     50  C   UNL A   1      44.742  30.028  31.354  1.00  0.00     0.049 A 
ATOM     51  C   UNL A   1      43.742  25.116  28.866  1.00  0.00     0.074 A 
ATOM     52  C   UNL A   1      45.992  30.195  31.925  1.00  0.00     0.029 A 
ATOM     53  N   UNL A   1      44.724  28.761  30.792  1.00  0.00    -0.354 N 
ATOM     54  N   UNL A   1      44.118  26.208  29.487  1.00  0.00    -0.248 NA
ATOM     55  C   UNL A   1      44.789  24.090  28.757  1.00  0.00     0.031 C 
ATOM     56  C   UNL A   1      46.746  29.044  31.668  1.00  0.00     0.029 A 
ATOM     57  C   UNL A   1      45.948  28.143  30.982  1.00  0.00     0.049 A 
ATOM     58  H   UNL A   1      43.955  28.361  30.326  1.00  0.00     0.167 HD
ATOM     59  C   UNL A   1      45.436  25.989  29.868  1.00  0.00     0.074 A 
ATOM     60  C   UNL A   1      45.788  24.657  29.419  1.00  0.00     0.031 C 
ATOM     61  C   UNL A   1      46.279  26.817  30.531  1.00  0.00     0.031 A 
BRANCH  48  62
ATOM     62  C   UNL A   1      43.839  32.322  31.906  1.00  0.00    -0.014 A 
ATOM     63  C   UNL A   1      43.654  32.561  33.277  1.00  0.00     0.009 A 
ATOM     64  C   UNL A   1      44.244  33.381  31.080  1.00  0.00     0.009 A 
ATOM     65  C   UNL A   1      43.833  33.843  33.802  1.00  0.00     0.001 A 
ATOM     66  C   UNL A   1      44.448  34.656  31.611  1.00  0.00     0.001 A 
ATOM     67  C   UNL A   1      44.234  34.887  32.970  1.00  0.00     0.000 A 
ENDBRANCH  48  62
BRANCH  49  68
ATOM     68  C   UNL A   1      42.173  23.465  27.619  1.00  0.00    -0.014 A 
ATOM     69  C   UNL A   1      41.617  22.402  28.347  1.00  0.00     0.009 A 
ATOM     70  C   UNL A   1      42.511  23.264  26.273  1.00  0.00     0.009 A 
ATOM     71  C   UNL A   1      41.430  21.155  27.746  1.00  0.00     0.001 A 
ATOM     72  C   UNL A   1      42.298  22.023  25.667  1.00  0.00     0.001 A 
ATOM     73  C   UNL A   1      41.768  20.968  26.406  1.00  0.00     0.000 A 
ENDBRANCH  49  68
BRANCH  61  74
ATOM     74  C   UNL A   1      47.652  26.293  30.840  1.00  0.00    -0.014 A 
ATOM     75  C   UNL A   1      47.951  25.726  32.088  1.00  0.00     0.009 A 
ATOM     76  C   UNL A   1      48.647  26.330  29.851  1.00  0.00     0.009 A 
ATOM     77  C   UNL A   1      49.231  25.236  32.350  1.00  0.00     0.001 A 
ATOM     78  C   UNL A   1      49.919  25.815  30.107  1.00  0.00     0.001 A 
ATOM     79  C   UNL A   1      50.211  25.276  31.359  1.00  0.00     0.000 A 
ENDBRANCH  61  74
ENDBRANCH  35  36
ENDBRANCH  27  30
ENDBRANCH  25  26
ENDBRANCH  24  25
ENDBRANCH  23  24
ENDBRANCH  22  23
ENDBRANCH   3  22
TORSDOF 17
ENDMDL
MODEL 2
REMARK VINA RESULT:      -9.6      2.921      4.332
REMARK SMILES CC[C@@H](C)C[C@@H](C)[NH2+]Cc1ccc(C(=O)NCCCCNC(=O)c2ccc(-c3c4nc(c(-c5ccccc5)c5ccc([nH]5)c(-c5ccccc5)c5nc(c(-c6ccccc6)c6ccc3[nH]6)C=C5)C=C4)cc2)cn1
REMARK SMILES IDX 14 1 15 2 16 3 13 5 10 6 11 7 73 8 12 9 72 10 9 11 8 12 6 15
REMARK SMILES IDX 7 16 5 17 3 18 4 19 2 20 1 21 17 22 18 23 19 24 20 25 21 26
REMARK SMILES IDX 22 27 23 29 24 30 25 31 71 32 26 33 70 34 27 35 28 36 29 37
REMARK SMILES IDX 64 38 30 39 69 40 63 41 65 42 31 43 68 44 62 45 61 46 32 48
REMARK SMILES IDX 54 49 39 50 53 51 40 52 43 53 52 54 66 55 41 56 42 57 51 59
REMARK SMILES IDX 67 60 44 61 33 62 34 63 38 64 35 65 37 66 36 67 55 68 56 69
REMARK SMILES IDX 60 70 57 71 59 72 58 73 45 74 46 75 50 76 47 77 49 78 48 79
REMARK H PARENT 16 4 8 13 8 14 21 28 65 47 43 58
REMARK Flexibility Score: inf
ROOT
ATOM      1  C   UNL A   1      30.541  29.278  23.655  1.00  0.00     0.252 C 
ATOM      2  O   UNL A   1      29.808  29.891  22.880  1.00  0.00    -0.269 OA
ATOM      3  N   UNL A   1      31.363  30.005  24.475  1.00  0.00    -0.352 N 
ATOM      4  H   UNL A   1      31.342  30.977  24.316  1.00  0.00     0.163 HD
ENDROOT
BRANCH   1   5
ATOM      5  C   UNL A   1      30.490  27.799  23.670  1.00  0.00     0.058 A 
ATOM      6  C   UNL A   1      30.789  25.058  23.565  1.00  0.00     0.094 A 
ATOM      7  C   UNL A   1      30.203  25.627  24.692  1.00  0.00     0.030 A 
ATOM      8  N   UNL A   1      31.140  25.791  22.475  1.00  0.00    -0.255 NA
ATOM      9  C   UNL A   1      30.091  27.016  24.753  1.00  0.00     0.017 A 
ATOM     10  C   UNL A   1      30.990  27.136  22.556  1.00  0.00     0.125 A 
BRANCH   6  11
ATOM     11  C   UNL A   1      31.287  23.626  23.614  1.00  0.00     0.318 C 
BRANCH  11  12
ATOM     12  N   UNL A   1      32.372  23.433  24.592  1.00  0.00    -0.339 N 
ATOM     13  H   UNL A   1      32.121  23.941  25.440  1.00  0.00     0.346 HD
ATOM     14  H   UNL A   1      32.453  22.424  24.718  1.00  0.00     0.346 HD
BRANCH  12  15
ATOM     15  C   UNL A   1      33.712  23.890  24.171  1.00  0.00     0.179 C 
ATOM     16  C   UNL A   1      34.042  23.616  22.698  1.00  0.00     0.075 C 
BRANCH  15  17
ATOM     17  C   UNL A   1      34.724  23.173  25.100  1.00  0.00     0.068 C 
BRANCH  17  18
ATOM     18  C   UNL A   1      35.573  22.048  24.458  1.00  0.00    -0.009 C 
ATOM     19  C   UNL A   1      35.109  20.692  25.001  1.00  0.00     0.008 C 
BRANCH  18  20
ATOM     20  C   UNL A   1      37.084  22.258  24.673  1.00  0.00    -0.000 C 
ATOM     21  C   UNL A   1      37.396  23.360  25.679  1.00  0.00     0.004 C 
ENDBRANCH  18  20
ENDBRANCH  17  18
ENDBRANCH  15  17
ENDBRANCH  12  15
ENDBRANCH  11  12
ENDBRANCH   6  11
ENDBRANCH   1   5
BRANCH   3  22
ATOM     22  C   UNL A   1      32.254  29.588  25.536  1.00  0.00     0.116 C 
BRANCH  22  23
ATOM     23  C   UNL A   1      31.808  30.171  26.877  1.00  0.00     0.023 C 
BRANCH  23  24
ATOM     24  C   UNL A   1      31.535  31.678  26.845  1.00  0.00     0.023 C 
BRANCH  24  25
ATOM     25  C   UNL A   1      32.748  32.554  27.139  1.00  0.00     0.116 C 
BRANCH  25  26
ATOM     26  N   UNL A   1      32.398  33.903  27.554  1.00  0.00    -0.352 N 
ATOM     27  C   UNL A   1      32.999  34.680  28.516  1.00  0.00     0.251 C 
ATOM     28  H   UNL A   1      31.634  34.312  27.087  1.00  0.00     0.163 HD
ATOM     29  O   UNL A   1      32.529  35.764  28.827  1.00  0.00    -0.269 OA
BRANCH  27  30
ATOM     30  C   UNL A   1      34.198  34.161  29.203  1.00  0.00     0.039 A 
ATOM     31  C   UNL A   1      34.028  33.326  30.309  1.00  0.00     0.014 A 
ATOM     32  C   UNL A   1      35.476  34.459  28.725  1.00  0.00     0.014 A 
ATOM     33  C   UNL A   1      35.144  32.733  30.898  1.00  0.00     0.010 A 
ATOM     34  C   UNL A   1      36.581  33.816  29.272  1.00  0.00     0.010 A 
ATOM     35  C   UNL A   1      36.424  32.946  30.361  1.00  0.00    -0.014 A 
BRANCH  35  36
ATOM     36  C   UNL A   1      37.613  32.262  30.922  1.00  0.00     0.031 A 
ATOM     37  C   UNL A   1      38.272  32.793  32.163  1.00  0.00     0.074 A 
ATOM     38  C   UNL A   1      38.139  31.204  30.274  1.00  0.00     0.049 A 
ATOM     39  N   UNL A   1      39.352  32.369  32.769  1.00  0.00    -0.248 NA
ATOM     40  C   UNL A   1      37.653  33.972  32.790  1.00  0.00     0.031 C 
ATOM     41  C   UNL A   1      37.616  30.622  29.036  1.00  0.00     0.029 A 
ATOM     42  N   UNL A   1      39.237  30.436  30.565  1.00  0.00    -0.354 N 
ATOM     43  C   UNL A   1      39.551  33.238  33.834  1.00  0.00     0.074 A 
ATOM     44  C   UNL A   1      38.509  34.238  33.765  1.00  0.00     0.031 C 
ATOM     45  C   UNL A   1      38.379  29.571  28.690  1.00  0.00     0.029 A 
ATOM     46  C   UNL A   1      39.461  29.430  29.659  1.00  0.00     0.049 A 
ATOM     47  H   UNL A   1      39.810  30.591  31.350  1.00  0.00     0.167 HD
ATOM     48  C   UNL A   1      40.505  33.195  34.794  1.00  0.00     0.031 A 
ATOM     49  C   UNL A   1      40.431  28.498  29.611  1.00  0.00     0.031 A 
ATOM     50  C   UNL A   1      41.530  32.191  34.871  1.00  0.00     0.049 A 
ATOM     51  C   UNL A   1      41.478  28.473  30.689  1.00  0.00     0.074 A 
ATOM     52  C   UNL A   1      42.503  32.025  35.841  1.00  0.00     0.029 A 
ATOM     53  N   UNL A   1      41.714  31.179  33.941  1.00  0.00    -0.354 N 
ATOM     54  N   UNL A   1      41.610  29.260  31.730  1.00  0.00    -0.248 NA
ATOM     55  C   UNL A   1      42.502  27.423  30.591  1.00  0.00     0.031 C 
ATOM     56  C   UNL A   1      43.305  30.938  35.474  1.00  0.00     0.029 A 
ATOM     57  C   UNL A   1      42.798  30.399  34.303  1.00  0.00     0.049 A 
ATOM     58  H   UNL A   1      41.156  31.039  33.142  1.00  0.00     0.167 HD
ATOM     59  C   UNL A   1      42.715  28.783  32.424  1.00  0.00     0.074 A 
ATOM     60  C   UNL A   1      43.207  27.633  31.694  1.00  0.00     0.031 C 
ATOM     61  C   UNL A   1      43.271  29.257  33.565  1.00  0.00     0.031 A 
BRANCH  48  62
ATOM     62  C   UNL A   1      40.481  34.278  35.836  1.00  0.00    -0.014 A 
ATOM     63  C   UNL A   1      41.219  35.461  35.671  1.00  0.00     0.009 A 
ATOM     64  C   UNL A   1      39.688  34.125  36.983  1.00  0.00     0.009 A 
ATOM     65  C   UNL A   1      41.193  36.453  36.654  1.00  0.00     0.001 A 
ATOM     66  C   UNL A   1      39.642  35.130  37.951  1.00  0.00     0.001 A 
ATOM     67  C   UNL A   1      40.402  36.289  37.790  1.00  0.00     0.000 A 
ENDBRANCH  48  62
BRANCH  49  68
ATOM     68  C   UNL A   1      40.447  27.493  28.517  1.00  0.00    -0.014 A 
ATOM     69  C   UNL A   1      39.777  26.270  28.669  1.00  0.00     0.009 A 
ATOM     70  C   UNL A   1      41.135  27.748  27.321  1.00  0.00     0.009 A 
ATOM     71  C   UNL A   1      39.818  25.311  27.655  1.00  0.00     0.001 A 
ATOM     72  C   UNL A   1      41.152  26.797  26.298  1.00  0.00     0.001 A 
ATOM     73  C   UNL A   1      40.502  25.576  26.469  1.00  0.00     0.000 A 
ENDBRANCH  49  68
BRANCH  61  74
ATOM     74  C   UNL A   1      44.454  28.509  34.112  1.00  0.00    -0.014 A 
ATOM     75  C   UNL A   1      44.288  27.426  34.988  1.00  0.00     0.009 A 
ATOM     76  C   UNL A   1      45.748  28.871  33.709  1.00  0.00     0.009 A 
ATOM     77  C   UNL A   1      45.401  26.739  35.476  1.00  0.00     0.001 A 
ATOM     78  C   UNL A   1      46.858  28.166  34.178  1.00  0.00     0.001 A 
ATOM     79  C   UNL A   1      46.683  27.106  35.067  1.00  0.00     0.000 A 
ENDBRANCH  61  74
ENDBRANCH  35  36
ENDBRANCH  27  30
ENDBRANCH  25  26
ENDBRANCH  24  25
ENDBRANCH  23  24
ENDBRANCH  22  23
ENDBRANCH   3  22
TORSDOF 17
ENDMDL
MODEL 3
REMARK VINA RESULT:      -9.6      2.223      6.823
REMARK SMILES CC[C@@H](C)C[C@@H](C)[NH2+]Cc1ccc(C(=O)NCCCCNC(=O)c2ccc(-c3c4nc(c(-c5ccccc5)c5ccc([nH]5)c(-c5ccccc5)c5nc(c(-c6ccccc6)c6ccc3[nH]6)C=C5)C=C4)cc2)cn1
REMARK SMILES IDX 14 1 15 2 16 3 13 5 10 6 11 7 73 8 12 9 72 10 9 11 8 12 6 15
REMARK SMILES IDX 7 16 5 17 3 18 4 19 2 20 1 21 17 22 18 23 19 24 20 25 21 26
REMARK SMILES IDX 22 27 23 29 24 30 25 31 71 32 26 33 70 34 27 35 28 36 29 37
REMARK SMILES IDX 64 38 30 39 69 40 63 41 65 42 31 43 68 44 62 45 61 46 32 48
REMARK SMILES IDX 54 49 39 50 53 51 40 52 43 53 52 54 66 55 41 56 42 57 51 59
REMARK SMILES IDX 67 60 44 61 33 62 34 63 38 64 35 65 37 66 36 67 55 68 56 69
REMARK SMILES IDX 60 70 57 71 59 72 58 73 45 74 46 75 50 76 47 77 49 78 48 79
REMARK H PARENT 16 4 8 13 8 14 21 28 65 47 43 58
REMARK Flexibility Score: inf
ROOT
ATOM      1  C   UNL A   1      30.274  28.437  23.636  1.00  0.00     0.252 C 
ATOM      2  O   UNL A   1      29.256  28.795  23.046  1.00  0.00    -0.269 OA
ATOM      3  N   UNL A   1      31.212  29.389  23.937  1.00  0.00    -0.352 N 
ATOM      4  H   UNL A   1      31.012  30.286  23.581  1.00  0.00     0.163 HD
ENDROOT
BRANCH   1   5
ATOM      5  C   UNL A   1      30.429  27.010  23.998  1.00  0.00     0.058 A 
ATOM      6  C   UNL A   1      31.110  24.393  24.546  1.00  0.00     0.094 A 
ATOM      7  C   UNL A   1      30.394  25.114  25.498  1.00  0.00     0.030 A 
ATOM      8  N   UNL A   1      31.412  24.898  23.321  1.00  0.00    -0.255 NA
ATOM      9  C   UNL A   1      30.087  26.448  25.228  1.00  0.00     0.017 A 
ATOM     10  C   UNL A   1      31.072  26.189  23.080  1.00  0.00     0.125 A 
BRANCH   6  11
ATOM     11  C   UNL A   1      31.799  23.100  24.940  1.00  0.00     0.318 C 
BRANCH  11  12
ATOM     12  N   UNL A   1      32.125  22.252  23.779  1.00  0.00    -0.339 N 
ATOM     13  H   UNL A   1      31.449  21.488  23.752  1.00  0.00     0.346 HD
ATOM     14  H   UNL A   1      32.090  22.870  22.969  1.00  0.00     0.346 HD
BRANCH  12  15
ATOM     15  C   UNL A   1      33.478  21.660  23.770  1.00  0.00     0.179 C 
ATOM     16  C   UNL A   1      33.823  20.848  25.025  1.00  0.00     0.075 C 
BRANCH  15  17
ATOM     17  C   UNL A   1      34.465  22.841  23.594  1.00  0.00     0.068 C 
BRANCH  17  18
ATOM     18  C   UNL A   1      35.402  23.140  24.791  1.00  0.00    -0.009 C 
ATOM     19  C   UNL A   1      35.094  24.539  25.336  1.00  0.00     0.008 C 
BRANCH  18  20
ATOM     20  C   UNL A   1      36.891  22.990  24.421  1.00  0.00    -0.000 C 
ATOM     21  C   UNL A   1      37.411  21.570  24.604  1.00  0.00     0.004 C 
ENDBRANCH  18  20
ENDBRANCH  17  18
ENDBRANCH  15  17
ENDBRANCH  12  15
ENDBRANCH  11  12
ENDBRANCH   6  11
ENDBRANCH   1   5
BRANCH   3  22
ATOM     22  C   UNL A   1      32.445  29.301  24.689  1.00  0.00     0.116 C 
BRANCH  22  23
ATOM     23  C   UNL A   1      32.185  29.524  26.179  1.00  0.00     0.023 C 
BRANCH  23  24
ATOM     24  C   UNL A   1      31.791  30.960  26.539  1.00  0.00     0.023 C 
BRANCH  24  25
ATOM     25  C   UNL A   1      32.920  31.809  27.112  1.00  0.00     0.116 C 
BRANCH  25  26
ATOM     26  N   UNL A   1      32.488  33.130  27.540  1.00  0.00    -0.352 N 
ATOM     27  C   UNL A   1      33.133  34.004  28.384  1.00  0.00     0.251 C 
ATOM     28  H   UNL A   1      31.625  33.437  27.181  1.00  0.00     0.163 HD
ATOM     29  O   UNL A   1      32.598  35.044  28.734  1.00  0.00    -0.269 OA
BRANCH  27  30
ATOM     30  C   UNL A   1      34.468  33.640  28.898  1.00  0.00     0.039 A 
ATOM     31  C   UNL A   1      34.553  32.909  30.085  1.00  0.00     0.014 A 
ATOM     32  C   UNL A   1      35.621  33.979  28.186  1.00  0.00     0.014 A 
ATOM     33  C   UNL A   1      35.797  32.458  30.524  1.00  0.00     0.010 A 
ATOM     34  C   UNL A   1      36.852  33.472  28.590  1.00  0.00     0.010 A 
ATOM     35  C   UNL A   1      36.950  32.706  29.761  1.00  0.00    -0.014 A 
BRANCH  35  36
ATOM     36  C   UNL A   1      38.268  32.166  30.168  1.00  0.00     0.031 A 
ATOM     37  C   UNL A   1      38.744  30.849  29.623  1.00  0.00     0.074 A 
ATOM     38  C   UNL A   1      39.004  32.828  31.082  1.00  0.00     0.049 A 
ATOM     39  N   UNL A   1      39.836  30.187  29.905  1.00  0.00    -0.248 NA
ATOM     40  C   UNL A   1      37.864  30.175  28.655  1.00  0.00     0.031 C 
ATOM     41  C   UNL A   1      38.631  34.093  31.719  1.00  0.00     0.029 A 
ATOM     42  N   UNL A   1      40.219  32.521  31.639  1.00  0.00    -0.354 N 
ATOM     43  C   UNL A   1      39.766  29.014  29.166  1.00  0.00     0.074 A 
ATOM     44  C   UNL A   1      38.504  29.033  28.459  1.00  0.00     0.031 C 
ATOM     45  C   UNL A   1      39.610  34.467  32.559  1.00  0.00     0.029 A 
ATOM     46  C   UNL A   1      40.659  33.453  32.547  1.00  0.00     0.049 A 
ATOM     47  H   UNL A   1      40.728  31.710  31.411  1.00  0.00     0.167 HD
ATOM     48  C   UNL A   1      40.678  28.017  29.069  1.00  0.00     0.031 A 
ATOM     49  C   UNL A   1      41.782  33.485  33.289  1.00  0.00     0.031 A 
ATOM     50  C   UNL A   1      41.939  28.007  29.758  1.00  0.00     0.049 A 
ATOM     51  C   UNL A   1      42.778  32.367  33.163  1.00  0.00     0.074 A 
ATOM     52  C   UNL A   1      42.958  27.074  29.676  1.00  0.00     0.029 A 
ATOM     53  N   UNL A   1      42.354  28.976  30.657  1.00  0.00    -0.354 N 
ATOM     54  N   UNL A   1      42.728  31.299  32.404  1.00  0.00    -0.248 NA
ATOM     55  C   UNL A   1      43.991  32.468  33.987  1.00  0.00     0.031 C 
ATOM     56  C   UNL A   1      43.973  27.457  30.560  1.00  0.00     0.029 A 
ATOM     57  C   UNL A   1      43.605  28.654  31.153  1.00  0.00     0.049 A 
ATOM     58  H   UNL A   1      41.835  29.776  30.905  1.00  0.00     0.167 HD
ATOM     59  C   UNL A   1      43.913  30.615  32.640  1.00  0.00     0.074 A 
ATOM     60  C   UNL A   1      44.666  31.395  33.600  1.00  0.00     0.031 C 
ATOM     61  C   UNL A   1      44.339  29.444  32.107  1.00  0.00     0.031 A 
BRANCH  48  62
ATOM     62  C   UNL A   1      40.334  26.852  28.184  1.00  0.00    -0.014 A 
ATOM     63  C   UNL A   1      40.816  26.772  26.868  1.00  0.00     0.009 A 
ATOM     64  C   UNL A   1      39.542  25.807  28.683  1.00  0.00     0.009 A 
ATOM     65  C   UNL A   1      40.480  25.687  26.056  1.00  0.00     0.001 A 
ATOM     66  C   UNL A   1      39.229  24.710  27.878  1.00  0.00     0.001 A 
ATOM     67  C   UNL A   1      39.691  24.655  26.563  1.00  0.00     0.000 A 
ENDBRANCH  48  62
BRANCH  49  68
ATOM     68  C   UNL A   1      42.039  34.629  34.201  1.00  0.00    -0.014 A 
ATOM     69  C   UNL A   1      42.698  35.775  33.732  1.00  0.00     0.009 A 
ATOM     70  C   UNL A   1      41.634  34.579  35.543  1.00  0.00     0.009 A 
ATOM     71  C   UNL A   1      42.970  36.839  34.596  1.00  0.00     0.001 A 
ATOM     72  C   UNL A   1      41.884  35.655  36.399  1.00  0.00     0.001 A 
ATOM     73  C   UNL A   1      42.560  36.779  35.928  1.00  0.00     0.000 A 
ENDBRANCH  49  68
BRANCH  61  74
ATOM     74  C   UNL A   1      45.696  28.955  32.525  1.00  0.00    -0.014 A 
ATOM     75  C   UNL A   1      45.853  28.091  33.620  1.00  0.00     0.009 A 
ATOM     76  C   UNL A   1      46.828  29.333  31.786  1.00  0.00     0.009 A 
ATOM     77  C   UNL A   1      47.123  27.641  33.985  1.00  0.00     0.001 A 
ATOM     78  C   UNL A   1      48.093  28.860  32.138  1.00  0.00     0.001 A 
ATOM     79  C   UNL A   1      48.240  28.021  33.241  1.00  0.00     0.000 A 
ENDBRANCH  61  74
ENDBRANCH  35  36
ENDBRANCH  27  30
ENDBRANCH  25  26
ENDBRANCH  24  25
ENDBRANCH  23  24
ENDBRANCH  22  23
ENDBRANCH   3  22
TORSDOF 17
ENDMDL
