MODEL 1
REMARK VINA RESULT:      -8.5      0.000      0.000
REMARK SMILES CCCCCCNC(=O)Oc1cccc(-c2ccc([C@@H](C)C(=O)NCCCCNC(=O)c3ccc(-c4c5nc(c(-c6ccccc6)c6ccc([nH]6)c(-c6ccccc6)c6nc(c(-c7ccccc7)c7ccc4[nH]7)C=C6)C=C5)cc3)cc2F)c1
REMARK SMILES IDX 20 1 21 2 19 3 16 4 17 5 81 6 18 7 80 8 82 9 15 10 11 11
REMARK SMILES IDX 12 12 83 13 13 14 14 15 10 16 8 17 7 18 9 20 6 21 5 22 4 23
REMARK SMILES IDX 3 24 2 25 1 26 22 27 23 28 24 29 25 31 26 32 27 33 28 34
REMARK SMILES IDX 29 35 30 36 31 38 32 39 33 40 79 41 34 42 78 43 35 44 36 45
REMARK SMILES IDX 37 46 72 47 38 48 77 49 71 50 73 51 39 52 76 53 70 54 69 55
REMARK SMILES IDX 40 57 62 58 47 59 61 60 48 61 51 62 60 63 74 64 49 65 50 66
REMARK SMILES IDX 59 68 75 69 52 70 41 71 42 72 46 73 43 74 45 75 44 76 63 77
REMARK SMILES IDX 64 78 68 79 65 80 67 81 66 82 53 83 54 84 58 85 55 86 57 87
REMARK SMILES IDX 56 88
REMARK H PARENT 7 19 24 30 29 37 73 56 51 67
REMARK Flexibility Score: inf
ROOT
ATOM      1  C   UNL A   1      42.158  24.879  27.689  1.00  0.00     0.105 C 
ATOM      2  C   UNL A   1      42.593  24.091  28.924  1.00  0.00     0.023 C 
ENDROOT
BRANCH   1   3
ATOM      3  C   UNL A   1      41.347  26.138  27.952  1.00  0.00    -0.033 A 
ATOM      4  C   UNL A   1      39.993  28.580  28.607  1.00  0.00     0.018 A 
ATOM      5  C   UNL A   1      40.554  28.357  27.338  1.00  0.00     0.012 A 
ATOM      6  C   UNL A   1      40.087  27.517  29.518  1.00  0.00     0.131 A 
ATOM      7  C   UNL A   1      41.180  27.150  27.004  1.00  0.00     0.005 A 
ATOM      8  C   UNL A   1      40.767  26.333  29.213  1.00  0.00     0.044 A 
ATOM      9  F   UNL A   1      39.520  27.603  30.732  1.00  0.00    -0.206 F 
BRANCH   4  10
ATOM     10  C   UNL A   1      39.365  29.881  28.942  1.00  0.00    -0.012 A 
ATOM     11  C   UNL A   1      37.561  31.503  28.721  1.00  0.00     0.133 A 
ATOM     12  C   UNL A   1      38.159  32.353  29.644  1.00  0.00     0.047 A 
ATOM     13  C   UNL A   1      38.147  30.285  28.366  1.00  0.00     0.056 A 
ATOM     14  C   UNL A   1      39.359  31.974  30.231  1.00  0.00     0.004 A 
ATOM     15  C   UNL A   1      39.956  30.760  29.874  1.00  0.00     0.009 A 
BRANCH  11  16
ATOM     16  O   UNL A   1      36.417  31.984  28.068  1.00  0.00    -0.410 OA
BRANCH  16  17
ATOM     17  C   UNL A   1      35.252  31.238  28.146  1.00  0.00     0.412 C 
ATOM     18  N   UNL A   1      34.410  31.674  29.132  1.00  0.00    -0.321 N 
ATOM     19  H   UNL A   1      33.564  31.180  29.242  1.00  0.00     0.167 HD
ATOM     20  O   UNL A   1      34.963  30.273  27.448  1.00  0.00    -0.224 OA
BRANCH  18  21
ATOM     21  C   UNL A   1      34.635  32.788  30.032  1.00  0.00     0.119 C 
BRANCH  21  22
ATOM     22  C   UNL A   1      34.798  32.329  31.481  1.00  0.00     0.021 C 
BRANCH  22  23
ATOM     23  C   UNL A   1      35.705  33.218  32.338  1.00  0.00     0.002 C 
BRANCH  23  24
ATOM     24  C   UNL A   1      36.784  32.482  33.141  1.00  0.00    -0.000 C 
BRANCH  24  25
ATOM     25  C   UNL A   1      36.890  30.978  32.878  1.00  0.00    -0.003 C 
ATOM     26  C   UNL A   1      38.171  30.362  33.418  1.00  0.00     0.004 C 
ENDBRANCH  24  25
ENDBRANCH  23  24
ENDBRANCH  22  23
ENDBRANCH  21  22
ENDBRANCH  18  21
ENDBRANCH  16  17
ENDBRANCH  11  16
ENDBRANCH   4  10
ENDBRANCH   1   3
BRANCH   1  27
ATOM     27  C   UNL A   1      41.585  24.003  26.562  1.00  0.00     0.227 C 
ATOM     28  O   UNL A   1      40.509  23.415  26.725  1.00  0.00    -0.274 OA
ATOM     29  N   UNL A   1      42.188  23.832  25.353  1.00  0.00    -0.356 N 
ATOM     30  H   UNL A   1      41.664  23.298  24.712  1.00  0.00     0.163 HD
BRANCH  29  31
ATOM     31  C   UNL A   1      43.460  24.295  24.841  1.00  0.00     0.116 C 
BRANCH  31  32
ATOM     32  C   UNL A   1      44.490  23.169  24.755  1.00  0.00     0.023 C 
BRANCH  32  33
ATOM     33  C   UNL A   1      45.248  22.887  26.051  1.00  0.00     0.023 C 
BRANCH  33  34
ATOM     34  C   UNL A   1      46.296  23.927  26.429  1.00  0.00     0.116 C 
BRANCH  34  35
ATOM     35  N   UNL A   1      46.903  24.605  25.291  1.00  0.00    -0.352 N 
ATOM     36  C   UNL A   1      46.921  25.955  25.026  1.00  0.00     0.251 C 
ATOM     37  H   UNL A   1      47.353  24.027  24.633  1.00  0.00     0.163 HD
ATOM     38  O   UNL A   1      47.411  26.386  23.988  1.00  0.00    -0.269 OA
BRANCH  36  39
ATOM     39  C   UNL A   1      46.293  26.876  25.994  1.00  0.00     0.039 A 
ATOM     40  C   UNL A   1      44.950  27.220  25.828  1.00  0.00     0.014 A 
ATOM     41  C   UNL A   1      47.009  27.328  27.104  1.00  0.00     0.014 A 
ATOM     42  C   UNL A   1      44.300  27.951  26.823  1.00  0.00     0.010 A 
ATOM     43  C   UNL A   1      46.342  27.985  28.130  1.00  0.00     0.010 A 
ATOM     44  C   UNL A   1      44.980  28.301  28.002  1.00  0.00    -0.014 A 
BRANCH  44  45
ATOM     45  C   UNL A   1      44.294  29.002  29.116  1.00  0.00     0.031 A 
ATOM     46  C   UNL A   1      43.988  30.469  28.997  1.00  0.00     0.074 A 
ATOM     47  C   UNL A   1      44.013  28.340  30.257  1.00  0.00     0.049 A 
ATOM     48  N   UNL A   1      43.485  31.283  29.890  1.00  0.00    -0.248 NA
ATOM     49  C   UNL A   1      44.317  31.113  27.714  1.00  0.00     0.031 C 
ATOM     50  C   UNL A   1      44.291  26.925  30.513  1.00  0.00     0.029 A 
ATOM     51  N   UNL A   1      43.434  28.780  31.421  1.00  0.00    -0.354 N 
ATOM     52  C   UNL A   1      43.455  32.533  29.284  1.00  0.00     0.074 A 
ATOM     53  C   UNL A   1      44.039  32.383  27.970  1.00  0.00     0.031 C 
ATOM     54  C   UNL A   1      43.857  26.608  31.744  1.00  0.00     0.029 A 
ATOM     55  C   UNL A   1      43.310  27.803  32.379  1.00  0.00     0.049 A 
ATOM     56  H   UNL A   1      43.136  29.708  31.557  1.00  0.00     0.167 HD
ATOM     57  C   UNL A   1      42.962  33.697  29.767  1.00  0.00     0.031 A 
ATOM     58  C   UNL A   1      42.817  27.864  33.630  1.00  0.00     0.031 A 
ATOM     59  C   UNL A   1      42.362  33.844  31.064  1.00  0.00     0.049 A 
ATOM     60  C   UNL A   1      42.288  29.176  34.147  1.00  0.00     0.074 A 
ATOM     61  C   UNL A   1      41.799  34.975  31.630  1.00  0.00     0.029 A 
ATOM     62  N   UNL A   1      42.242  32.826  31.995  1.00  0.00    -0.354 N 
ATOM     63  N   UNL A   1      42.221  30.336  33.541  1.00  0.00    -0.248 NA
ATOM     64  C   UNL A   1      41.758  29.181  35.517  1.00  0.00     0.031 C 
ATOM     65  C   UNL A   1      41.367  34.648  32.919  1.00  0.00     0.029 A 
ATOM     66  C   UNL A   1      41.619  33.303  33.136  1.00  0.00     0.049 A 
ATOM     67  H   UNL A   1      42.551  31.901  31.865  1.00  0.00     0.167 HD
ATOM     68  C   UNL A   1      41.610  31.198  34.442  1.00  0.00     0.074 A 
ATOM     69  C   UNL A   1      41.315  30.424  35.630  1.00  0.00     0.031 C 
ATOM     70  C   UNL A   1      41.318  32.514  34.299  1.00  0.00     0.031 A 
BRANCH  57  71
ATOM     71  C   UNL A   1      43.041  34.903  28.875  1.00  0.00    -0.014 A 
ATOM     72  C   UNL A   1      41.936  35.309  28.110  1.00  0.00     0.009 A 
ATOM     73  C   UNL A   1      44.219  35.665  28.827  1.00  0.00     0.009 A 
ATOM     74  C   UNL A   1      42.019  36.437  27.291  1.00  0.00     0.001 A 
ATOM     75  C   UNL A   1      44.289  36.808  28.029  1.00  0.00     0.001 A 
ATOM     76  C   UNL A   1      43.194  37.188  27.256  1.00  0.00     0.000 A 
ENDBRANCH  57  71
BRANCH  58  77
ATOM     77  C   UNL A   1      42.778  26.651  34.488  1.00  0.00    -0.014 A 
ATOM     78  C   UNL A   1      43.960  26.139  35.047  1.00  0.00     0.009 A 
ATOM     79  C   UNL A   1      41.571  25.976  34.724  1.00  0.00     0.009 A 
ATOM     80  C   UNL A   1      43.939  24.957  35.791  1.00  0.00     0.001 A 
ATOM     81  C   UNL A   1      41.548  24.812  35.493  1.00  0.00     0.001 A 
ATOM     82  C   UNL A   1      42.734  24.295  36.014  1.00  0.00     0.000 A 
ENDBRANCH  58  77
BRANCH  70  83
ATOM     83  C   UNL A   1      40.598  33.185  35.433  1.00  0.00    -0.014 A 
ATOM     84  C   UNL A   1      39.199  33.294  35.447  1.00  0.00     0.009 A 
ATOM     85  C   UNL A   1      41.333  33.671  36.527  1.00  0.00     0.009 A 
ATOM     86  C   UNL A   1      38.553  33.908  36.522  1.00  0.00     0.001 A 
ATOM     87  C   UNL A   1      40.681  34.259  37.611  1.00  0.00     0.001 A 
ATOM     88  C   UNL A   1      39.293  34.384  37.604  1.00  0.00     0.000 A 
ENDBRANCH  70  83
ENDBRANCH  44  45
ENDBRANCH  36  39
ENDBRANCH  34  35
ENDBRANCH  33  34
ENDBRANCH  32  33
ENDBRANCH  31  32
ENDBRANCH  29  31
ENDBRANCH   1  27
TORSDOF 20
ENDMDL
MODEL 2
REMARK VINA RESULT:      -8.4      2.056     10.641
REMARK SMILES CCCCCCNC(=O)Oc1cccc(-c2ccc([C@@H](C)C(=O)NCCCCNC(=O)c3ccc(-c4c5nc(c(-c6ccccc6)c6ccc([nH]6)c(-c6ccccc6)c6nc(c(-c7ccccc7)c7ccc4[nH]7)C=C6)C=C5)cc3)cc2F)c1
REMARK SMILES IDX 20 1 21 2 19 3 16 4 17 5 81 6 18 7 80 8 82 9 15 10 11 11
REMARK SMILES IDX 12 12 83 13 13 14 14 15 10 16 8 17 7 18 9 20 6 21 5 22 4 23
REMARK SMILES IDX 3 24 2 25 1 26 22 27 23 28 24 29 25 31 26 32 27 33 28 34
REMARK SMILES IDX 29 35 30 36 31 38 32 39 33 40 79 41 34 42 78 43 35 44 36 45
REMARK SMILES IDX 37 46 72 47 38 48 77 49 71 50 73 51 39 52 76 53 70 54 69 55
REMARK SMILES IDX 40 57 62 58 47 59 61 60 48 61 51 62 60 63 74 64 49 65 50 66
REMARK SMILES IDX 59 68 75 69 52 70 41 71 42 72 46 73 43 74 45 75 44 76 63 77
REMARK SMILES IDX 64 78 68 79 65 80 67 81 66 82 53 83 54 84 58 85 55 86 57 87
REMARK SMILES IDX 56 88
REMARK H PARENT 7 19 24 30 29 37 73 56 51 67
REMARK Flexibility Score: inf
ROOT
ATOM      1  C   UNL A   1      37.595  31.118  29.523  1.00  0.00     0.105 C 
ATOM      2  C   UNL A   1      38.128  32.498  29.135  1.00  0.00     0.023 C 
ENDROOT
BRANCH   1   3
ATOM      3  C   UNL A   1      38.570  29.961  29.377  1.00  0.00    -0.033 A 
ATOM      4  C   UNL A   1      40.235  27.661  28.970  1.00  0.00     0.018 A 
ATOM      5  C   UNL A   1      40.530  28.906  28.388  1.00  0.00     0.012 A 
ATOM      6  C   UNL A   1      39.109  27.622  29.806  1.00  0.00     0.131 A 
ATOM      7  C   UNL A   1      39.740  30.039  28.619  1.00  0.00     0.005 A 
ATOM      8  C   UNL A   1      38.279  28.734  29.989  1.00  0.00     0.044 A 
ATOM      9  F   UNL A   1      38.784  26.499  30.466  1.00  0.00    -0.206 F 
BRANCH   4  10
ATOM     10  C   UNL A   1      41.072  26.471  28.682  1.00  0.00    -0.012 A 
ATOM     11  C   UNL A   1      41.563  24.467  27.388  1.00  0.00     0.133 A 
ATOM     12  C   UNL A   1      42.723  24.232  28.118  1.00  0.00     0.047 A 
ATOM     13  C   UNL A   1      40.742  25.564  27.659  1.00  0.00     0.056 A 
ATOM     14  C   UNL A   1      43.073  25.116  29.130  1.00  0.00     0.004 A 
ATOM     15  C   UNL A   1      42.252  26.213  29.412  1.00  0.00     0.009 A 
BRANCH  11  16
ATOM     16  O   UNL A   1      41.190  23.482  26.462  1.00  0.00    -0.410 OA
BRANCH  16  17
ATOM     17  C   UNL A   1      41.812  22.246  26.529  1.00  0.00     0.412 C 
ATOM     18  N   UNL A   1      42.801  22.101  25.594  1.00  0.00    -0.321 N 
ATOM     19  H   UNL A   1      43.280  21.240  25.587  1.00  0.00     0.167 HD
ATOM     20  O   UNL A   1      41.538  21.339  27.305  1.00  0.00    -0.224 OA
BRANCH  18  21
ATOM     21  C   UNL A   1      43.215  23.085  24.614  1.00  0.00     0.119 C 
BRANCH  21  22
ATOM     22  C   UNL A   1      44.719  23.352  24.671  1.00  0.00     0.021 C 
BRANCH  22  23
ATOM     23  C   UNL A   1      45.120  24.599  25.467  1.00  0.00     0.002 C 
BRANCH  23  24
ATOM     24  C   UNL A   1      44.287  25.855  25.192  1.00  0.00    -0.000 C 
BRANCH  24  25
ATOM     25  C   UNL A   1      44.375  26.951  26.257  1.00  0.00    -0.003 C 
ATOM     26  C   UNL A   1      43.324  28.038  26.090  1.00  0.00     0.004 C 
ENDBRANCH  24  25
ENDBRANCH  23  24
ENDBRANCH  22  23
ENDBRANCH  21  22
ENDBRANCH  18  21
ENDBRANCH  16  17
ENDBRANCH  11  16
ENDBRANCH   4  10
ENDBRANCH   1   3
BRANCH   1  27
ATOM     27  C   UNL A   1      36.193  30.814  28.967  1.00  0.00     0.227 C 
ATOM     28  O   UNL A   1      36.057  29.984  28.060  1.00  0.00    -0.274 OA
ATOM     29  N   UNL A   1      35.053  31.402  29.422  1.00  0.00    -0.356 N 
ATOM     30  H   UNL A   1      34.227  31.053  29.014  1.00  0.00     0.163 HD
BRANCH  29  31
ATOM     31  C   UNL A   1      34.836  32.448  30.399  1.00  0.00     0.116 C 
BRANCH  31  32
ATOM     32  C   UNL A   1      35.269  32.023  31.803  1.00  0.00     0.023 C 
BRANCH  32  33
ATOM     33  C   UNL A   1      34.981  33.043  32.903  1.00  0.00     0.023 C 
BRANCH  33  34
ATOM     34  C   UNL A   1      36.212  33.629  33.583  1.00  0.00     0.116 C 
BRANCH  34  35
ATOM     35  N   UNL A   1      36.451  33.120  34.927  1.00  0.00    -0.352 N 
ATOM     36  C   UNL A   1      37.488  32.324  35.355  1.00  0.00     0.251 C 
ATOM     37  H   UNL A   1      35.790  33.377  35.610  1.00  0.00     0.163 HD
ATOM     38  O   UNL A   1      37.529  31.908  36.508  1.00  0.00    -0.269 OA
BRANCH  36  39
ATOM     39  C   UNL A   1      38.531  31.934  34.385  1.00  0.00     0.039 A 
ATOM     40  C   UNL A   1      39.766  32.584  34.422  1.00  0.00     0.014 A 
ATOM     41  C   UNL A   1      38.312  30.875  33.502  1.00  0.00     0.014 A 
ATOM     42  C   UNL A   1      40.813  32.114  33.627  1.00  0.00     0.010 A 
ATOM     43  C   UNL A   1      39.376  30.359  32.773  1.00  0.00     0.010 A 
ATOM     44  C   UNL A   1      40.638  30.970  32.830  1.00  0.00    -0.014 A 
BRANCH  44  45
ATOM     45  C   UNL A   1      41.755  30.395  32.041  1.00  0.00     0.031 A 
ATOM     46  C   UNL A   1      42.383  29.099  32.472  1.00  0.00     0.074 A 
ATOM     47  C   UNL A   1      42.250  31.070  30.984  1.00  0.00     0.049 A 
ATOM     48  N   UNL A   1      43.427  28.482  31.979  1.00  0.00    -0.248 NA
ATOM     49  C   UNL A   1      41.776  28.421  33.630  1.00  0.00     0.031 C 
ATOM     50  C   UNL A   1      41.755  32.354  30.484  1.00  0.00     0.029 A 
ATOM     51  N   UNL A   1      43.292  30.767  30.142  1.00  0.00    -0.354 N 
ATOM     52  C   UNL A   1      43.609  27.358  32.775  1.00  0.00     0.074 A 
ATOM     53  C   UNL A   1      42.605  27.405  33.814  1.00  0.00     0.031 C 
ATOM     54  C   UNL A   1      42.474  32.714  29.407  1.00  0.00     0.029 A 
ATOM     55  C   UNL A   1      43.505  31.710  29.166  1.00  0.00     0.049 A 
ATOM     56  H   UNL A   1      43.835  29.951  30.230  1.00  0.00     0.167 HD
ATOM     57  C   UNL A   1      44.514  26.360  32.638  1.00  0.00     0.031 A 
ATOM     58  C   UNL A   1      44.431  31.762  28.191  1.00  0.00     0.031 A 
ATOM     59  C   UNL A   1      45.499  26.301  31.594  1.00  0.00     0.049 A 
ATOM     60  C   UNL A   1      45.436  30.647  28.072  1.00  0.00     0.074 A 
ATOM     61  C   UNL A   1      46.436  25.312  31.349  1.00  0.00     0.029 A 
ATOM     62  N   UNL A   1      45.669  27.268  30.617  1.00  0.00    -0.354 N 
ATOM     63  N   UNL A   1      45.560  29.566  28.801  1.00  0.00    -0.248 NA
ATOM     64  C   UNL A   1      46.419  30.757  26.985  1.00  0.00     0.031 C 
ATOM     65  C   UNL A   1      47.197  25.698  30.241  1.00  0.00     0.029 A 
ATOM     66  C   UNL A   1      46.701  26.904  29.770  1.00  0.00     0.049 A 
ATOM     67  H   UNL A   1      45.135  28.091  30.536  1.00  0.00     0.167 HD
ATOM     68  C   UNL A   1      46.611  28.851  28.241  1.00  0.00     0.074 A 
ATOM     69  C   UNL A   1      47.079  29.615  27.104  1.00  0.00     0.031 C 
ATOM     70  C   UNL A   1      47.141  27.667  28.634  1.00  0.00     0.031 A 
BRANCH  57  71
ATOM     71  C   UNL A   1      44.467  25.244  33.642  1.00  0.00    -0.014 A 
ATOM     72  C   UNL A   1      45.069  25.382  34.903  1.00  0.00     0.009 A 
ATOM     73  C   UNL A   1      43.782  24.057  33.342  1.00  0.00     0.009 A 
ATOM     74  C   UNL A   1      45.012  24.342  35.832  1.00  0.00     0.001 A 
ATOM     75  C   UNL A   1      43.702  23.030  34.284  1.00  0.00     0.001 A 
ATOM     76  C   UNL A   1      44.324  23.169  35.523  1.00  0.00     0.000 A 
ENDBRANCH  57  71
BRANCH  58  77
ATOM     77  C   UNL A   1      44.457  32.898  27.232  1.00  0.00    -0.014 A 
ATOM     78  C   UNL A   1      45.037  34.123  27.598  1.00  0.00     0.009 A 
ATOM     79  C   UNL A   1      43.870  32.780  25.963  1.00  0.00     0.009 A 
ATOM     80  C   UNL A   1      44.995  35.216  26.729  1.00  0.00     0.001 A 
ATOM     81  C   UNL A   1      43.856  33.865  25.085  1.00  0.00     0.001 A 
ATOM     82  C   UNL A   1      44.406  35.086  25.473  1.00  0.00     0.000 A 
ENDBRANCH  58  77
BRANCH  70  83
ATOM     83  C   UNL A   1      48.250  27.099  27.795  1.00  0.00    -0.014 A 
ATOM     84  C   UNL A   1      47.982  26.320  26.660  1.00  0.00     0.009 A 
ATOM     85  C   UNL A   1      49.583  27.393  28.124  1.00  0.00     0.009 A 
ATOM     86  C   UNL A   1      49.032  25.818  25.888  1.00  0.00     0.001 A 
ATOM     87  C   UNL A   1      50.628  26.913  27.334  1.00  0.00     0.001 A 
ATOM     88  C   UNL A   1      50.352  26.119  26.222  1.00  0.00     0.000 A 
ENDBRANCH  70  83
ENDBRANCH  44  45
ENDBRANCH  36  39
ENDBRANCH  34  35
ENDBRANCH  33  34
ENDBRANCH  32  33
ENDBRANCH  31  32
ENDBRANCH  29  31
ENDBRANCH   1  27
TORSDOF 20
ENDMDL
MODEL 3
REMARK VINA RESULT:      -8.4      1.294      5.943
REMARK SMILES CCCCCCNC(=O)Oc1cccc(-c2ccc([C@@H](C)C(=O)NCCCCNC(=O)c3ccc(-c4c5nc(c(-c6ccccc6)c6ccc([nH]6)c(-c6ccccc6)c6nc(c(-c7ccccc7)c7ccc4[nH]7)C=C6)C=C5)cc3)cc2F)c1
REMARK SMILES IDX 20 1 21 2 19 3 16 4 17 5 81 6 18 7 80 8 82 9 15 10 11 11
REMARK SMILES IDX 12 12 83 13 13 14 14 15 10 16 8 17 7 18 9 20 6 21 5 22 4 23
REMARK SMILES IDX 3 24 2 25 1 26 22 27 23 28 24 29 25 31 26 32 27 33 28 34
REMARK SMILES IDX 29 35 30 36 31 38 32 39 33 40 79 41 34 42 78 43 35 44 36 45
REMARK SMILES IDX 37 46 72 47 38 48 77 49 71 50 73 51 39 52 76 53 70 54 69 55
REMARK SMILES IDX 40 57 62 58 47 59 61 60 48 61 51 62 60 63 74 64 49 65 50 66
REMARK SMILES IDX 59 68 75 69 52 70 41 71 42 72 46 73 43 74 45 75 44 76 63 77
REMARK SMILES IDX 64 78 68 79 65 80 67 81 66 82 53 83 54 84 58 85 55 86 57 87
REMARK SMILES IDX 56 88
REMARK H PARENT 7 19 24 30 29 37 73 56 51 67
REMARK Flexibility Score: inf
ROOT
ATOM      1  C   UNL A   1      42.352  24.914  27.449  1.00  0.00     0.105 C 
ATOM      2  C   UNL A   1      43.213  24.302  28.554  1.00  0.00     0.023 C 
ENDROOT
BRANCH   1   3
ATOM      3  C   UNL A   1      41.351  25.970  27.890  1.00  0.00    -0.033 A 
ATOM      4  C   UNL A   1      39.319  27.889  28.534  1.00  0.00     0.018 A 
ATOM      5  C   UNL A   1      39.602  26.796  29.370  1.00  0.00     0.012 A 
ATOM      6  C   UNL A   1      40.125  28.018  27.392  1.00  0.00     0.131 A 
ATOM      7  C   UNL A   1      40.621  25.881  29.077  1.00  0.00     0.005 A 
ATOM      8  C   UNL A   1      41.101  27.072  27.060  1.00  0.00     0.044 A 
ATOM      9  F   UNL A   1      39.983  29.067  26.567  1.00  0.00    -0.206 F 
BRANCH   4  10
ATOM     10  C   UNL A   1      38.213  28.824  28.854  1.00  0.00    -0.012 A 
ATOM     11  C   UNL A   1      36.707  29.888  30.446  1.00  0.00     0.133 A 
ATOM     12  C   UNL A   1      36.131  30.661  29.445  1.00  0.00     0.047 A 
ATOM     13  C   UNL A   1      37.730  28.979  30.166  1.00  0.00     0.056 A 
ATOM     14  C   UNL A   1      36.594  30.531  28.142  1.00  0.00     0.004 A 
ATOM     15  C   UNL A   1      37.613  29.617  27.853  1.00  0.00     0.009 A 
BRANCH  11  16
ATOM     16  O   UNL A   1      36.124  29.967  31.719  1.00  0.00    -0.410 OA
BRANCH  16  17
ATOM     17  C   UNL A   1      36.959  30.079  32.819  1.00  0.00     0.412 C 
ATOM     18  N   UNL A   1      36.827  31.280  33.462  1.00  0.00    -0.321 N 
ATOM     19  H   UNL A   1      37.398  31.424  34.252  1.00  0.00     0.167 HD
ATOM     20  O   UNL A   1      37.759  29.237  33.209  1.00  0.00    -0.224 OA
BRANCH  18  21
ATOM     21  C   UNL A   1      35.933  32.361  33.100  1.00  0.00     0.119 C 
BRANCH  21  22
ATOM     22  C   UNL A   1      36.676  33.686  32.931  1.00  0.00     0.021 C 
BRANCH  22  23
ATOM     23  C   UNL A   1      37.964  33.599  32.105  1.00  0.00     0.002 C 
BRANCH  23  24
ATOM     24  C   UNL A   1      37.838  34.022  30.637  1.00  0.00    -0.000 C 
BRANCH  24  25
ATOM     25  C   UNL A   1      38.992  33.594  29.727  1.00  0.00    -0.003 C 
ATOM     26  C   UNL A   1      39.476  32.177  29.994  1.00  0.00     0.004 C 
ENDBRANCH  24  25
ENDBRANCH  23  24
ENDBRANCH  22  23
ENDBRANCH  21  22
ENDBRANCH  18  21
ENDBRANCH  16  17
ENDBRANCH  11  16
ENDBRANCH   4  10
ENDBRANCH   1   3
BRANCH   1  27
ATOM     27  C   UNL A   1      41.764  23.880  26.473  1.00  0.00     0.227 C 
ATOM     28  O   UNL A   1      40.681  23.340  26.726  1.00  0.00    -0.274 OA
ATOM     29  N   UNL A   1      42.362  23.513  25.307  1.00  0.00    -0.356 N 
ATOM     30  H   UNL A   1      41.830  22.892  24.757  1.00  0.00     0.163 HD
BRANCH  29  31
ATOM     31  C   UNL A   1      43.640  23.872  24.728  1.00  0.00     0.116 C 
BRANCH  31  32
ATOM     32  C   UNL A   1      44.664  22.742  24.848  1.00  0.00     0.023 C 
BRANCH  32  33
ATOM     33  C   UNL A   1      45.419  22.694  26.174  1.00  0.00     0.023 C 
BRANCH  33  34
ATOM     34  C   UNL A   1      46.211  23.950  26.515  1.00  0.00     0.116 C 
BRANCH  34  35
ATOM     35  N   UNL A   1      46.858  24.578  25.372  1.00  0.00    -0.352 N 
ATOM     36  C   UNL A   1      46.946  25.921  25.085  1.00  0.00     0.251 C 
ATOM     37  H   UNL A   1      47.283  23.968  24.726  1.00  0.00     0.163 HD
ATOM     38  O   UNL A   1      47.463  26.311  24.043  1.00  0.00    -0.269 OA
BRANCH  36  39
ATOM     39  C   UNL A   1      46.358  26.888  26.033  1.00  0.00     0.039 A 
ATOM     40  C   UNL A   1      44.993  27.173  25.951  1.00  0.00     0.014 A 
ATOM     41  C   UNL A   1      47.140  27.443  27.049  1.00  0.00     0.014 A 
ATOM     42  C   UNL A   1      44.394  27.952  26.943  1.00  0.00     0.010 A 
ATOM     43  C   UNL A   1      46.528  28.150  28.077  1.00  0.00     0.010 A 
ATOM     44  C   UNL A   1      45.149  28.409  28.036  1.00  0.00    -0.014 A 
BRANCH  44  45
ATOM     45  C   UNL A   1      44.524  29.165  29.150  1.00  0.00     0.031 A 
ATOM     46  C   UNL A   1      44.130  28.448  30.410  1.00  0.00     0.074 A 
ATOM     47  C   UNL A   1      44.247  30.477  29.001  1.00  0.00     0.049 A 
ATOM     48  N   UNL A   1      43.487  28.905  31.455  1.00  0.00    -0.248 NA
ATOM     49  C   UNL A   1      44.478  27.019  30.496  1.00  0.00     0.031 C 
ATOM     50  C   UNL A   1      44.545  31.282  27.814  1.00  0.00     0.029 A 
ATOM     51  N   UNL A   1      43.641  31.362  29.858  1.00  0.00    -0.354 N 
ATOM     52  C   UNL A   1      43.340  27.820  32.309  1.00  0.00     0.074 A 
ATOM     53  C   UNL A   1      43.911  26.671  31.641  1.00  0.00     0.031 C 
ATOM     54  C   UNL A   1      44.147  32.547  28.030  1.00  0.00     0.029 A 
ATOM     55  C   UNL A   1      43.529  32.634  29.349  1.00  0.00     0.049 A 
ATOM     56  H   UNL A   1      43.317  31.109  30.752  1.00  0.00     0.167 HD
ATOM     57  C   UNL A   1      42.802  27.785  33.551  1.00  0.00     0.031 A 
ATOM     58  C   UNL A   1      42.984  33.742  29.884  1.00  0.00     0.031 A 
ATOM     59  C   UNL A   1      42.253  28.929  34.225  1.00  0.00     0.049 A 
ATOM     60  C   UNL A   1      42.380  33.672  31.261  1.00  0.00     0.074 A 
ATOM     61  C   UNL A   1      41.719  29.003  35.501  1.00  0.00     0.029 A 
ATOM     62  N   UNL A   1      42.176  30.200  33.682  1.00  0.00    -0.354 N 
ATOM     63  N   UNL A   1      42.296  32.649  32.076  1.00  0.00    -0.248 NA
ATOM     64  C   UNL A   1      41.805  34.915  31.794  1.00  0.00     0.031 C 
ATOM     65  C   UNL A   1      41.286  30.316  35.715  1.00  0.00     0.029 A 
ATOM     66  C   UNL A   1      41.595  31.067  34.592  1.00  0.00     0.049 A 
ATOM     67  H   UNL A   1      42.488  30.451  32.782  1.00  0.00     0.167 HD
ATOM     68  C   UNL A   1      41.692  33.133  33.229  1.00  0.00     0.074 A 
ATOM     69  C   UNL A   1      41.443  34.543  33.013  1.00  0.00     0.031 C 
ATOM     70  C   UNL A   1      41.372  32.469  34.366  1.00  0.00     0.031 A 
BRANCH  57  71
ATOM     71  C   UNL A   1      42.795  26.463  34.264  1.00  0.00    -0.014 A 
ATOM     72  C   UNL A   1      43.962  25.688  34.358  1.00  0.00     0.009 A 
ATOM     73  C   UNL A   1      41.622  26.005  34.883  1.00  0.00     0.009 A 
ATOM     74  C   UNL A   1      43.946  24.464  35.031  1.00  0.00     0.001 A 
ATOM     75  C   UNL A   1      41.617  24.795  35.579  1.00  0.00     0.001 A 
ATOM     76  C   UNL A   1      42.775  24.022  35.645  1.00  0.00     0.000 A 
ENDBRANCH  57  71
BRANCH  58  77
ATOM     77  C   UNL A   1      42.992  35.025  29.134  1.00  0.00    -0.014 A 
ATOM     78  C   UNL A   1      41.904  35.376  28.317  1.00  0.00     0.009 A 
ATOM     79  C   UNL A   1      44.096  35.889  29.198  1.00  0.00     0.009 A 
ATOM     80  C   UNL A   1      41.940  36.544  27.552  1.00  0.00     0.001 A 
ATOM     81  C   UNL A   1      44.116  37.071  28.455  1.00  0.00     0.001 A 
ATOM     82  C   UNL A   1      43.045  37.391  27.622  1.00  0.00     0.000 A 
ENDBRANCH  58  77
BRANCH  70  83
ATOM     83  C   UNL A   1      40.769  33.271  35.483  1.00  0.00    -0.014 A 
ATOM     84  C   UNL A   1      41.572  33.952  36.410  1.00  0.00     0.009 A 
ATOM     85  C   UNL A   1      39.372  33.383  35.576  1.00  0.00     0.009 A 
ATOM     86  C   UNL A   1      40.985  34.704  37.430  1.00  0.00     0.001 A 
ATOM     87  C   UNL A   1      38.790  34.158  36.579  1.00  0.00     0.001 A 
ATOM     88  C   UNL A   1      39.597  34.811  37.510  1.00  0.00     0.000 A 
ENDBRANCH  70  83
ENDBRANCH  44  45
ENDBRANCH  36  39
ENDBRANCH  34  35
ENDBRANCH  33  34
ENDBRANCH  32  33
ENDBRANCH  31  32
ENDBRANCH  29  31
ENDBRANCH   1  27
TORSDOF 20
ENDMDL
